Measurement: Raman, 532 nm, unoriented, Raman Data Processed
Mineral: Abelsonite
Rruff sample: R070007
Ideal chemistry: Ni^2+^C_31_H_32_N_4_
Locality: Green River Formation, Utah, USA
Source: Geophysical Laboratory, Carnegie Institution of Washington
Description: Purple platy crystals embedded in drill core
Measured chemistry: (Ni_0.92_Fe^2+^_0.05_Cr_0.02_)C_31_H_32_N_4_ ; C, H and N not measured but estimated by stoichiometry
Raman shift (cm-1)	intensity
153.557	0
156.45	48.2495
159.342	8.56201
162.235	120.918
165.128	38.585
168.02	96.1016
170.913	152.919
173.806	194.292
176.699	195.755
179.591	194.283
182.484	233.259
185.377	366.553
188.269	326.282
191.162	389.939
194.055	335.869
196.947	359.582
199.84	313.37
202.733	194.192
205.625	86.3901
208.518	84.3989
211.411	62.7437
214.304	37.1489
217.196	19.7192
220.089	7.9541
222.982	37.5264
225.874	3.70459
228.767	32.581
231.66	13.9941
234.553	45.5469
237.445	49.3364
240.338	71.1421
243.231	132.16
246.123	118.68
249.016	15.8496
251.909	89.9121
254.801	134.135
257.694	139.264
260.587	259.933
263.479	206.283
266.372	179.563
269.265	160.651
272.158	94.8125
275.05	72.7598
277.943	85.0166
280.836	56.0239
283.728	48.7295
286.621	26.7109
289.514	55.4292
292.406	147.299
295.299	171.008
298.192	195.395
301.084	228.157
303.977	202.799
306.87	270.687
309.763	401.056
312.655	413.786
315.548	434.873
318.441	489.246
321.333	549.81
324.226	626.694
327.119	596.197
330.012	734.425
332.904	859.572
335.797	1195.74
338.69	1404.07
341.582	1489.8
344.475	1469.36
347.368	1366.77
350.26	1167.81
353.153	961.971
356.046	943.106
358.938	828.011
361.831	730.415
364.724	575.806
367.617	421.847
370.509	336.901
373.402	313.492
376.295	248.648
379.187	147.178
382.08	114.922
384.973	42.001
387.865	25.4229
390.758	3.2041
393.651	14.04
396.543	16.7822
399.436	43.169
402.329	8.60254
405.222	1.27051
408.114	88.4902
411.007	14.376
413.9	14.1338
416.792	35.1641
419.685	16.9639
422.578	34.6621
425.471	36.3008
428.363	30.7305
431.256	93.9912
434.149	114.261
437.041	104.928
439.934	140.87
442.827	256.61
445.719	122.905
448.612	41.8818
451.505	88.9482
454.397	93.2481
457.29	38.3613
460.183	106.76
463.076	116.738
465.968	113.144
468.861	130.875
471.754	187.403
474.646	164.417
477.539	262.388
480.432	394.574
483.324	536.434
486.217	638.52
489.11	810.882
492.002	998.263
494.895	1057.82
497.788	968.247
500.681	813.847
503.573	626.027
506.466	548.842
509.359	418.76
512.251	385.341
515.144	314.907
518.037	212.129
520.929	293.139
523.822	267.413
526.715	219.18
529.608	121.452
532.5	81.5752
535.393	134.491
538.286	135.734
541.178	102.567
544.071	74.4551
546.964	209.145
549.856	270.543
552.749	363.19
555.642	289.271
558.534	173.203
561.427	46.6084
564.32	26.2549
567.213	13.4619
570.105	48.0273
572.998	38.2022
575.891	191.55
578.783	150.986
581.676	202.395
584.569	222.543
587.462	232.338
590.354	164.909
593.247	160.644
596.14	122.635
599.032	155.05
601.925	179.193
604.818	192.102
607.71	163.297
610.603	306.869
613.496	336.029
616.389	375.852
619.281	270.408
622.174	145.432
625.067	79.291
627.959	4.90918
630.852	72.9961
633.745	18.04
636.637	4.26172
639.53	170.873
642.423	253.012
645.316	468.385
648.208	610.894
651.101	597.898
653.994	407.981
656.886	178.239
659.779	4.20898
662.672	5.11426
665.564	7.54688
668.457	55.8672
671.35	60.4531
674.242	143.782
677.135	157.263
680.028	108.508
682.92	39.667
685.813	110.923
688.706	41.7959
691.599	176.3
694.491	311.304
697.384	626.553
700.277	907.144
703.169	960.031
706.062	1073.45
708.955	1033.66
711.847	1110.22
714.74	1247.49
717.633	1270.85
720.526	1254.97
723.418	1123.49
726.311	551.922
729.204	287.288
732.096	160.873
734.989	48.5859
737.882	68.6377
740.774	3.81445
743.667	277.93
746.56	544.383
749.453	1066.07
752.345	1636.28
755.238	2166.37
758.131	2476.9
761.023	2199.07
763.916	1330.2
766.809	701.169
769.701	332.757
772.594	401.104
775.487	497.339
778.38	828.308
781.272	978.667
784.165	709.32
787.058	611.738
789.95	583.806
792.843	710.282
795.736	836.419
798.628	920.363
801.521	906.101
804.414	588.546
807.307	279.196
810.199	251.921
813.092	312.541
815.985	454.81
818.877	790.914
821.77	1069.78
824.663	1272.43
827.555	1435.75
830.448	1232.98
833.341	836.939
836.234	670.275
839.126	327.208
842.019	160.869
844.912	381.603
847.804	430.163
850.697	215.007
853.59	81.6592
856.482	3.00879
859.375	26.3447
862.268	32.9424
865.16	72.2988
868.053	12.2617
870.946	5.2959
873.838	131.321
876.731	2.56738
879.624	4.09375
882.517	89.3838
885.409	171.068
888.302	311.259
891.195	400.14
894.087	641.312
896.98	830.637
899.873	1055.78
902.765	991.558
905.658	958.412
908.551	688.171
911.443	521.702
914.336	641.312
917.229	659.364
920.122	634.489
923.014	532.856
925.907	606.152
928.8	602.19
931.692	747.188
934.585	941.504
937.478	1031.08
940.37	1440.83
943.263	1713.01
946.156	1772.72
949.049	1750.82
951.941	1895.08
954.834	1786.13
957.727	1805.35
960.619	1652.39
963.512	1613.73
966.405	1650.59
969.298	1736.79
972.19	1688.07
975.083	1669.31
977.976	1645.15
980.868	1588.48
983.761	1473.05
986.654	1407.81
989.546	1561.47
992.439	1760.81
995.332	1804.97
998.225	1867.63
1001.12	1377.28
1004.01	988.269
1006.9	629.719
1009.79	392.385
1012.69	115.141
1015.58	54.7031
1018.47	18.9375
1021.37	45.3164
1024.26	7.66602
1027.15	110.144
1030.04	86.3223
1032.94	129.025
1035.83	177.068
1038.72	82.1992
1041.62	12.8613
1044.51	143.986
1047.4	437.592
1050.29	515.186
1053.19	702.873
1056.08	673.57
1058.97	598.891
1061.86	493.883
1064.76	351.424
1067.65	125.365
1070.54	227.279
1073.43	199.32
1076.33	392.207
1079.22	439.082
1082.11	773.172
1085.01	1045.33
1087.9	1300.56
1090.79	1443.44
1093.68	1618.45
1096.58	1783.52
1099.47	2422.45
1102.36	3147.8
1105.25	4180.11
1108.15	5778.07
1111.04	7524.65
1113.93	8878.94
1116.83	9261.27
1119.72	8469.94
1122.61	7048.89
1125.5	6082.75
1128.4	5772.93
1131.29	5894.84
1134.18	6816.04
1137.07	8040.82
1139.97	9889.1
1142.86	11632.8
1145.75	13043.2
1148.64	12924.2
1151.54	10917.8
1154.43	7948.95
1157.32	5433.18
1160.21	4306.89
1163.11	3689.47
1166	3741.43
1168.89	4125.38
1171.79	4258.59
1174.68	3725.86
1177.57	2614.39
1180.46	1727.24
1183.36	903.33
1186.25	516.568
1189.14	406.066
1192.04	122.957
1194.93	16.2129
1197.82	92.1797
1200.71	104.232
1203.61	176.6
1206.5	44.8359
1209.39	39.1348
1212.28	36.166
1215.18	399.447
1218.07	734.053
1220.96	1383.51
1223.86	2367.37
1226.75	3230.63
1229.64	4262.06
1232.53	4724.66
1235.43	4347.31
1238.32	3254.4
1241.21	1877.59
1244.1	1279.77
1247	689.57
1249.89	214.961
1252.78	63.5508
1255.67	88.4766
1258.57	338.641
1261.46	120.621
1264.35	113.144
1267.24	38.9219
