Measurement: Raman, 780 nm, unoriented, Raman Data Processed
Mineral: Abhurite
Rruff sample: R060227
Ideal chemistry: Sn^2+^_21_O_6_(OH)_14_Cl_16_
Locality: Wreck of the SS Cheerful, 14 miles NNW of St. Ives, Cornwall, England
Source: Michael Scott
Description: Aggregate of tan colored platy crystals
Measured chemistry: Sn^2+^_21.00_Cl_16.00_(OH)_14.00_O_6_; (OH) estimated by difference
Raman shift (cm-1)	intensity
91.8272	0
95.202	416.155
98.5768	572.503
101.952	3.41531
105.326	146.267
108.701	856.22
112.076	2059.13
115.451	2728.36
118.826	930.958
122.201	237.06
125.575	926.154
128.95	1420.26
132.325	1367.48
135.7	1190.42
139.075	1309.23
142.449	1632.34
145.824	1575.7
149.199	694.509
152.574	1.08545
155.949	65.984
159.323	55.5577
162.698	44.495
166.073	105.893
169.448	357.862
172.823	392.062
176.198	390.566
179.572	577.113
182.947	1028.92
186.322	1762.05
189.697	2536.76
193.072	3336.27
196.446	4321.3
199.821	5544.91
203.196	6670.91
206.571	6543.48
209.946	4582.06
213.321	2540.63
216.695	1276.24
220.07	567.275
223.445	273.892
226.82	205.585
230.195	241.399
233.569	362.109
236.944	565.552
240.319	836.419
243.694	1139.13
247.069	1465.1
250.444	1803.77
253.818	1954.39
257.193	1713.98
260.568	1200.05
263.943	736.205
267.318	407.738
270.692	214.823
274.067	87.9962
277.442	13.9786
280.817	30.6538
284.192	12.5625
287.567	0.303673
290.941	13.4425
294.316	7.12829
297.691	7.69577
301.066	2.98955
304.441	0.184506
307.815	28.8425
311.19	73.0204
314.565	107.444
317.94	164.719
321.315	214.804
324.69	272.972
328.064	331.518
331.439	385.695
334.814	428.784
338.189	464.82
341.564	494.071
344.938	528.273
348.313	559.531
351.688	609.315
355.063	654.503
358.438	659.41
361.812	640.749
365.187	588.436
368.562	514.284
371.937	422.19
375.312	332.498
378.687	265.652
382.061	196.625
385.436	143.959
388.811	103.708
392.186	60.9219
395.561	37.376
398.935	13.461
402.31	2.66658
405.685	0.749686
409.06	2.02944
412.435	2.3383
415.81	0.658204
419.184	0.950214
422.559	0.944293
425.934	3.27277
429.309	12.4464
432.684	26.4927
436.058	39.3054
439.433	58.3105
442.808	78.4339
446.183	91.8927
449.558	110.482
452.933	127.097
456.307	147.506
459.682	166.315
463.057	181.623
466.432	199.302
469.807	206.051
473.181	198.06
476.556	166.537
479.931	128.92
483.306	86.8468
486.681	52.4989
490.055	30.7112
493.43	17.1926
496.805	2.64447
500.18	0.387054
503.555	0.458773
506.93	0.555373
510.304	0.21159
513.679	3.03054
517.054	8.18318
520.429	13.88
523.804	21.4854
527.178	22.2223
530.553	23.4247
533.928	28.6136
537.303	28.0899
540.678	29.7708
544.053	34.9828
547.427	27.803
550.802	29.3854
554.177	28.6547
557.552	19.5826
560.927	19.8952
564.302	11.7996
567.676	8.59123
571.051	2.58063
574.426	3.35002
577.801	2.91716
581.176	3.25035
584.55	1.10683
587.925	0.795562
591.3	0.217635
594.675	1.0398
598.05	7.44456
601.424	1.51149
604.799	4.888
608.174	2.62678
611.549	11.1892
614.924	2.04737
618.298	1.71538
621.673	1.93649
625.048	2.28165
628.423	7.15952
631.798	3.91132
635.173	4.98299
638.547	4.24149
641.922	2.37433
645.297	4.37554
648.672	3.05175
652.047	0.399051
655.422	2.61185
658.796	0.186492
662.171	3.27125
665.546	3.63449
668.921	3.64718
672.296	5.04617
675.67	0.697919
679.045	0.115362
682.42	0.436834
685.795	0.246235
689.17	0.162879
692.544	0.861248
695.919	0.114323
699.294	1.1501
702.669	1.10492
706.044	0.665914
709.419	0.010948
712.793	0.736109
716.168	1.44849
719.543	5.01068
722.918	5.5014
726.293	0.347715
729.668	0.334266
733.042	0.030195
736.417	3.34534
739.792	1.12774
743.167	0.042061
746.542	3.105
749.916	1.21471
753.291	3.29677
756.666	2.14359
760.041	0.870779
763.416	0.193687
766.79	3.67942
770.165	1.63772
773.54	1.72158
776.915	3.39831
780.29	0.370182
783.665	2.13013
787.039	2.32497
790.414	0.933949
793.789	4.4915
797.164	2.02015
800.539	1.61035
803.913	0.045349
807.288	2.95728
810.663	3.36507
814.038	0.786072
817.413	4.10419
820.788	0.254288
824.162	5.97161
827.537	6.15015
830.912	5.64953
834.287	4.36729
837.662	3.77707
841.036	3.57229
844.411	6.57511
847.786	7.73794
851.161	1.88381
854.536	4.69009
857.91	4.73317
861.285	3.29175
864.66	3.01323
868.035	2.24609
871.41	0.822095
874.784	0.319912
878.159	0.371767
881.534	1.21511
884.909	0.848512
888.284	1.52031
891.659	0.274912
895.033	2.40423
898.408	0.205334
901.783	2.03487
905.158	1.75147
908.533	3.51136
911.908	2.39378
915.282	8.52795
918.657	6.36851
922.032	23.7424
925.407	7.15231
928.782	2.4738
932.156	0.752365
935.531	0.36549
938.906	0.054531
942.281	0.003048
945.656	8.53194
949.03	0.567255
952.405	3.40814
955.78	4.35854
959.155	10.2657
962.53	6.92219
965.905	11.16
969.279	8.47716
972.654	21.5734
976.029	25.3346
979.404	29.5861
982.779	40.4599
986.154	50.636
989.528	59.189
992.903	54.3599
996.278	50.3381
999.653	43.504
1003.03	41.8359
1006.4	27.7672
1009.78	17.6938
1013.15	10.7384
1016.53	9.75419
1019.9	4.58086
1023.28	0.743812
1026.65	0.536958
1030.03	0.291312
1033.4	0.69751
1036.78	5.78668
1040.15	0.600896
1043.53	4.57102
1046.9	3.31131
1050.28	6.36232
1053.65	5.52332
1057.03	0.134117
1060.4	4.15044
1063.77	0.208887
1067.15	1.16768
1070.52	1.90176
1073.9	4.01868
1077.27	0.531352
1080.65	8.05706
1084.02	2.54081
1087.4	0.107296
1090.77	2.67663
1094.15	2.22968
1097.52	1.15516
1100.9	0.050666
1104.27	3.41133
1107.65	1.30934
1111.02	1.44454
1114.4	4.1432
1117.77	0.709162
1121.15	1.07587
1124.52	2.44543
1127.9	3.48662
1131.27	1.9121
1134.64	0.307763
1138.02	3.03999
1141.39	4.95372
1144.77	0.244774
1148.14	2.13776
1151.52	0.055262
1154.89	0.161057
1158.27	5.52174
1161.64	2.31308
1165.02	2.33455
1168.39	2.18193
1171.77	0.24145
1175.14	0.902825
1178.52	3.83132
1181.89	1.27532
1185.27	1.67026
1188.64	4.90376
1192.02	4.15785
1195.39	2.56604
1198.77	1.46927
1202.14	0.07515
1205.52	0.645834
1208.89	6.54521
1212.27	1.84217
1215.64	1.63066
1219.02	0.18906
1222.39	3.15354
1225.77	4.05438
1229.14	0.147183
1232.52	1.65601
1235.89	9.84795
1239.27	7.16196
1242.64	3.35124
1246.01	4.21176
1249.39	2.36953
1252.76	5.68835
1256.14	0.934676
1259.51	1.14508
1262.89	1.73175
1266.26	0.305705
1269.64	2.77001
1273.01	2.07536
1276.39	0.091253
1279.76	7.84424
1283.14	1.92562
