Measurement: Raman, 532 nm, unoriented, Raman Data Processed
Mineral: Abhurite
Rruff sample: R060227
Ideal chemistry: Sn^2+^_21_O_6_(OH)_14_Cl_16_
Locality: Wreck of the SS Cheerful, 14 miles NNW of St. Ives, Cornwall, England
Source: Michael Scott
Description: Aggregate of tan colored platy crystals
Measured chemistry: Sn^2+^_21.00_Cl_16.00_(OH)_14.00_O_6_; (OH) estimated by difference
Raman shift (cm-1)	intensity
163.431	0
166.324	59.0181
169.217	249.562
172.109	332.327
175.002	206.915
177.895	51.4841
180.788	4.99551
183.68	98.6462
186.573	368.478
189.466	802.275
192.358	1398.75
195.251	1994.03
198.144	2715.3
201.036	3758.81
203.929	5163.59
206.822	6247.94
209.715	5628.17
212.607	3570.24
215.5	1857.56
218.393	924.351
221.285	424.322
224.178	140.779
227.071	15.8616
229.964	4.41596
232.856	8.16011
235.749	42.1701
238.642	201.653
241.534	454.595
244.427	724.765
247.32	1053.31
250.212	1422.65
253.105	1889.36
255.998	2211.1
258.89	2040.7
261.783	1473.55
264.676	914.529
267.568	534.145
270.461	320.593
273.354	187.621
276.247	103.359
279.139	53.6439
282.032	11.321
284.925	24.8591
287.817	13.9606
290.71	7.79099
293.603	4.06549
296.495	11.9716
299.388	1.30061
302.281	6.45742
305.174	5.70772
308.066	26.6317
310.959	60.2569
313.852	86.3261
316.744	123.283
319.637	164.259
322.53	192.842
325.423	242.718
328.315	300.777
331.208	338.453
334.101	393.744
336.993	444.371
339.886	473.466
342.779	492.291
345.671	513.742
348.564	547.76
351.457	601.174
354.349	670.656
357.242	722.331
360.135	743.813
363.028	739.334
365.92	694.275
368.813	624.472
371.706	535.007
374.598	451.069
377.491	374.872
380.384	295.141
383.276	246.275
386.169	196.216
389.062	154.878
391.955	111.075
394.847	71.1088
397.74	51.3923
400.633	32.2025
403.525	14.6141
406.418	5.56191
409.311	3.324
412.204	0.705293
415.096	3.40984
417.989	4.90843
420.882	4.83908
423.774	4.10186
426.667	0.456305
429.56	8.36766
432.452	18.4087
435.345	22.7381
438.238	34.2927
441.13	52.7437
444.023	81.9175
446.916	96.2602
449.809	113.774
452.701	138.296
455.594	156.126
458.487	181.43
461.379	202.708
464.272	237.33
467.165	268.653
470.058	295.36
472.95	303.462
475.843	297.974
478.736	257.681
481.628	201.622
484.521	153.366
487.414	94.0381
490.306	67.8878
493.199	47.2403
496.092	26.5458
498.985	2.41143
501.877	4.82094
504.77	1.84859
507.663	3.39467
510.555	2.57486
513.448	3.92091
516.341	1.72734
519.233	7.21697
522.126	16.6765
525.019	32.8312
527.912	39.262
530.804	44.1422
533.697	50.6682
536.59	48.8804
539.482	63.3896
542.375	59.5958
545.268	58.0598
548.16	33.188
551.053	43.955
553.946	36.2551
556.838	34.3786
559.731	25.8168
562.624	31.5409
565.517	22.0532
568.409	18.866
571.302	13.3125
574.195	9.31559
577.087	4.31159
579.98	5.88587
582.873	3.72641
585.765	0.286088
588.658	11.6032
591.551	1.9613
594.443	3.42786
597.336	2.87723
600.229	3.17663
603.122	1.79842
606.014	7.53556
608.907	12.14
611.8	3.74877
614.692	2.18974
617.585	0.763633
620.478	6.94341
623.37	5.04658
626.263	10.7282
629.156	3.65394
632.049	6.41946
634.941	4.85969
637.834	12.5368
640.727	13.6028
643.619	3.02635
646.512	7.16627
649.405	8.77388
652.298	17.9962
655.19	3.9005
658.083	12.4523
660.976	0.796004
663.868	7.82976
666.761	9.10096
669.654	6.65537
672.546	6.65782
675.439	7.03788
678.332	4.79254
681.225	5.00839
684.117	6.92069
687.01	0.089657
689.903	1.48617
692.795	6.44829
695.688	0.136368
698.581	6.15626
701.473	1.61817
704.366	1.89643
707.259	2.92328
710.152	1.64654
713.044	3.86584
715.937	1.71219
718.83	4.89267
721.722	3.68353
724.615	13.2207
727.508	13.5404
730.4	7.12028
733.293	3.04978
736.186	0.514782
739.079	3.05976
741.971	4.67922
744.864	4.75777
747.757	2.51626
750.649	6.31695
753.542	0.055476
756.435	2.8405
759.327	8.98717
762.22	8.28423
765.113	9.98056
768.006	2.9902
770.898	3.43647
773.791	4.44928
776.684	0.215076
779.576	3.68217
782.469	5.66343
785.362	1.46928
788.254	4.06791
791.147	4.96949
794.04	5.76682
796.933	12.8957
799.825	0.503761
802.718	10.7297
805.611	3.26575
808.503	0.749831
811.396	5.50711
814.289	0.3355
817.181	1.54854
820.074	2.2281
822.967	7.39873
825.86	1.36281
828.752	4.04097
831.645	6.75523
834.538	12.0362
837.43	18.2216
840.323	5.36301
843.216	1.0016
846.108	11.1812
849.001	1.00829
851.894	7.73311
854.787	3.17261
857.679	3.02181
860.572	4.55476
863.465	3.73177
866.357	0.416322
869.25	0.598089
872.143	1.68717
875.035	3.53178
877.928	1.65072
880.821	3.53487
883.713	4.13578
886.606	1.04876
889.499	0.415667
892.392	3.36015
895.284	4.86045
898.177	5.32948
901.07	5.74956
903.962	0.355454
906.855	2.1629
909.748	12.9438
912.64	5.24382
915.533	9.90935
918.426	11.3245
921.319	15.0762
924.211	15.8414
927.104	12.4006
929.997	15.9389
932.889	18.7126
935.782	10.9258
938.675	2.88505
941.567	4.27855
944.46	4.77881
947.353	0.333998
950.246	1.60433
953.138	0.193203
956.031	2.55878
958.924	3.52725
961.816	8.69732
964.709	12.7405
967.602	16.2274
970.495	25.9436
973.387	24.926
976.28	31.4772
979.173	40.2943
982.065	54.9266
984.958	61.1248
987.851	75.2075
990.743	88.1861
993.636	90.7481
996.529	80.628
999.421	80.9691
1002.31	64.4318
1005.21	53.3727
1008.1	46.23
1010.99	23.307
1013.88	33.0085
1016.78	12.6051
1019.67	6.70761
1022.56	6.71357
1025.46	7.20611
1028.35	4.71194
1031.24	1.29625
1034.13	0.50878
1037.03	2.59842
1039.92	1.56465
1042.81	1.03071
1045.7	6.9815
1048.6	12.7616
1051.49	7.42988
1054.38	11.0146
1057.28	4.65885
1060.17	7.17519
1063.06	4.2695
1065.95	6.95529
1068.85	1.92235
1071.74	7.88786
1074.63	0.09907
1077.52	0.814053
1080.42	0.02286
1083.31	0.416381
1086.2	2.32829
1089.1	1.46705
1091.99	0.269099
1094.88	0.549548
1097.77	2.04233
1100.67	3.83594
1103.56	3.08592
1106.45	2.84027
1109.34	5.08139
1112.24	7.19237
1115.13	0.30243
1118.02	3.22602
1120.91	4.71304
1123.81	1.25671
1126.7	4.89761
1129.59	2.52779
1132.49	6.78633
1135.38	0.92213
1138.27	2.27832
1141.16	12.5902
1144.06	7.6397
1146.95	3.76761
1149.84	10.8827
1152.73	3.22788
1155.63	8.91763
1158.52	0.498944
1161.41	0.050532
1164.31	5.11886
1167.2	15.4642
1170.09	3.78986
1172.98	2.36909
1175.88	6.17479
1178.77	2.21563
1181.66	1.88463
1184.55	0.000601
1187.45	1.58476
1190.34	3.66918
1193.23	9.36127
1196.12	0.356193
1199.02	6.12188
1201.91	11.5083
1204.8	10.4218
1207.7	9.43377
1210.59	0.870421
1213.48	2.66671
1216.37	10.3229
1219.27	3.64385
1222.16	11.8323
1225.05	14.9396
1227.94	8.04553
1230.84	0.879535
1233.73	13.1099
1236.62	4.42517
1239.52	3.23591
1242.41	11.2612
1245.3	6.68057
1248.19	0.189612
1251.09	2.67041
1253.98	0.867387
1256.87	4.5855
1259.76	7.72301
1262.66	6.75546
1265.55	3.19338
1268.44	7.27585
1271.34	13.1117
1274.23	2.95094
1277.12	10.8802
1280.01	7.4643
1282.91	0.093424
1285.8	5.36155
1288.69	7.23448
1291.58	4.61658
1294.48	8.03336
1297.37	7.62083
1300.26	1.49071
1303.15	5.43858
