Measurement: Raman, 514 nm, unoriented, Raman Data Processed
Mineral: Actinolite
Rruff sample: R050336
Ideal chemistry: Ca_2_(Mg_4.5-2.5_Fe^2+^_0.5-2.5_)_=5_Si_8_O_22_(OH)_2_
Locality: Kragerø, Norway
Source: California Institute of Technology
Description: Dark green prismatic fragment
Measured chemistry: ([box]_0.62_Na_0.34_K_0.04_)(Ca_1.60_Na_0.40_)_Σ=2_(Mg_3.90_Fe^2+^_0.70_Al_0.20_Ti_0.10_Fe^3+^_0.10_)_Σ=5_(Si_7.52_Al_0.48_)_Σ=8_O_22_((OH)_0.97_F_0.03_)_2_
Raman shift (cm-1)	intensity
101.732	0
105.908	2167.04
110.082	3203.15
114.254	4998.04
118.424	5431.16
122.592	3353.47
126.758	1193.49
130.922	732.576
135.083	128.91
139.243	704.539
143.401	88.789
147.557	12.424
151.711	84.852
155.863	332.635
160.013	740.66
164.161	1334.65
168.308	1785.64
172.452	2926.29
176.594	3938.1
180.734	3648.91
184.872	3154.68
189.008	2259.99
193.143	2063.22
197.275	1866.36
201.405	1794.03
205.534	2191.79
209.66	2085.2
213.784	2573.05
217.907	3338.15
222.027	3845.92
226.146	4131.13
230.263	3685.38
234.377	2814.36
238.49	2092.06
242.601	1309.48
246.709	1245.59
250.816	784.373
254.921	153.82
259.024	131.914
263.125	284.383
267.224	334.725
271.321	361.277
275.416	193.691
279.51	170.066
283.601	262.322
287.69	531.182
291.778	741.225
295.863	533.494
299.947	560.414
304.029	423.758
308.108	441.578
312.186	571.629
316.262	577.32
320.336	712.064
324.408	1244.85
328.478	1242.84
332.546	1672.01
336.612	1395.48
340.677	1241.15
344.739	1083.19
348.799	1038.78
352.858	1288.06
356.915	1552.53
360.969	2175.5
365.022	3537.27
369.073	4175.78
373.122	3925.02
377.169	3772.94
381.215	3862.51
385.258	4434.73
389.299	5094.57
393.339	5028.05
397.376	4152.15
401.412	2845.87
405.446	2661.22
409.478	2590.19
413.508	2530.77
417.536	2570.41
421.562	2264.11
425.586	2064.25
429.609	1620.79
433.629	1635.97
437.648	811.895
441.665	600.555
445.68	445.838
449.693	230.539
453.704	525.52
457.713	128.195
461.721	404.617
465.726	41.002
469.73	127.773
473.731	357.752
477.731	73.355
481.729	161.855
485.725	488.465
489.72	425.285
493.712	537.422
497.703	600.916
501.691	1147.8
505.678	1775.5
509.663	2156.75
513.646	2837.9
517.627	2705.55
521.607	2658.72
525.584	3092.4
529.56	3200.7
533.534	3071.61
537.506	3667.35
541.476	3370.97
545.444	3482.45
549.41	3357.64
553.375	3546.68
557.337	3373.44
561.298	3050.74
565.257	3201.59
569.214	3211.99
573.17	2466.93
577.123	1879.43
581.075	1724.51
585.024	504.531
588.972	200.984
592.918	392.064
596.863	90.414
600.805	89.43
604.746	332.857
608.685	257.938
612.621	59.232
616.557	304.334
620.49	288.25
624.421	177.986
628.351	1021.82
632.279	1309.29
636.205	1240.3
640.129	2044.44
644.051	2529.32
647.972	3684.12
651.89	4525.56
655.807	6564.56
659.722	9311.32
663.636	14073.9
667.547	20880.2
671.457	25570.4
675.365	22480.3
679.271	14885.1
683.175	10658.1
687.077	8338.26
690.978	7024.87
694.877	6716.82
698.774	6618.46
702.669	6554.71
706.562	7093.82
710.454	7347.42
714.344	7758.78
718.232	8397.06
722.118	10035.1
726.002	9912.1
729.885	10860.9
733.766	10303.7
737.645	10149.4
741.522	9251.98
745.397	9205.07
749.271	8159.65
753.143	6125.75
757.013	5532.84
760.881	4677.52
764.748	3560.2
768.613	3027.34
772.476	2887.84
776.337	2855.62
780.196	2479.55
784.054	2493.91
787.91	2249.32
791.764	2261.28
795.616	2019.09
799.467	1902.96
803.316	1518.61
807.163	1704.43
811.008	1012.38
814.851	1031.49
818.693	526.742
822.533	1287.15
826.371	792.723
830.208	761.465
834.042	23.398
837.875	330.531
841.706	582.838
845.536	70.75
849.363	465.598
853.189	377.033
857.013	74.172
860.836	75.654
864.656	266.961
868.475	365.229
872.292	354.109
876.108	242.48
879.922	503.371
883.733	635.922
887.544	685.027
891.352	921.406
895.159	1128.06
898.964	1413.95
902.767	1118.28
906.568	1369.35
910.368	1276.31
914.166	1155.11
917.962	1251.78
921.757	1491.02
925.55	1685.89
929.341	1496.97
933.13	1283.27
936.918	905.738
940.703	937.363
944.488	887.18
948.27	1216.14
952.051	1168.25
955.83	1316.5
959.607	775.871
963.383	939.398
967.156	1281.16
970.928	1196.02
974.699	1266.94
978.468	1075.94
982.234	954.648
986	1386.74
989.763	1275.21
993.525	1289.29
997.285	1587.14
1001.04	1982.74
1004.8	2149.26
1008.55	1897.58
1012.31	2445.86
1016.06	2265.59
1019.81	2339.06
1023.56	2794
1027.31	3310.57
1031.05	3233.56
1034.79	2715.32
1038.53	2827.7
1042.27	2661.94
1046.01	2873.14
1049.75	3217.8
1053.48	3493.07
1057.22	3565.8
1060.95	3263.68
1064.68	3355.53
1068.4	3354.44
1072.13	2775.21
1075.86	2386.44
1079.58	2150.96
1083.3	1756.88
1087.02	2358.07
1090.74	1999.75
1094.45	1083.88
1098.17	994.023
1101.88	2131
1105.59	1142.31
1109.3	847.473
1113.01	513.211
1116.71	728.68
1120.42	583.355
1124.12	786.855
1127.82	362.199
1131.52	517.395
1135.22	219.664
1138.91	585.262
1142.61	94.809
1146.3	885.465
1149.99	503.086
1153.68	275.922
1157.37	153.227
1161.06	186.609
1164.74	317.508
1168.42	109.48
1172.1	270.223
1175.78	52.355
1179.46	323.617
1183.14	300.621
1186.81	191.863
1190.48	107.938
1194.15	558.289
1197.83	111.273
1201.49	89.641
1205.16	509.801
1208.82	54.855
1212.49	1177.6
1216.15	609.027
1219.81	237.734
1223.46	212.484
1227.12	452.016
1230.78	501.664
1234.43	530.359
1238.08	565.5
1241.73	653.551
1245.38	180.543
1249.03	27.152
1252.67	420.547
1256.31	228.719
1259.95	665.07
1263.6	589.82
1267.23	268.535
1270.87	141.492
1274.51	308.727
1278.14	323.75
1281.77	171.164
1285.4	359.844
1289.03	388.07
1292.66	280.66
1296.28	232.043
1299.91	401.059
1303.53	46.223
1307.15	84.215
1310.77	570.508
1314.38	86.781
1318	188.363
1321.61	406.496
1325.23	166.441
1328.84	6.309
1332.45	802.051
1336.06	287.598
1339.66	215.023
1343.27	344.184
1346.87	462.754
1350.47	746.648
1354.07	928.43
1357.67	795.855
1361.26	525.379
1364.86	544.879
1368.45	507.594
1372.04	246.285
1375.63	286.441
1379.22	169.918
1382.81	94.367
1386.39	240.18
1389.98	318.035
1393.56	198.586
1397.14	308.418
1400.72	6.984
1404.3	228.844
1407.87	78.289
1411.45	6.414
1415.02	444.711
1418.59	1.871
