Measurement: Raman, 780 nm, unoriented, Raman Data Processed
Mineral: Actinolite
Rruff sample: R060045
Ideal chemistry: Ca_2_(Mg_4.5-2.5_Fe^2+^_0.5-2.5_)_=5_Si_8_O_22_(OH)_2_
Locality: Colorado, USA
Source: University of Arizona Mineral Museum
Description: Green prismatic crystals in a radial arrangement
Measured chemistry: (Ca_1.99_Na_0.01_)_Σ=2_(Mg_4.20_Fe^2+^_0.59_Al_0.09_Fe^3+^_0.08_Mn_0.02_Ti_0.01_)_Σ=5_(Si_7.82_Al_0.18_)_Σ=8_O_22_(OH)_2_
Raman shift (cm-1)	intensity
143.146	0
146.039	0.643188
148.931	1.13452
151.824	6.02225
154.717	10.3963
157.609	15.8203
160.502	11.6284
163.395	7.63303
166.287	8.75122
169.18	11.2898
172.073	15.5335
174.966	21.6039
177.858	19.8996
180.751	6.72034
183.644	1.70621
186.536	0.90921
189.429	0.46167
192.322	0.549103
195.214	1.21033
198.107	2.80563
201	4.46759
203.893	8.45511
206.785	11.2441
209.678	16.2704
212.571	19.0763
215.463	23.3409
218.356	27.156
221.249	29.8424
224.142	24.805
227.034	20.4593
229.927	14.9321
232.82	13.7408
235.712	8.14708
238.605	7.17496
241.498	4.98888
244.39	4.86278
247.283	5.94746
250.176	4.92479
253.069	2.27702
255.961	0.506027
258.854	0.942719
261.747	1.31975
264.639	0.387497
267.532	0.20282
270.425	1.09445
273.317	0.258179
276.21	0.12381
279.103	2.48012
281.995	0.940536
284.888	2.07356
287.781	1.37994
290.674	2.45427
293.566	2.47868
296.459	2.36708
299.352	3.5172
302.244	3.72131
305.137	1.61127
308.03	2.07558
310.923	1.66127
313.815	2.33688
316.708	1.35019
319.601	1.89923
322.493	2.17835
325.386	2.52388
328.279	1.75784
331.171	1.85133
334.064	2.29721
336.957	2.97173
339.849	3.73457
342.742	4.23146
345.635	4.19029
348.527	4.74824
351.42	5.03313
354.313	7.86725
357.206	7.55839
360.098	9.74825
362.991	12.0198
365.884	13.5968
368.776	16.1923
371.669	15.1766
374.562	12.162
377.454	13.1651
380.347	11.4171
383.24	13.437
386.133	16.2025
389.025	17.3202
391.918	17.4995
394.811	14.5116
397.703	9.19929
400.596	7.44186
403.489	7.35822
406.382	6.84283
409.274	7.17358
412.167	7.46733
415.06	5.20557
417.952	4.3717
420.845	2.7677
423.738	1.29941
426.63	0.427856
429.523	1.30237
432.416	1.15585
435.308	1.65845
438.201	1.55661
441.094	0.950897
443.987	0.03537
446.879	1.46931
449.772	0.643555
452.665	0.222382
455.557	0.851974
458.45	0.581223
461.343	0.168427
464.236	0.299911
467.128	0.59848
470.021	1.45494
472.914	1.25205
475.806	0.111191
478.699	1.66248
481.592	1.6262
484.484	1.28677
487.377	2.77937
490.27	2.31639
493.163	1.06516
496.055	4.7014
498.948	3.71805
501.841	4.24071
504.733	5.27579
507.626	5.70505
510.519	6.47551
513.411	7.7598
516.304	7.80548
519.197	7.74228
522.09	7.6739
524.982	8.82474
527.875	8.98706
530.768	7.69998
533.66	6.28659
536.553	4.48663
539.446	4.25191
542.338	5.35304
545.231	4.65294
548.124	4.25026
551.016	3.87183
553.909	3.96303
556.802	2.78912
559.695	3.29506
562.587	3.04217
565.48	2.72566
568.373	1.90538
571.265	1.78766
574.158	2.79858
577.051	2.35989
579.943	1.95538
582.836	0.808792
585.729	0.098312
588.621	0.250519
591.514	0.223785
594.407	0.235489
597.3	0.199051
600.192	0.48172
603.085	0.444153
605.978	0.252594
608.87	0.189133
611.763	0.686905
614.656	0.158676
617.548	0.810272
620.441	1.34747
623.334	1.54102
626.227	2.50617
629.119	2.68385
632.012	3.52002
634.905	3.56015
637.797	6.23231
640.69	6.88676
643.583	11.045
646.476	12.0815
649.368	16.0005
652.261	21.8409
655.154	31.1448
658.046	41.0673
660.939	48.5819
663.832	59.9292
666.724	72.7657
669.617	81.7126
672.51	77.8701
675.403	53.92
678.295	31.8387
681.188	18.5599
684.081	12.1883
686.973	9.08722
689.866	6.51813
692.759	4.38472
695.651	4.72838
698.544	2.31801
701.437	1.61424
704.33	1.11705
707.222	1.3862
710.115	0.45108
713.008	0.996994
715.9	0.324005
718.793	0.10231
721.686	1.58459
724.578	1.16069
727.471	2.76708
730.364	2.84395
733.256	3.44753
736.149	4.56322
739.042	5.16888
741.935	4.60379
744.827	4.28819
747.72	3.39517
750.613	4.27309
753.505	3.41246
756.398	0.904968
759.291	1.31581
762.183	0.622437
765.076	0.945648
767.969	0.542496
770.862	0.741501
773.754	0.072983
776.647	0.374435
779.54	0.238174
782.432	0.117584
785.325	0.643387
788.218	0.028229
791.111	0.190414
794.003	0.708466
796.896	1.47029
799.789	1.27467
802.681	0.404846
805.574	0.143951
808.467	1.62784
811.359	1.74992
814.252	2.35602
817.145	1.45865
820.038	2.08319
822.93	1.4068
825.823	3.28697
828.716	1.60091
831.608	1.80103
834.501	1.07832
837.394	2.25296
840.286	2.06569
843.179	2.20802
846.072	2.88608
848.965	2.53252
851.857	2.03816
854.75	1.24277
857.643	1.7988
860.535	1.31482
863.428	1.28194
866.321	1.16647
869.213	1.62369
872.106	0.296661
874.999	1.22624
877.891	0.896484
880.784	1.26996
883.677	0.358185
886.569	0.122177
889.462	0.5121
892.355	2.10034
895.248	0.158829
898.14	0.026321
901.033	0.517868
903.926	1.12157
906.818	1.47696
909.711	1.67528
912.604	1.30266
915.496	1.51308
918.389	2.06949
921.282	3.37347
924.175	5.20154
927.067	4.86514
929.96	4.39865
932.853	3.54376
935.745	2.84938
938.638	2.49359
941.531	1.34078
944.423	1.461
947.316	1.4451
950.209	1.36273
953.102	0.154709
955.994	0.984467
958.887	0.053543
961.78	0.601654
964.672	1.11884
967.565	0.128723
970.458	0.814484
973.351	0.53154
976.243	0.471939
979.136	0.275864
982.029	0.24855
984.921	0.97226
987.814	0.778595
990.707	1.06165
993.599	2.14452
996.492	1.71452
999.385	2.29688
1002.28	1.42013
1005.17	3.03581
1008.06	2.98935
1010.96	5.00493
1013.85	5.17346
1016.74	5.99661
1019.63	6.07902
1022.53	7.51286
1025.42	7.91205
1028.31	7.63924
1031.2	6.46957
1034.1	6.09438
1036.99	3.62006
1039.88	3.97917
1042.78	4.70378
1045.67	5.68872
1048.56	6.62399
1051.45	8.55885
1054.35	9.52904
1057.24	10.5465
1060.13	9.46305
1063.02	8.77644
1065.92	7.77769
1068.81	6.31072
1071.7	4.32761
1074.6	2.31841
1077.49	2.38095
1080.38	2.37656
1083.27	1.50922
1086.17	0.664162
1089.06	1.1964
1091.95	1.41378
1094.84	0.848106
1097.74	1.25381
1100.63	1.09099
1103.52	1.44769
1106.41	0.84005
1109.31	0.010841
1112.2	0.750519
1115.09	0.833023
1117.98	0.963257
1120.88	0.7332
1123.77	0.653122
1126.66	0.23877
1129.56	1.68103
1132.45	0.729675
1135.34	0.777382
1138.23	0.684593
1141.13	0.68177
1144.02	0.973022
1146.91	1.20731
1149.81	0.918808
1152.7	1.16997
1155.59	0.701256
1158.48	0.543785
1161.38	0.097916
1164.27	1.44906
1167.16	0.84967
1170.05	0.889435
1172.95	1.22179
1175.84	1.57634
1178.73	1.32513
1181.62	0.955559
1184.52	1.87579
1187.41	0.660858
1190.3	0.793671
1193.2	0.82534
1196.09	0.641754
1198.98	0.01313
1201.87	0.694908
1204.77	0.918106
1207.66	0.700706
1210.55	0.052795
1213.44	1.22316
1216.34	0.247894
1219.23	0.746071
1222.12	0.239357
1225.02	0.480827
1227.91	0.144318
1230.8	0.760757
1233.69	1.13552
1236.59	0.250015
1239.48	0.520142
1242.37	0.324203
1245.26	1.04049
1248.16	0.868942
1251.05	1.27763
1253.94	0.712173
1256.84	0.472542
1259.73	0.767822
1262.62	1.0145
1265.51	1.32148
1268.41	0.826263
1271.3	1.00531
1274.19	0.59304
