Measurement: Raman, 780 nm, unoriented, Raman Data Processed
Mineral: Actinolite
Rruff sample: R060041
Ideal chemistry: Ca_2_(Mg_4.5-2.5_Fe^2+^_0.5-2.5_)_=5_Si_8_O_22_(OH)_2_
Locality: Prince of Wales Island, Alaska, USA
Source: University of Arizona Mineral Museum
Description: Green acicular crystals forming parallel groups in cylindrical or bladed forms
Measured chemistry: (Ca_0.97_Na_0.03_)_2_(Mg_0.65_Fe^2+^_0.29_Fe^3+^_0.04_Al_0.01_Mn_0.01_)_5_(Si_0.98_Al_0.02_)_8_O_22_(OH)_2_
Raman shift (cm-1)	intensity
126.272	0
129.165	0.046806
132.057	4.64578
134.95	7.09099
137.843	8.65345
140.735	9.47154
143.628	16.0309
146.521	23.941
149.413	33.858
152.306	39.2328
155.199	26.0168
158.091	14.7026
160.984	11.5844
163.877	15.0821
166.77	21.2902
169.662	27.7719
172.555	34.3772
175.448	33.0285
178.34	12.0834
181.233	1.88891
184.126	1.78465
187.018	1.19366
189.911	1.03027
192.804	4.11977
195.697	11.1669
198.589	20.9327
201.482	29.794
204.375	40.0063
207.267	54.2703
210.16	67.1306
213.053	79.336
215.946	87.3907
218.838	86.8423
221.731	75.5908
224.624	60.2553
227.516	46.3738
230.409	34.77
233.302	25.9593
236.194	20.7586
239.087	18.7154
241.98	15.8916
244.873	12.1557
247.765	8.72767
250.658	6.51747
253.551	4.06473
256.443	1.87243
259.336	1.29549
262.229	0.249008
265.121	0.617081
268.014	0.894768
270.907	1.01865
273.8	0.398716
276.692	0.417168
279.585	0.600258
282.478	1.74654
285.37	2.89726
288.263	2.3832
291.156	2.82652
294.048	2.08838
296.941	2.47038
299.834	2.24516
302.726	1.43683
305.619	0.856575
308.512	0.11351
311.405	0.396366
314.297	0.575195
317.19	0.258926
320.083	1.95872
322.975	1.59967
325.868	2.39616
328.761	3.50696
331.654	4.93687
334.546	6.94392
337.439	8.11185
340.332	9.44795
343.224	10.9911
346.117	12.1267
349.01	13.6447
351.902	14.4686
354.795	15.8182
357.688	18.3007
360.58	20.0962
363.473	21.6925
366.366	22.162
369.259	21.2971
372.151	22.3894
375.044	22.3443
377.937	25.461
380.829	28.5169
383.722	30.4697
386.615	29.4384
389.507	25.6078
392.4	21.1966
395.293	17.8455
398.185	15.8479
401.078	14.5627
403.971	14.4453
406.864	13.5193
409.756	10.5635
412.649	9.54197
415.542	6.99698
418.434	6.17
421.327	5.15421
424.22	5.51093
427.113	6.17171
430.005	7.62759
432.898	7.11567
435.791	4.31596
438.683	2.00639
441.576	0.646118
444.469	0.481186
447.361	0.217144
450.254	0.564049
453.147	0.21286
456.039	0.219395
458.932	0.120895
461.825	0.214825
464.718	0.205799
467.61	0.145279
470.503	1.36831
473.396	1.02043
476.288	1.76825
479.181	1.96488
482.074	2.74211
484.966	2.50083
487.859	3.71128
490.752	3.69076
493.645	4.72123
496.537	5.43031
499.43	6.7064
502.323	8.28929
505.215	10.1959
508.108	12.3265
511.001	13.8175
513.894	14.2532
516.786	15.0376
519.679	15.5099
522.572	16.4338
525.464	15.9075
528.357	13.0564
531.25	10.9392
534.142	9.11698
537.035	7.48216
539.928	7.11664
542.821	7.06985
545.713	6.96782
548.606	6.65799
551.499	6.51207
554.391	6.62518
557.284	5.77452
560.177	5.53025
563.069	4.86147
565.962	4.40661
568.855	3.69804
571.747	2.87433
574.64	2.06806
577.533	2.19121
580.426	1.03204
583.318	0.302559
586.211	0.609989
589.104	0.382626
591.996	0.184433
594.889	0.247173
597.782	0.213715
600.674	0.090141
603.567	0.412888
606.46	0.753326
609.352	0.053341
612.245	1.02476
615.138	0.903301
618.031	1.14336
620.923	2.21263
623.816	2.57998
626.709	3.93343
629.601	5.74896
632.494	7.16517
635.387	8.3728
638.279	11.5809
641.172	14.1265
644.065	18.8399
646.958	23.5832
649.85	31.9305
652.743	47.6242
655.636	64.7013
658.528	82.2554
661.421	102.607
664.314	123.572
667.207	131.966
670.099	117.899
672.992	81.2873
675.885	49.5151
678.777	30.2689
681.67	21.1522
684.563	15.2713
687.455	11.9463
690.348	8.31509
693.241	5.84425
696.134	4.05821
699.026	1.97158
701.919	1.38763
704.812	0.941032
707.704	0.120243
710.597	0.703617
713.49	0.04007
716.382	0.219837
719.275	0.262379
722.168	0.689526
725.061	1.61054
727.953	1.50199
730.846	2.87604
733.739	3.47743
736.631	3.66283
739.524	3.5234
742.417	3.39951
745.309	3.34342
748.202	2.82664
751.095	1.4047
753.987	1.67676
756.88	0.933861
759.773	0.196674
762.666	0.444859
765.558	0.269089
768.451	0.107491
771.344	0.246422
774.236	0.021122
777.129	0.358044
780.022	0.041531
782.914	0.17432
785.807	0.032772
788.7	0.237911
791.593	0.462009
794.485	0.410397
797.378	0.293716
800.271	0.284996
803.163	0.662579
806.056	0.460316
808.949	0.292744
811.841	0.228954
814.734	1.09112
817.627	1.07852
820.52	1.14524
823.412	0.986969
826.305	0.832657
829.198	1.04132
832.09	0.903099
834.983	0.640446
837.876	0.953854
840.769	0.819401
843.661	1.12899
846.554	0.990692
849.447	0.305973
852.339	0.272495
855.232	0.704651
858.125	0.175835
861.017	0.543304
863.91	0.452675
866.803	0.761814
869.696	0.682262
872.588	0.231457
875.481	0.730522
878.374	0.393166
881.266	0.458488
884.159	0.618534
887.052	0.041088
889.944	0.713379
892.837	0.81657
895.73	0.910942
898.622	0.619968
901.515	0.878376
904.408	0.706184
907.301	2.1207
910.193	3.38463
913.086	4.21417
915.979	5.84842
918.871	7.48798
921.764	9.30931
924.657	9.87488
927.549	9.86837
930.442	7.32097
933.335	5.23974
936.227	3.17502
939.12	2.59969
942.013	2.59663
944.906	1.99207
947.798	1.27515
950.691	0.84985
953.584	0.064426
956.476	0.403465
959.369	0.346466
962.262	0.005268
965.154	0.609982
968.047	0.057346
970.94	0.178253
973.833	0.40358
976.725	0.118458
979.618	0.573532
982.511	0.613846
985.403	1.14314
988.296	1.64658
991.189	1.80111
994.082	2.17154
996.974	3.26194
999.867	4.16499
1002.76	4.52819
1005.65	5.92239
1008.54	7.00534
1011.44	8.99885
1014.33	11.3253
1017.22	13.6849
1020.12	15.6812
1023.01	16.0576
1025.9	14.8294
1028.79	11.542
1031.69	8.93012
1034.58	8.75541
1037.47	9.71805
1040.37	12.5757
1043.26	16.4593
1046.15	20.4721
1049.04	22.8319
1051.94	24.6868
1054.83	22.097
1057.72	19.2921
1060.61	16.4039
1063.51	13.063
1066.4	9.71771
1069.29	6.09942
1072.18	4.35147
1075.08	2.71808
1077.97	1.7541
1080.86	0.723513
1083.76	0.297117
1086.65	0.87431
1089.54	0.009893
1092.43	0.316904
1095.33	0.877676
1098.22	0.101521
1101.11	0.254982
1104	0.489674
1106.9	0.731131
1109.79	0.643536
1112.68	0.071083
1115.58	0.096607
1118.47	0.179844
1121.36	0.415079
1124.25	0.406992
1127.15	0.651684
1130.04	0.196115
1132.93	0.489424
1135.82	0.022228
1138.72	0.088322
1141.61	0.55681
1144.5	0.146927
1147.39	0.340942
1150.29	0.088976
1153.18	0.558994
1156.07	0.457468
1158.96	0.107983
1161.86	0.763988
1164.75	0.799206
1167.64	0.274632
1170.54	0.54315
1173.43	0.172346
1176.32	0.29818
1179.21	0.136164
1182.11	0.374052
1185	0.497847
1187.89	0.773563
1190.79	0.452099
1193.68	0.545607
1196.57	0.833172
1199.46	0.619619
1202.36	0.7743
1205.25	0.861164
1208.14	0.703224
1211.03	0.21645
1213.93	0.249838
1216.82	0.812336
1219.71	0.78126
1222.61	0.709204
1225.5	0.731218
1228.39	0.856674
1231.28	0.33732
1234.18	0.388321
1237.07	1.07624
1239.96	0.619215
1242.85	0.377432
1245.75	0.748924
1248.64	0.355898
1251.53	0.711962
1254.42	0.274817
1257.32	0.838186
1260.21	0.474211
1263.1	0.392172
1265.99	0.499718
1268.89	0.026707
