Measurement: Raman, 532 nm, unoriented, Raman Data Processed
Mineral: Actinolite
Rruff sample: R050025
Ideal chemistry: Ca_2_(Mg_4.5-2.5_Fe^2+^_0.5-2.5_)_=5_Si_8_O_22_(OH)_2_
Locality: Tyrol, Austria
Source: Eugene Schlepp
Description: Green colored bladed single crystals
Measured chemistry: (Ca_.930_Na_.056_Mn_.010_K_.004_)_2_(Mg_.883_Fe_.117_)_5_(Si_.978_Al_.022_)_8_O_22_(OH)_2_
Raman shift (cm-1)	intensity
143.394	0
146.769	0.923096
150.144	11.7584
153.519	242.512
156.894	715.857
160.268	1063.36
163.643	537.259
167.018	314.25
170.393	469.726
173.768	847.853
177.143	1482.86
180.517	1088.05
183.892	408.278
187.267	226.583
190.642	193.761
194.017	132.743
197.391	92.9641
200.766	165.388
204.141	286.074
207.516	518.632
210.891	890.989
214.266	1289.08
217.64	1896.19
221.015	2614.3
224.39	2421.58
227.765	1800.37
231.14	1658.63
234.514	1183.8
237.889	641.05
241.264	457.028
244.639	510.41
248.014	676.446
251.388	631.475
254.763	391.158
258.138	287.59
261.513	244.28
264.888	130.873
268.263	23.5831
271.637	8.73401
275.012	5.49278
278.387	-0.754908
281.762	11.0272
285.137	39.116
288.512	98.8094
291.886	117.359
295.261	154.55
298.636	186.664
302.011	267.167
305.386	183.183
308.76	123.757
312.135	73.0813
315.51	39.3674
318.885	4.12354
322.26	46.2423
325.635	111.067
329.009	176.812
332.384	262.225
335.759	277.457
339.134	329.53
342.509	440.398
345.883	594.467
349.258	683.213
352.633	690.399
356.008	583.869
359.383	650.591
362.757	949.939
366.132	1408.53
369.507	1798.82
372.882	1241.04
376.257	796.017
379.632	659.074
383.006	778.882
386.381	1115.41
389.756	1643.66
393.131	2000.6
396.506	1345.14
399.88	682.305
403.255	509.264
406.63	605.713
410.005	805.974
413.38	1037.87
416.755	1012.53
420.129	668.808
423.504	475.685
426.879	243.308
430.254	215.438
433.629	255.135
437.003	247.658
440.378	81.2155
443.753	13.3814
447.128	3.30711
450.503	12.3358
453.878	10.1876
457.252	3.63925
460.627	4.52631
464.002	7.44043
467.377	16.1886
470.752	44.2045
474.127	46.6616
477.501	130.125
480.876	154.881
484.251	248.942
487.626	212.411
491.001	176.48
494.375	126.361
497.75	129.424
501.125	209.828
504.5	332.586
507.875	492.086
511.25	671.762
514.624	770.442
517.999	642.424
521.374	561.988
524.749	551.545
528.124	568.689
531.498	494.571
534.873	311.25
538.248	248.859
541.623	207.895
544.998	204.012
548.372	171.525
551.747	172.571
555.122	141.491
558.497	114.077
561.872	123.993
565.247	81.8053
568.621	88.8392
571.996	79.8575
575.371	93.4952
578.746	83.1604
582.121	85.8273
585.495	73.0398
588.87	52.8989
592.245	27.016
595.62	2.04871
598.995	8.03284
602.37	18.443
605.744	18.2644
609.119	12.5454
612.494	5.71924
615.869	19.2842
619.244	13.0869
622.619	41.4148
625.993	64.0606
629.368	141.544
632.743	177.401
636.118	262.788
639.493	384.016
642.867	538.372
646.242	809.544
649.617	1102.24
652.992	1465.85
656.367	1881.6
659.741	2784.07
663.116	4405.26
666.491	6703.89
669.866	9626.09
673.241	10431.9
676.616	6473.81
679.99	3237.05
683.365	1855.73
686.74	1293.47
690.115	952.746
693.49	660.679
696.865	420.86
700.239	249.405
703.614	159.007
706.989	82.0868
710.364	37.2496
713.739	4.46863
717.113	4.41589
720.488	23.0028
723.863	64.2856
727.238	101.496
730.613	235.229
733.987	377.324
737.362	595.603
740.737	681.933
744.112	641.665
747.487	675.606
750.862	568.767
754.236	341.737
757.611	189.057
760.986	100.982
764.361	80.7222
767.736	52.0295
771.111	7.57178
774.485	22.2838
777.86	24.1245
781.235	6.92517
784.61	27.6829
787.985	15.0862
791.359	7.13184
794.734	3.78992
798.109	5.18701
801.484	22.7105
804.859	11.3565
808.234	19.6271
811.608	27.7564
814.983	47.5238
818.358	39.1239
821.733	2.35303
825.108	33.6628
828.482	11.5262
831.857	29.9932
835.232	6.00183
838.607	23.76
841.982	14.0004
845.356	11.262
848.731	16.3328
852.106	2.5354
855.481	32.6184
858.856	5.24402
862.231	11.8361
865.605	1.33899
868.98	27.5453
872.355	43.0092
875.73	29.5995
879.105	55.1357
882.48	60.1389
885.854	74.1016
889.229	66.4779
892.604	122.816
895.979	86.8953
899.354	134.576
902.729	171.053
906.103	129.717
909.478	156.203
912.853	179.7
916.228	255.111
919.602	369.382
922.977	549.576
926.352	750.936
929.727	837.71
933.102	679.54
936.477	469.209
939.851	384.061
943.226	389.817
946.601	436.228
949.976	343.738
953.351	226.357
956.726	149.396
960.1	115.639
963.475	82.0135
966.85	47.1386
970.225	40.0315
973.6	18.0319
976.974	21.2564
980.349	3.10229
983.724	0.963379
987.099	20.6207
990.474	15.3933
993.848	9.28772
997.223	9.51245
1000.6	77.9633
1003.97	145.993
1007.35	169.83
1010.72	295.489
1014.1	411.355
1017.47	630.808
1020.85	883.435
1024.22	1144.86
1027.6	1350.75
1030.97	1141.05
1034.35	672.498
1037.72	428.822
1041.1	389.916
1044.47	477.552
1047.85	685.415
1051.22	996.956
1054.6	1323.15
1057.97	1510.73
1061.35	1218.72
1064.72	981.909
1068.09	807.39
1071.47	568.099
1074.84	349.819
1078.22	228.628
1081.59	181.091
1084.97	102.286
1088.34	112.086
1091.72	82.0466
1095.09	44.7398
1098.47	26.7402
1101.84	13.9636
1105.22	14.2873
1108.59	24.6706
1111.97	21.2258
1115.34	34.3071
1118.72	7.85474
1122.09	15.0856
1125.47	11.1592
1128.84	20.3674
1132.22	9.9198
1135.59	8.54297
1138.97	31.145
1142.34	20.1773
1145.71	52.4902
1149.09	16.8164
1152.46	0.440918
1155.84	0.105469
1159.21	32.8711
1162.59	11.4045
1165.96	30.6682
1169.34	32.9978
1172.71	26.7393
1176.09	84.1016
1179.46	59.9219
1182.84	62.8279
1186.21	83.6848
1189.59	54.3491
1192.96	42.4866
1196.34	34.1604
1199.71	39.0085
1203.09	44.3227
1206.46	33.2927
1209.84	76.7207
1213.21	14.3484
1216.59	26.1982
1219.96	27.5322
1223.34	16.9673
1226.71	65.0854
1230.09	41.0779
1233.46	17.1157
1236.84	20.3364
1240.21	28.6716
1243.59	61.6582
1246.96	18.6746
1250.34	32.023
1253.71	19.9561
1257.08	31.2883
1260.46	62.9341
1263.83	69.4143
1267.21	28.448
1270.58	35.0747
1273.96	35.408
1277.33	47.2092
1280.71	67.2776
1284.08	19.2873
1287.46	45.645
1290.83	40.616
1294.21	50.9246
1297.58	69.771
1300.96	60.386
1304.33	6.58691
