Measurement: Raman, 780 nm, unoriented, Raman Data Processed
Mineral: Actinolite
Rruff sample: R050336
Ideal chemistry: Ca_2_(Mg_4.5-2.5_Fe^2+^_0.5-2.5_)_=5_Si_8_O_22_(OH)_2_
Locality: Kragerø, Norway
Source: California Institute of Technology
Description: Dark green prismatic fragment
Measured chemistry: ([box]_0.62_Na_0.34_K_0.04_)(Ca_1.60_Na_0.40_)_Σ=2_(Mg_3.90_Fe^2+^_0.70_Al_0.20_Ti_0.10_Fe^3+^_0.10_)_Σ=5_(Si_7.52_Al_0.48_)_Σ=8_O_22_((OH)_0.97_F_0.03_)_2_
Raman shift (cm-1)	intensity
117.111	0
120.486	3.23798
123.861	7.88846
127.236	1.0253
130.611	0.901123
133.986	0.65863
137.36	11.3236
140.735	18.5295
144.11	20.8478
147.485	30.0335
150.859	31.8711
154.234	44.4323
157.609	53.2729
160.984	66.3194
164.359	67.7793
167.734	73.2009
171.108	80.4166
174.483	78.7688
177.858	72.811
181.233	55.2629
184.608	37.02
187.982	25.6604
191.357	19.327
194.732	22.371
198.107	22.4073
201.482	27.6108
204.857	38.1489
208.231	44.9648
211.606	59.727
214.981	70.2469
218.356	73.6973
221.731	77.17
225.106	70.8069
228.48	58.0323
231.855	50.8215
235.23	39.9545
238.605	29.2121
241.98	22.3944
245.354	16.864
248.729	14.3371
252.104	6.0293
255.479	2.85748
258.854	2.49393
262.228	3.93732
265.603	0.005188
268.978	3.63001
272.353	0.150726
275.728	2.04669
279.103	6.27133
282.477	13.6764
285.852	12.2284
289.227	17.5546
292.602	15.7512
295.977	17.0266
299.351	15.8145
302.726	14.6419
306.101	16.9372
309.476	13.7226
312.851	15.599
316.226	10.7903
319.6	8.03656
322.975	7.24332
326.35	2.41013
329.725	6.77133
333.1	3.01208
336.474	2.04044
339.849	0.144409
343.224	3.03583
346.599	7.71933
349.974	14.9177
353.349	23.9909
356.723	32.3231
360.098	43.2795
363.473	52.6786
366.848	58.4519
370.223	56.7714
373.597	57.3919
376.972	53.7871
380.347	49.6065
383.722	45.3067
387.097	42.6032
390.471	38.9963
393.846	30.8067
397.221	20.0533
400.596	9.49399
403.971	7.70807
407.346	6.41483
410.72	3.85443
414.095	7.11398
417.47	3.57349
420.845	3.51831
424.22	2.71323
427.594	1.10049
430.969	2.89947
434.344	1.79452
437.719	0.473694
441.094	2.60217
444.469	5.1318
447.843	2.20953
451.218	6.48544
454.593	2.40811
457.968	1.35162
461.343	4.99689
464.717	1.41339
468.092	0.331726
471.467	0.028656
474.842	3.90668
478.217	1.38467
481.592	2.05051
484.966	4.19678
488.341	9.11999
491.716	13.6573
495.091	21.1502
498.466	30.023
501.841	38.1983
505.215	49.8126
508.59	57.5708
511.965	67.4059
515.34	76.3708
518.715	84.202
522.089	91.9062
525.464	97.7322
528.839	100.822
532.214	99.9384
535.589	94.9906
538.963	86.5492
542.338	88.3484
545.713	80.1064
549.088	78.102
552.463	75.9983
555.837	73.0347
559.212	70.4587
562.587	62.45
565.962	56.1806
569.337	49.1486
572.712	39.6759
576.086	31.0773
579.461	24.8672
582.836	14.7073
586.211	6.51169
589.586	4.42119
592.96	1.8158
596.335	0.769775
599.71	0.706406
603.085	0.196457
606.46	0.305359
609.835	0.253082
613.209	0.884872
616.584	1.34961
619.959	1.4409
623.334	2.60489
626.709	5.26089
630.083	6.37184
633.458	12.685
636.833	13.818
640.208	23.3581
643.583	31.8183
646.957	42.4856
650.332	60.892
653.707	87.1099
657.082	118.478
660.457	151.507
663.832	175.141
667.206	195.086
670.581	188.499
673.956	157.039
677.331	107.623
680.706	64.8028
684.081	43.3762
687.455	27.5281
690.83	20.2657
694.205	12.5993
697.58	9.68385
700.955	5.16051
704.329	6.79103
707.704	4.42146
711.079	6.92088
714.454	5.05977
717.829	4.2014
721.203	5.31935
724.578	7.282
727.953	9.21107
731.328	9.66924
734.703	11.7132
738.078	11.7675
741.452	9.15724
744.827	9.71957
748.202	5.45991
751.577	8.39888
754.952	3.15512
758.327	0.740829
761.701	0.007065
765.076	0.256836
768.451	0.969315
771.826	1.34923
775.201	0.613342
778.575	1.16518
781.95	1.08072
785.325	0.096268
788.7	2.28751
792.075	4.39358
795.449	1.46081
798.824	4.36192
802.199	1.53455
805.574	2.50322
808.949	0.687119
812.323	5.46223
815.698	2.83662
819.073	3.82707
822.448	5.43466
825.823	3.31801
829.198	0.962601
832.572	3.54279
835.947	1.37308
839.322	2.93619
842.697	0.787811
846.072	3.79762
849.447	2.13303
852.821	1.33449
856.196	4.16496
859.571	1.43527
862.946	2.7648
866.321	2.11914
869.695	3.56888
873.07	2.90033
876.445	5.46109
879.82	2.61557
883.195	4.64462
886.569	3.9332
889.944	3.07974
893.319	6.06792
896.694	5.17445
900.069	5.07042
903.444	4.21443
906.818	5.62526
910.193	3.03
913.568	5.36076
916.943	5.79825
920.318	7.81532
923.692	7.00818
927.067	4.2941
930.442	3.8163
933.817	2.54686
937.192	1.04616
940.567	0.775665
943.941	1.5032
947.316	0.165741
950.691	0.540588
954.066	1.77437
957.441	0.408707
960.815	3.3261
964.19	3.59638
967.565	2.30353
970.94	3.76044
974.315	4.28153
977.689	3.021
981.064	7.15584
984.439	6.77364
987.814	5.75816
991.189	10.111
994.564	8.60162
997.938	8.78156
1001.31	13.3236
1004.69	15.2965
1008.06	12.6354
1011.44	11.591
1014.81	13.6087
1018.19	12.5961
1021.56	14.5581
1024.94	16.7344
1028.31	15.0044
1031.69	14.7216
1035.06	9.32188
1038.44	14.3009
1041.81	10.7535
1045.19	15.0227
1048.56	15.0136
1051.94	15.1227
1055.31	17.8527
1058.68	17.5806
1062.06	17.3718
1065.43	11.7453
1068.81	10.0082
1072.18	8.30722
1075.56	6.1889
1078.93	4.31783
1082.31	5.92549
1085.68	2.00926
1089.06	1.20155
1092.43	0.391098
1095.81	0.905548
1099.18	1.60985
1102.56	1.03749
1105.93	1.50833
1109.31	3.48265
1112.68	0.034515
1116.06	3.07774
1119.43	2.4272
1122.81	1.44786
1126.18	1.72524
1129.56	1.33775
1132.93	3.06494
1136.31	1.01509
1139.68	1.03053
1143.06	2.60216
1146.43	2.26219
1149.81	0.591553
1153.18	3.92512
1156.56	2.6508
1159.93	2.56718
1163.3	2.40572
1166.68	1.31923
1170.05	6.73062
1173.43	2.44669
1176.8	2.83076
1180.18	5.51393
1183.55	6.51077
1186.93	8.45392
1190.3	7.8399
1193.68	6.57942
1197.05	5.08379
1200.43	6.17845
1203.8	5.99962
1207.18	5.33195
1210.55	5.10071
1213.93	5.21632
1217.3	6.23343
1220.68	4.95361
1224.05	5.38069
1227.43	2.80284
1230.8	0.667313
1234.18	2.74141
1237.55	3.52701
1240.92	3.71013
1244.3	4.13043
1247.67	0.840042
1251.05	1.85991
1254.42	2.50743
1257.8	3.52597
1261.17	3.58305
1264.55	2.24611
1267.92	5.96222
1271.3	2.28178
1274.67	1.10426
1278.05	0.401337
1281.42	2.21652
1284.8	2.1432
