Measurement: Raman, 785 nm, unoriented, Raman Data Processed
Mineral: Actinolite
Rruff sample: R040063
Ideal chemistry: Ca_2_(Mg_4.5-2.5_Fe^2+^_0.5-2.5_)_=5_Si_8_O_22_(OH)_2_
Locality: Harford County, Maryland, USA
Source: University of Arizona Mineral Museum
Description: Mass of green acicular to bladed crystals associated with chlorite
Measured chemistry: (Ca_1.90_Na_0.06_Mn_0.04_)_Σ=2_(Mg_4.35_Fe_0.65_)_Σ=5_(Si_7.92_Al_0.08_)_Σ=8_O_22_(OH)_2_
Raman shift (cm-1)	intensity
166.847	0
169.74	172.049
172.632	397.519
175.525	672.467
178.418	605.198
181.311	70.0845
184.203	28.0679
187.096	9.0293
189.989	8.21387
192.881	61.0488
195.774	61.044
198.667	85.9849
201.56	183.588
204.452	294.841
207.345	376.209
210.238	609.918
213.13	999.128
216.023	1496.39
218.916	2225.68
221.808	2691.3
224.701	2565.36
227.594	2664.11
230.487	2810.47
233.379	2062.17
236.272	1198.75
239.165	839.801
242.057	712.547
244.95	778.57
247.843	880.335
250.735	805.379
253.628	551.377
256.521	442.051
259.413	304.783
262.306	249.044
265.199	201.776
268.092	35.2637
270.984	56.5879
273.877	22.3926
276.77	8.52832
279.662	61.3154
282.555	99.8398
285.448	137.952
288.341	71.7852
291.233	35.1279
294.126	35.3272
297.019	80.9619
299.911	145.485
302.804	277.769
305.697	217.225
308.589	222.034
311.482	68.5244
314.375	46.3291
317.267	25.2842
320.16	40.4815
323.053	42.7188
325.946	46.374
328.838	118.977
331.731	22.958
334.624	28.5576
337.516	57.8652
340.409	40.6914
343.302	181.304
346.195	295.179
349.087	401.948
351.98	414.072
354.873	345.913
357.765	300.187
360.658	405.545
363.551	637.953
366.443	1023.74
369.336	1118.29
372.229	868.307
375.122	657.768
378.014	473.779
380.907	449.71
383.8	584.195
386.692	888.964
389.585	1414.15
392.478	1580.73
395.37	1166.16
398.263	692.294
401.156	474.015
404.048	420.429
406.941	477.609
409.834	764.463
412.727	1014.19
415.619	990.923
418.512	768.191
421.405	517.975
424.297	313.989
427.19	195.762
430.083	295.052
432.976	302.028
435.868	400.963
438.761	239.898
441.654	96.4102
444.546	104.722
447.439	66.9443
450.332	7.2207
453.224	7.1543
456.117	42.9424
459.01	35.6426
461.902	45.1914
464.795	21.0176
467.688	33.7119
470.581	2.75684
473.473	49.5361
476.366	24.2158
479.259	10.8818
482.151	27.207
485.044	36.5566
487.937	74.4473
490.829	118.478
493.722	98.5977
496.615	68.6582
499.507	90.4492
502.4	175.054
505.293	255.391
508.186	343.919
511.078	421.515
513.971	548.762
516.864	607.384
519.756	569.039
522.649	607.037
525.542	679.219
528.435	714.525
531.327	584.539
534.22	471.303
537.113	397.869
540.005	294.91
542.898	289.188
545.791	168.832
548.683	191.373
551.576	196.038
554.469	213.482
557.362	199.059
560.254	168.538
563.147	230.884
566.04	219.642
568.932	112.801
571.825	119.319
574.718	53.4082
577.611	80.8262
580.503	155.356
583.396	91.458
586.288	94.7051
589.181	16.251
592.074	3.26953
594.967	16.415
597.859	3.35938
600.752	14.665
603.645	82.4072
606.537	59.1787
609.43	89.5186
612.323	72.2061
615.216	136.632
618.108	147.969
621.001	217.111
623.894	128.864
626.786	194.525
629.679	215.642
632.572	172.597
635.464	202.731
638.357	286.037
641.25	262.83
644.143	242.099
647.035	267.28
649.928	355.357
652.821	571.898
655.713	713.36
658.606	950.02
661.499	1453.63
664.391	2313.1
667.284	3697.49
670.177	5269.79
673.069	5644.02
675.962	3733.62
678.855	2055.41
681.748	1217.94
684.64	780.831
687.533	508.688
690.426	426.637
693.318	310.899
696.211	255.565
699.104	160.127
701.996	84.4473
704.889	12.2812
707.782	52.5693
710.675	34.9609
713.567	3.88379
716.46	2.45898
719.353	2.67871
722.245	38.8535
725.138	18.9639
728.031	26.4238
730.923	30.2451
733.816	88.0371
736.709	172.139
739.602	229.369
742.494	244.088
745.387	245.751
748.28	281.88
751.172	173.206
754.065	125.103
756.958	105.214
759.851	89.9824
762.743	53.7363
765.636	98.9727
768.529	108.643
771.421	115.164
774.314	156.607
777.207	112.1
780.099	104.816
782.992	155.331
785.885	227.632
788.778	192.673
791.67	209.608
794.563	230.882
797.456	196.537
800.348	133.54
803.241	229.062
806.134	234.747
809.026	135.304
811.919	299.742
814.812	198.894
817.705	199.258
820.597	144.662
823.49	126.092
826.383	173.971
829.275	92.9795
832.168	93.9941
835.061	109.356
837.953	95.3076
840.846	93.1084
843.739	101.495
846.631	73.0791
849.524	150.584
852.417	33.6855
855.31	2.02246
858.202	18.668
861.095	6.94336
863.988	14.6748
866.88	34.5498
869.773	43.5195
872.666	56.6221
875.558	1.42481
878.451	15.54
881.344	63.456
884.237	89.1152
887.129	85.7314
890.022	78.375
892.915	70.915
895.807	26.8496
898.7	78.2178
901.593	120.015
904.486	118.083
907.378	104.439
910.271	144.348
913.164	185.825
916.056	227.964
918.949	282.434
921.842	314.019
924.734	424.967
927.627	550.735
930.52	596.719
933.413	449.167
936.305	202.695
939.198	168.565
942.091	181.517
944.983	173.905
947.876	155.124
950.769	83.7842
953.661	71.7129
956.554	36.0469
959.447	51.9873
962.34	10.9951
965.232	48.7773
968.125	28.7793
971.018	16.4756
973.91	26.6738
976.803	8.96094
979.696	55.5537
982.588	38.0967
985.481	38.3115
988.374	44.3945
991.266	35.7773
994.159	66.5147
997.052	98.1494
999.945	220.993
1002.84	195.921
1005.73	239.968
1008.62	142.015
1011.51	224.393
1014.41	314.144
1017.3	359.49
1020.19	473.554
1023.09	578.239
1025.98	895.695
1028.87	967.223
1031.76	695.293
1034.66	454.264
1037.55	304.088
1040.44	230.721
1043.34	239.919
1046.23	306.713
1049.12	374.741
1052.01	571.041
1054.91	703.287
1057.8	709.337
1060.69	594.822
1063.58	433.767
1066.48	463.423
1069.37	414.848
1072.26	245.845
1075.15	173.675
1078.05	137.43
1080.94	100.661
1083.83	16.0615
1086.73	5.33008
1089.62	68.5195
1092.51	7.0791
1095.4	14.2676
1098.3	19.5977
1101.19	9.64941
1104.08	20.4326
1106.97	16.6807
1109.87	4.11426
1112.76	70.1426
1115.65	60.8486
1118.55	97.791
1121.44	61.6953
1124.33	59.8223
1127.22	59.4199
1130.12	45.8027
1133.01	25.4248
1135.9	62.5234
1138.79	29.627
1141.69	38.7783
1144.58	18.3457
1147.47	31.1289
1150.37	18.1792
1153.26	35.3145
1156.15	55.2075
1159.04	60.9873
1161.94	34.0405
1164.83	34.2163
1167.72	59.0879
1170.61	38.4102
1173.51	46.8418
1176.4	1.53418
1179.29	24.813
1182.18	17.4155
1185.08	12.0117
1187.97	97.8755
1190.86	60.8179
1193.76	113.646
1196.65	23.3369
1199.54	130.312
1202.43	98.5205
1205.33	43.3867
1208.22	82.7842
1211.11	63.6509
1214	111.472
1216.9	84.5903
1219.79	106.295
1222.68	134.325
1225.58	111.282
1228.47	48.6455
1231.36	112.999
1234.25	111.295
1237.15	87.3389
1240.04	21.603
1242.93	70.3726
1245.82	118.403
1248.72	99.2183
1251.61	65.1777
1254.5	84.5063
1257.39	89.8154
1260.29	106.984
1263.18	17.7607
