Measurement: Raman, 785 nm, unoriented, Raman Data Processed
Mineral: Actinolite
Rruff sample: R050025
Ideal chemistry: Ca_2_(Mg_4.5-2.5_Fe^2+^_0.5-2.5_)_=5_Si_8_O_22_(OH)_2_
Locality: Tyrol, Austria
Source: Eugene Schlepp
Description: Green colored bladed single crystals
Measured chemistry: (Ca_.930_Na_.056_Mn_.010_K_.004_)_2_(Mg_.883_Fe_.117_)_5_(Si_.978_Al_.022_)_8_O_22_(OH)_2_
Raman shift (cm-1)	intensity
171.642	0
174.534	314.897
177.427	934.981
180.32	952.096
183.212	255.234
186.105	57.6836
188.998	64.5606
191.891	177.01
194.783	153.609
197.676	266.348
200.569	401.725
203.461	541.439
206.354	616.875
209.247	716.769
212.139	1021.67
215.032	1377.75
217.925	1957.81
220.818	2617.88
223.71	2749.05
226.603	2155.84
229.496	1967.88
232.388	1707.82
235.281	1143.3
238.174	757.35
241.066	675.219
243.959	562.141
246.852	774.762
249.745	755.217
252.637	633.123
255.53	384.99
258.423	316.787
261.315	359.553
264.208	266.885
267.101	123.894
269.993	88.8027
272.886	1.34961
275.779	54.332
278.672	8.76562
281.564	40.2715
284.457	133.582
287.35	237.353
290.242	238.371
293.135	238.801
296.028	172.576
298.921	186.135
301.813	212.957
304.706	252.432
307.599	160.728
310.491	206.492
313.384	131.373
316.277	8.17578
319.169	77.3418
322.062	40.0508
324.955	80.9805
327.847	90.6211
330.74	157.102
333.633	246.375
336.526	175.945
339.418	235.6
342.311	141.268
345.204	320.824
348.096	502.916
350.989	578.031
353.882	585.545
356.774	706.318
359.667	541.275
362.56	842.201
365.452	1173.64
368.345	1603.67
371.238	1652.17
374.131	1262.33
377.023	944.959
379.916	821.606
382.809	731.307
385.701	833.668
388.594	1117.56
391.487	1817.66
394.38	1944.3
397.272	1332.89
400.165	775.26
403.058	515.623
405.95	542.373
408.843	646.273
411.736	862.424
414.628	1150.6
417.521	1024.45
420.414	682.754
423.307	520.348
426.199	338.459
429.092	160.418
431.985	238.728
434.877	352.994
437.77	214.127
440.663	152.143
443.555	18.2656
446.448	99.0742
449.341	106.75
452.234	73.7129
455.126	45.9805
458.019	47.4746
460.912	52.998
463.804	67.1992
466.697	2.96289
469.59	0.908203
472.483	100.014
475.375	11.3633
478.268	92.1445
481.161	27.3613
484.053	173.81
486.946	217.182
489.839	221.117
492.731	183.219
495.624	272.416
498.517	155.371
501.409	242.273
504.302	338.086
507.195	250.898
510.088	614.527
512.98	577.637
515.873	568.148
518.766	525.857
521.658	638.91
524.551	565.713
527.444	717.516
530.337	742.34
533.229	666.719
536.122	582.5
539.015	538.715
541.907	306.91
544.8	307.66
547.693	219.065
550.585	163.914
553.478	140.947
556.371	130.857
559.263	284.273
562.156	286.203
565.049	239.627
567.942	258.258
570.834	182.492
573.727	160.744
576.62	258.318
579.512	220.68
582.405	212.42
585.298	121.047
588.19	82.6602
591.083	0.433594
593.976	63.6816
596.869	115.008
599.761	80.7695
602.654	25.7988
605.547	3.3457
608.439	30.0312
611.332	20.2715
614.225	2.69336
617.117	102.75
620.01	38.0762
622.903	12.8613
625.795	63.4648
628.688	174.156
631.581	96.4863
634.474	100.83
637.366	213.973
640.259	308.943
643.152	362.285
646.044	550.051
648.937	715.514
651.83	1030.47
654.722	1188.98
657.615	1592.52
660.508	2320.06
663.401	3451.34
666.293	5087.68
669.186	7329.92
672.079	9108.48
674.971	7857.56
677.864	4901.64
680.757	2650.33
683.649	1654.11
686.542	1052.66
689.435	812.055
692.328	607.004
695.22	552.83
698.113	369.197
701.006	266.977
703.898	258.094
706.791	140.635
709.684	155.852
712.577	70.8652
715.469	53.6406
718.362	146.697
721.255	117.088
724.147	126.654
727.04	83.5176
729.933	164.125
732.825	129.59
735.718	161.643
738.611	294.875
741.504	409.051
744.396	331.582
747.289	465.273
750.182	438.728
753.074	330.363
755.967	178.242
758.86	189.619
761.752	231.447
764.645	13.0684
767.538	91.4531
770.431	109.728
773.323	58.332
776.216	30.1504
779.109	85.8828
782.001	4.14648
784.894	58.6465
787.787	146.328
790.679	70.0488
793.572	31.5996
796.465	43.1191
799.357	32.7441
802.25	128.981
805.143	1.67188
808.036	22.8711
810.928	78.4375
813.821	108.814
816.714	69.8438
819.606	182.08
822.499	96.1797
825.392	89.2207
828.284	153.481
831.177	4.24805
834.07	96.5703
836.963	86.1074
839.855	75.0625
842.748	6.99805
845.641	114.549
848.533	88.8652
851.426	22.2148
854.319	23.0801
857.212	120.207
860.104	65.0469
862.997	94.8594
865.89	52.9688
868.782	177.982
871.675	65.9766
874.568	51.043
877.46	107.516
880.353	74.0723
883.246	67.2441
886.139	7.2832
889.031	167.023
891.924	85.7988
894.817	149.9
897.709	213.522
900.602	99.9551
903.495	126.582
906.388	198.973
909.28	240.379
912.173	114.924
915.066	172.33
917.958	246.877
920.851	321.068
923.744	413.006
926.636	520.463
929.529	545.602
932.422	481.566
935.314	444.303
938.207	262.516
941.1	111.961
943.993	155.31
946.885	257.935
949.778	266.41
952.671	133.742
955.563	130.293
958.456	31.3359
961.349	10.6895
964.241	41.9414
967.134	42.6641
970.027	3.17578
972.92	119.801
975.812	134.799
978.705	91.9648
981.598	103.084
984.49	87.7383
987.383	92.9785
990.276	74.8184
993.168	184.426
996.061	120.826
998.954	85.3027
1001.85	181.365
1004.74	206.639
1007.63	265.844
1010.52	262.398
1013.42	292.201
1016.31	452.022
1019.2	448.248
1022.1	628.258
1024.99	721.791
1027.88	947.258
1030.77	802.625
1033.67	563.682
1036.56	344.107
1039.45	222.746
1042.34	237.381
1045.24	226.322
1048.13	393.504
1051.02	606.596
1053.91	810.641
1056.81	873.051
1059.7	938.93
1062.59	665.029
1065.49	714.918
1068.38	657.885
1071.27	388.31
1074.16	279.244
1077.06	138.484
1079.95	137.467
1082.84	212.238
1085.73	42.3145
1088.63	4.91016
1091.52	24.3691
1094.41	0.033203
1097.31	71.5996
1100.2	45.5039
1103.09	108.752
1105.98	116.312
1108.88	80.6387
1111.77	155.154
1114.66	57.7734
1117.56	97.9746
1120.45	128.609
1123.34	40.3027
1126.23	109.053
1129.12	67.5
1132.02	153.644
1134.91	57.5645
1137.8	120.992
1140.7	79.1016
1143.59	180.744
1146.48	76.5039
1149.37	155.184
1152.27	47.5645
1155.16	155.828
1158.05	107.172
1160.94	37.6992
1163.84	3.6582
1166.73	86.3672
1169.62	36.252
1172.52	141.836
1175.41	67.0547
1178.3	70.7305
1181.19	17.582
1184.09	92.1504
1186.98	36.2891
1189.87	118.707
1192.77	143.174
1195.66	116.43
1198.55	147.01
1201.44	60.4531
1204.34	180.086
1207.23	171.322
1210.12	233.016
1213.01	137.029
1215.91	150.461
1218.8	43.4648
1221.69	83.918
1224.58	5.06836
1227.48	148.348
1230.37	47.4434
1233.26	20.0215
1236.15	66.6914
1239.05	0.611328
