Measurement: Raman, 532 nm, unoriented, Raman Data Processed
Mineral: Actinolite
Rruff sample: R050336
Ideal chemistry: Ca_2_(Mg_4.5-2.5_Fe^2+^_0.5-2.5_)_=5_Si_8_O_22_(OH)_2_
Locality: Kragerø, Norway
Source: California Institute of Technology
Description: Dark green prismatic fragment
Measured chemistry: ([box]_0.62_Na_0.34_K_0.04_)(Ca_1.60_Na_0.40_)_Σ=2_(Mg_3.90_Fe^2+^_0.70_Al_0.20_Ti_0.10_Fe^3+^_0.10_)_Σ=5_(Si_7.52_Al_0.48_)_Σ=8_O_22_((OH)_0.97_F_0.03_)_2_
Raman shift (cm-1)	intensity
140.083	0
143.458	1.57929
146.833	8.56375
150.208	19.0762
153.582	36.8641
156.957	72.2922
160.332	91.7413
163.707	53.2349
167.082	43.2326
170.456	48.6861
173.831	55.3244
177.206	59.7096
180.581	43.8782
183.956	21.6105
187.331	9.621
190.705	2.84018
194.08	4.16824
197.455	6.94385
200.83	16.8058
204.205	32.012
207.579	46.2448
210.954	71.4446
214.329	105.019
217.704	135.018
221.079	155.15
224.453	150.513
227.828	137.076
231.203	120.285
234.578	92.5848
237.953	65.6265
241.328	49.2112
244.702	39.8558
248.077	37.2608
251.452	31.4389
254.827	24.8419
258.202	17.0332
261.577	10.1981
264.951	2.38339
268.326	2.99367
271.701	4.32875
275.076	5.50548
278.451	1.00073
281.825	2.63884
285.2	3.76044
288.575	9.93985
291.95	10.9616
295.325	15.8948
298.7	17.339
302.074	19.8632
305.449	17.9925
308.824	17.7857
312.199	18.0602
315.574	18.9966
318.948	17.0871
322.323	19.786
325.698	22.6559
329.073	23.9909
332.448	20.023
335.822	17.1618
339.197	15.7899
342.572	15.2642
345.947	21.7754
349.322	24.5941
352.697	32.436
356.071	37.1561
359.446	48.333
362.821	65.0116
366.196	77.667
369.571	86.2263
372.945	76.7898
376.32	67.5127
379.695	61.0206
383.07	61.031
386.445	71.7718
389.82	78.5062
393.194	66.5771
396.569	45.4141
399.944	32.2415
403.319	29.6191
406.694	38.4569
410.068	44.892
413.443	49.8258
416.818	49.2403
420.193	38.3814
423.568	26.4925
426.942	22.3021
430.317	21.3273
433.692	16.8682
437.067	11.9628
440.442	6.48564
443.817	4.73152
447.191	1.3752
450.566	0.158554
453.941	1.028
457.316	1.88533
460.691	0.019302
464.065	3.90845
467.44	0.4599
470.815	1.94806
474.19	0.348679
477.565	1.91505
480.94	3.27683
484.314	6.46864
487.689	9.97865
491.064	14.5874
494.439	20.5794
497.814	31.7126
501.188	43.0765
504.563	54.7379
507.938	66.0827
511.313	74.2374
514.688	81.8387
518.063	82.9725
521.437	82.9316
524.812	84.7911
528.187	84.5669
531.562	85.4308
534.937	83.7845
538.312	82.148
541.686	77.3851
545.061	78.9569
548.436	71.9532
551.811	74.5535
555.186	72.339
558.56	67.8969
561.935	69.4161
565.31	64.6024
568.685	61.8945
572.06	55.084
575.434	48.849
578.809	39.4303
582.184	34.6961
585.559	26.1817
588.934	16.2203
592.308	9.72371
595.683	4.65234
599.058	0.729996
602.433	2.84952
605.808	2.31544
609.183	2.11369
612.557	1.80959
615.932	0.486984
619.307	3.04929
622.682	1.20781
626.057	6.12761
629.432	10.4073
632.806	15.452
636.181	23.7993
639.556	32.5071
642.931	45.4494
646.306	64.3514
649.68	84.6825
653.055	120.939
656.43	164.291
659.805	225.035
663.18	292.839
666.554	366.231
669.929	415.018
673.304	370.469
676.679	251.613
680.054	148.847
683.428	91.8567
686.803	59.2891
690.178	37.0425
693.553	21.2473
696.928	13.9538
700.303	8.62216
703.677	7.16701
707.052	7.01814
710.427	10.609
713.802	12.2371
717.177	16.6142
720.552	23.5642
723.926	28.5951
727.301	33.3297
730.676	36.1137
734.051	39.0316
737.426	39.2128
740.8	37.8077
744.175	33.0113
747.55	26.9697
750.925	16.8351
754.3	12.2222
757.674	5.09613
761.049	3.68864
764.424	0.132919
767.799	0.20137
771.174	0.930283
774.549	0.445389
777.923	0.273453
781.298	4.03906
784.673	4.5164
788.048	8.34424
791.423	5.42998
794.798	8.18043
798.172	6.0825
801.547	3.84624
804.922	1.77954
808.297	2.46141
811.672	3.2533
815.046	2.19136
818.421	2.8414
821.796	0.691498
825.171	0.002701
828.546	1.86453
831.92	0.399078
835.295	0.190216
838.67	0.345596
842.045	0.800171
845.42	0.233032
848.795	0.218704
852.169	1.31026
855.544	2.405
858.919	0.284119
862.294	1.19585
865.669	0.60437
869.043	2.69315
872.418	6.04114
875.793	3.92181
879.168	5.71327
882.543	6.03624
885.918	9.0791
889.292	10.0045
892.667	14.3125
896.042	16.0152
899.417	17.3532
902.792	16.4331
906.166	12.8648
909.541	15.3582
912.916	15.1356
916.291	15.9636
919.666	19.7327
923.04	19.4155
926.415	21.5549
929.79	19.0685
933.165	11.2654
936.54	8.42911
939.915	5.84665
943.289	6.5437
946.664	6.96933
950.039	7.81728
953.414	9.13643
956.789	13.1679
960.163	11.9232
963.538	12.1535
966.913	10.7114
970.288	8.87971
973.663	8.26498
977.038	1.47134
980.412	0.143585
983.787	0.977951
987.162	0.0457
990.537	0.837509
993.912	1.47292
997.287	4.25842
1000.66	6.32866
1004.04	12.1589
1007.41	17.0159
1010.79	21.3158
1014.16	24.4898
1017.53	26.7862
1020.91	30.3874
1024.29	31.0714
1027.66	36.9664
1031.04	38.0045
1034.41	34.4941
1037.78	33.5246
1041.16	32.7595
1044.53	35.9305
1047.91	39.3388
1051.28	41.0129
1054.66	44.4728
1058.03	45.7167
1061.41	40.8753
1064.78	36.9734
1068.16	25.0149
1071.53	21.5386
1074.91	13.7817
1078.28	6.51237
1081.66	5.8546
1085.03	4.52341
1088.41	0.725723
1091.78	1.29309
1095.16	0.768555
1098.53	0.675446
1101.91	1.30106
1105.28	0.747589
1108.65	1.79872
1112.03	3.25157
1115.4	2.72298
1118.78	1.17319
1122.15	3.25795
1125.53	1.6671
1128.9	1.3582
1132.28	1.02124
1135.65	0.756241
1139.03	0.988876
1142.4	1.03252
1145.78	1.70868
1149.15	0.201416
1152.53	0.047379
1155.9	1.1198
1159.28	1.6116
1162.65	1.29613
1166.03	2.33658
1169.4	3.18637
1172.78	3.22217
1176.15	5.56369
1179.53	3.7431
1182.9	3.73772
1186.28	6.28157
1189.65	3.99976
1193.03	5.53143
1196.4	6.52301
1199.78	4.69167
1203.15	4.82535
1206.53	6.82878
1209.9	4.03221
1213.28	7.2762
1216.65	4.46614
1220.02	3.2766
1223.4	2.80205
1226.77	3.2721
1230.15	3.91487
1233.52	3.55154
1236.9	2.87912
1240.27	4.61183
1243.65	3.04108
1247.02	2.03871
1250.4	1.90672
1253.77	3.96506
1257.15	3.49701
1260.52	2.46756
1263.9	2.03259
1267.27	3.56087
1270.65	0.048477
1274.02	0.309509
1277.4	1.90007
1280.77	0.149185
1284.15	0.598114
1287.52	0.64946
1290.9	0.858963
1294.27	2.68124
1297.64	0.541504
1301.02	0.582611
1304.39	1.50363
