Measurement: Raman, 780 nm, unoriented, Raman Data Processed
Mineral: Actinolite
Rruff sample: R120010
Ideal chemistry: Ca_2_(Mg_4.5-2.5_Fe^2+^_0.5-2.5_)_=5_Si_8_O_22_(OH)_2_
Locality: Quebec Lithium Corporation mine, La Corne, Abitibi RCM, Abitibi-Temiscamingue, Quebec, Canada
Source: Donald Doell
Description: Massive aggregate of black bladed crystals
Raman shift (cm-1)	intensity
103.174	0
106.549	8.12378
109.924	4.16385
113.299	1.8905
116.674	19.2912
120.048	31.2033
123.423	13.9168
126.798	1.06769
130.173	1.18397
133.548	0.331223
136.923	4.17247
140.297	13.0255
143.672	16.3438
147.047	18.229
150.422	18.3808
153.797	16.8541
157.171	23.8321
160.546	27.7676
163.921	26.3334
167.296	39.819
170.671	61.0498
174.046	84.5125
177.42	113.231
180.795	154.787
184.17	210.45
187.545	252.392
190.92	211.759
194.294	133.627
197.669	83.3458
201.044	59.8151
204.419	48.2428
207.794	40.0026
211.168	37.3863
214.543	29.9261
217.918	21.1744
221.293	16.7533
224.668	15.8064
228.042	15.3311
231.417	16.0961
234.792	16.1039
238.167	16.5707
241.542	18.6753
244.917	18.5237
248.291	20.7244
251.666	14.6967
255.041	7.76894
258.416	0.358627
261.791	1.74896
265.166	3.60507
268.54	3.90035
271.915	1.29367
275.29	0.958008
278.665	7.5201
282.04	12.508
285.414	20.5181
288.789	28.2914
292.164	35.0185
295.539	37.4132
298.914	38.3824
302.288	39.4781
305.663	42.0783
309.038	37.3232
312.413	28.4715
315.788	22.6362
319.163	19.4432
322.537	15.0864
325.912	16.0587
329.287	19.612
332.662	25.8469
336.037	27.7719
339.411	22.8468
342.786	16.0433
346.161	7.93384
349.536	4.53716
352.911	5.17456
356.286	4.49762
359.66	8.07867
363.035	11.6074
366.41	20.8179
369.785	36.334
373.16	50.0663
376.534	68.7787
379.909	97.0966
383.284	131.238
386.659	144.645
390.034	107.853
393.409	66.8009
396.783	55.3448
400.158	52.491
403.533	51.0246
406.908	48.6579
410.283	40.4116
413.658	31.1861
417.032	20.7611
420.407	12.8592
423.782	7.79689
427.157	2.06282
430.532	0.803787
433.906	2.10739
437.281	0.78804
440.656	0.03894
444.031	3.05002
447.406	3.69443
450.781	2.69328
454.155	1.13617
457.53	1.13023
460.905	3.063
464.28	1.58572
467.654	0.564575
471.029	2.13393
474.404	4.42902
477.779	7.87648
481.154	15.0423
484.529	22.2177
487.903	27.4287
491.278	20.7008
494.653	10.8326
498.028	5.82373
501.403	4.89836
504.777	4.79591
508.152	6.90916
511.527	11.007
514.902	15.9059
518.277	20.7225
521.652	27.4429
525.026	33.903
528.401	42.2104
531.776	49.7598
535.151	57.5414
538.526	66.8411
541.9	75.9593
545.275	88.3588
548.65	98.0037
552.025	100.874
555.4	100.753
558.775	90.151
562.149	72.6987
565.524	55.2793
568.899	42.6803
572.274	33.6336
575.649	27.9373
579.024	23.5433
582.398	19.4881
585.773	16.1344
589.148	14.6093
592.523	12.4985
595.898	11.261
599.272	11.2451
602.647	11.3395
606.022	11.2919
609.397	11.3581
612.772	8.77187
616.146	4.46243
619.521	0.278397
622.896	2.32219
626.271	2.11714
629.646	1.64558
633.021	0.363586
636.395	2.01907
639.77	5.56485
643.145	8.28978
646.52	11.675
649.895	17.6999
653.269	29.0358
656.644	45.8211
660.019	75.344
663.394	106.16
666.769	154.573
670.144	200.894
673.518	210.362
676.893	172.527
680.268	126.559
683.643	94.9703
687.018	67.946
690.393	46.6975
693.767	29.0239
697.142	19.0088
700.517	11.5673
703.892	7.5119
707.266	5.73053
710.641	2.18515
714.016	0.972778
717.391	1.11679
720.766	0.16568
724.141	0.122177
727.515	2.10414
730.89	5.61415
734.265	8.51335
737.64	14.5698
741.015	20.9537
744.389	27.4123
747.764	25.3192
751.139	15.2286
754.514	9.32823
757.889	3.84593
761.264	2.63002
764.638	1.95007
768.013	0.426727
771.388	0.981628
774.763	1.53612
778.138	1.85901
781.513	3.59625
784.887	5.2906
788.262	7.83482
791.637	6.01709
795.012	3.1956
798.387	3.87024
801.761	3.80598
805.136	3.4104
808.511	2.49056
811.886	2.06346
815.261	0.501648
818.635	0.353867
822.01	0.980225
825.385	0.318405
828.76	0.771545
832.135	1.1318
835.51	2.29384
838.884	1.72682
842.259	2.44276
845.634	4.34854
849.009	4.10777
852.384	5.40514
855.759	6.64702
859.133	8.48784
862.508	9.84689
865.883	9.09409
869.258	11.4532
872.633	13.1617
876.007	13.6839
879.382	14.3238
882.757	13.9318
886.132	14.2275
889.507	11.7428
892.881	12.6837
896.256	7.14476
899.631	4.58812
903.006	4.27603
906.381	2.4895
909.756	3.89114
913.13	3.12215
916.505	2.632
919.88	0.360512
923.255	1.59776
926.63	1.21865
930.005	0.281593
933.379	0.535988
936.754	0.145393
940.129	0.163963
943.504	0.193153
946.879	0.2323
950.253	0.675369
953.628	0.534073
957.003	0.266922
960.378	2.46462
963.753	3.66722
967.127	3.74164
970.502	3.84391
973.877	4.63374
977.252	6.95263
980.627	11.1604
984.001	14.1293
987.376	18.9621
990.751	19.629
994.126	17.8358
997.501	8.3186
1000.88	2.10205
1004.25	0.97522
1007.62	0.201241
1011	3.96072
1014.38	6.75925
1017.75	11.1617
1021.12	17.8045
1024.5	21.0695
1027.87	27.3655
1031.25	28.5568
1034.62	27.8739
1038	24.1645
1041.37	20.4513
1044.75	17.4532
1048.12	14.4707
1051.5	12.9506
1054.87	8.99698
1058.25	6.09502
1061.62	2.32244
1065	1.67692
1068.37	0.602089
1071.75	0.455032
1075.12	1.24338
1078.5	0.911819
1081.87	5.28606
1085.25	7.39227
1088.62	14.8977
1092	17.6886
1095.37	22.8841
1098.74	28.6117
1102.12	33.6045
1105.49	36.8644
1108.87	41.2511
1112.24	41.4407
1115.62	41.5444
1118.99	43.1197
1122.37	43.3927
1125.74	43.7847
1129.12	42.2635
1132.49	41.0356
1135.87	34.5857
1139.24	29.0547
1142.62	25.8128
1145.99	21.0011
1149.37	19.1543
1152.74	14.5471
1156.12	10.9245
1159.49	9.16142
1162.87	6.17525
1166.24	5.04604
1169.62	4.09048
1172.99	1.9597
1176.37	1.75858
1179.74	1.18491
1183.12	0.847694
1186.49	0.578217
1189.87	0.920212
1193.24	0.172066
1196.62	0.617012
1199.99	0.148613
1203.37	0.534782
1206.74	3.47195
1210.11	0.123123
1213.49	0.370094
1216.86	0.011597
1220.24	0.392685
1223.61	0.538589
1226.99	0.605804
1230.36	0.850723
1233.74	1.66862
1237.11	1.17193
1240.49	2.2726
1243.86	2.04521
1247.24	2.65523
1250.61	2.70332
1253.99	2.27955
1257.36	3.24536
1260.74	3.0429
1264.11	1.91346
1267.49	2.65245
1270.86	0.735733
1274.24	1.86759
1277.61	0.870697
1280.98	1.55278
1284.36	1.20363
