Measurement: Raman, 514 nm, unoriented, Raman Data Processed
Mineral: Actinolite
Rruff sample: R040064
Ideal chemistry: Ca_2_(Mg_4.5-2.5_Fe^2+^_0.5-2.5_)_=5_Si_8_O_22_(OH)_2_
Locality: Ehime Perfecture, Uma Gun, Japan
Source: University of Arizona Mineral Museum
Description: Aggregate of green acicular crystals associated with chlorite
Measured chemistry: (Ca_0.95_Na_0.04_Mn_0.01_)_2_(Mg_0.88_Fe_0.12_)_5_(Si_0.98_Al_0.02_)_8_O_22_(OH)_2_
Raman shift (cm-1)	intensity
158.63	0
162.779	22.099
166.926	48.111
171.07	1036.15
175.213	4557.63
179.354	6806.82
183.493	2252.62
187.63	561.396
191.765	157.751
195.898	167.567
200.029	42.352
204.158	316.055
208.285	848.8
212.41	1181.58
216.533	2705.06
220.654	6210.88
224.773	6331.39
228.891	3635.74
233.006	2762.12
237.119	1348.84
241.231	768.533
245.34	538.067
249.448	800.04
253.553	582.516
257.657	312.992
261.758	77.227
265.858	32.269
269.956	90.101
274.052	36.403
278.146	136.746
282.237	211.576
286.327	637.093
290.416	888.306
294.502	701.093
298.586	547.874
302.668	674.662
306.749	518.552
310.827	336.925
314.903	252.653
318.978	332.765
323.051	447.578
327.121	684.543
331.19	1365.23
335.257	1079.62
339.322	1164.92
343.385	1332.65
347.446	1551.98
351.505	1802.4
355.563	1824.06
359.618	2213.72
363.672	3888.11
367.723	7134.38
371.773	6813.29
375.821	3659.71
379.866	2401.14
383.91	2620.75
387.952	3629.39
391.992	6111.05
396.031	4849.76
400.067	3537.33
404.101	1479.92
408.134	1571.63
412.165	1968.01
416.193	2268.97
420.22	1529.12
424.245	740.179
428.268	534.037
432.289	396.953
436.309	315.915
440.326	313.155
444.342	104.329
448.355	121.733
452.367	31.129
456.377	53.443
460.385	93.094
464.391	123.997
468.395	216.033
472.398	121.149
476.398	90.503
480.397	136.426
484.394	287.296
488.389	132.946
492.382	72.373
496.373	72.565
500.362	81.403
504.349	234.932
508.335	181.363
512.319	486.674
516.3	593.858
520.28	760.902
524.259	564.777
528.235	379.506
532.209	593.048
536.182	521.455
540.152	228.722
544.121	372.862
548.088	240.901
552.053	116.814
556.017	176.592
559.978	226.25
563.938	192.769
567.895	207.128
571.851	287.336
575.805	444.387
579.758	191.287
583.708	122.061
587.657	139.756
591.603	222.43
595.548	166.262
599.491	80.226
603.432	3.952
607.372	134.358
611.309	102.979
615.245	85.925
619.179	118.472
623.111	33.137
627.041	467.03
630.97	211.991
634.896	553.21
638.821	1048.85
642.744	1250.91
646.665	2115.11
650.584	3078.24
654.502	4405.68
658.418	4832.95
662.331	7034.81
666.244	13592.5
670.154	27433
674.062	36711.1
677.969	21001.8
681.874	9589.83
685.777	5374.69
689.678	3134.77
693.577	2323.69
697.475	1388.07
701.371	1176.18
705.265	767.273
709.157	946.288
713.047	556.804
716.936	484.781
720.823	373.043
724.708	563.752
728.591	638.122
732.472	738.309
736.352	694.05
740.23	1087.51
744.106	1255.39
747.98	1432.58
751.853	1285.22
755.723	824.129
759.592	517.041
763.459	110.73
767.325	11.438
771.188	248.871
775.05	274.127
778.91	15.732
782.768	136.812
786.625	142.314
790.479	187.879
794.332	137.477
798.183	64.021
802.033	44.494
805.88	76.854
809.726	38.139
813.57	6.549
817.413	121.49
821.253	72.291
825.092	47.838
828.929	96.23
832.764	82.547
836.598	63.793
840.429	61.014
844.259	89.689
848.088	15.354
851.914	57.998
855.739	24.695
859.562	15.457
863.383	226.732
867.203	75.08
871.02	305.984
874.836	214.045
878.65	70.127
882.463	322.23
886.274	276.369
890.083	449.541
893.89	510.807
897.695	291.066
901.499	439.35
905.301	495.619
909.102	419.625
912.9	532.15
916.697	741.494
920.492	1030.53
924.285	1222.95
928.077	2037.26
931.867	2385.87
935.655	1583.23
939.442	1392.37
943.226	1116.07
947.009	1116.14
950.791	1040.7
954.57	850.875
958.348	610.885
962.124	477.443
965.899	499.342
969.671	498.447
973.442	516.697
977.211	435.908
980.979	634.76
984.745	645.293
988.509	598.947
992.271	507.387
996.032	553.826
999.791	763.578
1003.55	686.854
1007.3	878.328
1011.06	1292.26
1014.81	1572
1018.56	1893.05
1022.31	2578.66
1026.06	4105.85
1029.8	5605.84
1033.55	3986.71
1037.29	2452.58
1041.03	1903.83
1044.77	1802.19
1048.5	2078.68
1052.24	2473.75
1055.97	3793.99
1059.7	5063.16
1063.43	4502.52
1067.16	4365.03
1070.89	3934.69
1074.61	2392.48
1078.34	1508.63
1082.06	1212.91
1085.78	1201.84
1089.5	865.186
1093.21	605.377
1096.93	745.5
1100.64	429.408
1104.35	414.373
1108.06	251.699
1111.77	402.195
1115.48	385.783
1119.18	290.197
1122.89	776.703
1126.59	533.59
1130.29	136.695
1133.99	200.213
1137.68	364.334
1141.38	150.473
1145.07	86.391
1148.76	13.83
1152.45	20.963
1156.14	34.848
1159.83	137.906
1163.51	36.941
1167.19	158.082
1170.88	197.9
1174.56	2.52
1178.23	270.688
1181.91	57.039
1185.59	261.543
1189.26	417.891
1192.93	239.662
1196.6	121.17
1200.27	181.785
1203.94	394.492
1207.6	237.627
1211.27	93.439
1214.93	86.016
1218.59	191.145
1222.25	125.033
1225.9	386.01
1229.56	146.752
1233.21	210.703
1236.86	204.078
1240.51	164.883
1244.16	246.061
1247.81	259.375
1251.45	371.553
1255.1	332.869
1258.74	59.207
1262.38	23.834
1266.02	254.834
1269.66	123.592
1273.29	156.518
1276.93	200.355
1280.56	417.438
1284.19	261.357
1287.82	145.008
1291.45	110.201
1295.07	101.234
1298.7	89.297
1302.32	118.445
1305.94	88.529
1309.56	188.762
1313.18	57.496
1316.8	251.012
1320.41	82.932
1324.02	94.816
1327.63	201.68
1331.24	30.393
1334.85	27.834
1338.46	157.232
1342.06	305.18
1345.67	292.389
1349.27	244.434
1352.87	361.477
1356.47	703.752
1360.07	505.973
1363.66	179.52
1367.25	268.645
1370.85	422.541
1374.44	255.791
1378.03	348.02
1381.61	397.561
1385.2	246.33
1388.78	72.43
1392.37	508.572
1395.95	388.918
1399.53	468.197
1403.1	465.658
1406.68	328.369
1410.26	388.227
1413.83	428.775
1417.4	352.473
1420.97	382.99
1424.54	215.238
1428.1	305.629
1431.67	25.012
1435.23	586.967
1438.8	383.465
1442.36	401.059
1445.91	661.516
1449.47	478.564
1453.03	514.986
1456.58	693.17
1460.13	385.385
1463.68	400.262
1467.23	28.355
1470.78	281.471
1474.33	282.449
1477.87	190.371
1481.42	16.053
1484.96	305.73
1488.5	237.945
1492.04	153.738
1495.57	444.535
1499.11	12.805
1502.64	42.27
