Measurement: Raman, 532 nm, unoriented, Raman Data Processed
Mineral: Actinolite
Rruff sample: R060045
Ideal chemistry: Ca_2_(Mg_4.5-2.5_Fe^2+^_0.5-2.5_)_=5_Si_8_O_22_(OH)_2_
Locality: Colorado, USA
Source: University of Arizona Mineral Museum
Description: Green prismatic crystals in a radial arrangement
Measured chemistry: (Ca_1.99_Na_0.01_)_Σ=2_(Mg_4.20_Fe^2+^_0.59_Al_0.09_Fe^3+^_0.08_Mn_0.02_Ti_0.01_)_Σ=5_(Si_7.82_Al_0.18_)_Σ=8_O_22_(OH)_2_
Raman shift (cm-1)	intensity
149.64	0
152.533	3.19336
155.426	27.852
158.319	44.9847
161.211	22.5385
164.104	18.0432
166.997	22.59
169.889	34.5157
172.782	50.9185
175.675	83.9501
178.567	93.4733
181.46	39.8804
184.353	15.3617
187.245	9.01306
190.138	5.64148
193.031	2.42639
195.924	1.09656
198.816	0.388062
201.709	12.4545
204.602	11.735
207.494	23.949
210.387	28.7052
213.28	47.5021
216.173	58.3667
219.065	85.7046
221.958	99.9402
224.851	81.3397
227.743	60.1243
230.636	60.5565
233.529	41.5747
236.421	26.6697
239.314	17.9669
242.207	14.5625
245.099	15.2649
247.992	21.4083
250.885	19.9287
253.778	14.7701
256.67	8.6554
259.563	1.64831
262.456	4.31287
265.348	0.760864
268.241	5.54736
271.134	3.34522
274.026	2.97351
276.919	2.64307
279.812	1.23474
282.704	3.88989
285.597	7.22937
288.49	8.62488
291.383	6.0304
294.275	9.17432
297.168	6.88769
300.061	7.40308
302.953	6.43164
305.846	8.36914
308.739	1.89185
311.632	0.597412
314.524	1.70728
317.417	0.700073
320.31	7.96582
323.202	3.58716
326.095	7.45618
328.988	10.9511
331.88	12.1371
334.773	11.0373
337.666	9.81372
340.558	17.9076
343.451	22.8206
346.344	17.7251
349.237	11.8538
352.129	13.4756
355.022	16.2439
357.915	22.9261
360.807	25.7716
363.7	36.1033
366.593	53.8666
369.486	57.6343
372.378	46.271
375.271	36.9795
378.164	29.3464
381.056	36.2655
383.949	45.5433
386.842	58.2434
389.734	73.4054
392.627	80.4089
395.52	64.0294
398.413	40.1027
401.305	28.7699
404.198	23.9534
407.091	28.1415
409.983	41.1134
412.876	33.8258
415.769	26.6841
418.661	20.9919
421.554	10.3492
424.447	10.7889
427.339	4.54382
430.232	9.32776
433.125	9.07752
436.018	8.5238
438.91	5.5885
441.803	0.637939
444.696	1.78369
447.588	1.6803
450.481	3.77747
453.374	2.51831
456.267	3.05127
459.159	1.81091
462.052	0.699097
464.945	2.78088
467.837	5.06457
470.73	1.26208
473.623	6.3374
476.515	3.328
479.408	0.096924
482.301	6.12732
485.193	5.35364
488.086	5.50195
490.979	3.18188
493.872	5.43701
496.764	4.80518
499.657	6.52087
502.55	16.2468
505.442	16.2422
508.335	20.8413
511.228	20.5286
514.12	22.2283
517.013	23.4457
519.906	17.27
522.799	17.8661
525.691	16.4322
528.584	19.7031
531.477	20.0035
534.369	11.5986
537.262	10.9425
540.155	11.1642
543.048	7.38
545.94	12.4025
548.833	11.8186
551.726	19.8712
554.618	12.5951
557.511	12.3295
560.404	12.5653
563.296	12.5967
566.189	6.62842
569.082	7.28772
571.975	8.38977
574.867	10.3169
577.76	10.8544
580.653	13.6583
583.545	7.45947
586.438	12.3803
589.331	6.46411
592.223	4.17419
595.116	4.82068
598.009	1.65515
600.901	0.726318
603.794	5.65039
606.687	5.77698
609.58	6.81238
612.472	2.48377
615.365	0.11084
618.258	5.67835
621.15	1.71252
624.043	4.15234
626.936	2.50183
629.828	6.1051
632.721	16.4322
635.614	12.2435
638.506	19.9452
641.399	25.5689
644.292	33.2207
647.185	37.6116
650.077	54.6594
652.97	60.6279
655.863	95.8408
658.755	125.204
661.648	169.755
664.541	234.255
667.433	308.008
670.326	383.327
673.219	394.274
676.112	284.728
679.004	165.621
681.897	91.3124
684.79	59.0098
687.682	34.0348
690.575	17.8381
693.468	19.8893
696.361	13.7297
699.253	2.16919
702.146	0.340698
705.039	3.10791
707.931	1.33203
710.824	5.42944
713.717	7.98975
716.609	6.23792
719.502	2.34326
722.395	5.72913
725.288	2.44519
728.18	7.1593
731.073	9.54602
733.966	1.68652
736.858	13.4633
739.751	12.6416
742.644	21.0846
745.536	22.5295
748.429	21.7145
751.322	11.5341
754.215	5.15857
757.107	1.70569
760	0.698608
762.893	1.54199
765.785	2.88428
768.678	5.09094
771.571	2.46387
774.463	3.41614
777.356	7.42432
780.249	0.227051
783.141	4.22766
786.034	6.16748
788.927	8.47424
791.82	3.12878
794.712	6.58496
797.605	10.0631
800.498	1.82898
803.39	4.98144
806.283	3.45361
809.176	3.5791
812.068	8.15698
814.961	2.38306
817.854	6.78247
820.747	1.12134
823.639	9.07752
826.532	9.01843
829.425	4.60706
832.317	4.58386
835.21	5.60461
838.103	8.86743
840.995	2.73438
843.888	8.70264
846.781	3.48486
849.674	2.95276
852.566	3.51257
855.459	10.2477
858.352	13.3761
861.244	7.65747
864.137	7.96838
867.03	10.6731
869.923	8.74512
872.815	6.85718
875.708	11.6177
878.601	6.56482
881.493	1.91406
884.386	5.56714
887.279	8.20483
890.171	4.0188
893.064	5.75281
895.957	2.61597
898.85	2.9397
901.742	0.910156
904.635	5.55701
907.528	1.26208
910.42	4.54163
913.313	7.65149
916.206	11.2322
919.098	22.3149
921.991	20.463
924.884	25.7478
927.777	31.4293
930.669	32.9331
933.562	30.3709
936.455	21.9374
939.347	17.2637
942.24	16.0255
945.133	14.397
948.025	6.76379
950.918	15.9186
953.811	0.541016
956.703	2.96435
959.596	1.22827
962.489	0.782227
965.382	0.576416
968.274	2.59155
971.167	8.86182
974.06	4.35083
976.952	4.47754
979.845	0.457031
982.738	4.48779
985.63	5.18091
988.523	0.639648
991.416	11.5542
994.308	1.86108
997.201	1.53125
1000.09	0.300049
1002.99	9.52588
1005.88	8.7395
1008.77	16.5283
1011.66	18.0373
1014.56	27.5759
1017.45	29.8916
1020.34	30.4924
1023.24	32.0864
1026.13	35.8301
1029.02	41.3669
1031.91	42.1633
1034.81	25.6855
1037.7	20.9888
1040.59	8.38013
1043.48	13.0505
1046.38	24.5232
1049.27	32.658
1052.16	39.853
1055.06	36.417
1057.95	49.2361
1060.84	48.075
1063.73	35.9473
1066.63	42.739
1069.52	27.5459
1072.41	23.4448
1075.3	13.6914
1078.2	4.16064
1081.09	0.742188
1083.98	8.01587
1086.88	8.12891
1089.77	3.70337
1092.66	1.06811
1095.55	6.15845
1098.45	5.44141
1101.34	1.73413
1104.23	11.3171
1107.12	3.03687
1110.02	4.82153
1112.91	3.45972
1115.8	2.54981
1118.69	4.96436
1121.59	7.146
1124.48	3.00854
1127.37	3.3169
1130.27	6.66162
1133.16	1.21924
1136.05	0.422119
1138.94	2.12378
1141.84	6.89624
1144.73	11.5886
1147.62	5.76001
1150.51	10.5535
1153.41	9.78149
1156.3	7.58008
1159.19	1.40649
1162.09	0.392822
1164.98	2.56836
1167.87	7.04736
1170.76	9.5603
1173.66	3.42163
1176.55	1.41553
1179.44	7.22095
1182.33	6.6604
1185.23	2.88354
1188.12	6.6897
1191.01	2.94434
1193.9	0.853271
1196.8	2.22485
1199.69	6.26074
1202.58	2.38379
1205.48	3.57153
1208.37	11.3374
1211.26	5.96338
1214.15	5.43799
1217.05	8.58496
1219.94	8.48291
1222.83	9.71338
1225.72	4.06934
1228.62	12.1201
1231.51	0.509277
1234.4	10.1157
1237.3	2.23022
1240.19	0.737793
1243.08	4.43433
1245.97	5.63965
1248.87	3.66992
1251.76	7.70508
1254.65	9.6665
1257.54	14.374
1260.44	11.5518
1263.33	5.36548
1266.22	4.26807
1269.12	7.09595
1272.01	13.3953
1274.9	11.6587
1277.79	5.8728
1280.69	3.35913
1283.58	5.44165
1286.47	4.19019
