Measurement: Raman, 532 nm, unoriented, Raman Data Processed
Mineral: Actinolite
Rruff sample: R060041
Ideal chemistry: Ca_2_(Mg_4.5-2.5_Fe^2+^_0.5-2.5_)_=5_Si_8_O_22_(OH)_2_
Locality: Prince of Wales Island, Alaska, USA
Source: University of Arizona Mineral Museum
Description: Green acicular crystals forming parallel groups in cylindrical or bladed forms
Measured chemistry: (Ca_0.97_Na_0.03_)_2_(Mg_0.65_Fe^2+^_0.29_Fe^3+^_0.04_Al_0.01_Mn_0.01_)_5_(Si_0.98_Al_0.02_)_8_O_22_(OH)_2_
Raman shift (cm-1)	intensity
141.444	0
144.337	1.74564
147.23	6.5146
150.123	15.6944
153.015	25.6539
155.908	15.8858
158.801	9.28201
161.693	7.83936
164.586	10.9371
167.479	16.4043
170.371	25.8873
173.264	42.1867
176.157	52.4589
179.049	22.4322
181.942	5.62544
184.835	0.599747
187.728	0.435867
190.62	0.761307
193.513	0.044464
196.406	1.15114
199.298	6.3351
202.191	11.8313
205.084	19.1347
207.976	25.5093
210.869	34.0769
213.762	45.2991
216.655	58.3133
219.547	65.0567
222.44	56.8574
225.333	46.095
228.225	34.7554
231.118	24.9266
234.011	16.5656
236.904	12.4791
239.796	10.3547
242.689	9.21735
245.582	6.83964
248.474	4.71036
251.367	2.55664
254.26	2.66414
257.152	1.02608
260.045	0.170563
262.938	0.626816
265.83	0.186432
268.723	1.31062
271.616	0.686401
274.509	0.29216
277.401	0.173874
280.294	0.985641
283.187	3.06462
286.079	4.08699
288.972	3.9104
291.865	3.98978
294.757	4.58362
297.65	2.45532
300.543	3.42804
303.435	2.0668
306.328	0.56012
309.221	0.577332
312.114	0.263885
315.006	0.99704
317.899	0.823395
320.792	1.93402
323.684	2.5507
326.577	3.74211
329.47	4.16576
332.363	6.87326
335.255	8.34609
338.148	10.6095
341.041	12.3971
343.933	14.1984
346.826	17.8391
349.719	18.942
352.611	20.5729
355.504	24.081
358.397	28.4334
361.289	34.2235
364.182	38.2065
367.075	35.5391
369.968	30.7084
372.86	25.7127
375.753	25.2505
378.646	26.5686
381.538	32.1083
384.431	37.8085
387.324	38.9798
390.216	35.3122
393.109	28.2601
396.002	22.5308
398.895	19.1983
401.787	18.4033
404.68	17.657
407.573	16.8618
410.465	16.6797
413.358	10.7133
416.251	10.0722
419.144	5.87734
422.036	3.45808
424.929	3.99533
427.822	4.76063
430.714	5.38568
433.607	5.76639
436.5	4.30183
439.392	2.00296
442.285	0.057724
445.178	0.370773
448.07	0.183594
450.963	0.371765
453.856	0.12764
456.749	0.858109
459.641	0.125946
462.534	0.388474
465.427	0.962463
468.319	1.23068
471.212	1.31584
474.105	0.82254
476.998	2.32616
479.89	2.79552
482.783	3.36548
485.676	4.01761
488.568	4.35001
491.461	4.26195
494.354	5.0634
497.246	7.43236
500.139	8.52116
503.032	10.8615
505.925	10.8683
508.817	11.9635
511.71	12.0667
514.603	12.4652
517.495	10.0542
520.388	11.4062
523.281	11.5124
526.173	9.5808
529.066	9.16037
531.959	7.82034
534.851	7.35428
537.744	6.07011
540.637	5.0636
543.53	5.7753
546.422	4.51981
549.315	4.71576
552.208	4.99831
555.1	4.58438
557.993	4.68095
560.886	3.84374
563.779	3.42387
566.671	3.61858
569.564	3.11035
572.457	3.51283
575.349	2.90884
578.242	1.99737
581.135	1.49634
584.027	0.349365
586.92	0.930374
589.813	0.079819
592.705	0.064697
595.598	0.635727
598.491	0.01825
601.384	0.171936
604.276	1.26599
607.169	0.559738
610.062	0.012802
612.954	0.882324
615.847	0.783661
618.74	1.97423
621.632	2.71747
624.525	2.87318
627.418	4.11462
630.311	6.7189
633.203	7.89175
636.096	11.2089
638.989	13.5423
641.881	18.0028
644.774	23.2874
647.667	29.7758
650.559	38.7126
653.452	53.591
656.345	76.2409
659.237	103.968
662.13	140.539
665.023	189.716
667.916	233.2
670.808	234.664
673.701	170.784
676.594	98.689
679.486	57.3109
682.379	35.7687
685.272	23.3855
688.165	16.7514
691.057	12.0788
693.95	8.0591
696.843	5.4725
699.735	3.93948
702.628	1.54523
705.521	1.05585
708.413	0.889801
711.306	0.093124
714.199	0.049561
717.092	0.665878
719.984	0.53801
722.877	0.984558
725.77	3.12248
728.662	4.24458
731.555	6.83838
734.448	9.54594
737.341	11.0145
740.233	11.9808
743.126	9.42894
746.019	10.606
748.911	7.80316
751.804	6.397
754.697	2.73351
757.589	1.24087
760.482	0.999725
763.375	0.540039
766.268	0.455276
769.16	0.187241
772.053	1.33995
774.946	0.267471
777.838	1.03055
780.731	0.273895
783.624	0.8172
786.516	1.21983
789.409	1.21457
792.302	0.5811
795.194	0.652573
798.087	0.265182
800.98	0.368256
803.872	1.19574
806.765	1.00139
809.658	0.483429
812.551	0.689941
815.443	1.08026
818.336	1.39163
821.229	1.71539
824.121	1.14333
827.014	1.9086
829.907	0.656693
832.799	1.99298
835.692	1.46434
838.585	2.05012
841.478	0.608032
844.37	1.39494
847.263	0.692062
850.156	1.40587
853.048	1.01866
855.941	0.551117
858.834	0.747574
861.726	0.769165
864.619	1.46367
867.512	0.960495
870.405	1.51877
873.297	1.59839
876.19	0.728439
879.083	0.176163
881.975	0.583191
884.868	1.94461
887.761	1.00034
890.654	1.66692
893.546	1.29088
896.439	1.36146
899.332	1.38852
902.224	2.94836
905.117	1.49409
908.01	2.9055
910.902	2.28982
913.795	3.97334
916.688	6.31747
919.581	8.94466
922.473	13.2059
925.366	14.7512
928.259	15.3497
931.151	13.2612
934.044	10.9447
936.937	8.22211
939.829	6.01334
942.722	5.78586
945.615	6.04137
948.508	3.6712
951.4	2.94046
954.293	1.17827
957.186	0.539886
960.078	1.80612
962.971	0.251938
965.864	0.478577
968.756	0.010712
971.649	0.113495
974.542	0.374924
977.434	0.446503
980.327	0.69162
983.22	1.03915
986.112	0.472046
989.005	0.414825
991.898	0.856766
994.791	1.41302
997.683	1.75671
1000.58	3.85147
1003.47	3.66949
1006.36	5.81288
1009.25	7.43494
1012.15	10.8341
1015.04	13.652
1017.93	18.3446
1020.83	22.7448
1023.72	28.1045
1026.61	29.341
1029.5	25.6067
1032.4	18.7349
1035.29	13.3657
1038.18	11.4484
1041.07	13.3445
1043.97	16.4905
1046.86	22.743
1049.75	28.7971
1052.64	35.1354
1055.54	35.9841
1058.43	34.2943
1061.32	31.8488
1064.21	32.6916
1067.11	29.943
1070	19.6747
1072.89	12.2256
1075.79	8.64635
1078.68	5.51427
1081.57	2.96983
1084.46	3.01526
1087.36	2.33493
1090.25	1.41393
1093.14	1.98825
1096.04	0.826401
1098.93	0.855026
1101.82	0.527969
1104.71	0.748016
1107.61	1.65004
1110.5	0.735336
1113.39	0.866623
1116.28	0.301392
1119.18	1.31067
1122.07	0.888062
1124.96	0.727753
1127.86	0.757675
1130.75	0.5522
1133.64	0.644897
1136.53	0.560287
1139.43	1.01556
1142.32	0.135391
1145.21	0.149353
1148.1	1.61061
1151	0.939789
1153.89	1.15478
1156.78	0.043823
1159.67	0.483276
1162.57	0.666107
1165.46	0.688583
1168.35	0.961212
1171.24	0.274277
1174.14	1.02341
1177.03	0.530563
1179.92	0.398666
1182.82	0.083313
1185.71	1.01466
1188.6	0.71492
1191.49	0.309891
1194.39	0.417221
1197.28	0.673721
1200.17	0.537125
1203.07	0.644928
1205.96	0.263916
1208.85	0.107208
1211.74	0.914444
1214.64	0.669174
1217.53	0.033081
1220.42	2.55057
1223.31	1.00058
1226.21	1.5961
1229.1	1.60837
1231.99	0.508698
1234.88	1.54346
1237.78	0.713333
1240.67	0.733307
1243.56	1.32526
1246.46	1.54773
1249.35	1.20099
1252.24	1.03764
1255.13	0.980026
1258.03	1.82242
1260.92	0.628738
1263.81	1.99239
1266.7	1.41718
1269.6	0.039169
1272.49	1.81587
1275.38	0.397308
1278.28	0.663834
1281.17	0.509857
1284.06	0.86409
1286.95	0.005447
