Measurement: Raman, 532 nm, unoriented, Raman Data Processed
Mineral: Actinolite
Rruff sample: R040063
Ideal chemistry: Ca_2_(Mg_4.5-2.5_Fe^2+^_0.5-2.5_)_=5_Si_8_O_22_(OH)_2_
Locality: Harford County, Maryland, USA
Source: University of Arizona Mineral Museum
Description: Mass of green acicular to bladed crystals associated with chlorite
Measured chemistry: (Ca_1.90_Na_0.06_Mn_0.04_)_Σ=2_(Mg_4.35_Fe_0.65_)_Σ=5_(Si_7.92_Al_0.08_)_Σ=8_O_22_(OH)_2_
Raman shift (cm-1)	intensity
118.147	0
121.522	280.714
124.897	235.984
128.272	143.57
131.647	6.36084
135.021	13.9945
138.396	43.7159
141.771	84.8404
145.146	91.7488
148.521	123.964
151.895	222.792
155.27	442.421
158.645	651.967
162.02	445.184
165.395	347.203
168.769	593.801
172.144	1116.09
175.519	1803.51
178.894	1911.28
182.269	712.057
185.644	351.529
189.018	254.242
192.393	170.156
195.768	124.846
199.143	80.9749
202.518	187.026
205.893	314.606
209.267	527.43
212.642	935.093
216.017	1502.24
219.392	2183.82
222.767	2515.61
226.141	2041.3
229.516	1935.7
232.891	1569.77
236.266	836.447
239.641	531.092
243.015	475.981
246.39	560.594
249.765	618.331
253.14	396.944
256.515	263.098
259.889	152.807
263.264	84.4137
266.639	45.8405
270.014	19.8326
273.389	36.6976
276.764	38.8447
280.138	24.7853
283.513	52.0679
286.888	127.94
290.263	148.776
293.638	126.017
297.012	126.107
300.387	195.049
303.762	157.892
307.137	129.234
310.512	45.8565
313.887	2.48804
317.261	22.0992
320.636	29.998
324.011	78.9744
327.386	114.9
330.761	184.209
334.135	148
337.51	93.1079
340.885	114.914
344.26	221.768
347.635	342.375
351.01	418.056
354.384	414.751
357.759	561.888
361.134	897.786
364.509	1367.78
367.884	1860.51
371.258	1548.01
374.633	920.793
378.008	652.749
381.383	782.671
384.758	1141.23
388.132	1662.96
391.507	2106.86
394.882	1759.25
398.257	943.202
401.632	584.203
405.007	576.03
408.381	729.774
411.756	961.364
415.131	994.008
418.506	699.928
421.881	414.886
425.255	217.536
428.63	152.503
432.005	184.104
435.38	200.487
438.755	141.344
442.13	46.0923
445.504	11.1675
448.879	27.8831
452.254	13.9822
455.629	17.4161
459.004	7.03503
462.378	7.61737
465.753	19.5185
469.128	12.5792
472.503	28.7774
475.878	52.931
479.252	71.7281
482.627	104.683
486.002	130.379
489.377	90.0311
492.752	101.285
496.127	111.887
499.501	126.135
502.876	189.745
506.251	296.663
509.626	403.197
513.001	478.609
516.375	472.381
519.75	439.574
523.125	427.324
526.5	460.508
529.875	425.351
533.25	344.081
536.624	308.93
539.999	251.654
543.374	257.08
546.749	241.831
550.124	175.523
553.498	170.562
556.873	164.647
560.248	142.936
563.623	137.095
566.998	146.396
570.372	173.664
573.747	133.004
577.122	158.078
580.497	122.523
583.872	84.569
587.246	63.3195
590.621	36.6644
593.996	0.626465
597.371	0.442139
600.746	13.9056
604.121	2.10968
607.495	15.4651
610.87	7.23993
614.245	39.1482
617.62	19.1032
620.995	44.8311
624.369	68.1063
627.744	116.481
631.119	121.338
634.494	174.416
637.869	230.641
641.244	290.88
644.618	400.192
647.993	603.015
651.368	920.401
654.743	1382.31
658.118	2132.18
661.492	3286.55
664.867	5036.16
668.242	7449.56
671.617	9616.92
674.992	7873.21
678.366	4027.43
681.741	1966.47
685.116	1147.8
688.491	729.052
691.866	462.736
695.241	298.05
698.615	220.263
701.99	135.517
705.365	82.171
708.74	30.2878
712.115	7.86499
715.489	16.7208
718.864	16.3231
722.239	20.939
725.614	71.1732
728.989	115.878
732.364	178.189
735.738	312.861
739.113	446.153
742.488	465.56
745.863	517.403
749.238	514
752.612	276.193
755.987	213.326
759.362	101.57
762.737	93.466
766.112	58.1271
769.486	44.0489
772.861	6.17316
776.236	13.2583
779.611	31.7891
782.986	11.0562
786.361	5.20538
789.735	20.3049
793.11	17.6547
796.485	2.03925
799.86	1.91382
803.235	9.70605
806.609	25.0945
809.984	43.2008
813.359	36.3674
816.734	50.8524
820.109	78.8091
823.484	93.2433
826.858	105.292
830.233	72.6808
833.608	68.6382
836.983	81.9206
840.358	42.6195
843.732	47.8219
847.107	43.754
850.482	17.759
853.857	36.3577
857.232	11.2114
860.606	27.3601
863.981	7.95386
867.356	9.57715
870.731	4.22705
874.106	13.4453
877.481	50.9681
880.855	32.9901
884.23	78.8859
887.605	54.2159
890.98	61.7738
894.355	42.1079
897.729	34.6652
901.104	60.8549
904.479	92.1669
907.854	87.9027
911.229	120.944
914.604	183.557
917.978	243.54
921.353	379.489
924.728	553.398
928.103	667.575
931.478	692.767
934.852	457.108
938.227	286.785
941.602	184.696
944.977	224.024
948.352	154.528
951.726	126.002
955.101	51.6423
958.476	2.74902
961.851	26.4939
965.226	16.5139
968.601	0.46106
971.975	46.8724
975.35	0.177124
978.725	6.01343
982.1	21.1031
985.475	3.21265
988.849	0.661987
992.224	11.7301
995.599	59.6558
998.974	57.4477
1002.35	104.801
1005.72	168.045
1009.1	245.332
1012.47	326.504
1015.85	458.735
1019.22	682.817
1022.6	1045.54
1025.97	1405.45
1029.35	1501.94
1032.72	1002.56
1036.1	557.596
1039.47	394.797
1042.85	354.392
1046.22	434.325
1049.6	627.114
1052.97	876.359
1056.35	1154.8
1059.72	1123.57
1063.1	962.152
1066.47	1019.48
1069.85	907.669
1073.22	544.588
1076.6	321.931
1079.97	179.748
1083.34	141.809
1086.72	93.11
1090.09	60.7954
1093.47	48.5792
1096.84	33.0258
1100.22	33.6045
1103.59	42.884
1106.97	59.0862
1110.34	60.9155
1113.72	45.5309
1117.09	44.4584
1120.47	41.8668
1123.84	31.2533
1127.22	26.6608
1130.59	9.39075
1133.97	2.62866
1137.34	11.7258
1140.72	8.92285
1144.09	8.17822
1147.47	12.7325
1150.84	21.6614
1154.21	21.7247
1157.59	0.130371
1160.96	25.8021
1164.34	20.1104
1167.71	16.1322
1171.09	34.6844
1174.46	6.34021
1177.84	49.5225
1181.21	34.4213
1184.59	0.897583
1187.96	36.9777
1191.34	35.2578
1194.71	6.51404
1198.09	27.9889
1201.46	2.35327
1204.84	17.5345
1208.21	5.74597
1211.59	16.4797
1214.96	56.9529
1218.34	15.661
1221.71	59.7216
1225.09	44.558
1228.46	50.7249
1231.84	77.3809
1235.21	62.286
1238.59	46.8862
1241.96	53.6263
1245.34	59.1637
1248.71	3.35229
1252.09	54.4958
1255.46	2.43384
1258.84	40.6671
1262.21	36.2073
1265.58	18.2521
1268.96	49.6869
1272.33	37.8837
1275.71	9.46729
1279.08	38.9586
1282.46	21.0828
1285.83	35.2042
1289.21	23.4701
1292.58	2.97229
1295.96	7.09375
