Measurement: Raman, 532 nm, unoriented, Raman Data Processed
Mineral: Actinolite
Rruff sample: R120010
Ideal chemistry: Ca_2_(Mg_4.5-2.5_Fe^2+^_0.5-2.5_)_=5_Si_8_O_22_(OH)_2_
Locality: Quebec Lithium Corporation mine, La Corne, Abitibi RCM, Abitibi-Temiscamingue, Quebec, Canada
Source: Donald Doell
Description: Massive aggregate of black bladed crystals
Raman shift (cm-1)	intensity
182.094	0
184.987	19.8655
187.88	53.6871
190.773	60.814
193.665	42.0975
196.558	22.2297
199.451	8.65656
202.343	10.2976
205.236	13.803
208.129	14.0008
211.021	10.6431
213.914	9.5871
216.807	0.272583
219.699	3.01062
222.592	2.2529
225.485	0.582733
228.377	0.739136
231.27	4.1322
234.163	3.84131
237.056	7.40967
239.948	9.55954
242.841	10.8584
245.734	15.9328
248.626	18.1756
251.519	17.1797
254.412	12.0813
257.305	9.67911
260.197	4.96652
263.09	4.10013
265.983	2.66528
268.875	2.15735
271.768	4.0903
274.661	4.58095
277.553	9.02245
280.446	8.6884
283.339	12.1896
286.232	13.0941
289.124	14.1693
292.017	18.3534
294.91	17.5542
297.802	17.9326
300.695	16.402
303.588	19.5419
306.481	20.0342
309.373	13.9832
312.266	10.0231
315.159	7.68001
318.051	5.44739
320.944	4.4895
323.837	5.23444
326.729	6.66727
329.622	10.3735
332.515	16.8251
335.408	19.5247
338.3	18.7845
341.193	12.5288
344.086	6.93672
346.978	0.072357
349.871	1.42357
352.764	1.18933
355.656	0.21846
358.549	2.43053
361.442	4.71333
364.334	7.01428
367.227	14.3098
370.12	24.7045
373.012	39.7136
375.905	55.2659
378.798	80.2018
381.691	104.657
384.583	136.348
387.476	143.263
390.369	117.799
393.261	76.7525
396.154	61.4487
399.047	51.8798
401.94	46.7907
404.832	44.2215
407.725	36.8983
410.618	29.987
413.51	23.3487
416.403	17.3339
419.296	11.8309
422.188	4.33925
425.081	2.5952
427.974	0.921768
430.866	1.09586
433.759	1.48392
436.652	0.863235
439.545	1.69136
442.437	2.71638
445.33	3.4944
448.223	7.08102
451.115	5.22511
454.008	3.21829
456.901	1.85034
459.793	1.265
462.686	0.714737
465.579	0.488052
468.472	1.37485
471.364	2.43037
474.257	5.17035
477.15	10.4648
480.042	17.0666
482.935	22.3803
485.828	32.6246
488.721	30.8673
491.613	26.1573
494.506	15.729
497.399	8.66905
500.291	4.37947
503.184	1.78551
506.077	0.119263
508.969	1.49693
511.862	1.96089
514.755	3.18144
517.648	2.92671
520.54	10.2064
523.433	6.95895
526.326	12.3991
529.218	15.4949
532.111	17.4812
535.004	21.9211
537.896	23.1685
540.789	27.2792
543.682	30.0479
546.575	33.2603
549.467	38.3502
552.36	38.6133
555.253	40.5306
558.145	37.6996
561.038	34.8073
563.931	29.8041
566.823	24.6229
569.716	22.4913
572.609	21.3303
575.502	20.6633
578.394	22.1281
581.287	22.0413
584.18	21.2027
587.072	21.1777
589.965	19.8836
592.858	21.3401
595.75	23.939
598.643	23.733
601.536	27.9104
604.428	26.702
607.321	28.9009
610.214	29.8777
613.107	23.4871
615.999	16.2746
618.892	8.72496
621.785	3.16788
624.677	0.884445
627.57	2.15601
630.463	3.84631
633.356	0.554947
636.248	0.81543
639.141	1.62172
642.034	5.71503
644.926	7.88989
647.819	14.7531
650.712	19.2806
653.604	27.5021
656.497	43.3385
659.39	64.2086
662.283	93.1644
665.175	127.982
668.068	170.302
670.961	212.227
673.853	227.514
676.746	199.558
679.639	153.763
682.531	119.079
685.424	91.8401
688.317	70.431
691.21	50.3877
694.102	33.3857
696.995	23.5628
699.888	16.5701
702.78	11.3092
705.673	8.33061
708.566	4.00581
711.458	2.23474
714.351	0.918335
717.244	0.114197
720.136	0.34343
723.029	1.21756
725.922	0.593475
728.815	2.46085
731.707	6.50729
734.6	11.1906
737.493	17.785
740.385	27.7551
743.278	35.848
746.171	41.911
749.063	38.3015
751.956	26.6904
754.849	14.7073
757.742	9.85262
760.634	4.12593
763.527	3.07887
766.42	2.56952
769.312	1.00355
772.205	0.034821
775.098	3.29892
777.99	2.33283
780.883	2.58606
783.776	2.93726
786.669	6.0715
789.561	6.21243
792.454	6.07104
795.347	4.59701
798.239	3.09541
801.132	4.30817
804.025	6.79129
806.918	5.98363
809.81	3.78146
812.703	1.54121
815.596	0.287125
818.488	0.929398
821.381	0.428818
824.274	0.827698
827.166	2.05576
830.059	3.77737
832.952	1.94647
835.845	6.18208
838.737	5.7771
841.63	6.01134
844.523	5.37882
847.415	7.98007
850.308	8.74997
853.201	12.8433
856.093	14.1508
858.986	12.6162
861.879	14.8505
864.771	19.8307
867.664	18.8688
870.557	20.1743
873.45	22.5282
876.342	23.3679
879.235	22.9763
882.128	21.0148
885.02	21.6032
887.913	21.7141
890.806	17.0776
893.698	13.1396
896.591	7.3223
899.484	6.70537
902.377	4.07544
905.269	2.71281
908.162	0.94371
911.055	0.765854
913.947	0.105499
916.84	0.004639
919.733	0.71814
922.625	1.44087
925.518	0.552643
928.411	0.24707
931.304	1.89024
934.196	1.61739
937.089	0.010452
939.982	0.54274
942.875	1.50795
945.767	1.98479
948.66	0.945679
951.553	1.27402
954.445	2.27225
957.338	3.00273
960.231	3.42575
963.123	3.70444
966.016	2.2951
968.909	3.52515
971.802	2.63449
974.694	3.91153
977.587	4.72209
980.48	7.19226
983.372	9.40765
986.265	11.1571
989.158	14.2379
992.05	13.4674
994.943	12.0085
997.836	6.88614
1000.73	2.08441
1003.62	0.772186
1006.51	0.343369
1009.41	0.819763
1012.3	2.24907
1015.19	5.78803
1018.09	9.01807
1020.98	13.8851
1023.87	15.1467
1026.76	20.4949
1029.66	23.7219
1032.55	23.4994
1035.44	24.6513
1038.33	21.5083
1041.23	19.4672
1044.12	20.1537
1047.01	17.0585
1049.9	15.3176
1052.8	14.7971
1055.69	11.0646
1058.58	8.15074
1061.47	5.6032
1064.37	5.02036
1067.26	3.21675
1070.15	1.92912
1073.05	1.31259
1075.94	1.90237
1078.83	1.98399
1081.72	1.17758
1084.62	0.282883
1087.51	1.43472
1090.4	3.50563
1093.3	2.28139
1096.19	1.85841
1099.08	3.84959
1101.97	3.74899
1104.87	5.51219
1107.76	6.53653
1110.65	8.07639
1113.54	7.90291
1116.44	11.2964
1119.33	12.5325
1122.22	14.9112
1125.12	19.3897
1128.01	21.3538
1130.9	22.8143
1133.79	21.675
1136.68	16.968
1139.58	11.1027
1142.47	9.89683
1145.36	11.2923
1148.26	7.44924
1151.15	7.03426
1154.04	5.84397
1156.93	5.63404
1159.83	4.21481
1162.72	3.82207
1165.61	3.08216
1168.51	3.33805
1171.4	2.0592
1174.29	0.944183
1177.18	1.36886
1180.08	0.660492
1182.97	0.212593
1185.86	0.211052
1188.75	2.3723
1191.65	0.468704
1194.54	0.21463
1197.43	1.33611
1200.33	2.47511
1203.22	0.996292
1206.11	1.2216
1209	0.946518
1211.9	0.091797
1214.79	1.70555
1217.68	1.08458
1220.57	2.54174
1223.47	2.52532
1226.36	2.99329
1229.25	1.18546
1232.14	1.9602
1235.04	1.88035
1237.93	1.30896
1240.82	1.56757
1243.71	1.41746
1246.61	2.10773
1249.5	1.22745
1252.39	2.9789
1255.29	3.73727
1258.18	1.72347
1261.07	2.57539
1263.96	1.9903
1266.86	1.61848
1269.75	1.49081
1272.64	1.98552
1275.54	1.92242
1278.43	0.998978
1281.32	0.920723
1284.21	1.39097
1287.11	0.826385
1290	2.24108
1292.89	3.16179
1295.78	2.07135
1298.68	1.64432
1301.57	0.369797
