Measurement: Raman, 514 nm, unoriented, Raman Data Processed
Mineral: Actinolite
Rruff sample: R050025
Ideal chemistry: Ca_2_(Mg_4.5-2.5_Fe^2+^_0.5-2.5_)_=5_Si_8_O_22_(OH)_2_
Locality: Tyrol, Austria
Source: Eugene Schlepp
Description: Green colored bladed single crystals
Measured chemistry: (Ca_.930_Na_.056_Mn_.010_K_.004_)_2_(Mg_.883_Fe_.117_)_5_(Si_.978_Al_.022_)_8_O_22_(OH)_2_
Raman shift (cm-1)	intensity
96.161	0
100.34	78.488
104.516	272.419
108.691	1177.19
112.864	1765.55
117.034	4068.19
121.203	4477.82
125.369	2326.06
129.534	890.014
133.696	278.287
137.857	342.82
142.016	274.979
146.172	133.49
150.327	55.212
154.48	344.296
158.63	1217.26
162.779	830.831
166.926	281.081
171.07	748.063
175.213	2689.82
179.354	3493.37
183.493	1417.98
187.63	736.445
191.765	538.466
195.898	392.833
200.029	448.489
204.158	567.904
208.285	970.825
212.41	1101.03
216.533	1908.39
220.654	3830.9
224.773	3595.51
228.891	2795.13
233.006	2351.74
237.119	1070.32
241.231	561.884
245.34	572.42
249.448	856.923
253.553	580.391
257.657	356.816
261.758	234.208
265.858	43.191
269.956	133.904
274.052	84.014
278.146	97.623
282.237	14.87
286.327	170.136
290.416	345.567
294.502	268.016
298.586	430.366
302.668	506.066
306.749	360.469
310.827	333.682
314.903	197.923
318.978	147.394
323.051	218.595
327.121	281.709
331.19	726.738
335.257	783.685
339.322	740.733
343.385	859.52
347.446	998.13
351.505	1159.73
355.563	1037.66
359.618	1139.56
363.672	1945.43
367.723	3944.26
371.773	3758.05
375.821	2057.78
379.866	1426.46
383.91	1460.08
387.952	2434.63
391.992	4371.12
396.031	3651.54
400.067	1784.89
404.101	1092.17
408.134	1096.38
412.165	1752.52
416.193	2115.59
420.22	1388.58
424.245	732.501
428.268	541.4
432.289	385.075
436.309	415.093
440.326	324.18
444.342	92.965
448.355	56.58
452.367	51.554
456.377	26.297
460.385	91.63
464.391	23.505
468.395	2.813
472.398	101.499
476.398	23.001
480.397	254.289
484.394	296.463
488.389	252.552
492.382	221.589
496.373	164.571
500.362	195.521
504.349	273.402
508.335	465.285
512.319	811.23
516.3	908.115
520.28	802.95
524.259	635.719
528.235	723.454
532.209	638.114
536.182	501.683
540.152	379.17
544.121	403.568
548.088	271.867
552.053	273.065
556.017	233.337
559.978	217.167
563.938	210.065
567.895	239.862
571.851	202.556
575.805	146.772
579.758	198.636
583.708	220.022
587.657	198.305
591.603	155.546
595.548	41.941
599.491	46.569
603.432	16.823
607.372	71.993
611.309	6.776
615.245	51.242
619.179	88.137
623.111	18.803
627.041	222.664
630.97	229.873
634.896	235.867
638.821	488.773
642.744	701.208
646.665	1020.34
650.584	1400.79
654.502	2197.21
658.418	2659.15
662.331	4091.23
666.244	7785.18
670.154	16472.6
674.062	22563.3
677.969	12967.5
681.874	5940.9
685.777	3306.59
689.678	2047.56
693.577	1582.09
697.475	1003.99
701.371	887.182
705.265	497.149
709.157	521.221
713.047	305.261
716.936	396.962
720.823	394.576
724.708	321.106
728.591	404.553
732.472	464.918
736.352	654.205
740.23	992.414
744.106	962.547
747.98	1291.42
751.853	1185.24
755.723	843.617
759.592	475.896
763.459	212.526
767.325	90.279
771.188	118.202
775.05	158.146
778.91	93.701
782.768	124.649
786.625	59.582
790.479	105.475
794.332	101.336
798.183	78.084
802.033	20.285
805.88	81.146
809.726	52.371
813.57	18.591
817.413	64.996
821.253	18.256
825.092	61.949
828.929	7.016
832.764	42.023
836.598	27.784
840.429	73.446
844.259	69.031
848.088	24.429
851.914	97.033
855.739	92.482
859.562	140.985
863.383	205.509
867.203	163.107
871.02	170.56
874.836	126.086
878.65	202.599
882.463	319.128
886.274	252.735
890.083	402.377
893.89	406
897.695	360.619
901.499	510.227
905.301	428.851
909.102	524.521
912.9	516.228
916.697	629.983
920.492	787.77
924.285	1206.26
928.077	1684.29
931.867	1941.92
935.655	1434.71
939.442	1041.72
943.226	916.212
947.009	1021.59
950.791	827.124
954.57	624.258
958.348	610.304
962.124	484.509
965.899	471.706
969.671	502.397
973.442	539.977
977.211	514.402
980.979	467.834
984.745	569.837
988.509	504.198
992.271	482.82
996.032	552.475
999.791	636.55
1003.55	557.57
1007.3	784.098
1011.06	797.346
1014.81	1001.4
1018.56	1354.84
1022.31	1670.31
1026.06	2479.39
1029.8	3444.7
1033.55	2613.98
1037.29	1704.07
1041.03	1249.57
1044.77	1179.09
1048.5	1313.72
1052.24	1641.38
1055.97	2479.05
1059.7	3078.58
1063.43	2660.59
1067.16	2406.55
1070.89	2313.64
1074.61	1634.8
1078.34	1141.21
1082.06	968.309
1085.78	829.482
1089.5	551.84
1093.21	515.722
1096.93	398.949
1100.64	419.683
1104.35	375.531
1108.06	214.583
1111.77	297.479
1115.48	226.46
1119.18	148.339
1122.89	455.786
1126.59	431.82
1130.29	49.708
1133.99	149.478
1137.68	157.64
1141.38	83.988
1145.07	70.428
1148.76	92.012
1152.45	0.665
1156.14	18.87
1159.83	46.273
1163.51	48.803
1167.19	182.079
1170.88	21.591
1174.56	30.539
1178.23	60.458
1181.91	5.259
1185.59	89.332
1189.26	96.439
1192.93	59.638
1196.6	40.603
1200.27	118.05
1203.94	132.408
1207.6	123.379
1211.27	0.319
1214.93	89.646
1218.59	53.709
1222.25	51.742
1225.9	152.852
1229.56	41.658
1233.21	89.201
1236.86	154.055
1240.51	9.126
1244.16	64.883
1247.81	145.531
1251.45	227.672
1255.1	44.485
1258.74	88.868
1262.38	36.815
1266.02	78.89
1269.66	86.395
1273.29	102.421
1276.93	97.763
1280.56	184.099
1284.19	50.093
1287.82	39.508
1291.45	67.174
1295.07	81.164
1298.7	48.155
1302.32	222.223
1305.94	83.13
1309.56	143.118
1313.18	5.405
1316.8	227.274
1320.41	5.151
1324.02	51.94
1327.63	21.559
1331.24	92.318
1334.85	22.233
1338.46	133.663
1342.06	134.774
1345.67	73.972
1349.27	208.62
1352.87	278.046
1356.47	239.602
1360.07	242.166
1363.66	297.091
1367.25	246.591
1370.85	251.352
1374.44	121.314
1378.03	129.156
1381.61	122.965
1385.2	331.611
1388.78	157.02
1392.37	234.164
1395.95	260.654
1399.53	15.144
1403.1	156.06
1406.68	192.51
1410.26	121.113
1413.83	118.08
1417.4	239.612
1420.97	251.08
1424.54	72.679
1428.1	104.985
1431.67	378.585
1435.23	213.555
1438.8	340.218
1442.36	325.164
1445.91	250.936
1449.47	277.538
1453.03	168.885
1456.58	354.577
1460.13	345.974
1463.68	184.181
1467.23	232.161
1470.78	165.057
1474.33	186.566
1477.87	300.577
1481.42	98.871
1484.96	154.313
1488.5	171.838
1492.04	179.728
1495.57	179.314
1499.11	2.666
1502.64	111.764
1506.17	87.732
1509.71	161.989
1513.23	191.572
1516.76	2.479
1520.29	207.934
1523.81	0
