Measurement: Raman, 514 nm, unoriented, Raman Data Processed
Mineral: Actinolite
Rruff sample: R040063
Ideal chemistry: Ca_2_(Mg_4.5-2.5_Fe^2+^_0.5-2.5_)_=5_Si_8_O_22_(OH)_2_
Locality: Harford County, Maryland, USA
Source: University of Arizona Mineral Museum
Description: Mass of green acicular to bladed crystals associated with chlorite
Measured chemistry: (Ca_1.90_Na_0.06_Mn_0.04_)_Σ=2_(Mg_4.35_Fe_0.65_)_Σ=5_(Si_7.92_Al_0.08_)_Σ=8_O_22_(OH)_2_
Raman shift (cm-1)	intensity
139.243	0
143.401	142.606
147.557	60.408
151.711	13.892
155.863	478.204
160.013	1458.51
164.161	592.76
168.308	669.144
172.452	1827.68
176.594	6408.78
180.734	7783.79
184.872	2878.93
189.008	1406.13
193.143	1182.24
197.275	736.14
201.405	598.708
205.534	635.951
209.66	885.052
213.784	1294.97
217.907	3143.12
222.027	6566.67
226.146	5902.18
230.263	3759.26
234.377	2760.61
238.49	1252.06
242.601	567.08
246.709	724.236
250.816	957.453
254.921	695.733
259.024	354.069
263.125	128.441
267.224	23.15
271.321	90.65
275.416	86.25
279.51	15.771
283.601	80.716
287.69	639.198
291.778	976.74
295.863	725.068
299.947	713.738
304.029	689.056
308.108	584.795
312.186	221.326
316.262	200.54
320.336	244.845
324.408	403.7
328.478	924.704
332.546	1493.29
336.612	1247.12
340.677	1152.44
344.739	1324.94
348.799	1353.07
352.858	1626.01
356.915	1534.02
360.969	2175.08
365.022	4117.17
369.073	7767.27
373.122	6188.23
377.169	3336.03
381.215	2392.84
385.258	2867.66
389.299	5125.46
393.339	7665.24
397.376	5169.98
401.412	2577.68
405.446	1634.93
409.478	1796.93
413.508	2681.48
417.536	2536.96
421.562	1576.38
425.586	898.73
429.609	641.661
433.629	413.048
437.648	500.837
441.665	269.272
445.68	112.312
449.693	126.29
453.704	6.199
457.713	48.441
461.721	68.895
465.726	60.091
469.73	73.521
473.731	75.159
477.731	75.135
481.729	91.51
485.725	287.055
489.72	224.534
493.712	23.014
497.703	78.605
501.691	27.437
505.678	90.369
509.663	285.229
513.646	550.054
517.627	503.782
521.607	501.464
525.584	606.073
529.56	771.6
533.534	764.983
537.506	702.222
541.476	722.311
545.444	462.288
549.41	448.146
553.375	435.846
557.337	336.386
561.298	258.765
565.257	273.979
569.214	224.029
573.17	341.915
577.123	362.635
581.075	363.186
585.024	323.567
588.972	147.782
592.918	68.824
596.863	56.614
600.805	63.845
604.746	8.959
608.685	118.478
612.621	2.29
616.557	111.35
620.49	241.711
624.421	336.899
628.351	237.055
632.279	439.643
636.205	633.361
640.129	854.04
644.051	1447.28
647.972	2217.51
651.89	3288.94
655.807	4416.72
659.722	5771.08
663.636	9074.91
667.547	18164
671.457	37447.8
675.365	38647.4
679.271	19397.1
683.175	9051.08
687.077	5036.54
690.978	3282.2
694.877	1969.08
698.774	1602.54
702.669	1228.19
706.562	943.616
710.454	641.952
714.344	725.143
718.232	384.125
722.118	534.963
726.002	502.66
729.885	592.189
733.766	634.645
737.645	806.939
741.522	1130.11
745.397	1293.87
749.271	1733.26
753.143	1550.33
757.013	981.513
760.881	352.961
764.748	352.119
768.613	512.779
772.476	198.139
776.337	51.539
780.196	168.794
784.054	24.35
787.91	143.868
791.764	296.457
795.616	81.055
799.467	27.538
803.316	36.172
807.163	9.914
811.008	19.45
814.851	26.476
818.693	36.823
822.533	559.525
826.371	34.266
830.208	65.267
834.042	77.474
837.875	39.099
841.706	7.413
845.536	368.028
849.363	26.45
853.189	65.815
857.013	122.076
860.836	51.283
864.656	48.495
868.475	261.762
872.292	224.825
876.108	165.308
879.922	281.602
883.733	347.069
887.544	242.527
891.352	219.121
895.159	423.769
898.964	246.502
902.767	401.293
906.568	402.178
910.368	474.24
914.166	582.58
917.962	756.056
921.757	1072.6
925.55	1677.2
929.341	2547.56
933.13	2614.18
936.918	1823.49
940.703	1159.97
944.488	1171.41
948.27	1283.09
952.051	1124
955.83	580.931
959.607	630.214
963.383	379.443
967.156	553.792
970.928	459.928
974.699	608.162
978.468	588.791
982.234	470.154
986	358.309
989.763	391.107
993.525	556.474
997.285	608.506
1001.04	504.126
1004.8	760.659
1008.55	996.039
1012.31	1058.97
1016.06	1302.07
1019.81	1875.68
1023.56	2826.23
1027.31	4267.56
1031.05	5311.6
1034.79	3217.48
1038.53	1943.41
1042.27	1582.77
1046.01	1615.58
1049.75	2075.32
1053.48	3075.32
1057.22	4465.32
1060.95	4822.36
1064.68	4073.81
1068.4	4258.28
1072.13	3616.16
1075.86	2437.1
1079.58	1641.89
1083.3	1296.08
1087.02	881.094
1090.74	712.241
1094.45	511.383
1098.17	397.183
1101.88	698.254
1105.59	363.406
1109.3	461.302
1113.01	385.42
1116.71	390.152
1120.42	581.262
1124.12	562.384
1127.82	267.649
1131.52	158.173
1135.22	70.461
1138.91	1.075
1142.61	72.261
1146.3	29.618
1149.99	160.839
1153.68	66.731
1157.37	232.842
1161.06	27.451
1164.74	27.853
1168.42	92.925
1172.1	47.611
1175.78	60.963
1179.46	149.605
1183.14	74.734
1186.81	46.934
1190.48	32.598
1194.15	68.84
1197.83	133.986
1201.49	113.871
1205.16	67.689
1208.82	283.371
1212.49	115.875
1216.15	147.822
1219.81	110.385
1223.46	165.275
1227.12	153.035
1230.78	124.584
1234.43	71.451
1238.08	117.943
1241.73	96.791
1245.38	98.439
1249.03	172.955
1252.67	125.848
1256.31	257.023
1259.95	180.76
1263.6	158.23
1267.23	17.197
1270.87	233.152
1274.51	104.113
1278.14	108.93
1281.77	86.91
1285.4	139.787
1289.03	107.24
1292.66	226.037
1296.28	137.436
1299.91	46.871
1303.53	114.469
1307.15	1.387
1310.77	7.641
1314.38	239.115
1318	95.035
1321.61	200.869
1325.23	165.516
1328.84	72.291
1332.45	134.373
1336.06	44.326
1339.66	73.613
1343.27	117.574
1346.87	70.049
1350.47	79.553
1354.07	193.977
1357.67	263.854
1361.26	169.816
1364.86	155.361
1368.45	197.814
1372.04	145.816
1375.63	98.471
1379.22	119.102
1382.81	109.82
1386.39	213.656
1389.98	244.299
1393.56	140.594
1397.14	257.73
1400.72	236.684
1404.3	160.34
1407.87	309.24
1411.45	220.609
1415.02	69.746
1418.59	160.236
1422.16	148.066
1425.73	123.203
1429.29	113.145
1432.86	96.312
1436.42	66.441
1439.98	223.107
1443.54	323.941
1447.1	235.971
1450.66	244.924
1454.21	310.07
1457.77	139.115
1461.32	390.281
1464.87	226.002
1468.42	594.027
1471.96	286.324
1475.51	246.41
1479.06	229.928
1482.6	408.131
1486.14	244.68
1489.68	135.154
1493.22	88.664
1496.75	206.41
1500.29	280.244
1503.82	41.66
1507.35	141.668
1510.88	74.301
