Measurement: Raman, 532 nm, unoriented, Raman Data Processed
Mineral: Actinolite
Rruff sample: R040064
Ideal chemistry: Ca_2_(Mg_4.5-2.5_Fe^2+^_0.5-2.5_)_=5_Si_8_O_22_(OH)_2_
Locality: Ehime Perfecture, Uma Gun, Japan
Source: University of Arizona Mineral Museum
Description: Aggregate of green acicular crystals associated with chlorite
Measured chemistry: (Ca_0.95_Na_0.04_Mn_0.01_)_2_(Mg_0.88_Fe_0.12_)_5_(Si_0.98_Al_0.02_)_8_O_22_(OH)_2_
Raman shift (cm-1)	intensity
118.147	0
121.522	437.611
124.897	378.284
128.272	274.027
131.647	35.7112
135.021	47.6987
138.396	36.5446
141.771	116.195
145.146	110.732
148.521	159.776
151.895	345.371
155.27	690.521
158.645	1253.18
162.02	880.958
165.395	574.759
168.769	972.166
172.144	1806.18
175.519	3191.37
178.894	3659.66
182.269	1361.26
185.644	614.926
189.018	431.919
192.393	362.014
195.768	179.528
199.143	213.023
202.518	295.708
205.893	587.042
209.267	1023.34
212.642	1821.64
216.017	2889.47
219.392	4423.79
222.767	5542.88
226.141	4443.13
229.516	4316.82
232.891	3683.26
236.266	1880.05
239.641	1152.12
243.015	1106.41
246.39	1339.09
249.765	1358.38
253.14	883.893
256.515	505.05
259.889	269.416
263.264	184.959
266.639	86.4501
270.014	36.2071
273.389	96.4665
276.764	58.1382
280.138	12.939
283.513	130.769
286.888	254.817
290.263	371.787
293.638	229.464
297.012	203.148
300.387	328.087
303.762	370.601
307.137	250.256
310.512	114.428
313.887	47.3472
317.261	25.5774
320.636	12.7058
324.011	97.3227
327.386	239.669
330.761	367.348
334.135	281.708
337.51	163.038
340.885	274.535
344.26	444.268
347.635	709.789
351.01	839.544
354.384	840.92
357.759	1028.82
361.134	1653.2
364.509	2517.36
367.884	3691.16
371.258	3202.11
374.633	1762.69
378.008	1274.87
381.383	1456.12
384.758	2159.2
388.132	3333.64
391.507	4290.6
394.882	3905.21
398.257	2014.1
401.632	1258.35
405.007	1179.12
408.381	1453.29
411.756	1847.87
415.131	2042.87
418.506	1507.95
421.881	859.43
425.255	469.631
428.63	347.943
432.005	395.854
435.38	452.82
438.755	262.186
442.13	56.0745
445.504	4.68359
448.879	28.1816
452.254	25.7825
455.629	31.5366
459.004	26.3709
462.378	34.5928
465.753	25.7905
469.128	13.6616
472.503	50.668
475.878	102.094
479.252	143.886
482.627	207.17
486.002	236.152
489.377	188.145
492.752	153.877
496.127	155.145
499.501	185.595
502.876	289.977
506.251	430.487
509.626	581.389
513.001	710.495
516.375	713.455
519.75	660.607
523.125	587.837
526.5	627.423
529.875	595.383
533.25	344.896
536.624	170.248
539.999	164.328
543.374	172.492
546.749	148.883
550.124	92.801
553.498	82.9077
556.873	50.7268
560.248	67.3169
563.623	42.863
566.998	65.3164
570.372	107.678
573.747	77.2422
577.122	80.2205
580.497	127.043
583.872	115.891
587.246	72.1995
590.621	0.476807
593.996	20.834
597.371	22.4292
600.746	31.468
604.121	5.84619
607.495	8.42529
610.87	40.6882
614.245	75.4717
617.62	72.9416
620.995	103.365
624.369	158.015
627.744	187.137
631.119	285.395
634.494	298.514
637.869	364.288
641.244	428.61
644.618	698.587
647.993	1021.99
651.368	1539.46
654.743	2341.82
658.118	3676.29
661.492	5858.28
664.867	9197.61
668.242	14214.4
671.617	19409.1
674.992	17090.2
678.366	8778.09
681.741	4304.35
685.116	2349.61
688.491	1493.82
691.866	953.249
695.241	630.253
698.615	335.404
701.99	213.14
705.365	102.64
708.74	19.6394
712.115	18.4163
715.489	8.54712
718.864	1.44434
722.239	0.433105
725.614	60.0447
728.989	161.794
732.364	323.688
735.738	523.3
739.113	710.41
742.488	725.748
745.863	819.134
749.238	923.3
752.612	575.94
755.987	358.473
759.362	188.021
762.737	88.1755
766.112	42.6113
769.486	25.7876
772.861	5.07007
776.236	19.5889
779.611	10.3889
782.986	2.57617
786.361	0.188721
789.735	0.869385
793.11	27.364
796.485	23.2058
799.86	10.8901
803.235	39.9292
806.609	49.1731
809.984	104.997
813.359	168.837
816.734	168.079
820.109	229.684
823.484	304.877
826.858	232.433
830.233	223.386
833.608	239.859
836.983	173.458
840.358	161.622
843.732	95.125
847.107	94.1382
850.482	77.3699
853.857	59.6118
857.232	29.6804
860.606	25.2925
863.981	38.5415
867.356	17.1306
870.731	28.782
874.106	34.2476
877.481	11.9121
880.855	28.2029
884.23	71.0681
887.605	82.5117
890.98	67.7852
894.355	87.6838
897.729	80.645
901.104	92.5835
904.479	164.583
907.854	184.66
911.229	222.89
914.604	313.692
917.978	384.601
921.353	818.337
924.728	1158.35
928.103	1526
931.478	1561.17
934.852	1013.68
938.227	591.682
941.602	415.244
944.977	384.001
948.352	311.47
951.726	237.132
955.101	145.947
958.476	94.084
961.851	24.3589
965.226	20.1587
968.601	33.29
971.975	7.23486
975.35	7.01221
978.725	15.0732
982.1	20.085
985.475	11.4082
988.849	1.97363
992.224	29.4727
995.599	25.9863
998.974	89.6377
1002.35	145.49
1005.72	258.034
1009.1	369.844
1012.47	589.138
1015.85	852.315
1019.22	1373.34
1022.6	2045.87
1025.97	2976.85
1029.35	3209.28
1032.72	2185.28
1036.1	1200.63
1039.47	726.224
1042.85	664.843
1046.22	807.683
1049.6	1145.8
1052.97	1679.11
1056.35	2317.25
1059.72	2524.23
1063.1	2071.7
1066.47	1994.02
1069.85	1858.66
1073.22	1099.52
1076.6	664.734
1079.97	409.481
1083.34	278.941
1086.72	221.167
1090.09	124.46
1093.47	121.924
1096.84	75.5713
1100.22	100.106
1103.59	69.1406
1106.97	46.501
1110.34	63.3369
1113.72	1.54785
1117.09	57.9756
1120.47	10.4702
1123.84	20.3564
1127.22	48.1143
1130.59	59.5337
1133.97	47.0151
1137.34	13.7959
1140.72	17.7295
1144.09	19.7529
1147.47	35.0112
1150.84	5.57373
1154.21	63.6274
1157.59	29.4336
1160.96	6.70996
1164.34	12.0122
1167.71	39.7754
1171.09	42.7651
1174.46	19.0557
1177.84	83.6079
1181.21	36.0347
1184.59	49.2647
1187.96	34.7144
1191.34	29.5864
1194.71	12.2852
1198.09	4.30029
1201.46	50.5825
1204.84	59.0977
1208.21	41.8862
1211.59	58.3872
1214.96	10.8047
1218.34	33.7827
1221.71	9.50146
1225.09	90.8662
1228.46	46.4048
1231.84	93.3394
1235.21	105.951
1238.59	99.7188
1241.96	128.721
1245.34	130.084
1248.71	28.9609
1252.09	13.0869
1255.46	63.3135
1258.84	82.6963
1262.21	64.2769
1265.58	75.2891
1268.96	120.848
1272.33	140.34
1275.71	76.3335
1279.08	87.0474
1282.46	73.6465
1285.83	50.7417
1289.21	69.6421
1292.58	82.7388
1295.96	1.67041
