Measurement: Raman, 780 nm, unoriented, Raman Data Processed
Mineral: Adamite
Rruff sample: R060593
Ideal chemistry: Zn^2+^_2_As^5+^O_4_(OH)
Locality: Tsumeb mine, Tsumeb, Otavi District, Oshikoto, Namibia
Source: Michael Scott
Description: Bluish-green prismatic crystals
Measured chemistry: (Zn_1.65_Cu_0.35_)_Î£=2_(As_1.00_O_4_)(OH) ; H not measured but estimated by difference and stoichiometry
Raman shift (cm-1)	intensity
164.885	0
167.778	17.2485
170.671	42.5566
173.563	65.9911
176.456	41.8268
179.349	6.5408
182.242	4.7424
185.134	1.56586
188.027	24.1111
190.92	46.8856
193.812	71.2901
196.705	102.788
199.598	141.141
202.49	189.356
205.383	250.433
208.276	297.681
211.168	285.643
214.061	243.542
216.954	232.322
219.847	259.675
222.739	339.407
225.632	463.945
228.525	603.217
231.417	621.388
234.31	471.308
237.203	364.602
240.095	350.542
242.988	400.665
245.881	494.702
248.774	592.234
251.666	658.425
254.559	643.167
257.452	563.55
260.344	482.564
263.237	401.88
266.13	339.148
269.022	307.333
271.915	299.418
274.808	303.858
277.701	275.495
280.593	191.619
283.486	109.781
286.379	67.9761
289.271	47.74
292.164	25.3914
295.057	13.3055
297.95	3.66231
300.842	1.70721
303.735	3.88762
306.628	10.676
309.52	18.5903
312.413	25.5324
315.306	33.797
318.198	42.0318
321.091	36.8362
323.984	31.3008
326.877	17.4828
329.769	3.8904
332.662	0.153076
335.555	6.95468
338.447	5.04668
341.34	4.15779
344.233	3.93367
347.125	3.92572
350.018	1.77837
352.911	10.4603
355.803	20.6843
358.696	31.3894
361.589	48.3714
364.482	64.7792
367.374	89.9898
370.267	124.564
373.16	153.144
376.052	154.556
378.945	109.731
381.838	61.0917
384.731	33.1106
387.623	17.3159
390.516	12.5809
393.409	6.06957
396.301	5.11118
399.194	4.84464
402.087	10.4484
404.979	21.291
407.872	27.6823
410.765	41.6629
413.658	58.5618
416.55	77.2815
419.443	89.4648
422.336	86.1363
425.228	58.7121
428.121	25.0807
431.014	10.3422
433.906	0.2911
436.799	4.82377
439.692	4.10692
442.584	0.249718
445.477	11.0063
448.37	8.88277
451.263	17.5461
454.155	26.0154
457.048	36.2295
459.941	45.5154
462.833	55.72
465.726	69.0404
468.619	89.424
471.512	117.915
474.404	142.946
477.297	170.381
480.19	185.89
483.082	189.266
485.975	197.184
488.868	210.471
491.76	228.569
494.653	216.189
497.546	159.259
500.438	92.0868
503.331	55.2939
506.224	32.6938
509.117	23.105
512.009	20.6232
514.902	26.0601
517.795	35.4159
520.687	46.2005
523.58	65.8745
526.473	90.2494
529.365	120.077
532.258	146.486
535.151	164.913
538.044	156.274
540.936	128.151
543.829	91.1496
546.722	61.6918
549.614	42.0702
552.507	26.8132
555.4	15.6199
558.293	9.68187
561.185	4.11587
564.078	2.07545
566.971	2.59106
569.863	0.121994
572.756	2.89442
575.649	0.627815
578.541	1.91612
581.434	0.188828
584.327	2.25922
587.22	0.362793
590.112	1.46688
593.005	1.44335
595.898	1.29192
598.79	3.41007
601.683	3.8088
604.576	5.59336
607.468	5.84608
610.361	3.23635
613.254	5.49833
616.146	6.72596
619.039	7.51945
621.932	8.36376
624.825	8.45256
627.717	9.00232
630.61	8.3363
633.503	7.25234
636.395	9.39229
639.288	7.99955
642.181	8.19074
645.073	8.44983
647.966	8.79665
650.859	7.493
653.752	8.01337
656.644	9.63957
659.537	9.19099
662.43	10.9715
665.322	8.9857
668.215	13.7097
671.108	15.2793
674	17.548
676.893	14.2462
679.786	14.2735
682.679	16.1974
685.571	13.0734
688.464	15.7979
691.357	12.3473
694.249	12.4377
697.142	11.8987
700.035	9.33408
702.928	12.8885
705.82	16.7719
708.713	19.5686
711.606	17.7912
714.498	21.7645
717.391	20.1708
720.284	22.1481
723.176	17.0302
726.069	18.1862
728.962	18.8669
731.855	18.6685
734.747	17.225
737.64	17.5095
740.533	16.7459
743.425	12.1576
746.318	10.7794
749.211	6.85933
752.103	1.21455
754.996	0.369011
757.889	2.12545
760.782	4.27178
763.674	6.01398
766.567	5.30153
769.46	6.55713
772.352	6.63555
775.245	6.33103
778.138	1.96207
781.03	0.31488
783.923	7.26988
786.816	19.4313
789.708	40.8297
792.601	67.219
795.494	109.559
798.387	160.369
801.279	221.112
804.172	275.035
807.065	324.356
809.957	393.624
812.85	496.633
815.743	635.158
818.635	752.807
821.528	762.177
824.421	690.961
827.314	665.001
830.206	747.662
833.099	933.263
835.992	1199.93
838.884	1519.21
841.777	1836.78
844.67	2044.89
847.562	1906.48
850.455	1450.35
853.348	997.5
856.241	662.588
859.133	441.513
862.026	313.512
864.919	251.09
867.811	246.22
870.704	298.577
873.597	417.901
876.49	596.755
879.382	839.108
882.275	1170.13
885.168	1507.67
888.06	1562
890.953	1187.24
893.846	732.261
896.738	430.03
899.631	259.692
902.524	161.577
905.417	102.054
908.309	64.5663
911.202	41.8852
914.095	24.5503
916.987	15.2376
919.88	5.41228
922.773	3.49207
925.665	1.72095
928.558	2.70906
931.451	8.26934
934.343	8.70026
937.236	9.55351
940.129	6.6452
943.022	6.5554
945.914	4.6654
948.807	0.002853
951.7	4.18262
954.592	6.28675
957.485	9.16753
960.378	11.797
963.27	9.8512
966.163	13.4906
969.056	12.5595
971.949	15.9706
974.841	16.2199
977.734	17.4347
980.627	19.371
983.519	19.8108
986.412	20.6536
989.305	19.3348
992.197	19.7976
995.09	19.4678
997.983	15.4489
1000.88	12.7167
1003.77	14.5704
1006.66	11.6267
1009.55	11.2699
1012.45	9.81849
1015.34	10.3499
1018.23	10.1318
1021.12	8.93661
1024.02	12.5499
1026.91	10.1688
1029.8	10.634
1032.69	9.89453
1035.59	9.29445
1038.48	10.8333
1041.37	10.142
1044.27	6.54299
1047.16	8.88993
1050.05	6.87998
1052.94	7.05946
1055.84	6.53288
1058.73	6.58963
1061.62	1.3921
1064.52	5.68609
1067.41	2.91204
1070.3	6.00884
1073.19	3.23653
1076.09	3.39465
1078.98	3.56414
1081.87	4.70504
1084.76	4.96195
1087.66	1.62156
1090.55	5.59521
1093.44	5.49429
1096.34	2.72208
1099.23	3.43005
1102.12	2.97308
1105.01	3.00129
1107.91	0.745853
1110.8	0.260941
1113.69	2.65693
1116.58	4.61003
1119.48	3.06295
1122.37	2.01117
1125.26	0.113976
1128.15	0.098522
1131.05	0.609226
1133.94	3.49393
1136.83	0.026905
1139.72	1.52614
1142.62	0.955021
1145.51	0.374989
1148.4	0.609894
1151.3	1.12084
1154.19	1.04987
1157.08	0.736313
1159.97	2.51584
1162.87	0.907372
1165.76	0.879112
1168.65	0.964708
1171.55	0.177862
1174.44	2.74911
1177.33	3.59125
1180.22	1.82693
1183.12	2.27949
1186.01	2.10169
1188.9	4.04522
1191.79	3.10402
1194.69	1.15436
1197.58	4.43632
1200.47	0.929487
1203.37	3.2043
1206.26	3.35275
1209.15	3.32386
1212.04	1.77878
1214.93	4.99828
1217.83	3.2835
1220.72	2.32793
1223.61	2.85436
1226.51	2.23961
1229.4	2.11489
1232.29	1.97868
1235.18	0.9555
1238.08	0.080297
1240.97	4.10595
1243.86	2.60454
1246.76	0.425745
1249.65	3.03967
1252.54	4.25322
1255.43	2.35361
1258.33	1.4172
1261.22	0.334826
1264.11	1.95484
1267	0.551079
1269.9	1.69116
1272.79	1.43596
1275.68	1.40374
1278.58	1.54997
1281.47	1.05719
1284.36	1.12088
