Measurement: Raman, 785 nm, unoriented, Raman Data Processed
Mineral: Adamite
Rruff sample: R040130
Ideal chemistry: Zn^2+^_2_As^5+^O_4_(OH)
Locality: Mina Ojuela, Mapimi, Durango, Mexico
Source: Bob Downs
Description: Pale yellow spherical aggregate of bladed crystals
Measured chemistry: Zn_1.97_(As_1.01_O_4_)(OH)
Raman shift (cm-1)	intensity
117.162	0
120.055	2.65808
122.948	12.3578
125.841	104.84
128.733	275.063
131.626	454.142
134.519	572.038
137.411	544.525
140.304	540.348
143.197	514.022
146.089	379.216
148.982	242.963
151.875	190.915
154.768	170.564
157.66	197.069
160.553	113.938
163.446	128.226
166.338	219.933
169.231	368.538
172.124	493.475
175.017	388.945
177.909	103.395
180.802	70.6644
183.695	78.661
186.587	24.6201
189.48	82.3758
192.373	247.5
195.265	513.498
198.158	827.071
201.051	1196.83
203.944	1574.02
206.836	2032
209.729	2320.7
212.622	1943.74
215.514	1510.97
218.407	1363.49
221.3	1530.75
224.192	1914.03
227.085	2792.07
229.978	3828.68
232.87	4011.12
235.763	2969.28
238.656	2447.06
241.549	2685.58
244.441	3433.19
247.334	4349.65
250.227	5038.13
253.119	4775.28
256.012	3793.38
258.905	2837.99
261.798	2098.86
264.69	1623.49
267.583	1315.31
270.476	1047.95
273.368	822.625
276.261	654.587
279.154	403.258
282.046	238.603
284.939	111.811
287.832	75.4476
290.724	51.0701
293.617	0.339294
296.51	5.54456
299.403	18.6049
302.295	6.17731
305.188	76.8634
308.081	166.324
310.973	235.553
313.866	328.035
316.759	466.41
319.651	637.677
322.544	770.164
325.437	699.254
328.33	394.799
331.222	168.953
334.115	44.2054
337.008	3.9718
339.9	38.8164
342.793	33.5861
345.686	29.7515
348.579	25.4933
351.471	58.8055
354.364	114.898
357.257	238.691
360.149	429.516
363.042	702.279
365.935	1100.05
368.827	1652.96
371.72	2401.24
374.613	2892.28
377.505	2422.25
380.398	1375.74
383.291	732.129
386.184	414.414
389.076	317.72
391.969	336.26
394.862	404.036
397.754	559.595
400.647	798.653
403.54	1104.27
406.433	1500.13
409.325	1869.17
412.218	2158.57
415.111	2365.63
418.003	2471.84
420.896	2416.88
423.789	1850.04
426.681	1128.42
429.574	564.241
432.467	260.428
435.36	93.806
438.252	35.6055
441.145	13.4003
444.038	2.39142
446.93	10.2507
449.823	85.1569
452.716	141.872
455.608	164.877
458.501	102.624
461.394	64.3729
464.286	12.0559
467.179	33.6926
470.072	3.10553
472.965	45.4802
475.857	104.594
478.75	192.916
481.643	349.437
484.535	586.057
487.428	918.322
490.321	1403.78
493.214	1867.27
496.106	1796.01
498.999	1148.15
501.892	557.44
504.784	229.664
507.677	87.6569
510.57	52.2281
513.462	72.5836
516.355	162.998
519.248	277.564
522.14	500.378
525.033	817.42
527.926	1265.88
530.819	1805.8
533.711	2438.3
536.604	2807.66
539.497	2769.34
542.389	2185.47
545.282	1568.25
548.175	1032.9
551.067	691.522
553.96	446.246
556.853	278.995
559.745	185.621
562.638	110.655
565.531	67.0691
568.424	48.3313
571.316	25.1971
574.209	10.9825
577.102	7.33725
579.994	5.8952
582.887	1.33707
585.78	9.02182
588.673	19.4886
591.565	8.80179
594.458	0.114563
597.351	2.83283
600.243	1.83594
603.136	4.79263
606.029	10.2002
608.921	12.7685
611.814	29.0014
614.707	31.9486
617.6	53.0131
620.492	69.8527
623.385	55.7011
626.278	71.5937
629.17	74.1847
632.063	66.9042
634.956	84.9866
637.848	76.772
640.741	94.0838
643.634	70.6481
646.527	72.1812
649.419	74.9827
652.312	74.6359
655.205	81.1759
658.097	72.9518
660.99	105.74
663.883	103.35
666.775	104.854
669.668	107.399
672.561	138.445
675.454	136.852
678.346	132.931
681.239	152.347
684.132	148.848
687.024	129.848
689.917	153.627
692.81	159.928
695.702	155.003
698.595	138.027
701.488	146.667
704.381	159.028
707.273	146.48
710.166	159.654
713.059	165.137
715.951	196.305
718.844	197.195
721.737	192.256
724.63	216.402
727.522	194.626
730.415	197.987
733.308	189.534
736.2	178.898
739.093	157.399
741.986	145.413
744.878	137.892
747.771	103.475
750.664	93.2663
753.557	73.0687
756.449	47.6292
759.342	17.6752
762.235	4.31467
765.127	15.6437
768.02	25.2449
770.913	46.9567
773.805	60.006
776.698	86.9562
779.591	76.8231
782.484	69.9829
785.376	16.3981
788.269	40.4569
791.162	123.729
794.054	255.643
796.947	409.268
799.84	582.565
802.732	733.696
805.625	914.687
808.518	1266.42
811.41	1941.77
814.303	2885.87
817.196	3807.22
820.089	4030.62
822.981	3363.46
825.874	3027.25
828.767	3403.9
831.659	4789.46
834.552	7337.33
837.445	11008.2
840.337	15642.2
843.23	20381.7
846.123	19857.7
849.016	13608.3
851.908	8270.43
854.801	5405.46
857.694	3662.64
860.586	2642.71
863.479	1990.49
866.372	1833.7
869.264	1926.23
872.157	2518.72
875.05	3719.44
877.943	5980.21
880.835	9574.65
883.728	14477.9
886.621	19807
889.513	20886.5
892.406	15487.5
895.299	9420.07
898.192	5473.36
901.084	3362.24
903.977	2072.26
906.87	1394.89
909.762	931.973
912.655	621.919
915.548	420.127
918.44	244.561
921.333	209.161
924.226	171.571
927.119	151.784
930.011	87.4053
932.904	4.8454
935.797	55.6783
938.689	82.1744
941.582	99.7943
944.475	66.064
947.367	32.967
950.26	44.8635
953.153	25.8481
956.045	5.40808
958.938	1.03284
961.831	27.9521
964.724	33.6821
967.616	48.8084
970.509	69.6749
973.402	84.5633
976.294	92.8813
979.187	105.752
982.08	99.9265
984.972	126.781
987.865	113.979
990.758	148.056
993.651	146.525
996.543	144.884
999.436	127.995
1002.33	109.277
1005.22	111.847
1008.11	117.816
1011.01	94.5399
1013.9	104.305
1016.79	95.1729
1019.68	109.537
1022.58	118.006
1025.47	109.376
1028.36	116.098
1031.26	119.567
1034.15	114.155
1037.04	108.565
1039.93	109.298
1042.83	104.042
1045.72	110.822
1048.61	93.5948
1051.51	70.8771
1054.4	88.5009
1057.29	75.5454
1060.18	63.6882
1063.08	60.5182
1065.97	52.8815
1068.86	41.6347
1071.75	63.1468
1074.65	45.8585
1077.54	26.3958
1080.43	49.734
1083.32	34.4798
1086.22	49.6525
1089.11	45.3642
1092	44.4802
1094.89	31.4398
1097.79	43.4071
1100.68	30.4196
1103.57	33.7987
1106.47	26.252
1109.36	42.5343
1112.25	14.3091
1115.14	20.429
1118.04	11.3149
1120.93	3.68428
1123.82	12.6964
1126.71	18.8799
1129.61	3.28957
1132.5	2.34164
1135.39	3.099
1138.29	2.22455
1141.18	2.52232
1144.07	3.39201
1146.96	3.25021
1149.86	4.23758
1152.75	3.08864
1155.64	2.46158
1158.53	7.84868
1161.43	14.8131
1164.32	0.384964
1167.21	1.63443
1170.11	4.81184
1173	7.57817
1175.89	4.23393
1178.78	5.25708
1181.68	6.13696
1184.57	4.32317
1187.46	6.27464
1190.35	14.2916
1193.25	10.6229
1196.14	6.64188
1199.03	6.94734
1201.92	19.9633
1204.82	3.79993
1207.71	10.7542
1210.6	3.56718
1213.5	9.53627
1216.39	0.389618
1219.28	16.0642
1222.17	18.9171
1225.07	0.015671
