Measurement: Raman, 514 nm, unoriented, Raman Data Processed
Mineral: Adamite
Rruff sample: R040130
Ideal chemistry: Zn^2+^_2_As^5+^O_4_(OH)
Locality: Mina Ojuela, Mapimi, Durango, Mexico
Source: Bob Downs
Description: Pale yellow spherical aggregate of bladed crystals
Measured chemistry: Zn_1.97_(As_1.01_O_4_)(OH)
Raman shift (cm-1)	intensity
114.254	0
118.424	335.605
122.592	806.195
126.758	1397.33
130.922	1508.04
135.083	2347.71
139.243	1719.53
143.401	1084.27
147.557	361.609
151.711	136.422
155.863	546.078
160.013	246.68
164.161	363.727
168.308	805.809
172.452	710.391
176.594	647.855
180.734	759.16
184.872	459.164
189.008	594.094
193.143	455.137
197.275	246.543
201.405	1123.41
205.534	871.043
209.66	792.387
213.784	753.746
217.907	838.531
222.027	699.879
226.146	888.309
230.263	1303.97
234.377	1183.33
238.49	767.176
242.601	957.719
246.709	1176.39
250.816	1505.98
254.921	1095.77
259.024	741.066
263.125	717.418
267.224	672.238
271.321	58.422
275.416	601.129
279.51	355.914
283.601	164.426
287.69	292.746
291.778	200.246
295.863	554.887
299.947	374.613
304.029	153.504
308.108	583.535
312.186	498.336
316.262	777.086
320.336	844.102
324.408	629.73
328.478	803.73
332.546	281.918
336.612	422.277
340.677	198.258
344.739	258.055
348.799	22.984
352.858	364.07
356.915	372.906
360.969	679.047
365.022	862.672
369.073	1530.68
373.122	2523.11
377.169	2351.21
381.215	730.289
385.258	422.387
389.299	661.152
393.339	225.613
397.376	373.957
401.412	905.477
405.446	1732.25
409.478	1433.93
413.508	1804.27
417.536	1358.64
421.562	949.773
425.586	702.469
429.609	908.371
433.629	237.121
437.648	464.379
441.665	256.133
445.68	292.141
449.693	82.93
453.704	114.016
457.713	58.754
461.721	71.836
465.726	0.367
469.73	67.086
473.731	84.934
477.731	452.191
481.729	240.457
485.725	324.027
489.72	441.082
493.712	272.578
497.703	173.336
501.691	387.762
505.678	100.602
509.663	39.391
513.646	264.027
517.627	116.598
521.607	195.172
525.584	283.469
529.56	445.328
533.534	259.715
537.506	775.707
541.476	470.074
545.444	154.73
549.41	14.352
553.375	42.812
557.337	165.234
561.298	90.375
565.257	153.746
569.214	141.891
573.17	393.504
577.123	20.113
581.075	196.973
585.024	523.75
588.972	635.805
592.918	438.988
596.863	410.441
600.805	148.469
604.746	122.254
608.685	335.652
612.621	31.715
616.557	162.355
620.49	429.258
624.421	593.367
628.351	263.906
632.279	15.453
636.205	350.828
640.129	93.121
644.051	765.527
647.972	775.469
651.89	249.68
655.807	402.223
659.722	463.547
663.636	594.883
667.547	127.414
671.457	952.059
675.365	1080.33
679.271	642.398
683.175	464.23
687.077	884
690.978	1138.87
694.877	55.781
698.774	1190.79
702.669	1226.61
706.562	895.004
710.454	787.129
714.344	1526.89
718.232	612.93
722.118	1278.65
726.002	830.375
729.885	510.613
733.766	1119.33
737.645	1099.05
741.522	1507.52
745.397	1345.67
749.271	981.098
753.143	1453.14
757.013	1300.41
760.881	1194.84
764.748	1102.36
768.613	2027.78
772.476	1393.68
776.337	678.527
780.196	1544.23
784.054	1387.8
787.91	1603
791.764	1853
795.616	2301.86
799.467	3588.79
803.316	3504.8
807.163	2273.93
811.008	3544.49
814.851	5116.15
818.693	6671.32
822.533	5107.67
826.371	3928.17
830.208	3353.58
834.042	3856.14
837.875	5741.27
841.706	8751.09
845.536	10537.1
849.363	7338.55
853.189	4865.97
857.013	3606.53
860.836	2530.27
864.656	1493.91
868.475	2129.42
872.292	2037.95
876.108	2846.49
879.922	4369.9
883.733	6602.21
887.544	10804.3
891.352	11338
895.159	7075.35
898.964	4168.34
902.767	2684.97
906.568	1998.11
910.368	1766.92
914.166	1902.35
917.962	1259.34
921.757	1212.82
925.55	1445.79
929.341	1104.19
933.13	1568.93
936.918	1529.97
940.703	863.246
944.488	1006.79
948.27	1406.34
952.051	775.539
955.83	84.945
959.607	527.855
963.383	426.855
967.156	560.078
970.928	502.348
974.699	925.902
978.468	723.047
982.234	618.441
986	64.066
989.763	488.625
993.525	830.57
997.285	980.188
1001.04	441.113
1004.8	1034.52
1008.55	809.625
1012.31	729.086
1016.06	654.012
1019.81	765.906
1023.56	991.078
1027.31	446
1031.05	1024.71
1034.79	754.492
1038.53	473.148
1042.27	1291.21
1046.01	1175.24
1049.75	495.91
1053.48	1461.18
1057.22	609.945
1060.95	869.789
1064.68	622.277
1068.4	98.141
1072.13	226.723
1075.86	154.652
1079.58	225.449
1083.3	223.07
1087.02	91.598
1090.74	68.809
1094.45	35.629
1098.17	288.809
1101.88	153.27
1105.59	96.824
1109.3	14.809
1113.01	111.777
1116.71	58.293
1120.42	73.77
1124.12	723.262
1127.82	140.406
1131.52	426.102
1135.22	50.598
1138.91	191.695
1142.61	155.195
1146.3	212.16
1149.99	74.105
1153.68	206.152
1157.37	336.426
1161.06	442.008
1164.74	237.41
1168.42	136.496
1172.1	365.133
1175.78	80.703
1179.46	18.25
1183.14	341.289
1186.81	573.297
1190.48	551.359
1194.15	703.379
1197.83	381.5
1201.49	585.848
1205.16	74.723
1208.82	666.391
1212.49	507.164
1216.15	392.492
1219.81	435.047
1223.46	539.082
1227.12	838.219
1230.78	660.008
1234.43	576.484
1238.08	565.523
1241.73	541.555
1245.38	523.594
1249.03	700.812
1252.67	525.137
1256.31	571.309
1259.95	824.816
1263.6	341.816
1267.23	499.352
1270.87	619.797
1274.51	166.953
1278.14	537.566
1281.77	329.262
1285.4	398.836
1289.03	129.504
1292.66	404.281
1296.28	352
1299.91	458.879
1303.53	238.043
1307.15	148.484
1310.77	237.617
1314.38	490.559
1318	232.812
1321.61	676.637
1325.23	492.555
1328.84	351.023
1332.45	549.695
1336.06	384.898
1339.66	521.609
1343.27	692.184
1346.87	569.605
1350.47	839.613
1354.07	969.32
1357.67	432.137
1361.26	981.438
1364.86	866.383
1368.45	844.324
1372.04	593.527
1375.63	784.418
1379.22	561.668
1382.81	905.48
1386.39	888.285
1389.98	1080.64
1393.56	828.602
1397.14	644.852
1400.72	1005.14
1404.3	777.457
1407.87	722.77
1411.45	802.207
1415.02	439.742
1418.59	915.633
1422.16	578.25
1425.73	795.211
1429.29	683.109
1432.86	674.52
1436.42	596.184
1439.98	850.863
1443.54	865.211
1447.1	659.969
1450.66	1003.84
1454.21	832.715
1457.77	394.188
1461.32	489.754
1464.87	449.988
1468.42	830.547
1471.96	716.969
1475.51	790.078
1479.06	569.328
1482.6	696.207
1486.14	154.238
1489.68	951.395
1493.22	13.121
1496.75	0
