Measurement: Raman, 532 nm, unoriented, Raman Data Processed
Mineral: Adamite
Rruff sample: R040130
Ideal chemistry: Zn^2+^_2_As^5+^O_4_(OH)
Locality: Mina Ojuela, Mapimi, Durango, Mexico
Source: Bob Downs
Description: Pale yellow spherical aggregate of bladed crystals
Measured chemistry: Zn_1.97_(As_1.01_O_4_)(OH)
Raman shift (cm-1)	intensity
134.716	0
138.091	575.898
141.466	344.642
144.841	11.1533
148.215	5.30859
151.59	562.717
154.965	1073.97
158.34	1052.04
161.715	920.638
165.09	1039.31
168.464	1335.09
171.839	1522.65
175.214	1317.88
178.589	1048.03
181.964	981.727
185.339	958.102
188.713	1077.66
192.088	1243.07
195.463	1416
198.838	1586.78
202.213	1693.45
205.587	1998.12
208.962	2203.81
212.337	1707.92
215.712	1250.12
219.087	1191.87
222.462	1298.86
225.836	1766.14
229.211	2338.04
232.586	2352.12
235.961	1570.09
239.336	1463.67
242.71	1778.9
246.085	2512.6
249.46	2945.38
252.835	2759.53
256.21	2101.41
259.584	1509.66
262.959	1110.8
266.334	821
269.709	694.314
273.084	513.729
276.459	330.184
279.833	149.615
283.208	22.541
286.583	5.33984
289.958	85.5234
293.333	8.96094
296.707	7.96875
300.082	31
303.457	110.016
306.832	120.955
310.207	236.519
313.582	311.918
316.956	436.209
320.331	599.209
323.706	695.664
327.081	505.57
330.456	138.42
333.83	43.0078
337.205	5.52539
340.58	0.123047
343.955	33.0742
347.33	18.6484
350.705	100.988
354.079	142.891
357.454	262.82
360.829	508.084
364.204	713.59
367.579	1340.46
370.954	1982.45
374.328	2423.47
377.703	1768.05
381.078	959.934
384.453	430.467
387.828	250.975
391.202	318.213
394.577	392.631
397.952	622.445
401.327	876.303
404.702	1310.77
408.077	1763.12
411.451	2287.63
414.826	2760.35
418.201	2892.74
421.576	2677.49
424.951	1644.41
428.325	862.877
431.7	440.004
435.075	168.57
438.45	128.516
441.825	75.918
445.2	89.7441
448.574	255.928
451.949	332.281
455.324	245.475
458.699	166.106
462.074	71.125
465.448	28.8203
468.823	116.574
472.198	0.28125
475.573	24.4824
478.948	203.764
482.322	178.273
485.697	466.147
489.072	753.506
492.447	1059.3
495.822	903.119
499.197	549.773
502.571	298.023
505.946	54.2051
509.321	56.6777
512.696	164.982
516.071	392.926
519.446	544.248
522.82	945.719
526.195	1619.1
529.57	2410.89
532.945	3423.41
536.32	3943.54
539.694	3671.25
543.069	2632.67
546.444	1736.19
549.819	978.004
553.194	742.268
556.568	385.203
559.943	272.641
563.318	187.727
566.693	139.731
570.068	186.545
573.443	15.2246
576.817	55.8105
580.192	70.6777
583.567	96.6562
586.942	36.4473
590.317	84.6309
593.692	1.1875
597.066	131.072
600.441	41.3906
603.816	98.8574
607.191	44.6406
610.566	128.369
613.94	95.5547
617.315	48.3398
620.69	116.885
624.065	151.797
627.44	83.5449
630.814	199.398
634.189	125.799
637.564	100.617
640.939	246.836
644.314	233.029
647.689	167.881
651.063	143.701
654.438	241.305
657.813	158.356
661.188	221.94
664.563	175.221
667.938	105.549
671.312	173.106
674.687	204.352
678.062	231.506
681.437	214.654
684.812	326.684
688.186	192.664
691.561	246.027
694.936	278.639
698.311	231.158
701.686	227.732
705.061	254.695
708.435	213.744
711.81	281.828
715.185	239.928
718.56	232.326
721.935	273.266
725.309	354.656
728.684	270.018
732.059	138.629
735.434	261.894
738.809	137.621
742.183	125.996
745.558	157.91
748.933	220.738
752.308	21.4922
755.683	60.5469
759.058	29.7617
762.432	7.76172
765.807	63.8457
769.182	95.7109
772.557	26.2188
775.932	132.734
779.307	29.5371
782.681	31.2949
786.056	47.9004
789.431	113.039
792.806	188.481
796.181	695.74
799.555	761.379
802.93	989.359
806.305	1330.37
809.68	1982.58
813.055	3028.52
816.429	4274.26
819.804	4405.4
823.179	3684.07
826.554	3329.51
829.929	4534.69
833.304	7418.68
836.678	11894.8
840.053	16379.8
843.428	20178
846.803	16629.2
850.178	9600.69
853.553	5485.01
856.927	3494.64
860.302	2401.93
863.677	1870.91
867.052	2040.37
870.427	2686.84
873.801	4302.57
877.176	7651.76
880.551	13414.4
883.926	20989.4
887.301	26990.8
890.676	23301.3
894.05	13685.2
897.425	7281.48
900.8	4130.76
904.175	2264.41
907.55	1439.93
910.924	974.531
914.299	637.371
917.674	400.254
921.049	343.109
924.424	302.125
927.798	246.947
931.173	219.117
934.548	57.9688
937.923	52.8066
941.298	45.6797
944.673	51.5723
948.047	116.85
951.422	64.9082
954.797	15.4375
958.172	78.2051
961.547	86.8301
964.922	4.47656
968.296	57.3262
971.671	96.6797
975.046	71.7812
978.421	128.754
981.796	149.928
985.17	188.727
988.545	222.328
991.92	261.504
995.295	157.772
998.67	217.498
1002.04	142.353
1005.42	146.394
1008.79	167.914
1012.17	194.176
1015.54	174.535
1018.92	254.004
1022.29	59.7188
1025.67	185.883
1029.04	125.777
1032.42	138.682
1035.79	171.935
1039.17	157.209
1042.54	237.992
1045.92	180.158
1049.29	110.203
1052.67	138.225
1056.04	119.982
1059.42	94.1602
1062.79	171.822
1066.17	54.6484
1069.54	94.3887
1072.92	232.861
1076.29	128.877
1079.66	64.8711
1083.04	151.262
1086.41	81.2148
1089.79	13.6328
1093.16	157.152
1096.54	67.8184
1099.91	47.498
1103.29	38.4922
1106.66	192.315
1110.04	111.744
1113.41	4.58984
1116.79	151.494
1120.16	18.0449
1123.54	59.668
1126.91	6.16016
1130.29	10.2754
1133.66	15.8457
1137.04	125.965
1140.41	34.4258
1143.79	20.0625
1147.16	29.5273
1150.54	99.8301
1153.91	109.746
1157.29	144.938
1160.66	142.518
1164.04	110.939
1167.41	157.369
1170.79	119.477
1174.16	86.8574
1177.54	60.0703
1180.91	98.4238
1184.29	65.9609
1187.66	132.004
1191.03	100.586
1194.41	127.223
1197.78	77.9707
1201.16	54.8945
1204.53	155.473
1207.91	97.7363
1211.28	165.154
1214.66	61.0352
1218.03	36.1875
1221.41	117.133
1224.78	78.3262
1228.16	93.5293
1231.53	83.8398
1234.91	52.8496
1238.28	92.7402
1241.66	26.2305
1245.03	48.7988
1248.41	186.397
1251.78	37.877
1255.16	99.7148
1258.53	76.7656
1261.91	22.4453
1265.28	101.391
1268.65	39.0391
1272.03	48.793
1275.4	96.6992
1278.78	90.3379
1282.15	77.5352
1285.53	56.4902
1288.9	83.3242
1292.28	65.9492
1295.65	84.1211
1299.03	99.3906
1302.4	4.61328
