Measurement: Raman, 514 nm, unoriented, Raman Data Processed
Mineral: Adamite
Rruff sample: R050020
Ideal chemistry: Zn^2+^_2_As^5+^O_4_(OH)
Locality: Mina Ojuela, Mapimi, Durango, Mexico
Source: Eugene Schlepp
Description: Light green prismatic crystal
Measured chemistry: (Zn_1.97_Cu_0.03_)_Σ=2_((As_0.98_P_0.02_)_Σ=1_O_4_)(OH)
Raman shift (cm-1)	intensity
130.922	0
135.083	64.975
139.243	88.861
143.401	197.002
147.557	100.572
151.711	1.979
155.863	99.457
160.013	106.111
164.161	255.426
168.308	338.301
172.452	656.875
176.594	874.705
180.734	616.812
184.872	361.871
189.008	339.836
193.143	328.057
197.275	44.295
201.405	317.256
205.534	91.543
209.66	334.549
213.784	212.777
217.907	311.361
222.027	527.305
226.146	591.053
230.263	1176.96
234.377	1222.41
238.49	585.488
242.601	702.008
246.709	867.523
250.816	1278.06
254.921	1174.46
259.024	1067.11
263.125	944.107
267.224	798.555
271.321	655.385
275.416	885.561
279.51	794.096
283.601	409.041
287.69	71.436
291.778	29.746
295.863	253.271
299.947	48.057
304.029	45.027
308.108	143.105
312.186	127.674
316.262	367.367
320.336	810.738
324.408	1103.07
328.478	852.475
332.546	220.445
336.612	91.207
340.677	60.707
344.739	178.012
348.799	226.998
352.858	91.52
356.915	159.846
360.969	41.422
365.022	99.061
369.073	118.539
373.122	208.16
377.169	384.496
381.215	107.52
385.258	144.98
389.299	353.93
393.339	319.865
397.376	185.457
401.412	350.135
405.446	654.314
409.478	649.74
413.508	589.502
417.536	666.086
421.562	564.6
425.586	720.084
429.609	850.494
433.629	634.848
437.648	826.158
441.665	744.471
445.68	954.199
449.693	872.801
453.704	784.029
457.713	992.326
461.721	841.416
465.726	1044.56
469.73	1385.44
473.731	1166.83
477.731	1287.26
481.729	1689.34
485.725	1386.31
489.72	1182.19
493.712	1271.85
497.703	1272.24
501.691	1198.18
505.678	989.934
509.663	950.453
513.646	945.139
517.627	1004.32
521.607	1057.28
525.584	929.695
529.56	862.338
533.534	1196.27
537.506	1117.23
541.476	1177.09
545.444	799.484
549.41	1014.86
553.375	1065.25
557.337	1053.33
561.298	737.348
565.257	842.695
569.214	572.957
573.17	757.977
577.123	706.715
581.075	832.188
585.024	922.785
588.972	638.852
592.918	741.402
596.863	634.238
600.805	769.574
604.746	517.652
608.685	555.309
612.621	287.164
616.557	510.438
620.49	805.617
624.421	932.762
628.351	355.809
632.279	483.582
636.205	504.023
640.129	413.117
644.051	496.863
647.972	386.285
651.89	593.406
655.807	462.297
659.722	5.047
663.636	221.84
667.547	26.238
671.457	283.836
675.365	391.961
679.271	244.172
683.175	50.605
687.077	4.516
690.978	243.434
694.877	579.75
698.774	169.215
702.669	273.91
706.562	219.43
710.454	219.25
714.344	275.703
718.232	269.566
722.118	112.77
726.002	79.992
729.885	229.938
733.766	99.184
737.645	51.363
741.522	376.766
745.397	333.094
749.271	49.352
753.143	405.531
757.013	257.594
760.881	82.586
764.748	403.527
768.613	546.398
772.476	303.195
776.337	193.926
780.196	637.578
784.054	612.164
787.91	1197.66
791.764	1249.07
795.616	1725.39
799.467	2615.64
803.316	3614.83
807.163	4476
811.008	7512.34
814.851	12447.6
818.693	18873.1
822.533	18507.7
826.371	11935.4
830.208	8247.25
834.042	7142.82
837.875	7752.33
841.706	10755.3
845.536	14149.7
849.363	12665.6
853.189	7813.17
857.013	4643.75
860.836	2906.15
864.656	1970.91
868.475	1813.06
872.292	1503.66
876.108	1775.93
879.922	2073.62
883.733	2723.94
887.544	3903.12
891.352	4377.58
895.159	3114.18
898.964	2114.44
902.767	1467.41
906.568	986.238
910.368	1043.81
914.166	918.812
917.962	976.418
921.757	954.109
925.55	1070.77
929.341	751.945
933.13	1083.62
936.918	1101.74
940.703	698.297
944.488	1125.26
948.27	1012.62
952.051	1049.08
955.83	454.211
959.607	757.039
963.383	245.773
967.156	663.047
970.928	426.453
974.699	617.676
978.468	602.531
982.234	559.336
986	79.043
989.763	235.992
993.525	456.629
997.285	782.656
1001.04	281.828
1004.8	927.164
1008.55	881.406
1012.31	676.773
1016.06	561.078
1019.81	738.277
1023.56	853.012
1027.31	523.598
1031.05	452.207
1034.79	568.719
1038.53	965.363
1042.27	1119.56
1046.01	1097.96
1049.75	532.246
1053.48	989.625
1057.22	722.758
1060.95	795.273
1064.68	647.609
1068.4	720.879
1072.13	524.688
1075.86	716.859
1079.58	595.555
1083.3	622.699
1087.02	424.266
1090.74	499.082
1094.45	342.918
1098.17	41.234
1101.88	439.844
1105.59	20.973
1109.3	404.914
1113.01	146.324
1116.71	30.883
1120.42	146.551
1124.12	40.156
1127.82	87.984
1131.52	235.77
1135.22	176.766
1138.91	276.562
1142.61	16.727
1146.3	151.699
1149.99	349.785
1153.68	66.227
1157.37	218.305
1161.06	176.215
1164.74	206.676
1168.42	302.727
1172.1	315.109
1175.78	193.273
1179.46	308.73
1183.14	84.957
1186.81	210.789
1190.48	452.051
1194.15	549.734
1197.83	206.848
1201.49	683.262
1205.16	77.391
1208.82	534.512
1212.49	642.105
1216.15	474.719
1219.81	775.711
1223.46	567.387
1227.12	752.703
1230.78	716.703
1234.43	314.402
1238.08	614.82
1241.73	795.953
1245.38	693.934
1249.03	883.656
1252.67	938.094
1256.31	764.219
1259.95	350.68
1263.6	784.086
1267.23	758.469
1270.87	756.383
1274.51	487.16
1278.14	616.031
1281.77	612.707
1285.4	449.629
1289.03	464.602
1292.66	605.348
1296.28	441.516
1299.91	252.453
1303.53	534.277
1307.15	62.824
1310.77	171.688
1314.38	377.562
1318	346.828
1321.61	658.812
1325.23	664.914
1328.84	350.535
1332.45	679.398
1336.06	369.402
1339.66	512.168
1343.27	578.086
1346.87	660.133
1350.47	559.871
1354.07	812.121
1357.67	261.188
1361.26	533.75
1364.86	988.742
1368.45	809.145
1372.04	458.25
1375.63	682.602
1379.22	740.328
1382.81	776.512
1386.39	1007.4
1389.98	802.254
1393.56	342.707
1397.14	348.473
1400.72	689.129
1404.3	740.016
1407.87	791.422
1411.45	743.832
1415.02	237.918
1418.59	404.746
1422.16	461.18
1425.73	829.855
1429.29	452.871
1432.86	278.324
1436.42	326.562
1439.98	690.367
1443.54	684.004
1447.1	785.352
1450.66	383.594
1454.21	490.926
1457.77	480.133
1461.32	143.113
1464.87	204.344
1468.42	783.816
1471.96	288.328
1475.51	166.738
