Measurement: Raman, 532 nm, unoriented, Raman Data Processed
Mineral: Adamite
Rruff sample: R050020
Ideal chemistry: Zn^2+^_2_As^5+^O_4_(OH)
Locality: Mina Ojuela, Mapimi, Durango, Mexico
Source: Eugene Schlepp
Description: Light green prismatic crystal
Measured chemistry: (Zn_1.97_Cu_0.03_)_Σ=2_((As_0.98_P_0.02_)_Σ=1_O_4_)(OH)
Raman shift (cm-1)	intensity
127.484	0
130.859	106.446
134.234	420.904
137.609	555.391
140.984	456.198
144.358	200.126
147.733	27.2943
151.108	4.83911
154.483	23.4166
157.858	54.534
161.233	62.9192
164.607	99.1787
167.982	146.065
171.357	307.813
174.732	234.647
178.107	54.074
181.482	12.2278
184.856	23.9385
188.231	13.5731
191.606	52.0571
194.981	122.119
198.356	284.031
201.731	374.691
205.105	567.025
208.48	741.44
211.855	645.891
215.23	419.943
218.605	360.7
221.979	443.096
225.354	672.958
228.729	1083.12
232.104	1237.46
235.479	804.904
238.853	632.198
242.228	725.028
245.603	1112.98
248.978	1469.64
252.353	1491.94
255.727	1177.47
259.102	868.522
262.477	661.998
265.852	516.313
269.227	462.911
272.602	467.642
275.976	456.014
279.351	271.019
282.726	120.509
286.101	46.407
289.476	54.3046
292.851	7.3573
296.225	20.183
299.6	0.310913
302.975	35.3447
306.35	122.831
309.725	182.711
313.099	302.803
316.474	380.682
319.849	428.272
323.224	437.912
326.599	321.409
329.974	144.989
333.348	25.7186
336.723	7.95801
340.098	20.5095
343.473	10.8563
346.848	9.36963
350.223	3.81335
353.597	41.6422
356.972	68.2379
360.347	196.315
363.722	363.769
367.097	647.094
370.471	1012.25
373.846	1332.48
377.221	1090.93
380.596	543.686
383.971	238.787
387.346	137.859
390.72	107.098
394.095	152.89
397.47	238.136
400.845	378.179
404.219	588.998
407.594	802.725
410.969	985.017
414.344	1042.07
417.719	1106.79
421.094	962
424.469	610.295
427.843	288.35
431.218	120.377
434.593	53.2588
437.968	25.6211
441.343	2.3374
444.717	5.61267
448.092	21.6404
451.467	65.9713
454.842	78.6771
458.217	108.761
461.591	95.3737
464.966	121.902
468.341	185.152
471.716	232.153
475.091	288.526
478.466	314.293
481.84	326.708
485.215	318.837
488.59	379.528
491.965	478.898
495.34	531.545
498.714	319.081
502.089	98.6377
505.464	10.0735
508.839	1.06958
512.214	11.5502
515.589	29.3254
518.963	99.2387
522.338	237.516
525.713	440.552
529.088	740.619
532.463	1026.94
535.837	1311.12
539.212	1221.42
542.587	951.835
545.962	654.686
549.337	383.759
552.712	250.072
556.086	131.371
559.461	117.504
562.836	18.5033
566.211	32.1797
569.586	5.72485
572.96	31.751
576.335	5.11682
579.71	4.20471
583.085	15.0363
586.46	3.66394
589.835	7.26465
593.209	1.28577
596.584	1.73462
599.959	9.55981
603.334	7.67932
606.709	4.0293
610.083	0.168213
613.458	12.0095
616.833	37.5305
620.208	44.6907
623.583	66.2946
626.958	57.3318
630.332	50.9237
633.707	60.183
637.082	53.4904
640.457	68.5275
643.832	41.1289
647.207	47.8489
650.581	42.978
653.956	60.4902
657.331	53.866
660.706	71.9998
664.081	56.7474
667.455	70.3359
670.83	39.0346
674.205	35.4728
677.58	74.1967
680.955	56.6594
684.33	86.5157
687.704	73.8012
691.079	68.3363
694.454	43.4984
697.829	57.4192
701.204	70.064
704.578	96.7299
707.953	93.7251
711.328	106.512
714.703	86.5013
718.078	157.98
721.452	120.623
724.827	138.076
728.202	144.086
731.577	166.323
734.952	134.646
738.327	157.744
741.701	151.674
745.076	92.2529
748.451	98.8651
751.826	56.0471
755.201	36.6642
758.576	0.079956
761.95	5.38391
765.325	35.2022
768.7	31.08
772.075	72.9421
775.45	59.494
778.824	36.9707
782.199	11.1611
785.574	125.297
788.949	313.965
792.324	611.261
795.698	1005.1
799.073	1421.8
802.448	1561.92
805.823	1507.71
809.198	1682.68
812.573	2362.22
815.947	3137.13
819.322	3430.07
822.697	2688.47
826.072	2193.86
829.447	2539.46
832.822	3751.72
836.196	6115.34
839.571	8994.35
842.946	11796.7
846.321	11033.3
849.696	6684.7
853.07	3642.89
856.445	2122.37
859.82	1371.36
863.195	909.475
866.57	792.574
869.944	947.296
873.319	1576.17
876.694	2802.3
880.069	5072.08
883.444	8361.24
886.819	11525.9
890.193	11071.2
893.568	6975.84
896.943	3612.09
900.318	1954.93
903.693	1060.57
907.067	607.899
910.442	361.739
913.817	225.845
917.192	88.4165
920.567	55.7737
923.942	59.8787
927.316	5.87427
930.691	8.45605
934.066	47.1746
937.441	73.2234
940.816	68.7583
944.191	23.3032
947.565	29.7855
950.94	26.0527
954.315	11.366
957.69	16.903
961.065	10.9501
964.439	24.4261
967.814	37.1127
971.189	77.68
974.564	46.8617
977.939	42.1342
981.313	83.5116
984.688	73.7454
988.063	76.359
991.438	85.1078
994.813	87.3423
998.188	65.1118
1001.56	51.6565
1004.94	64.2977
1008.31	94.4413
1011.69	85.1918
1015.06	61.2116
1018.44	145.309
1021.81	77.9873
1025.19	101.946
1028.56	104.453
1031.94	107.386
1035.31	88.1748
1038.68	83.046
1042.06	78.3894
1045.43	93.9791
1048.81	66.2212
1052.18	57.2552
1055.56	34.5552
1058.93	43.879
1062.31	46.5629
1065.68	44.4847
1069.06	55.66
1072.43	24.8876
1075.81	64.6752
1079.18	49.1471
1082.56	35.8672
1085.93	62.3856
1089.31	32.4401
1092.68	39.4386
1096.06	13.0721
1099.43	52.6045
1102.81	38.7224
1106.18	48.1315
1109.56	50.8337
1112.93	23.0859
1116.31	37.7058
1119.68	8.38245
1123.06	23.4656
1126.43	35.3983
1129.81	7.58899
1133.18	11.6357
1136.56	7.28235
1139.93	15.8165
1143.31	2.34534
1146.68	24.5111
1150.05	4.61682
1153.43	2.5282
1156.8	10.374
1160.18	31.9974
1163.55	25.6406
1166.93	18.6633
1170.3	9.90845
1173.68	20.0199
1177.05	22.1481
1180.43	0.320313
1183.8	6.45386
1187.18	21.3061
1190.55	0.828491
1193.93	38.7467
1197.3	4.94458
1200.68	32.7256
1204.05	21.5697
1207.43	18.9282
1210.8	2.75977
1214.18	33.4199
1217.55	44.1997
1220.93	11.5254
1224.3	6.6886
1227.67	44.1376
1231.05	35.2014
1234.42	3.22302
1237.8	18.158
1241.17	10.2068
1244.55	30.0603
1247.92	42.1423
1251.3	29.9181
1254.67	32.2234
1258.05	25.0303
1261.42	28.9943
1264.8	28.226
1268.17	7.23584
1271.55	0.797729
1274.92	31.6899
1278.3	43.8057
1281.67	35.5682
1285.05	30.7045
1288.42	23.897
1291.8	22.5814
1295.17	17.5067
1298.55	16.8788
1301.92	34.0284
1305.3	0
