Measurement: Raman, 532 nm, unoriented, Raman Data Processed
Mineral: Adamsite-(Y)
Rruff sample: R070360
Ideal chemistry: NaY^3+^(CO_3_)_2_6H_2_O
Locality: Mont Saint-Hilaire, Rouville County, Quebec, Canada
Source: Michael Scott
Description: Aggregates of colorless acicular crystals associated with polylithionite and colorless prismatic leifite
Raman shift (cm-1)	intensity
180.999	0
183.892	426.935
186.785	147.328
189.678	23.6465
192.57	103.242
195.463	355.988
198.356	348.037
201.248	199.541
204.141	277.916
207.034	384.312
209.926	739.748
212.819	691.92
215.712	353.234
218.605	32.793
221.497	108.43
224.39	61.1367
227.283	156.584
230.175	499.998
233.068	712.703
235.961	710.742
238.853	643.303
241.746	571.939
244.639	492.115
247.532	344.129
250.424	324.725
253.317	320.477
256.21	393.644
259.102	451.441
261.995	556.098
264.888	392.715
267.781	339.022
270.673	194.883
273.566	103.758
276.459	45.4023
279.351	37.0547
282.244	95.1465
285.137	24.9297
288.029	21.7051
290.922	173.522
293.815	268.344
296.707	449.969
299.6	558.711
302.493	627.693
305.386	580.779
308.278	501.783
311.171	445.875
314.064	333.863
316.956	276.346
319.849	250.027
322.742	86.9004
325.635	13.668
328.527	53.5469
331.42	46.6914
334.313	86.0137
337.205	10.0449
340.098	127.033
342.991	119.701
345.883	65.7949
348.776	46.8574
351.669	41.2773
354.562	37.3086
357.454	41.7539
360.347	16.7188
363.24	37.7852
366.132	42.3516
369.025	124.258
371.918	147.973
374.81	123.092
377.703	310.246
380.596	430.934
383.488	517.668
386.381	547.168
389.274	753.402
392.167	718.309
395.059	555.445
397.952	564.615
400.845	436.961
403.737	346.647
406.63	149.92
409.523	169.592
412.416	197.158
415.308	81.6035
418.201	48.2461
421.094	41.0098
423.986	0.589844
426.879	46.9746
429.772	63.4902
432.664	159.287
435.557	19.2461
438.45	100.619
441.343	43.5137
444.235	139.201
447.128	83.6914
450.021	130.988
452.913	85.1113
455.806	35.7578
458.699	117.199
461.591	125.117
464.484	15.8965
467.377	130.447
470.27	97.5703
473.162	82.4414
476.055	73.5254
478.948	22.3242
481.84	118.24
484.733	72.1406
487.626	300.027
490.519	521.688
493.411	682.092
496.304	960.426
499.197	1187.17
502.089	1184.34
504.982	715.125
507.875	450.266
510.767	223.26
513.66	142.014
516.553	125.611
519.446	122.736
522.338	88.0078
525.231	73.0098
528.124	143.19
531.016	303.742
533.909	125.959
536.802	97.9609
539.694	108.295
542.587	25.7402
545.48	149.244
548.372	74.1562
551.265	102.422
554.158	227.262
557.051	152
559.943	162.898
562.836	115.115
565.729	172.111
568.621	223.162
571.514	385.143
574.407	201.432
577.299	296.299
580.192	386.242
583.085	393.738
585.978	224.252
588.87	172.799
591.763	109.644
594.656	101.459
597.548	83.543
600.441	130.742
603.334	66.9121
606.227	9.12109
609.119	30.1797
612.012	69.6641
614.905	26.2852
617.797	71.4043
620.69	46.7285
623.583	55.7031
626.476	51.3184
629.368	113.481
632.261	98.6523
635.154	88.8769
638.046	21.0352
640.939	71.541
643.832	124.764
646.724	26.4219
649.617	41.4199
652.51	135.336
655.403	184.088
658.295	23.9727
661.188	80.3457
664.081	140.725
666.973	158.123
669.866	194.434
672.759	132.141
675.651	188.785
678.544	223.717
681.437	291.096
684.33	316.18
687.222	307.865
690.115	276.023
693.008	171.703
695.9	217.121
698.793	37.0215
701.686	83.3613
704.578	26.9746
707.471	49.8926
710.364	58.1035
713.256	213.033
716.149	426.572
719.042	428.035
721.935	657.982
724.827	569.912
727.72	550.492
730.613	381.639
733.505	353.164
736.398	277.045
739.291	178.264
742.183	155.326
745.076	33.0195
747.969	129.975
750.862	156.484
753.754	236.336
756.647	311.734
759.54	633.26
762.432	980.836
765.325	1451.74
768.218	1942
771.111	1817.62
774.003	607.912
776.896	242.394
779.789	238.508
782.681	381.426
785.574	199.619
788.467	138.625
791.359	270.914
794.252	102.664
797.145	16.541
800.038	20.0938
802.93	5.13672
805.823	50.9375
808.716	24.2637
811.608	3.52344
814.501	42.2871
817.394	5.87891
820.286	188.016
823.179	119.519
826.072	78.5293
828.965	145.18
831.857	8.50781
834.75	89.4453
837.643	103.164
840.535	121.463
843.428	48.541
846.321	18.6816
849.213	43.498
852.106	35.1543
854.999	177.232
857.891	118.852
860.784	96.1191
863.677	59.6719
866.57	217.912
869.462	51.7051
872.355	67.9766
875.248	119.01
878.14	25.3457
881.033	203.144
883.926	235.172
886.819	225.947
889.711	175.514
892.604	109.178
895.497	188.066
898.389	221.93
901.282	77.875
904.175	136.168
907.067	183.387
909.96	106.762
912.853	217.797
915.746	0.546875
918.638	79.3984
921.531	128.582
924.424	88.4609
927.316	235.496
930.209	4.51953
933.102	150.984
935.995	45.5703
938.887	91.5938
941.78	103.309
944.673	112.211
947.565	51.9492
950.458	135.66
953.351	229.344
956.243	43.4062
959.136	151.488
962.029	67.0547
964.922	229.285
967.814	268.422
970.707	64.8555
973.6	182.324
976.492	269.441
979.385	216.641
982.278	302.016
985.17	295.383
988.063	412.336
990.956	216.293
993.848	331.215
996.741	402.527
999.634	411.082
1002.53	51.0312
1005.42	279
1008.31	122.184
1011.21	139.539
1014.1	105.133
1016.99	265.941
1019.88	79.8594
1022.78	113.43
1025.67	74.2422
1028.56	58.2148
1031.45	126.5
1034.35	38.9375
1037.24	83.5195
1040.13	96.957
1043.02	31.0664
1045.92	77.1562
1048.81	125.797
1051.7	218.086
1054.6	174.168
1057.49	476.848
1060.38	1319.79
1063.27	3796.5
1066.17	6808.1
1069.06	9650.67
1071.95	8869.44
1074.84	3170.58
1077.74	1092.36
1080.63	657.797
1083.52	550.324
1086.41	507.781
1089.31	491.113
1092.2	397.137
1095.09	382.617
1097.99	339.738
1100.88	172.227
1103.77	354.691
1106.66	534.445
1109.56	668.117
1112.45	2122.07
1115.34	5550.36
1118.23	8828.18
1121.13	11872
1124.02	6505.4
1126.91	1687.42
1129.81	791.137
1132.7	392.156
1135.59	250.602
1138.48	188.422
1141.38	220
1144.27	170.133
1147.16	181.559
1150.05	11.2422
1152.95	4.28516
1155.84	122.281
1158.73	30.0859
1161.62	81.6523
1164.52	225.281
1167.41	10.1055
1170.3	10.6758
1173.2	39.8281
1176.09	207.059
1178.98	67.6328
1181.87	28.9609
1184.77	19.2578
1187.66	117.059
1190.55	79.5156
1193.44	130.344
1196.34	173.66
1199.23	140.777
1202.12	12.8242
1205.02	145.5
1207.91	16.1055
1210.8	5.85547
1213.69	198.445
1216.59	55.8008
1219.48	112.812
1222.37	72.7383
1225.27	123.992
1228.16	62.3555
1231.05	71.5312
1233.94	56.082
1236.84	29.1562
1239.73	15.3359
1242.62	125.738
1245.51	183.731
1248.41	282.531
1251.3	103.883
1254.19	158.227
1257.08	160.656
1259.98	239.094
1262.87	277.258
1265.76	223.527
1268.65	207.285
1271.55	351.211
1274.44	303.234
1277.33	350.734
1280.23	372.203
1283.12	369.762
1286.01	379.473
1288.9	206.426
1291.8	192.484
1294.69	94.0742
1297.58	161.078
1300.47	112.18
1303.37	56.4688
1306.26	109.586
