Measurement: Raman, 785 nm, unoriented, Raman Data Processed
Mineral: Adamite
Rruff sample: R050020
Ideal chemistry: Zn^2+^_2_As^5+^O_4_(OH)
Locality: Mina Ojuela, Mapimi, Durango, Mexico
Source: Eugene Schlepp
Description: Light green prismatic crystal
Measured chemistry: (Zn_1.97_Cu_0.03_)_Σ=2_((As_0.98_P_0.02_)_Σ=1_O_4_)(OH)
Raman shift (cm-1)	intensity
100.288	0
103.181	4.44419
106.074	7.43507
108.966	10.66
111.859	4.7734
114.752	4.06869
117.645	4.46062
120.537	1.1775
123.43	12.1381
126.323	38.2362
129.215	78.533
132.108	155.216
135.001	197.825
137.893	190.864
140.786	162.819
143.679	138.421
146.572	108.629
149.464	75.5502
152.357	35.6752
155.25	22.3574
158.142	25.5362
161.035	27.3661
163.928	47.8347
166.821	62.8204
169.713	107.288
172.606	165.71
175.499	146.213
178.391	73.195
181.284	19.3037
184.177	5.52185
187.069	0.925087
189.962	8.12308
192.855	20.0036
195.748	51.19
198.64	85.1918
201.533	125.557
204.426	161.698
207.318	219.223
210.211	244.334
213.104	190.429
215.996	130.791
218.889	103.449
221.782	97.4796
224.674	123.043
227.567	172.609
230.46	228.049
233.353	222.307
236.245	160.383
239.138	131.504
242.031	147.598
244.923	188.248
247.816	250.583
250.709	288.757
253.601	273.404
256.494	207.354
259.387	156.211
262.28	111.112
265.172	84.2544
268.065	70.75
270.958	61.6246
273.85	40.9627
276.743	34.1144
279.636	14.2478
282.529	2.79639
285.421	1.40536
288.314	8.60501
291.207	2.82172
294.099	12.1799
296.992	7.80478
299.885	3.96071
302.777	11.6957
305.67	17.9559
308.563	75.1692
311.455	106.523
314.348	164.956
317.241	214.516
320.134	278.215
323.026	335.531
325.919	307.748
328.812	202.304
331.704	102.66
334.597	50.6462
337.49	10.6394
340.382	2.68576
343.275	4.55789
346.168	4.88753
349.061	9.97462
351.953	26.1255
354.846	47.5263
357.739	92.2753
360.631	159.58
363.524	257.555
366.417	381.7
369.31	590.958
372.202	806.8
375.095	939.557
377.988	750.497
380.88	418.938
383.773	208.622
386.666	122.803
389.558	90.3897
392.451	86.3854
395.344	132.989
398.236	197.867
401.129	281.352
404.022	392.231
406.915	485.221
409.807	603.803
412.7	639.606
415.593	632.13
418.485	560.342
421.378	460.404
424.271	350.943
427.163	210.467
430.056	113.991
432.949	67.0105
435.842	36.9682
438.734	6.96254
441.627	3.85008
444.52	7.88048
447.412	4.26845
450.305	8.00076
453.198	15.8023
456.091	23.5789
458.983	11.0066
461.876	3.77106
464.769	1.52605
467.661	0.559357
470.554	0.851395
473.447	16.1704
476.339	18.5463
479.232	16.6498
482.125	21.602
485.017	30.5998
487.91	22.5113
490.803	31.2879
493.696	50.8777
496.588	38.0894
499.481	20.4876
502.374	1.08243
505.266	6.19457
508.159	1.28527
511.052	1.17667
513.944	9.14523
516.837	43.147
519.73	63.1272
522.623	91.5486
525.515	144.029
528.408	206.289
531.301	300.346
534.193	382.091
537.086	437.281
539.979	400.134
542.871	345.644
545.764	246.197
548.657	172.774
551.55	114.608
554.442	89.6358
557.335	71.4956
560.228	47.8283
563.12	31.6061
566.013	30.2519
568.906	23.4833
571.798	13.4112
574.691	7.3187
577.584	10.918
580.477	12.1679
583.369	3.66282
586.262	2.77142
589.155	5.94695
592.047	6.03177
594.94	5.87256
597.833	2.17263
600.726	4.20594
603.618	1.47826
606.511	3.62782
609.404	4.47118
612.296	7.37786
615.189	6.73665
618.082	9.81496
620.974	1.12638
623.867	10.1723
626.76	14.5086
629.653	9.61255
632.545	13.0049
635.438	13.3578
638.331	13.6813
641.223	3.3851
644.116	10.4689
647.009	14.8524
649.901	9.91145
652.794	11.834
655.687	9.04047
658.58	8.83687
661.472	7.92945
664.365	10.9705
667.258	15.3427
670.15	16.156
673.043	17.9076
675.936	17.6484
678.828	22.067
681.721	20.7602
684.614	16.6474
687.506	24.4241
690.399	20.7944
693.292	19.2005
696.185	20.1489
699.077	13.7484
701.97	21.4299
704.863	23.0852
707.755	24.272
710.648	26.8356
713.541	26.3995
716.433	34.6496
719.326	30.8993
722.219	23.5119
725.112	30.5989
728.004	34.5882
730.897	37.3136
733.79	41.7503
736.682	33.7943
739.575	37.0274
742.468	23.8507
745.361	25.3162
748.253	14.14
751.146	13.9311
754.039	10.6832
756.931	3.34482
759.824	2.88052
762.717	4.64057
765.609	7.99197
768.502	17.2394
771.395	14.3778
774.288	13.8355
777.18	7.17984
780.073	11.578
782.966	3.5481
785.858	18.8967
788.751	51.9828
791.644	105.016
794.536	162.531
797.429	260.957
800.322	333.498
803.215	375.991
806.107	419.94
809	487.403
811.893	662.991
814.785	930.928
817.678	1190.57
820.571	1139.74
823.463	865.424
826.356	636.845
829.249	554.9
832.141	655.45
835.034	930.056
837.927	1313.88
840.82	1840.83
843.712	2340.89
846.605	2255.43
849.498	1574.06
852.39	985.899
855.283	655.709
858.176	430.938
861.068	305.216
863.961	215.863
866.854	189.521
869.747	217.106
872.639	318.449
875.532	532.3
878.425	952.645
881.317	1542.22
884.21	2413.75
887.103	3355.53
889.995	3450.99
892.888	2510.67
895.781	1505.43
898.674	876.241
901.566	525.061
904.459	332.527
907.352	211.782
910.244	142.903
913.137	108.008
916.03	59.9884
918.923	38.3723
921.815	28.12
924.708	15.6286
927.601	3.79565
930.493	4.52634
933.386	4.75272
936.279	19.8189
939.171	6.9843
942.064	24.1179
944.957	0.927856
947.85	11.3648
950.742	11.5886
953.635	5.7173
956.528	4.71653
959.42	4.61855
962.313	1.21273
965.206	5.04522
968.098	8.20771
970.991	16.8119
973.884	10.0192
976.777	18.0075
979.669	22.7335
982.562	22.2527
985.455	18.9759
988.347	21.5521
991.24	22.4947
994.133	22.8234
997.025	22.2057
999.918	18.9078
1002.81	9.6915
1005.7	19.338
1008.6	17.1104
1011.49	20.0958
1014.38	29.7291
1017.27	23.6463
1020.17	30.7276
1023.06	26.5032
1025.95	24.4548
1028.85	17.8543
1031.74	25.0513
1034.63	23.0392
1037.52	16.611
1040.42	23.3614
1043.31	18.4957
1046.2	11.4373
1049.09	12.2092
1051.99	18.4151
1054.88	16.0408
1057.77	14.1331
1060.66	16.7791
1063.56	4.67929
1066.45	10.8551
1069.34	11.4069
1072.24	7.92458
1075.13	12.9865
1078.02	8.97131
1080.91	9.78994
1083.81	13.6907
1086.7	6.55891
1089.59	7.88833
1092.48	10.3546
1095.38	7.7029
1098.27	8.36626
1101.16	8.18526
1104.06	7.82452
1106.95	6.27473
1109.84	8.2747
1112.73	9.20766
1115.63	9.72584
1118.52	2.50566
1121.41	0.270121
1124.3	6.83502
1127.2	5.10122
1130.09	1.1251
1132.98	5.18053
1135.88	3.39682
1138.77	1.02086
1141.66	0.250158
1144.55	1.71068
1147.45	6.90578
1150.34	3.39491
1153.23	3.7906
1156.12	7.53844
1159.02	2.57953
1161.91	2.13037
1164.8	1.53347
1167.69	0.367348
1170.59	2.63063
1173.48	5.07961
1176.37	4.24332
1179.27	6.505
1182.16	3.66584
1185.05	4.72715
1187.94	4.76153
1190.84	6.2877
1193.73	5.57149
1196.62	6.26849
1199.51	8.2842
1202.41	3.47567
1205.3	0.686094
1208.19	7.8849
1211.09	0.432787
1213.98	8.15795
1216.87	9.68785
1219.76	0.502434
1222.66	1.29987
1225.55	10.9483
1228.44	3.11128
1231.33	3.80751
