Measurement: Raman, 532 nm, unoriented, Raman Data Processed
Mineral: Adamite
Rruff sample: R060593
Ideal chemistry: Zn^2+^_2_As^5+^O_4_(OH)
Locality: Tsumeb mine, Tsumeb, Otavi District, Oshikoto, Namibia
Source: Michael Scott
Description: Bluish-green prismatic crystals
Measured chemistry: (Zn_1.65_Cu_0.35_)_Î£=2_(As_1.00_O_4_)(OH) ; H not measured but estimated by difference and stoichiometry
Raman shift (cm-1)	intensity
177.755	0
180.648	6.16077
183.541	5.09503
186.433	16.4608
189.326	31.1437
192.219	31.272
195.112	34.5348
198.004	51.2218
200.897	83.2086
203.79	128.692
206.682	164.805
209.575	180.897
212.468	167.718
215.36	146.36
218.253	156.969
221.146	218.706
224.038	308.062
226.931	438.699
229.824	567.191
232.717	534.352
235.609	358.223
238.502	246.235
241.395	233.367
244.287	286.997
247.18	365.685
250.073	458.391
252.965	510.162
255.858	500.919
258.751	457.766
261.644	416.517
264.536	386.019
267.429	375.668
270.322	406.357
273.214	465.201
276.107	509.155
279	423.511
281.892	253.412
284.785	136.136
287.678	83.9724
290.571	55.127
293.463	44.4622
296.356	31.6681
299.249	32.9154
302.141	44.7206
305.034	68.6946
307.927	108.507
310.82	154.422
313.712	219.007
316.605	278.243
319.498	318.072
322.39	343.194
325.283	289.541
328.176	168.93
331.068	80.9641
333.961	40.4576
336.854	21.6305
339.747	6.60828
342.639	9.56995
345.532	16.8452
348.425	18.8029
351.317	10.6069
354.21	7.07935
357.103	3.26672
359.995	8.97668
362.888	21.8581
365.781	37.2134
368.673	53.5342
371.566	77.6064
374.459	90.0612
377.352	84.8534
380.244	50.8992
383.137	24.1454
386.03	14.4232
388.922	3.70947
391.815	5.81531
394.708	5.33539
397.601	10.6021
400.493	25.2482
403.386	26.8079
406.279	32.9438
409.171	41.3082
412.064	43.4524
414.957	51.7683
417.849	55.5558
420.742	53.4573
423.635	46.3386
426.527	25.7421
429.42	11.4752
432.313	4.43164
435.206	4.3689
438.098	0.229126
440.991	4.18481
443.884	7.48377
446.776	19.7915
449.669	30.1389
452.562	44.8535
455.454	56.26
458.347	79.7311
461.24	107.414
464.133	142.8
467.025	183.153
469.918	235.807
472.811	281.171
475.703	321.166
478.596	336.248
481.489	331.759
484.382	295.371
487.274	257.039
490.167	234.154
493.06	213.654
495.952	180.901
498.845	117.098
501.738	73.7999
504.63	47.3247
507.523	24.6736
510.416	22.1178
513.308	22.3024
516.201	22.5006
519.094	31.0217
521.987	39.0144
524.879	57.2586
527.772	78.0295
530.665	99.8871
533.557	115.197
536.45	117.035
539.343	99.5323
542.236	80.9348
545.128	52.8368
548.021	32.1868
550.914	20.3323
553.806	14.4263
556.699	1.3269
559.592	0.294556
562.484	3.50098
565.377	2.39667
568.27	4.79474
571.163	2.3794
574.055	3.19336
576.948	1.56397
579.841	2.41925
582.733	3.88385
585.626	1.49353
588.519	2.9295
591.411	8.10309
594.304	6.02301
597.197	6.32989
600.09	8.57587
602.982	9.73236
605.875	6.45642
608.768	14.3321
611.66	9.19275
614.553	15.1501
617.446	15.5295
620.338	11.1126
623.231	12.0303
626.124	8.52026
629.016	6.67584
631.909	5.24982
634.802	6.99298
637.695	10.355
640.587	11.3712
643.48	11.2725
646.373	10.5017
649.265	11.81
652.158	17.3004
655.051	19.403
657.943	13.8974
660.836	15.1102
663.729	16.1919
666.622	14.1349
669.514	18.7188
672.407	17.995
675.3	17.9535
678.192	15.2375
681.085	18.7651
683.978	19.652
686.87	21.7098
689.763	16.2762
692.656	16.2538
695.549	21.0019
698.441	25.8986
701.334	28.6439
704.227	24.5534
707.119	32.1816
710.012	41.1808
712.905	45.8607
715.798	35.7296
718.69	24.5275
721.583	20.587
724.476	18.8639
727.368	20.6223
730.261	30.9121
733.154	31.074
736.046	29.3699
738.939	28.1589
741.832	18.0441
744.725	8.42932
747.617	4.71808
750.51	8.08368
753.403	6.1051
756.295	11.4169
759.188	11.7775
762.081	14.0216
764.973	11.6136
767.866	9.4552
770.759	7.02295
773.652	1.59351
776.544	13.2853
779.437	32.3754
782.33	60.5342
785.222	96.3295
788.115	153.756
791.008	243.955
793.9	379.777
796.793	547.875
799.686	781.093
802.578	1079.32
805.471	1439.24
808.364	1948.35
811.257	2646.05
814.149	3534.37
817.042	4437.95
819.935	4710.66
822.827	3942.2
825.72	2945.85
828.613	2351.6
831.505	2184.75
834.398	2344.28
837.291	2762.02
840.184	3270.32
843.076	3756.26
845.969	3800.38
848.862	3085.78
851.754	2174.73
854.647	1429.43
857.54	910.724
860.433	564.035
863.325	357.584
866.218	243.933
869.111	200.329
872.003	227.96
874.896	328.558
877.789	521.592
880.681	828.293
883.574	1220.28
886.467	1595.41
889.36	1637.54
892.252	1180.49
895.145	682.851
898.038	384.157
900.93	211.199
903.823	119.127
906.716	69.576
909.608	35.3672
912.501	17.21
915.394	2.10852
918.287	3.45551
921.179	5.74402
924.072	11.2534
926.965	5.71393
929.857	3.4342
932.75	10.7189
935.643	12.2485
938.535	10.4704
941.428	11.2808
944.321	1.57123
947.213	10.1457
950.106	18.7763
952.999	29.6922
955.892	30.7625
958.784	34.4216
961.677	34.6096
964.57	45.2082
967.462	42.9001
970.355	51.064
973.248	49.9654
976.14	49.4622
979.033	53.0197
981.926	49.4308
984.819	49.5095
987.711	49.5864
990.604	49.5051
993.497	48.5969
996.389	34.7821
999.282	24.443
1002.17	22.41
1005.07	19.5785
1007.96	16.8887
1010.85	17.467
1013.75	12.6245
1016.64	17.5118
1019.53	20.3423
1022.42	20.9717
1025.32	19.2029
1028.21	17.1874
1031.1	13.0609
1033.99	19.2205
1036.89	15.6051
1039.78	13.8955
1042.67	14.4927
1045.57	9.1781
1048.46	13.6935
1051.35	11.6733
1054.24	9.53626
1057.14	13.343
1060.03	9.57153
1062.92	9.42151
1065.81	3.05084
1068.71	4.49786
1071.6	8.52838
1074.49	7.79578
1077.38	8.11102
1080.28	9.32355
1083.17	12.7968
1086.06	7.42474
1088.96	8.19775
1091.85	9.50977
1094.74	9.10236
1097.63	11.0652
1100.53	9.48004
1103.42	8.92725
1106.31	11.6121
1109.2	6.40448
1112.1	3.2843
1114.99	6.65924
1117.88	2.67322
1120.78	4.01672
1123.67	0.778564
1126.56	6.18665
1129.45	0.095398
1132.35	2.94153
1135.24	3.81769
1138.13	0.585022
1141.02	0.984619
1143.92	2.40417
1146.81	3.04431
1149.7	2.10126
1152.6	2.41376
1155.49	6.14209
1158.38	1.71301
1161.27	1.23517
1164.17	2.37769
1167.06	0.075012
1169.95	1.99615
1172.84	4.08655
1175.74	4.73108
1178.63	3.22919
1181.52	1.2171
1184.41	4.20477
1187.31	2.71149
1190.2	5.18536
1193.09	3.58765
1195.99	4.89099
1198.88	6.607
1201.77	4.28052
1204.66	9.54547
1207.56	9.34039
1210.45	8.66797
1213.34	10.3908
1216.23	2.2644
1219.13	4.27527
1222.02	10.2618
1224.91	10.4686
1227.81	2.52234
1230.7	5.83197
1233.59	3.93787
1236.48	1.9057
1239.38	1.36603
1242.27	3.29559
1245.16	6.09631
1248.05	4.39417
1250.95	2.44122
1253.84	0.903687
1256.73	6.26947
1259.62	6.63995
1262.52	2.89673
1265.41	2.80347
1268.3	3.16925
1271.2	3.5683
1274.09	1.6676
1276.98	2.99463
1279.87	9.47333
1282.77	2.7403
1285.66	3.08032
1288.55	1.61847
1291.44	5.41724
1294.34	4.60571
1297.23	0.066895
1300.12	2.59503
1303.02	0
