Measurement: Raman, 532 nm, unoriented, Raman Data Processed
Mineral: Adelite
Rruff sample: R060687
Ideal chemistry: CaMgAs^5+^O_4_(OH)
Locality: Jakobsberg mine,  Nordmark,  Filipstad,  Varmland,  Sweden
Source: Michael Scott
Description: Colorless irregular shaped crystals, associated with berzeliite, R061084
Measured chemistry: (Ca_0.55_Na_0.38_Mn_0.07_)_Σ=1_(Mg_0.74_Ca_0.26_)_Σ=1_(As_1.00_O_4_)(OH)
Raman shift (cm-1)	intensity
137.475	0
140.849	31.0392
144.224	24.2039
147.599	69.8456
150.974	97.8039
154.349	173.417
157.724	216.305
161.098	303.506
164.473	407.696
167.848	448.643
171.223	387.892
174.598	231.432
177.972	133.902
181.347	71.5362
184.722	27.8861
188.097	17.3472
191.472	18.1553
194.846	6.4975
198.221	17.8705
201.596	17.0185
204.971	14.6027
208.346	28.2171
211.721	55.3416
215.095	66.8961
218.47	60.3093
221.845	34.8466
225.22	47.1975
228.595	44.6923
231.969	34.2458
235.344	49.1256
238.719	43.6547
242.094	46.2092
245.469	70.0889
248.844	52.8932
252.218	80.0374
255.593	103.04
258.968	103.67
262.343	45.4617
265.718	11.5894
269.092	13.0383
272.467	13.2404
275.842	36.1281
279.217	10.3935
282.592	20.2485
285.966	18.8274
289.341	47.0011
292.716	85.754
296.091	183.401
299.466	284.33
302.841	374.668
306.215	513.928
309.59	689.514
312.965	844.911
316.34	1167.54
319.715	1660.09
323.089	2338.4
326.464	2960.97
329.839	3358.51
333.214	3015.64
336.589	2236.42
339.964	1305
343.338	749.388
346.713	450.028
350.088	287.714
353.463	216.909
356.838	194.54
360.212	189.91
363.587	104.8
366.962	56.0196
370.337	11.7947
373.712	20.9143
377.087	2.06189
380.461	52.7264
383.836	81.6726
387.211	226.159
390.586	370.964
393.961	495.617
397.335	590.744
400.71	615.836
404.085	608.224
407.46	405.219
410.835	216.072
414.209	118.879
417.584	45.0282
420.959	70.5421
424.334	87.2111
427.709	92.2839
431.084	77.1802
434.458	95.4831
437.833	59.5414
441.208	108.036
444.583	141.869
447.958	155.594
451.332	191.474
454.707	191.607
458.082	196.201
461.457	328.148
464.832	468.85
468.207	561.511
471.581	640.921
474.956	534.887
478.331	419.657
481.706	362.74
485.08	317.372
488.455	386.253
491.83	432.644
495.205	492.272
498.58	526.815
501.955	553.97
505.329	486.305
508.704	358.602
512.079	232.806
515.454	79.5485
518.829	48.3554
522.203	2.82471
525.578	4.66614
528.953	39.8684
532.328	23.8125
535.703	1.55627
539.077	19.8093
542.452	4.65601
545.827	9.88147
549.202	0.137451
552.577	26.6986
555.952	24.0615
559.326	52.2319
562.701	63.4153
566.076	70.7089
569.451	60.6362
572.826	57.7092
576.201	94.6398
579.575	98.3029
582.95	87.4087
586.325	190.016
589.7	107.402
593.075	64.3894
596.449	104.199
599.824	97.9737
603.199	85.2278
606.574	98.1599
609.949	95.9271
613.323	82.2539
616.698	113.247
620.073	227.571
623.448	113.607
626.823	136.803
630.197	142.29
633.572	146.393
636.947	99.3603
640.322	109.33
643.697	121.343
647.072	147.946
650.446	112.162
653.821	153.117
657.196	154.925
660.571	154.187
663.946	159.263
667.321	212.769
670.695	231.297
674.07	263.737
677.445	258.153
680.82	254.882
684.195	239.456
687.569	202.498
690.944	226.823
694.319	180.097
697.694	155.744
701.069	182.586
704.443	109.167
707.818	112.687
711.193	52.0593
714.568	55.6068
717.943	14.0304
721.317	12.8567
724.692	51.6602
728.067	22.5979
731.442	40.8811
734.817	68.7351
738.192	44.657
741.566	38.6094
744.941	119.378
748.316	212.944
751.691	326.64
755.066	530.517
758.441	616.605
761.815	796.542
765.19	974.808
768.565	1065.49
771.94	1167.23
775.315	1231.02
778.689	1302.83
782.064	1301.12
785.439	1296.22
788.814	1221.67
792.189	1163.66
795.563	1137.47
798.938	1180.35
802.313	1388.02
805.688	1807.1
809.063	2389.85
812.438	3330.98
815.812	4585.72
819.187	6080.12
822.562	7517.46
825.937	9147.26
829.312	10785.3
832.686	11148.2
836.061	10512.3
839.436	10626.6
842.811	10069.2
846.186	8788.75
849.561	6905.27
852.935	4422.54
856.31	2388.73
859.685	1223.29
863.06	572.223
866.434	184.46
869.809	12.1062
873.184	4.27344
876.559	38.5979
879.934	94.7412
883.309	127.574
886.683	273.229
890.058	306.702
893.433	339.144
896.808	361.329
900.183	340.522
903.558	324.783
906.932	324.748
910.307	324.918
913.682	257.332
917.057	164.116
920.432	23.6514
923.806	53.72
927.181	88.542
930.556	72.7756
933.931	59.8616
937.306	7.56348
940.681	61.1179
944.055	72.5703
947.43	101.878
950.805	76.2029
954.18	159.238
957.554	175.249
960.929	160.795
964.304	206.568
967.679	282.245
971.054	250.448
974.429	286.664
977.803	279.087
981.178	326.073
984.553	286.788
987.928	258.807
991.303	216.789
994.678	230.714
998.052	180.365
1001.43	157.251
1004.8	125.464
1008.18	105.66
1011.55	135.565
1014.93	118.105
1018.3	62.6455
1021.68	88.1287
1025.05	100.453
1028.43	100.155
1031.8	61.0864
1035.17	39.0266
1038.55	46.0139
1041.92	54.9727
1045.3	52.4834
1048.67	36.2612
1052.05	22.7695
1055.42	0.438477
1058.8	2.4895
1062.17	34.4956
1065.55	27.2197
1068.92	30.23
1072.3	50.3706
1075.67	70.5154
1079.05	8.60523
1082.42	31.4104
1085.8	52.3381
1089.17	38.1111
1092.55	81.6199
1095.92	71.8193
1099.3	33.5366
1102.67	71.4802
1106.05	46.4124
1109.42	39.7861
1112.8	27.981
1116.17	95.1382
1119.55	60.4849
1122.92	25.542
1126.3	16.3528
1129.67	42.8403
1133.05	57.4902
1136.42	66.7883
1139.8	31.1631
1143.17	3.82642
1146.54	3.8606
1149.92	16.7148
1153.29	70.6003
1156.67	47.4536
1160.04	6.3269
1163.42	23.3525
1166.79	30.1916
1170.17	66.6785
1173.54	55.5869
1176.92	30.1958
1180.29	38.3562
1183.67	2.41626
1187.04	0.517578
1190.42	36.0024
1193.79	36.9414
1197.17	33.8052
1200.54	42.7793
1203.92	3.57227
1207.29	33.5935
1210.67	50.0806
1214.04	20.677
1217.41	11.9712
1220.79	13.8804
1224.16	21.7361
1227.54	12.4849
1230.91	21.134
1234.29	70.7092
1237.66	34.2925
1241.04	42.9182
1244.41	35.7852
1247.79	2.25098
1251.16	46.2322
1254.54	39.4043
1257.91	62.2832
1261.29	41.7041
1264.66	28.696
1268.04	15.5706
1271.41	33.1938
1274.79	16.8023
1278.16	59.0493
1281.54	37.5425
1284.91	31.9158
1288.29	43.8801
1291.66	40.4573
1295.04	28.2405
1298.41	0
