Measurement: Raman, 785 nm, unoriented, Raman Data Processed
Mineral: Adelite
Rruff sample: R060687
Ideal chemistry: CaMgAs^5+^O_4_(OH)
Locality: Jakobsberg mine,  Nordmark,  Filipstad,  Varmland,  Sweden
Source: Michael Scott
Description: Colorless irregular shaped crystals, associated with berzeliite, R061084
Measured chemistry: (Ca_0.55_Na_0.38_Mn_0.07_)_Σ=1_(Mg_0.74_Ca_0.26_)_Σ=1_(As_1.00_O_4_)(OH)
Raman shift (cm-1)	intensity
148.628	0
151.038	24.4714
153.449	39.7279
155.86	83.0955
158.27	1.37305
160.681	23.8524
163.091	146.446
165.502	216.755
167.913	285.149
170.323	290.767
172.734	231.1
175.144	169.414
177.555	81.0366
179.965	70.6486
182.376	44.8955
184.787	56.1847
187.197	72.3236
189.608	84.861
192.018	53.9882
194.429	89.804
196.84	75.7725
199.25	93.7786
201.661	78.9202
204.071	34.6476
206.482	27.3492
208.893	9.17029
211.303	44.5304
213.714	34.0966
216.124	57.2753
218.535	39.3543
220.945	5.96851
223.356	3.10669
225.767	21.0972
228.177	2.93396
230.588	14.0203
232.998	23.8118
235.409	56.1849
237.82	99.8887
240.23	71.952
242.641	81.0261
245.051	77.8223
247.462	43.1281
249.872	8.3009
252.283	1.63538
254.694	5.38684
257.104	4.20288
259.515	0.397217
261.925	3.68359
264.336	21.3967
266.746	23.6599
269.157	5.53979
271.568	44.2969
273.978	65.8907
276.389	89.5088
278.799	130.04
281.21	190.537
283.62	214.111
286.031	225.821
288.442	205.918
290.852	234.223
293.263	204.152
295.673	240.716
298.084	227.254
300.495	245.466
302.905	300.9
305.316	331.9
307.726	370.79
310.137	491.277
312.548	581.198
314.958	756.646
317.369	936.331
319.779	1180.44
322.19	1492.43
324.6	1755.27
327.011	2051.57
329.422	2220.04
331.832	2152.15
334.243	1957.29
336.653	1720.58
339.064	1487.51
341.474	1247.93
343.885	1140.24
346.296	1059.07
348.706	994.009
351.117	957.608
353.527	947.117
355.938	912.057
358.349	931.156
360.759	1046.96
363.17	866.727
365.58	729.416
367.991	564.037
370.401	405.024
372.812	321.102
375.223	262.125
377.633	118.516
380.044	85.5532
382.454	42.1371
384.865	60.3496
387.276	94.3945
389.686	120.418
392.097	133.122
394.507	162.027
396.918	228.935
399.329	330.39
401.739	269.776
404.15	286.349
406.56	160.726
408.971	67.6963
411.381	30.375
413.792	42.7473
416.202	49.6638
418.613	47.2285
421.024	9.18103
423.434	2.0155
425.845	65.0308
428.255	135.855
430.666	237.063
433.077	254.457
435.487	339.707
437.898	363.253
440.308	473.394
442.719	576.485
445.13	624.83
447.54	673.946
449.951	709.821
452.361	719.07
454.772	757.473
457.183	686.79
459.593	706.726
462.004	691.154
464.414	664.846
466.825	643.14
469.235	550.668
471.646	547.631
474.057	473.673
476.467	410.257
478.878	293.532
481.288	247.72
483.699	236.116
486.109	213.42
488.52	204.504
490.931	222.242
493.341	270.055
495.752	245.281
498.162	313.245
500.573	301.508
502.983	310.712
505.394	313.677
507.805	220.135
510.215	197.735
512.626	107.455
515.036	78.7178
517.447	37.7495
519.858	27.8383
522.268	24.907
524.679	13.4369
527.089	12.9607
529.5	22.6291
531.91	18.411
534.321	1.12366
536.732	5.55176
539.142	7.35254
541.553	16.9059
543.963	15.1439
546.374	54.6067
548.785	22.058
551.195	1.26892
553.606	24.9916
556.016	25.2661
558.427	56.7801
560.837	72.2489
563.248	64.5858
565.659	56.2894
568.069	65.51
570.48	98.1486
572.89	96.2416
575.301	90.2876
577.712	95.0432
580.122	128.142
582.533	112.825
584.943	78.433
587.354	69.1196
589.764	81.2374
592.175	52.6521
594.586	89.4884
596.996	56.5444
599.407	51.8964
601.817	12.1853
604.228	30.0922
606.639	23.0734
609.049	20.6551
611.46	10.6368
613.87	5.48377
616.281	27.3447
618.692	11.9314
621.102	15.68
623.513	52.3876
625.923	39.2848
628.334	46.7753
630.744	47.4535
633.155	65.2361
635.566	79.0269
637.976	65.5491
640.387	88.0554
642.797	118.965
645.208	83.4001
647.619	135.551
650.029	124.785
652.44	135.009
654.85	122.131
657.261	162.435
659.671	135.219
662.082	150.917
664.493	154.013
666.903	154.443
669.314	126.194
671.724	159.353
674.135	140.408
676.545	147.428
678.956	156.071
681.367	139.761
683.777	140.619
686.188	88.8777
688.598	137.561
691.009	109.6
693.42	94.2575
695.83	95.5797
698.241	86.9138
700.651	86.2734
703.062	39.8738
705.472	65.5581
707.883	43.6392
710.294	27.1574
712.704	41.6366
715.115	6.66528
717.525	16.9186
719.936	2.10364
722.346	10.8694
724.757	15.9857
727.168	23.3785
729.578	17.084
731.989	34.5686
734.399	12.5922
736.81	4.66003
739.221	7.21912
741.631	22.1273
744.042	11.233
746.452	69.9392
748.863	94.6882
751.274	123.314
753.684	190.653
756.095	235.153
758.505	300.581
760.916	330.925
763.326	381.944
765.737	406.233
768.148	466.615
770.558	491.223
772.969	537.62
775.379	584.149
777.79	585.453
780.201	622.169
782.611	636.408
785.022	663.576
787.432	655.225
789.843	607.071
792.253	558.977
794.664	514.708
797.075	502.679
799.485	502.345
801.896	530.239
804.306	575.957
806.717	679.004
809.128	795.478
811.538	1048.73
813.949	1349.76
816.359	1664.64
818.77	2021.37
821.18	2354.6
823.591	2678.92
826.002	3153.95
828.412	3688.62
830.823	3985.72
833.233	3817.77
835.644	3645.82
838.054	3633.77
840.465	3646.12
842.876	3607.63
845.286	3391.16
847.697	3174.46
850.107	2766.91
852.518	1988.09
854.929	1270.01
857.339	815.688
859.75	513.694
862.16	345.693
864.571	200.604
866.981	94.3723
869.392	46.0446
871.803	11.0203
874.213	30.6918
876.624	35.92
879.034	15.5312
881.445	9.03821
883.856	26.4694
886.266	71.6244
888.677	113.054
891.087	117.65
893.498	126.099
895.908	113.569
898.319	131.63
900.73	96.9375
903.14	122.746
905.551	123.975
907.961	129.06
910.372	100.937
912.783	121.959
915.193	55.5466
917.604	49.5151
920.014	12.543
922.425	30.6377
924.835	0.001953
927.246	18.1105
929.657	45.114
932.067	2.96985
934.478	1.95996
936.888	4.93677
939.299	28.8218
941.71	17.7992
944.12	8.51306
946.531	17.969
948.941	30.9244
951.352	39.7683
953.763	33.7042
956.173	39.8063
958.584	32.9614
960.994	77.8258
963.405	76.1407
965.815	79.0909
968.226	79.0343
970.636	73.3053
973.047	57.4935
975.458	76.6279
977.868	101.367
980.279	44.6145
982.689	51.9958
985.1	68.1986
987.511	65.7939
989.921	34.2942
992.332	13.3729
994.742	41.3485
997.153	38.8123
999.563	54.8751
1001.97	50.8356
1004.38	61.8031
1006.79	68.2924
1009.21	30.9705
1011.62	38.7554
1014.03	31.8887
1016.44	60.1786
1018.85	48.1425
1021.26	22.7285
1023.67	0.245361
1026.08	2.72559
1028.49	49.0963
1030.9	17.7607
1033.31	5.96912
