Measurement: Raman, 532 nm, unoriented, Raman Data Processed
Mineral: Aegirine
Rruff sample: R050074
Ideal chemistry: NaFe^3+^Si_2_O_6_
Locality: Mt. Malosa, Zomba, Chilwa, Alkaline Area, Malawi
Source: Rock Currier
Description: Black prismatic single crystal
Measured chemistry: (Na_0.98_Ca_0.02_)_Σ=1_(Fe^3+^_0.96_Ti_0.01_Mn_0.03_)_Σ=1_Si_2.00_O_6_
Raman shift (cm-1)	intensity
124.592	0
127.967	1.73224
131.341	93.417
134.716	110.296
138.091	92.5152
141.466	99.7985
144.841	157.02
148.215	228.927
151.59	357.579
154.965	545.835
158.34	708.527
161.715	608.364
165.09	455.058
168.464	545.192
171.839	740.328
175.214	1043.84
178.589	1339.16
181.964	1291.08
185.339	1663.67
188.713	2313.3
192.088	2611.05
195.463	1773.32
198.838	1212.43
202.213	1037.92
205.587	1211.01
208.962	1468.67
212.337	1549.73
215.712	837.759
219.087	342.012
222.462	138.78
225.836	50.7882
229.211	19.3012
232.586	16.7192
235.961	46.1693
239.336	32.4443
242.71	42.9506
246.085	17.8334
249.46	36.7355
252.835	8.42749
256.21	75.3477
259.584	161.177
262.959	249.121
266.334	192.509
269.709	114.08
273.084	162.601
276.459	255.005
279.833	331.673
283.208	486.381
286.583	660.292
289.958	817.499
293.333	780.804
296.707	643.794
300.082	611.488
303.457	763.431
306.832	996.872
310.207	1005.9
313.582	705.659
316.956	481.649
320.331	495.925
323.706	814.809
327.081	1431.67
330.456	2319.86
333.83	3263.69
337.205	3863.62
340.58	3769.18
343.955	3427.92
347.33	2826.44
350.705	1988.6
354.079	1677.66
357.454	1788.63
360.829	2140.28
364.204	2484.52
367.579	2259.57
370.954	1977.93
374.328	1936.54
377.703	2272.08
381.078	2688.99
384.453	2687.99
387.828	2060.64
391.202	1260.9
394.577	709.698
397.952	328.591
401.327	187.749
404.702	73.8262
408.077	56.8117
411.451	2.04022
414.826	7.92102
418.201	30.3349
421.576	47.6414
424.951	53.0905
428.325	34.6788
431.7	29.4383
435.075	31.7111
438.45	21.6992
441.825	2.86853
445.2	15.0046
448.574	85.7655
451.949	99.1128
455.324	172.456
458.699	217.191
462.074	223.008
465.448	164.609
468.823	126.528
472.198	113.561
475.573	144.143
478.948	176.711
482.322	278.24
485.697	495.159
489.072	804.953
492.447	1124.91
495.822	1254.78
499.197	825.433
502.571	353.079
505.946	240.035
509.321	178.886
512.696	214.857
516.071	358.858
519.446	597.337
522.82	909.837
526.195	1445
529.57	2128.22
532.945	3094.14
536.32	4198.1
539.694	5231.24
543.069	5185.78
546.444	4300.43
549.819	3683.79
553.194	3576.16
556.568	3571.79
559.943	3343.25
563.318	2744.73
566.693	2057.52
570.068	1555.13
573.443	1199.52
576.817	991.5
580.192	767.613
583.567	592.376
586.942	421.954
590.317	291.952
593.692	143.139
597.066	84.4875
600.441	45.0892
603.816	1.67804
607.191	7.40283
610.566	16.796
613.94	23.0143
617.315	27.3797
620.69	24.2809
624.065	19.4782
627.44	2.28998
630.814	23.4218
634.189	20.2475
637.564	73.0531
640.939	89.0208
644.314	109.354
647.689	141.004
651.063	187.448
654.438	214.839
657.813	269.79
661.188	350.324
664.563	491.482
667.938	693.287
671.312	849.983
674.687	912.969
678.062	762.998
681.437	449.539
684.812	278.972
688.186	181.522
691.561	129.155
694.936	105.444
698.311	56.405
701.686	84.9977
705.061	68.8679
708.435	57.7675
711.81	46.1047
715.185	58.4392
718.56	75.8907
721.935	62.2425
725.309	81.9612
728.684	101.311
732.059	76.1857
735.434	91.3465
738.809	123.035
742.183	169.768
745.558	234.858
748.933	327.574
752.308	398.487
755.683	440.123
759.058	348.541
762.432	181.548
765.807	106.414
769.182	112.932
772.557	102.586
775.932	101.089
779.307	82.0988
782.681	63.7395
786.056	28.8325
789.431	10.0812
792.806	1.71359
796.181	28.0576
799.555	8.04764
802.93	5.84338
806.305	1.91687
809.68	31.7474
813.055	12.5394
816.429	8.59753
819.804	47.8092
823.179	71.5566
826.554	112.201
829.929	161.012
833.304	273.874
836.678	426.652
840.053	645.742
843.428	914.92
846.803	1236.5
850.178	1627.17
853.553	2100.05
856.927	2560.36
860.302	3033.58
863.677	3103.92
867.052	2814.56
870.427	2138.77
873.801	1491.24
877.176	970.072
880.551	685.506
883.926	457.038
887.301	317.89
890.676	198.467
894.05	131.083
897.425	69.4772
900.8	38.4946
904.175	36.5319
907.55	52.6893
910.924	16.8136
914.299	30.9883
917.674	53.3702
921.049	145.901
924.424	253.182
927.798	454.31
931.173	713.234
934.548	1145.34
937.923	1898
941.298	2999.86
944.673	4183.66
948.047	5167.21
951.422	5272.91
954.797	4827.15
958.172	4931.94
961.547	5680.58
964.922	6907.58
968.296	7646.11
971.671	6744.02
975.046	4422.35
978.421	2614.59
981.796	1740.1
985.17	1196.12
988.545	724.548
991.92	444.358
995.295	223.075
998.67	72.6605
1002.04	5.81811
1005.42	39.0762
1008.79	27.7272
1012.17	51.2948
1015.54	89.611
1018.92	173.476
1022.29	327.947
1025.67	590.106
1029.04	1039.42
1032.42	1988.19
1035.79	3124.67
1039.17	3919.59
1042.54	3616.18
1045.92	2145.39
1049.29	1006.17
1052.67	497.753
1056.04	258.798
1059.42	148.954
1062.79	49.9287
1066.17	1.59155
1069.54	9.93494
1072.92	17.1443
1076.29	29.4643
1079.66	11.8173
1083.04	20.7493
1086.41	12.805
1089.79	8.84247
1093.16	68.2839
1096.54	48.8619
1099.91	113.207
1103.29	115.671
1106.66	153.936
1110.04	186.232
1113.41	234.518
1116.79	248.583
1120.16	272.287
1123.54	295.112
1126.91	288.685
1130.29	328.782
1133.66	289.573
1137.04	241.914
1140.41	175.067
1143.79	110.805
1147.16	52.0184
1150.54	0.499634
1153.91	32.245
1157.29	10.7935
1160.66	2.34817
1164.04	20.1246
1167.41	17.4677
1170.79	27.0334
1174.16	21.5948
1177.54	26.9958
1180.91	25.152
1184.29	35.5157
1187.66	41.2307
1191.03	49.5895
1194.41	47.1725
1197.78	56.4261
1201.16	48.9023
1204.53	72.1537
1207.91	47.4629
1211.28	71.0939
1214.66	59.7984
1218.03	44.181
1221.41	68.3157
1224.78	52.8807
1228.16	61.7041
1231.53	72.3984
1234.91	54.5234
1238.28	40.2467
1241.66	59.8766
1245.03	42.0325
1248.41	49.5234
1251.78	34.6514
1255.16	49.8532
1258.53	40.4458
1261.91	21.1603
1265.28	13.738
1268.65	17.0111
1272.03	13.0684
1275.4	17.8119
1278.78	27.662
1282.15	25.5389
1285.53	40.7562
1288.9	16.7065
1292.28	3.60327
1295.65	10.6936
1299.03	7.99756
