Measurement: Raman, 780 nm, unoriented, Raman Data Processed
Mineral: Aegirine
Rruff sample: R070253
Ideal chemistry: NaFe^3+^Si_2_O_6_
Locality: Lovozero Massif, Kola Peninsula, Murmanskaya Oblast'; Northern Region, Russia
Source: Michael Scott
Description: Dark green to black prismatic aegirine associated with a brown mica and microcline
Raman shift (cm-1)	intensity
122.871	0
126.246	3.83057
129.62	39.3203
132.995	156.957
136.37	141.446
139.745	37.6045
143.12	30.5444
146.494	44.7371
149.869	45.3848
153.244	90.6631
156.619	155.277
159.994	242.369
163.369	185.701
166.743	119.781
170.118	166.66
173.493	266.565
176.868	381.186
180.243	363.576
183.618	323.043
186.992	382.649
190.367	454.285
193.742	498.777
197.117	508.925
200.492	522.393
203.866	569.657
207.241	644.959
210.616	760.8
213.991	741.849
217.366	569.181
220.74	392.598
224.115	258.82
227.49	169.871
230.865	116.484
234.24	95.9783
237.615	88.9966
240.989	96.5054
244.364	111.063
247.739	129.996
251.114	101.642
254.489	109.771
257.863	59.3842
261.238	52.5514
264.613	20.2537
267.988	11.7165
271.363	26.1018
274.738	30.985
278.112	0.655762
281.487	2.89868
284.862	24.646
288.237	54.3682
291.612	69.9159
294.986	114.192
298.361	130.658
301.736	150.409
305.111	177.913
308.486	196.76
311.861	185.317
315.235	157.409
318.61	154.674
321.985	180.764
325.36	211.344
328.735	268.467
332.11	365.811
335.484	460.864
338.859	470.175
342.234	417.432
345.609	357.073
348.984	326.225
352.358	313.176
355.733	352.5
359.108	442.984
362.483	571.971
365.858	643.479
369.233	703.891
372.607	747.789
375.982	832.005
379.357	925.168
382.732	1003.9
386.106	1000.61
389.481	855.107
392.856	620.635
396.231	388.379
399.606	224.385
402.981	142.011
406.355	63.6494
409.73	51.0927
413.105	16.3149
416.48	2.58447
419.855	14.3522
423.229	20.5706
426.604	24.9996
429.979	8.96912
433.354	11.0102
436.729	5.29852
440.104	15.202
443.478	4.04065
446.853	5.88354
450.228	17.1772
453.603	41.0505
456.978	48.6881
460.353	58.6598
463.727	70.5538
467.102	55.79
470.477	55.3291
473.852	62.1101
477.227	58.2679
480.601	56.1547
483.976	75.4815
487.351	71.7236
490.726	132.818
494.101	199.822
497.476	254.219
500.85	183.492
504.225	115.642
507.6	67.0182
510.975	44.2651
514.35	60.5299
517.724	84.8353
521.099	120.672
524.474	224.457
527.849	342.966
531.224	504.979
534.598	726.334
537.973	956.305
541.348	1127.07
544.723	1119.14
548.098	1000.39
551.472	894.488
554.847	819.463
558.222	770.512
561.597	728.34
564.972	669.949
568.347	597.567
571.721	552.999
575.096	490.62
578.471	435.978
581.846	390.534
585.221	291.486
588.596	231.725
591.97	184.216
595.345	123.161
598.72	74.8956
602.095	20.2104
605.47	9.71851
608.845	7.47186
612.219	13.3446
615.594	23.712
618.969	14.175
622.344	10.0923
625.719	8.44782
629.093	8.09595
632.468	8.49323
635.843	2.51135
639.218	33.822
642.593	47.261
645.967	58.2969
649.342	57.8986
652.717	65.2244
656.092	93.3851
659.467	126.584
662.842	154.055
666.216	227.021
669.591	312.314
672.966	361.647
676.341	373.699
679.716	286.978
683.091	206.106
686.465	112.371
689.84	99.9635
693.215	75.8461
696.59	56.0949
699.965	44.8871
703.339	41.2165
706.714	30.6965
710.089	45.6548
713.464	32.7814
716.839	38.6942
720.213	41.7739
723.588	20.8479
726.963	34.2331
730.338	56.8261
733.713	39.6424
737.087	40.6276
740.462	41.5188
743.837	56.7298
747.212	62.1822
750.587	84.4043
753.962	71.6118
757.336	52.0234
760.711	30.8735
764.086	38.0348
767.461	23.0915
770.836	21.1153
774.211	0.4151
777.585	12.2492
780.96	4.70801
784.335	12.8052
787.71	4.7229
791.085	8.13312
794.459	13.8467
797.834	2.22803
801.209	0.276978
804.584	2.49493
807.959	4.62555
811.333	0.878174
814.708	23.8967
818.083	21.7429
821.458	33.8965
824.833	42.2374
828.208	50.9421
831.582	57.4471
834.957	78.4994
838.332	84.6149
841.707	101.692
845.082	114.545
848.457	139.788
851.831	148.757
855.206	169.766
858.581	195.591
861.956	204.531
865.331	192.64
868.705	181.818
872.08	163.382
875.455	132.323
878.83	90.6144
882.205	67.2809
885.58	68.8487
888.954	34.454
892.329	39.3759
895.704	27.8737
899.079	6.20813
902.454	11.4024
905.828	5.05774
909.203	3.15265
912.578	7.64307
915.953	17.4269
919.328	3.39136
922.702	8.16504
926.077	8.64099
929.452	31.3846
932.827	54.7712
936.202	79.322
939.577	130.581
942.951	193.654
946.326	266.189
949.701	347.71
953.076	358.871
956.451	388.408
959.825	376.159
963.2	362.76
966.575	329.483
969.95	297.583
973.325	230.256
976.699	159.828
980.074	125.438
983.449	73.9159
986.824	59.4226
990.199	31.7906
993.574	32.3379
996.948	21.6183
1000.32	7.66089
1003.7	17.4657
1007.07	31.2977
1010.45	64.0356
1013.82	96.1552
1017.2	130.187
1020.57	137.115
1023.95	108.026
1027.32	109.929
1030.7	111.893
1034.07	124.364
1037.45	136.269
1040.82	140.252
1044.2	101.198
1047.57	77.9054
1050.94	49.3274
1054.32	54.2324
1057.69	54.4464
1061.07	55.314
1064.44	47.7463
1067.82	65.9812
1071.19	65.6187
1074.57	47.0827
1077.94	33.6876
1081.32	43.6066
1084.69	22.3187
1088.07	2.96191
1091.44	0.712219
1094.82	9.40057
1098.19	11.2273
1101.57	5.53357
1104.94	4.97559
1108.32	28.362
1111.69	16.6771
1115.07	22.2474
1118.44	28.1218
1121.82	37.8148
1125.19	41.8995
1128.57	39.7241
1131.94	33.323
1135.32	35.2307
1138.69	35.9409
1142.07	18.0438
1145.44	12.5862
1148.82	4.8324
1152.19	4.65521
1155.57	0.46283
1158.94	1.17603
1162.31	17.2686
1165.69	2.52222
1169.06	21.9777
1172.44	28.9068
1175.81	25.3184
1179.19	28.8207
1182.56	37.37
1185.94	34.6255
1189.31	32.9578
1192.69	40.5335
1196.06	39.1715
1199.44	52.0592
1202.81	51.0429
1206.19	47.991
1209.56	51.5447
1212.94	36.6243
1216.31	36.4144
1219.69	41.1086
1223.06	41.0793
1226.44	33.2739
1229.81	39.1072
1233.19	37.2638
1236.56	47.4113
1239.93	18.6334
1243.31	39.15
1246.68	14.6267
1250.06	20.4034
1253.43	21.4652
1256.81	11.2033
1260.18	15.1523
1263.56	20.251
1266.93	29.0585
1270.31	7.82098
1273.68	37.5992
1277.06	27.5117
1280.43	11.6245
1283.81	1.90662
