Measurement: Raman, 532 nm, unoriented, Raman Data Processed
Mineral: Aegirine
Rruff sample: R061093
Ideal chemistry: NaFe^3+^Si_2_O_6_
Locality: Lacotal Breccia, Alto Chapere, Cochabamba, Bolivia
Source: Michael Scott
Description: Aggregates of light green prismatic crystals associated with dark rutile
Measured chemistry: light phase: Na_1.00_(Fe^3+^_0.97_Al_0.02_Cr_0.01_)_Σ=1_Si_2.00_O_6_ ; darker phase: (Na_0.96_Ca_0.02_[box]_0.02_)_Σ=1_(Fe^3+^_0.89_Al_0.11_)_Σ=1_Si_2.00_O_6_
Raman shift (cm-1)	intensity
141.396	0
144.289	315.957
147.181	599.056
150.074	256.78
152.967	98.8369
155.86	155.611
158.752	275.878
161.645	467.873
164.538	147.438
167.43	111.778
170.323	271.412
173.216	917.04
176.108	2370.24
179.001	4286.15
181.894	5404.27
184.787	2788.22
187.679	3105.74
190.572	4334.23
193.465	4923.09
196.357	2807.96
199.25	1553.45
202.143	1289.58
205.036	1483.44
207.928	2446.08
210.821	3718.01
213.714	4698.67
216.606	2993.53
219.499	1308.93
222.392	674.467
225.284	353.988
228.177	114.682
231.07	69.6084
233.963	19.9688
236.855	55.0464
239.748	91.593
242.641	111.362
245.533	40.5862
248.426	64.9941
251.319	43.1643
254.211	130.827
257.104	282.808
259.997	553.205
262.889	872.811
265.782	1150.44
268.675	1154.76
271.568	1523.56
274.46	1801.3
277.353	1888.25
280.246	1430.39
283.138	942.677
286.031	599.201
288.924	577.245
291.817	612.553
294.709	611.682
297.602	311.732
300.495	59.2764
303.387	121.163
306.28	349.992
309.173	641.618
312.065	631.637
314.958	420.429
317.851	335.379
320.743	428.465
323.636	753.779
326.529	1305.56
329.422	2268.6
332.314	3645.55
335.207	5713.15
338.1	8134.27
340.992	9595.2
343.885	9138.12
346.778	7418.33
349.671	4838.01
352.563	2830.74
355.456	2153.74
358.349	2273.2
361.241	3090.76
364.134	4267.48
367.027	5417.23
369.919	5334.49
372.812	4665.48
375.705	4960.81
378.598	6520.72
381.49	8909.09
384.383	10943.9
387.276	10842.3
390.168	8540.08
393.061	5909.03
395.954	3823.5
398.846	2400.02
401.739	1402.59
404.632	842.51
407.524	425.265
410.417	194.195
413.31	65.4011
416.202	22.9814
419.095	42.2244
421.988	56.7129
424.881	71.9509
427.773	84.4763
430.666	77.0171
433.559	53.344
436.451	16.8257
439.344	24.6079
442.237	2.39298
445.13	12.484
448.022	25.1782
450.915	31.1518
453.808	57.3096
456.7	95.7717
459.593	159.415
462.486	233.182
465.378	251.898
468.271	165.381
471.164	139.621
474.057	57.3408
476.949	72.4495
479.842	81.9722
482.735	100.221
485.627	146.266
488.52	355.684
491.413	707.962
494.305	1147.22
497.198	1698.45
500.091	1526.68
502.983	1001.74
505.876	591.269
508.769	414.483
511.662	311.429
514.554	342.748
517.447	399.708
520.34	505.618
523.232	843.936
526.125	1313.02
529.018	1959.24
531.91	2973.05
534.803	4704.41
537.696	7236.06
540.589	10238.5
543.481	11576.3
546.374	9237.3
549.267	6041.91
552.159	4078.1
555.052	3034.36
557.945	2548.52
560.837	2231.52
563.73	1751
566.623	1157.17
569.516	823.165
572.408	539.823
575.301	380.705
578.194	301.228
581.086	261.025
583.979	194.461
586.872	108.077
589.764	94.4604
592.657	26.0552
595.55	85.27
598.443	78.7563
601.335	42.2703
604.228	43.356
607.121	18.4075
610.013	11.0996
612.906	1.48144
615.799	30.4658
618.692	10.0508
621.584	19.3613
624.477	31.1226
627.37	54.2703
630.262	4.95508
633.155	22.6633
636.048	1.44824
638.94	78.2241
641.833	106.686
644.726	128.28
647.619	167.331
650.511	199.164
653.404	330.849
656.297	426.353
659.189	626.73
662.082	851.859
664.975	1257.96
667.867	1876.32
670.76	2754.53
673.653	3785.4
676.545	4589.02
679.438	4445.07
682.331	3127.14
685.224	1942.53
688.116	1187.71
691.009	751.441
693.902	470.289
696.794	331.378
699.687	223.614
702.58	188.879
705.472	107.018
708.365	72.772
711.258	6.38599
714.151	60.0725
717.043	13.4839
719.936	30.4187
722.829	13.624
725.721	48.4294
728.614	48.7385
731.507	23.7881
734.399	41.0676
737.292	29.5117
740.185	41.7537
743.077	21.4255
745.97	138.666
748.863	83.9016
751.756	70.9414
754.648	167.149
757.541	215.6
760.434	173.389
763.326	113.386
766.219	6.56299
769.112	20.2268
772.005	19.0664
774.897	8.34131
777.79	30.7078
780.683	29.3931
783.575	40.9128
786.468	76.1399
789.361	10.8337
792.253	4.99707
795.146	44.8037
798.039	11.2861
800.932	60.4602
803.824	68.9788
806.717	100.728
809.61	46.7974
812.502	38.1389
815.395	117.468
818.288	41.6895
821.18	18.2034
824.073	59.9407
826.966	35.6511
829.859	35.7419
832.751	9.41699
835.644	30.1741
838.537	55.6636
841.429	113.144
844.322	99.6804
847.215	182.438
850.107	260.079
853	389.931
855.893	552.967
858.785	756.066
861.678	1099.54
864.571	1407.67
867.464	1445.13
870.356	1156.21
873.249	718.79
876.142	471.399
879.034	259.128
881.927	168.356
884.82	114.103
887.712	59.0767
890.605	29.9082
893.498	4.08984
896.391	17.1611
899.283	7.55615
902.176	21.7334
905.069	1.08106
907.961	14.7759
910.854	18.6733
913.747	17.8423
916.639	44.5815
919.532	126.311
922.425	233.065
925.318	295.032
928.21	445.356
931.103	697.465
933.996	913.995
936.888	1322.39
939.781	1971.09
942.674	3027.75
945.567	4694.49
948.459	6828.61
951.352	8011.23
954.245	6850.88
957.137	5334.98
960.03	4424.73
962.923	4093.77
965.815	4233.09
968.708	5123.97
971.601	6672.48
974.494	6483.7
977.386	3433.9
980.279	1670.34
983.172	1024.24
986.064	587.177
988.957	322.827
991.85	132.457
994.742	10.5884
997.635	49.8784
1000.53	13.583
1003.42	22.4712
1006.31	96.2847
1009.21	241.394
1012.1	384.935
1014.99	746.931
1017.88	1159.64
1020.78	1430.69
1023.67	1494.8
1026.56	1333.05
1029.45	1342.71
1032.35	1451
1035.24	1647.62
1038.13	2264.62
1041.03	2977.07
1043.92	3398.3
1046.81	2207.94
1049.7	1364.66
1052.6	1092.64
1055.49	784.235
1058.38	642.908
1061.27	503.975
1064.17	365.603
1067.06	390.622
1069.95	280.141
1072.85	182.258
1075.74	129.946
1078.63	52.2705
1081.52	4.84615
1084.42	12.1731
1087.31	47.6079
1090.2	31.8838
1093.09	37.4858
1095.99	19.9868
1098.88	24.3057
1101.77	5.32178
1104.66	7.03125
1107.56	76.585
1110.45	35.835
1113.34	14.6958
1116.24	79.1118
1119.13	129.759
1122.02	153.892
1124.91	143.18
1127.81	148.567
1130.7	139.926
1133.59	141.252
1136.48	62.1851
1139.38	145.338
1142.27	173.478
1145.16	107.795
1148.06	115.82
1150.95	13.6929
1153.84	39.1777
1156.73	74.5425
1159.63	89.2002
1162.52	30.2095
1165.41	86.3667
1168.3	8.40381
1171.2	0.787109
1174.09	38.4692
1176.98	7.91309
1179.88	30.5703
1182.77	44.2925
1185.66	92.979
1188.55	98.6934
1191.45	114.33
1194.34	107.007
1197.23	84.4868
1200.12	158.848
1203.02	33.7124
1205.91	26.4556
1208.8	117.549
1211.69	77.0586
1214.59	75.6636
1217.48	70.0786
1220.37	55.9898
1223.27	131.227
1226.16	122.768
1229.05	11.1318
