Measurement: Raman, 514 nm, unoriented, Raman Data Processed
Mineral: Aegirine
Rruff sample: R050074
Ideal chemistry: NaFe^3+^Si_2_O_6_
Locality: Mt. Malosa, Zomba, Chilwa, Alkaline Area, Malawi
Source: Rock Currier
Description: Black prismatic single crystal
Measured chemistry: (Na_0.98_Ca_0.02_)_Σ=1_(Fe^3+^_0.96_Ti_0.01_Mn_0.03_)_Σ=1_Si_2.00_O_6_
Raman shift (cm-1)	intensity
65.458	0
69.651	401.103
73.842	777.44
78.031	1119.61
82.218	921.2
86.404	1048.72
90.587	2549.96
94.768	1712.32
98.947	1365.64
103.124	1260.35
107.3	1998.22
111.473	1155.18
115.644	2297.47
119.813	1302.12
123.981	821.082
128.146	566.226
132.309	391.122
136.47	333.148
140.63	466.581
144.787	275.639
148.942	237.897
153.096	370.454
157.247	566.264
161.396	818.173
165.544	588.276
169.689	1100.82
173.833	2799.52
177.974	4529.96
182.114	6214.73
186.251	14138.8
190.387	23885
194.52	18280.3
198.652	7954.44
202.782	4359.44
206.909	4365.27
211.035	4604.94
215.159	2847.45
219.281	1235.78
223.4	420.442
227.518	62.93
231.634	157.658
235.748	248.698
239.86	131.229
243.97	55.136
248.079	98.092
252.185	36.635
256.289	114.154
260.391	316.506
264.492	590.102
268.59	1078.47
272.687	1626.79
276.781	1722.53
280.874	1252.76
284.964	936.912
289.053	871.347
293.14	901.083
297.225	952.457
301.308	1248.55
305.389	1632.6
309.468	1893.53
313.545	1893.79
317.62	2222.1
321.693	3121.92
325.765	5094.68
329.834	9906.24
333.902	18100.7
337.967	23215.1
342.031	16950.3
346.093	10005.4
350.153	6466.35
354.21	5127.16
358.267	5504.82
362.321	6507.33
366.373	6260.68
370.423	4452.88
374.471	3542.93
378.518	3926.82
382.563	4671.55
386.605	4467.14
390.646	3149.58
394.685	1929.42
398.722	1126.18
402.757	663.074
406.79	428.757
410.821	342.192
414.851	188.213
418.878	87.873
422.904	4.759
426.927	6.77
430.949	4.247
434.969	0.193
438.987	22.902
443.003	3.221
447.018	102.331
451.03	153.434
455.041	162.126
459.049	148.603
463.056	115.735
467.061	257.38
471.064	254.358
475.065	217.125
479.064	547.956
483.062	912.172
487.057	1832.83
491.051	4386.17
495.043	7443.57
499.032	5874.68
503.02	2806.7
507.007	1514.65
510.991	1055.44
514.973	891.067
518.954	872.519
522.933	1166.8
526.91	1461.9
530.885	2040.82
534.858	3718.56
538.829	6656.13
542.799	8501.82
546.766	6936.91
550.732	5185.33
554.696	4231.32
558.658	3782.04
562.618	3438.71
566.576	3085.95
570.533	2722.38
574.488	2467.79
578.44	2096.07
582.391	1747.11
586.341	1445.92
590.288	1051.98
594.233	700.388
598.177	426.203
602.119	236.041
606.059	89.28
609.997	6.915
613.933	27.912
617.868	4.287
621.801	25.021
625.731	68.566
629.66	4.2
633.588	24.193
637.513	64.446
641.437	84.477
645.358	137.06
649.278	113.291
653.196	315.195
657.113	354.562
661.027	504.936
664.94	704.011
668.851	1252.38
672.76	2126.5
676.667	2496.43
680.572	1882.17
684.476	966.724
688.378	501.092
692.278	342.278
696.176	191.282
700.072	90.726
703.967	107.733
707.86	153.172
711.751	179.439
715.64	58.517
719.527	95.375
723.413	172.036
727.297	167.512
731.179	84.757
735.059	159.79
738.937	78.737
742.814	59.633
746.689	36.465
750.562	138.222
754.433	298.891
758.303	250.472
762.17	165.746
766.036	235.726
769.901	60.44
773.763	78.539
777.624	62.228
781.482	10.082
785.339	93.128
789.195	58.716
793.048	45.621
796.9	55.592
800.75	39.34
804.598	12.413
808.445	49.61
812.289	37.112
816.132	17.111
819.973	16.167
823.813	125.128
827.65	145.021
831.486	171.868
835.32	275.319
839.152	427.326
842.983	529.187
846.812	858.903
850.639	1060.6
854.464	1473.68
858.288	1906.56
862.11	2335.04
865.93	2553.72
869.748	2371.54
873.564	1984.52
877.379	1678.18
881.192	1461.64
885.004	1353.98
888.813	1333.64
892.621	1303.33
896.427	1310.01
900.232	1266.84
904.034	1316.92
907.835	1270.52
911.634	1271.15
915.432	1366.03
919.227	1470.98
923.021	1573.46
926.813	1773.83
930.604	2043.58
934.393	2412.07
938.18	3317.39
941.965	4929.54
945.749	7798.12
949.53	11308.7
953.311	10913.4
957.089	9077.96
960.866	8483.93
964.641	6610.49
968.414	4754.13
972.185	3649.06
975.955	2982.69
979.723	2405.55
983.49	2185.6
987.254	1931.83
991.017	1698.23
994.779	1604.82
998.538	1571.62
1002.3	1556.69
1006.05	1662.94
1009.81	1668.36
1013.56	1668.97
1017.31	1668.02
1021.06	1561.06
1024.81	1531.59
1028.55	1500.98
1032.3	1614.91
1036.04	1937.79
1039.78	2644.78
1043.52	2848.39
1047.26	2183.52
1050.99	1756.09
1054.73	1655.06
1058.46	1679.52
1062.19	1652.37
1065.92	1554.18
1069.65	1480.39
1073.37	1503.77
1077.1	1468.53
1080.82	1423.23
1084.54	1321.81
1088.26	1242.64
1091.97	1146.24
1095.69	1172.33
1099.4	1019.38
1103.12	958.028
1106.83	935.429
1110.54	903.919
1114.24	846.969
1117.95	794.985
1121.65	760.942
1125.35	652.982
1129.06	601.549
1132.75	577.902
1136.45	521.567
1140.15	509.095
1143.84	368.677
1147.53	360.171
1151.22	282.107
1154.91	164.845
1158.6	75.488
1162.28	47.211
1165.97	48.813
1169.65	28.092
1173.33	35.281
1177.01	12.845
1180.69	4.219
1184.36	3.463
1188.04	6.05
1191.71	44.292
1195.38	1.387
1199.05	7.241
1202.71	48.67
1206.38	34.669
1210.04	1.739
1213.71	39.954
1217.37	12.97
1221.03	21.121
1224.68	57.465
1228.34	46.098
1231.99	48.001
1235.65	50.952
1239.3	1.764
1242.95	6.401
1246.59	2.111
1250.24	28.171
1253.88	49.236
1257.53	41.121
1261.17	125.825
1264.81	178.2
1268.45	91.307
1272.08	43.202
1275.72	19.906
1279.35	70.401
1282.98	53.669
1286.61	62.057
1290.24	13.545
1293.87	108.102
1297.49	80.421
1301.11	126.552
1304.73	75.498
1308.36	115.256
1311.97	93.831
1315.59	131.08
1319.2	120.447
1322.82	135.302
1326.43	202.704
1330.04	52.712
1333.65	108.582
1337.26	61.024
1340.86	117.688
1344.47	135.169
1348.07	160.001
1351.67	104.375
1355.27	143.887
1358.87	148.13
1362.46	130.939
1366.06	124.413
1369.65	86.407
1373.24	162.349
1376.83	97.696
1380.42	101.501
1384	247.199
1387.59	141.641
1391.17	172.578
1394.75	124.714
1398.33	79.101
1401.91	70.838
1405.49	71.708
1409.06	171.283
1412.64	169.418
1416.21	180.017
1419.78	177.369
1423.35	127.245
1426.91	79.63
1430.48	83.805
1434.05	76.393
1437.61	255.493
1441.17	203.528
1444.73	168.673
1448.29	168.835
1451.84	210.393
1455.4	237.828
1458.95	161.789
1462.5	81.729
1466.05	208.393
1469.6	139.057
1473.15	100.947
1476.69	44.246
1480.24	104.757
1483.78	56.496
1487.32	86.529
1490.86	51.02
1494.39	104.035
1497.93	3.335
1501.46	42.022
1505	80.372
1508.53	122.453
1512.06	48.756
1515.59	0.118
