Measurement: Raman, 785 nm, unoriented, Raman Data Processed
Mineral: Aegirine
Rruff sample: R061093
Ideal chemistry: NaFe^3+^Si_2_O_6_
Locality: Lacotal Breccia, Alto Chapere, Cochabamba, Bolivia
Source: Michael Scott
Description: Aggregates of light green prismatic crystals associated with dark rutile
Measured chemistry: light phase: Na_1.00_(Fe^3+^_0.97_Al_0.02_Cr_0.01_)_Σ=1_Si_2.00_O_6_ ; darker phase: (Na_0.96_Ca_0.02_[box]_0.02_)_Σ=1_(Fe^3+^_0.89_Al_0.11_)_Σ=1_Si_2.00_O_6_
Raman shift (cm-1)	intensity
123.011	0
126.386	727.647
129.761	866.786
133.136	1244.1
136.51	830.938
139.885	163.644
143.26	19.6352
146.635	2.62183
150.01	66.7217
153.385	378.449
156.759	682.151
160.134	1244.37
163.509	887.234
166.884	584.148
170.258	1065.31
173.633	2398.78
177.008	3724.07
180.383	6815.7
183.758	8263.04
187.133	11133.7
190.507	15506.2
193.882	15285.3
197.257	7650.15
200.632	4536.9
204.007	4342.04
207.381	5076.94
210.756	6177.31
214.131	6457.9
217.506	3049.21
220.881	1322.41
224.256	653.65
227.63	336.229
231.005	128.107
234.38	15.8777
237.755	62.1011
241.13	130.447
244.505	146.845
247.879	110.863
251.254	47.272
254.629	152.439
258.004	370.494
261.378	726.472
264.753	1102.89
268.128	1059.08
271.503	1268.25
274.878	1589.41
278.253	1468.76
281.627	1049.63
285.002	801.607
288.377	853.663
291.752	936.007
295.127	909.498
298.502	443.196
301.876	293.625
305.251	565.507
308.626	923.66
312.001	985.887
315.375	677.256
318.75	728.138
322.125	1392.34
325.5	2829.13
328.875	5328.59
332.25	9190.71
335.625	13672.1
338.999	17891
342.374	18077.9
345.749	13966.4
349.124	9171.04
352.498	5730.68
355.873	5191.07
359.248	6240.95
362.623	8252.32
365.998	10274.6
369.373	10184.1
372.747	7804.76
376.122	7238
379.497	8207.88
382.872	9689.35
386.247	10126.1
389.622	7988.19
392.996	5445.6
396.371	3408
399.746	2017.76
403.121	1119.61
406.495	584.541
409.87	265.401
413.245	110.53
416.62	6.83252
419.995	120.087
423.37	110.747
426.744	134.33
430.119	86.6045
433.494	67.8413
436.869	36.8501
440.244	9.73682
443.618	5.42773
446.993	10.5371
450.368	43.8047
453.743	82.5576
457.118	277.192
460.493	338.289
463.867	397.511
467.242	313.656
470.617	267.912
473.992	304.694
477.367	418.277
480.741	657.631
484.116	1237.2
487.491	2084.69
490.866	3270.42
494.241	4643.55
497.615	5789.89
500.99	4810.77
504.365	2797.7
507.74	1537.4
511.115	963.488
514.49	837.496
517.864	974.207
521.239	1501.69
524.614	2420.67
527.989	4174.9
531.364	6782.83
534.739	10025.5
538.113	14316.6
541.488	18392.3
544.863	17822
548.238	11822.2
551.612	7771.37
554.987	5851.1
558.362	5085.58
561.737	4495.35
565.112	3169.45
568.487	1924.96
571.861	1206.28
575.236	917.798
578.611	683.815
581.986	592.682
585.361	436.371
588.736	278.567
592.11	189.542
595.485	108.188
598.86	64.2783
602.235	16.3086
605.61	23.8677
608.984	34.8052
612.359	52.2642
615.734	72.5249
619.109	41.1387
622.484	25.4683
625.859	70.0947
629.233	22.6631
632.608	23.3457
635.983	26.6685
639.358	20.5488
642.732	71.1914
646.107	144.45
649.482	206.904
652.857	376.486
656.232	496.215
659.607	824.948
662.981	1265.11
666.356	1811.23
669.731	2622.63
673.106	3519.34
676.481	4146.97
679.856	3552.74
683.23	2239.72
686.605	1241.39
689.98	712.04
693.355	488.88
696.73	359.272
700.104	255.214
703.479	170.159
706.854	191.519
710.229	187.06
713.604	74.5644
716.979	85.4336
720.353	123.309
723.728	147.516
727.103	133.718
730.478	135.508
733.852	166.412
737.227	166.389
740.602	161.052
743.977	188.996
747.352	246.589
750.727	304.075
754.101	497.573
757.476	600.255
760.851	559.802
764.226	460.034
767.601	330.678
770.976	347.607
774.35	303.891
777.725	254.693
781.1	265.507
784.475	196.416
787.85	171.839
791.224	147.85
794.599	97.1162
797.974	64.6567
801.349	55.7944
804.724	43.2886
808.098	18.1157
811.473	27.8457
814.848	40.2568
818.223	27.9854
821.598	7.62598
824.972	54.9717
828.347	81.1484
831.722	73.7632
835.097	113.195
838.472	180.197
841.847	269.883
845.221	453.934
848.596	760.533
851.971	1188.15
855.346	1705.98
858.721	2392.17
862.096	3158.67
865.47	3588.8
868.845	3109.01
872.22	2028.92
875.595	1101.19
878.97	605.285
882.344	347.768
885.719	213.132
889.094	92.1011
892.469	11.167
895.844	0.736328
899.218	17.561
902.593	30.5176
905.968	19.145
909.343	65.1245
912.718	150.357
916.092	256.974
919.467	538.98
922.842	842.658
926.217	1379.58
929.592	2072.72
932.967	3067.69
936.341	4909.4
939.716	7876.07
943.091	11787.1
946.466	17281.5
949.841	22710.7
953.216	22677.2
956.59	18249.5
959.965	15505.3
963.34	13999.7
966.715	13416.1
970.09	14795.6
973.464	15589.5
976.839	9734.42
980.214	4690.64
983.589	2790.05
986.964	1751.11
990.338	1077.07
993.713	683.915
997.088	346.549
1000.46	129.385
1003.84	1.48096
1007.21	66.6479
1010.59	1.01856
1013.96	124.065
1017.34	118.334
1020.71	281.851
1024.09	399.85
1027.46	539.337
1030.84	1120.21
1034.21	2118.74
1037.59	3612.9
1040.96	5677.87
1044.34	6284.59
1047.71	3002.28
1051.09	1223.96
1054.46	570.524
1057.84	260.201
1061.21	74.1133
1064.58	31.8648
1067.96	38.3408
1071.33	2.61621
1074.71	40.5947
1078.08	3.1333
1081.46	39.0664
1084.83	85.4302
1088.21	105.982
1091.58	97.2163
1094.96	118.62
1098.33	142.011
1101.71	210.06
1105.08	285.492
1108.46	294.215
1111.83	323.5
1115.21	401.465
1118.58	399.585
1121.96	452.833
1125.33	360.579
1128.71	400.901
1132.08	378.752
1135.45	383.081
1138.83	348.654
1142.2	322.733
1145.58	201.238
1148.95	125.627
1152.33	125.051
1155.7	79.6924
1159.08	23.8174
1162.45	80.4736
1165.83	51.5
1169.2	37.7822
1172.58	94.335
1175.95	80.3516
1179.33	53.2505
1182.7	46.4775
1186.08	14.7271
1189.45	67.6284
1192.83	17.0518
1196.2	80.0542
1199.58	64.1294
1202.95	53.4663
1206.33	9.3794
1209.7	33.9868
1213.08	49.6387
1216.45	11.2344
1219.83	31.7456
1223.2	64.4878
1226.58	31.5459
1229.95	41.8145
1233.33	70.4526
1236.7	69.2705
1240.08	68.478
1243.45	89.0874
1246.82	80.0083
1250.2	95.4702
1253.57	51.6148
1256.95	43.8076
1260.32	76.1006
1263.7	51.8423
1267.07	73.6665
1270.45	5.52832
1273.82	51.9653
1277.2	89.4912
1280.57	31.6533
1283.95	0
