Measurement: Raman, 780 nm, unoriented, Raman Data Processed
Mineral: Aegirine
Rruff sample: R120167
Ideal chemistry: NaFe^3+^Si_2_O_6_
Locality: Locotal metaevaporite breccia, Alto Chapare, Cochabamba Dept, Bolivia
Source: Rock Currier
Description: Mass of dark green crystals
Raman shift (cm-1)	intensity
112.413	0
115.787	0.896042
119.162	0.011459
122.537	4.65117
125.912	11.186
129.287	30.5268
132.662	77.6944
136.036	32.8689
139.411	6.25324
142.786	1.96532
146.161	0.240479
149.536	0.11618
152.911	1.48601
156.285	7.73244
159.66	28.7614
163.035	16.3527
166.41	12.7958
169.785	27.6634
173.159	79.6226
176.534	221.294
179.909	436.003
183.284	115.158
186.659	147.15
190.033	355.428
193.408	325.408
196.783	85.596
200.158	41.6923
203.533	43.6658
206.907	80.2764
210.282	197.792
213.657	249.696
217.032	76.6337
220.407	22.2775
223.782	8.6213
227.156	3.1369
230.531	0.363396
233.906	1.16611
237.281	2.88912
240.656	0.753738
244.03	0.334839
247.405	1.17659
250.78	3.43409
254.155	6.86318
257.53	14.5438
260.904	33.923
264.279	52.0264
267.654	61.6726
271.029	100.928
274.404	148.079
277.779	128.337
281.153	62.3816
284.528	25.3647
287.903	17.525
291.278	25.1145
294.653	21.2531
298.027	2.79494
301.402	4.47975
304.777	2.21004
308.152	14.5989
311.527	15.8242
314.902	5.00029
318.276	5.5732
321.651	20.6997
325.026	46.3396
328.401	95.8753
331.776	190.256
335.151	374.468
338.525	583.047
341.9	514.906
345.275	342.709
348.65	193.729
352.024	105.302
355.399	79.6595
358.774	96.5161
362.149	155.156
365.524	258.66
368.899	269.453
372.273	223.735
375.648	284.6
379.023	471.555
382.398	750.988
385.773	770.602
389.147	445.939
392.522	218.884
395.897	115.249
399.272	65.7673
402.647	38.8607
406.022	23.6554
409.396	13.9165
412.771	6.52271
416.146	2.42521
419.521	0.349373
422.896	1.99448
426.27	1.62058
429.645	0.77179
433.02	0.924469
436.395	0.420425
439.77	0.495216
443.144	0.726913
446.519	0.086571
449.894	0.496475
453.269	1.75155
456.644	4.15437
460.019	7.60963
463.393	7.57397
466.768	6.67507
470.143	4.96249
473.518	6.12361
476.893	5.58641
480.267	6.23695
483.642	10.8049
487.017	20.4165
490.392	43.3048
493.767	94.5435
497.142	125.796
500.516	68.4126
503.891	29.7178
507.266	15.0593
510.641	11.6858
514.016	8.56457
517.39	10.9577
520.765	16.3252
524.14	30.0488
527.515	58.2293
530.89	100.389
534.264	191.6
537.639	394.703
541.014	680.471
544.389	580.685
547.764	287.953
551.139	153.065
554.513	102.756
557.888	84.7162
561.263	74.243
564.638	53.3399
568.013	35.9006
571.388	25.5513
574.762	21.0559
578.137	16.8747
581.512	13.8446
584.887	13.1131
588.261	9.22413
591.636	7.34945
595.011	4.31734
598.386	1.37855
601.761	0.737808
605.136	0.348862
608.51	1.06272
611.885	0.593964
615.26	1.30536
618.635	1.09533
622.01	0.571999
625.385	0.118546
628.759	0.430519
632.134	1.25078
635.509	2.71916
638.884	3.77242
642.259	5.33521
645.633	7.57676
649.008	9.98009
652.383	14.0891
655.758	18.0149
659.133	24.5209
662.507	34.5013
665.882	53.069
669.257	85.4194
672.632	138.703
676.007	197.215
679.381	179.243
682.756	103.215
686.131	52.5408
689.506	27.2071
692.881	14.9889
696.256	9.52504
699.63	5.57083
703.005	3.4621
706.38	1.855
709.755	0.726303
713.13	2.61969
716.505	1.25824
719.879	0.124474
723.254	0.981483
726.629	0.625404
730.004	0.587906
733.379	0.918137
736.753	0.54998
740.128	0.582581
743.503	0.794846
746.878	1.20777
750.253	3.03148
753.627	3.85464
757.002	5.89862
760.377	5.12597
763.752	3.17696
767.127	2.12862
770.501	1.88193
773.876	1.97789
777.251	1.4127
780.626	1.2006
784.001	1.12964
787.376	0.410622
790.75	0.193771
794.125	0.093315
797.5	0.680794
800.875	0.066551
804.25	0.04776
807.625	0.262535
810.999	6.054
814.374	0.756653
817.749	0.352562
821.124	0.241249
824.499	0.039413
827.873	1.14516
831.248	1.75467
834.623	1.19266
837.998	2.91029
841.373	3.72642
844.747	5.15106
848.122	7.09465
851.497	10.3323
854.872	14.8457
858.247	21.2657
861.621	30.8455
864.996	41.8824
868.371	38.4932
871.746	24.6056
875.121	12.5578
878.495	5.43565
881.87	2.81637
885.245	0.451904
888.62	1.53741
891.995	0.522621
895.37	0.535133
898.744	0.114204
902.119	0.518204
905.494	0.428299
908.869	2.19354
912.244	2.55656
915.619	5.59279
918.993	12.6377
922.368	11.2706
925.743	17.4548
929.118	29.1307
932.493	38.9272
935.867	62.3162
939.242	104.37
942.617	192.994
945.992	373.999
949.367	574.318
952.741	413.48
956.116	225.41
959.491	176.65
962.866	131.148
966.241	113.814
969.615	155.555
972.99	208.988
976.365	116.23
979.74	47.4783
983.115	26.8579
986.49	14.3519
989.864	7.28194
993.239	9.79034
996.614	2.68111
999.989	0.224953
1003.36	0.591118
1006.74	0.326363
1010.11	1.18098
1013.49	4.27855
1016.86	14.0139
1020.24	28.9945
1023.61	25.8806
1026.99	13.983
1030.36	10.5974
1033.74	12.9628
1037.11	26.6089
1040.49	62.0869
1043.86	71.7541
1047.24	25.7538
1050.61	9.379
1053.99	4.02891
1057.36	3.48769
1060.74	1.98478
1064.11	0.815437
1067.48	0.836075
1070.86	0.040512
1074.23	0.660072
1077.61	0.390564
1080.98	0.006622
1084.36	0.419731
1087.73	1.19732
1091.11	0.597801
1094.48	1.61697
1097.86	2.19209
1101.23	0.83297
1104.61	1.23223
1107.98	2.11565
1111.36	2.97215
1114.73	3.49709
1118.11	2.31319
1121.48	1.89008
1124.86	2.37955
1128.23	2.49509
1131.61	1.83339
1134.98	2.05283
1138.36	1.5865
1141.73	1.08846
1145.11	1.21452
1148.48	0.423599
1151.86	0.333641
1155.23	0.131996
1158.61	0.457741
1161.98	0.071739
1165.36	0.558434
1168.73	1.38727
1172.1	0.008072
1175.48	1.06564
1178.85	0.999695
1182.23	0.846977
1185.6	0.583
1188.98	1.36368
1192.35	1.32884
1195.73	1.2928
1199.1	0.745033
1202.48	1.65245
1205.85	2.16816
1209.23	3.32838
1212.6	3.74569
1215.98	2.21603
1219.35	1.18171
1222.73	1.19221
1226.1	3.28352
1229.48	1.50304
1232.85	0.100311
1236.23	1.23772
1239.6	0.697205
1242.97	1.33662
1246.35	2.20392
1249.72	1.17842
1253.1	1.58955
1256.47	2.00873
1259.85	0.991791
1263.22	1.66447
1266.6	1.19595
1269.97	1.25555
1273.35	2.11293
1276.72	1.12863
1280.1	0.263245
1283.47	0.006302
