Measurement: Raman, 785 nm, unoriented, Raman Data Processed
Mineral: Aegirine
Rruff sample: R050074
Ideal chemistry: NaFe^3+^Si_2_O_6_
Locality: Mt. Malosa, Zomba, Chilwa, Alkaline Area, Malawi
Source: Rock Currier
Description: Black prismatic single crystal
Measured chemistry: (Na_0.98_Ca_0.02_)_Σ=1_(Fe^3+^_0.96_Ti_0.01_Mn_0.03_)_Σ=1_Si_2.00_O_6_
Raman shift (cm-1)	intensity
145.125	0
148.018	259.839
150.911	495.207
153.803	286.32
156.696	1.37488
159.589	9.65039
162.481	130.118
165.374	83.3246
168.267	109.565
171.16	129.347
174.052	212.784
176.945	253.748
179.838	279.095
182.73	252.854
185.623	289.214
188.516	413.702
191.408	468.535
194.301	423.237
197.194	368.915
200.087	313.752
202.979	280.844
205.872	249.401
208.765	313.172
211.657	375.496
214.55	279.831
217.443	141.608
220.335	26.5208
223.228	3.9613
226.121	41.9124
229.013	16.449
231.906	2.13623
234.799	20.7605
237.692	5.25745
240.584	42.7691
243.477	92.9902
246.37	95.7318
249.262	118.11
252.155	110.944
255.048	99.7219
257.941	86.4091
260.833	88.1031
263.726	53.3082
266.619	6.6853
269.511	23.1901
272.404	1.45691
275.297	2.39282
278.19	18.6129
281.082	32.8559
283.975	89.4134
286.868	110.162
289.76	171.181
292.653	150.937
295.546	129.275
298.438	122.784
301.331	122.312
304.224	150.295
307.116	188.406
310.009	188.37
312.902	156.064
315.795	122.466
318.687	104.524
321.58	110.166
324.473	123.473
327.365	244.89
330.258	369.004
333.151	534.74
336.043	725.065
338.936	849.23
341.829	887.74
344.721	943.106
347.614	858.378
350.507	641.559
353.4	448.694
356.292	353.014
359.185	339.486
362.078	368.81
364.97	415.983
367.863	431.821
370.756	459.606
373.649	527.375
376.541	569.281
379.434	720.482
382.327	772.395
385.219	775.125
388.112	575.941
391.005	368.362
393.897	233.566
396.79	130.55
399.683	64.5385
402.575	52.1698
405.468	13.4244
408.361	4.91266
411.254	1.60193
414.146	10.5845
417.039	13.303
419.932	16.7862
422.824	13.8884
425.717	8.98761
428.61	4.09082
431.502	7.72736
434.395	10.004
437.288	30.0247
440.181	1.54779
443.073	9.99737
445.966	39.6414
448.859	65.799
451.751	40.4219
454.644	65.8697
457.537	60.332
460.43	94.4882
463.322	105.07
466.215	106.34
469.108	69.7851
472	46.4117
474.893	63.0289
477.786	55.5438
480.678	38.1151
483.571	38.8956
486.464	41.0347
489.356	93.2772
492.249	107.457
495.142	175.076
498.035	123.636
500.927	80.5059
503.82	50.6641
506.713	55.6048
509.605	24.4687
512.498	20.8353
515.391	56.7908
518.284	91.9658
521.176	104.916
524.069	162.935
526.962	249.453
529.854	354.543
532.747	478.406
535.64	634.945
538.533	834.989
541.425	925.484
544.318	938.07
547.211	817.356
550.103	700.607
552.996	679.097
555.889	668.119
558.781	666.383
561.674	637.288
564.567	552.089
567.459	485.913
570.352	395.387
573.245	374.369
576.138	310.624
579.03	259.281
581.923	213.492
584.816	191.503
587.708	139.338
590.601	88.6948
593.494	55.8216
596.386	48.72
599.279	23.2591
602.172	2.11374
605.064	23.4567
607.957	3.3381
610.85	12.006
613.743	3.67432
616.635	13.9526
619.528	3.34171
622.421	3.93875
625.313	8.21597
628.206	20.509
631.099	28.361
633.991	27.9786
636.884	25.0138
639.777	35.5579
642.67	35.5443
645.562	64.4404
648.455	56.6407
651.348	65.7394
654.24	61.8493
657.133	65.4344
660.026	85.8447
662.918	126.807
665.811	161.507
668.704	244.775
671.597	260.444
674.489	313.877
677.382	328.594
680.275	265.759
683.167	170.225
686.06	127.227
688.953	68.1496
691.846	55.9998
694.738	50.5745
697.631	42.4226
700.524	35.9016
703.416	35.0296
706.309	32.2385
709.202	4.85126
712.094	16.1474
714.987	45.1161
717.88	23.3738
720.773	36.5396
723.665	32.6707
726.558	38.7707
729.451	18.7748
732.343	10.8024
735.236	26.2215
738.129	30.4588
741.021	43.3479
743.914	25.7584
746.807	49.299
749.699	40.0096
752.592	54.5639
755.485	83.426
758.378	60.8918
761.27	52.5471
764.163	49.6912
767.056	31.4336
769.948	11.3844
772.841	31.8081
775.734	14.07
778.626	7.07983
781.519	40.6495
784.412	7.99881
787.305	17.6649
790.197	10.7365
793.09	14.7088
795.983	28.9628
798.875	30.8255
801.768	27.8098
804.661	0.562408
807.553	24.5169
810.446	10.7771
813.339	19.0494
816.232	17.2283
819.124	1.44074
822.017	20.8388
824.91	12.4086
827.802	6.06036
830.695	43.9883
833.588	29.6648
836.481	66.9508
839.373	83.89
842.266	108.038
845.159	131.747
848.051	135.79
850.944	160.917
853.837	233.414
856.729	256.17
859.622	323.149
862.515	389.529
865.408	378.943
868.3	322.669
871.193	257.364
874.086	181.023
876.978	154.373
879.871	111.894
882.764	76.8218
885.656	37.9279
888.549	41.5258
891.442	35.0755
894.335	24.3403
897.227	20.7747
900.12	21.0814
903.013	1.22601
905.905	10.7891
908.798	3.89484
911.691	10.9413
914.583	16.7065
917.476	1.19006
920.369	7.20618
923.261	18.2848
926.154	12.399
929.047	62.6304
931.94	50.2528
934.832	78.8183
937.725	125.04
940.618	225.966
943.51	311.42
946.403	423.585
949.296	542.989
952.188	570.011
955.081	610.488
957.974	643.391
960.867	799.585
963.759	1054.86
966.652	1338.81
969.545	1618.66
972.437	1416.33
975.33	977.421
978.223	656.289
981.115	431.778
984.008	313.494
986.901	235.996
989.794	176.595
992.686	128.465
995.579	76.5674
998.472	26.9783
1001.36	18.5759
1004.26	21.4329
1007.15	24.2016
1010.04	1.94629
1012.93	47.5608
1015.83	35.6796
1018.72	66.3047
1021.61	102.454
1024.51	100.786
1027.4	119.286
1030.29	161.753
1033.18	242.861
1036.08	338.768
1038.97	453.915
1041.86	534.339
1044.76	393.047
1047.65	269.045
1050.54	137.216
1053.43	82.7715
1056.33	58.4448
1059.22	15.2041
1062.11	11.0137
1065	1.49286
1067.9	25.8276
1070.79	20.2324
1073.68	46.0006
1076.58	24.3149
1079.47	18.5219
1082.36	13.1194
1085.25	3.63492
1088.14	28.5073
1091.04	33.3993
1093.93	2.74014
1096.82	36.493
1099.72	13.3314
1102.61	8.25424
1105.5	45.543
1108.39	13.2917
1111.29	23.4084
1114.18	43.2149
1117.07	31.0721
1119.96	41.814
1122.86	40.5012
1125.75	28.8
1128.64	41.0153
1131.54	40.8713
1134.43	28.2565
1137.32	55.7609
1140.21	8.06952
1143.11	19.3813
1146	24.9063
1148.89	6.37668
1151.79	23.988
1154.68	17.673
1157.57	14.2063
1160.46	14.455
1163.36	1.99484
1166.25	6.3681
1169.14	6.36157
1172.03	6.49786
1174.93	23.1484
1177.82	12.1303
1180.71	29.6693
1183.6	21.0427
1186.5	17.7078
1189.39	66.909
1192.28	61.3681
1195.17	43.2152
1198.07	24.9628
1200.96	22.5962
1203.85	20.8539
1206.75	38.3858
1209.64	6.65851
1212.53	13.028
1215.42	21.7628
1218.32	38.3257
1221.21	13.1009
1224.1	14.7011
1226.99	21.1576
1229.89	28.1887
