Measurement: Raman, 532 nm, unoriented, Raman Data Processed
Mineral: Aegirine
Rruff sample: R070125
Ideal chemistry: NaFe^3+^Si_2_O_6_
Locality: Ice River Alkaline Complex, Golden, British Columbia, Canada
Source: Mark Mauthner
Description: Fragmented prismatic dark gray crystals associated with white microcline
Measured chemistry: Na_1.00_(Fe^3+^_0.91_Al_0.07_Mg_0.01_Ti_0.01_)_Î£=1_Si_2.00_O_6_
Raman shift (cm-1)	intensity
126.558	0
129.933	44.193
133.308	109.362
136.682	82.1169
140.057	27.5551
143.432	12.2459
146.807	51.925
150.182	127.916
153.556	208.141
156.931	325.318
160.306	475.372
163.681	454.801
167.056	411.795
170.431	478.654
173.805	688.723
177.18	1060.41
180.555	1335.16
183.93	1142.01
187.305	1389.2
190.679	1769.01
194.054	1761.76
197.429	1399.12
200.804	1251.74
204.179	1309.71
207.554	1505.81
210.928	1697.16
214.303	1437.09
217.678	761.022
221.053	329.33
224.428	149.813
227.803	53.0016
231.177	11.9697
234.552	14.05
237.927	16.9917
241.302	35.6205
244.677	40.6138
248.051	13.0751
251.426	35.3779
254.801	3.69958
258.176	60.5222
261.551	128.766
264.925	168.962
268.3	100.581
271.675	41.796
275.05	48.3417
278.425	109.633
281.8	174.191
285.174	305.613
288.549	444.877
291.924	600.777
295.299	631.231
298.674	565.296
302.048	554.212
305.423	658.985
308.798	766.328
312.173	846.578
315.548	732.868
318.923	703.71
322.297	829.086
325.672	1207.73
329.047	1845.36
332.422	2749.07
335.797	3535.29
339.171	4151.8
342.546	4455.27
345.921	4170.15
349.296	3371.8
352.671	2173.82
356.046	1522.43
359.42	1294.12
362.795	1294.81
366.17	1363.03
369.545	1405.44
372.92	1487.49
376.295	1787.99
379.669	2311.42
383.044	2782.03
386.419	2958.76
389.794	2552.25
393.169	1817.72
396.543	1098.9
399.918	582.139
403.293	320.371
406.668	156.435
410.043	81.7952
413.418	41.278
416.792	14.9764
420.167	12.0558
423.542	54.387
426.917	54.8982
430.292	62.0443
433.666	36.001
437.041	11.594
440.416	33.8331
443.791	8.52142
447.166	12.6812
450.541	43.4329
453.915	108.321
457.29	180.971
460.665	237.024
464.04	235.104
467.415	177.692
470.789	162.066
474.164	118.885
477.539	152.308
480.914	150.361
484.289	204.569
487.663	293.495
491.038	455.001
494.413	661.971
497.788	743.843
501.163	633.693
504.538	371.945
507.912	244.549
511.287	245.672
514.662	296.91
518.037	447.56
521.412	688.25
524.787	1081.55
528.161	1617.4
531.536	2413.63
534.911	3445.39
538.286	4497.51
541.661	5206.66
545.035	4953.84
548.41	4024.54
551.785	3433.81
555.16	3174.66
558.535	3100.99
561.909	2832.75
565.284	2190.95
568.659	1510.73
572.034	1076.61
575.409	816.924
578.784	646.114
582.158	466.405
585.533	328.583
588.908	207.427
592.283	132.169
595.658	49.0925
599.033	37.0237
602.407	9.14752
605.782	18.9698
609.157	23.538
612.532	6.5282
615.907	23.7949
619.281	16.832
622.656	2.96863
626.031	5.66016
629.406	27.9671
632.781	42.343
636.155	63.0704
639.53	75.8218
642.905	123.016
646.28	137.244
649.655	176.45
653.03	238.41
656.404	281.384
659.779	379.557
663.154	569.438
666.529	846.921
669.904	1154.18
673.279	1330.45
676.653	1273.53
680.028	935.182
683.403	559.468
686.778	305.972
690.153	186.487
693.527	94.5014
696.902	71.7477
700.277	61.2218
703.652	23.3733
707.027	40.0185
710.402	31.2767
713.776	58.861
717.151	41.439
720.526	16.187
723.901	41.1219
727.276	41.1321
730.65	50.54
734.025	61.2315
737.4	85.2701
740.775	101.13
744.15	154.707
747.524	197.301
750.899	280.674
754.274	313.798
757.649	276.292
761.024	204.611
764.399	139.888
767.773	100.643
771.148	89.387
774.523	109.338
777.898	83.2422
781.273	79.814
784.648	63.4401
788.022	55.5837
791.397	38.7012
794.772	39.0037
798.147	39.8129
801.522	1.16748
804.896	8.80896
808.271	3.43487
811.646	3.30853
815.021	12.8778
818.396	1.38959
821.77	4.54004
825.145	5.34497
828.52	9.72491
831.895	38.4359
835.27	57.0538
838.645	109.571
842.019	137.934
845.394	264.348
848.769	456.009
852.144	708.528
855.519	1049.03
858.894	1452.87
862.268	1803.04
865.643	1917.06
869.018	1767.13
872.393	1334.48
875.768	987.993
879.142	724.07
882.517	534.64
885.892	393.415
889.267	256.546
892.642	187.478
896.016	122.758
899.391	57.1774
902.766	47.9467
906.141	31.0459
909.516	50.353
912.891	37.3002
916.265	25.1373
919.64	18.9713
923.015	66.205
926.39	147.243
929.765	279.567
933.139	467.76
936.514	738.838
939.889	1238.31
943.264	1980.49
946.639	2855.23
950.014	3907.95
953.388	4625.63
956.763	5159.99
960.138	5972.98
963.513	7200.64
966.888	8363.34
970.263	8720.74
973.637	7607.23
977.012	5448.89
980.387	3739.3
983.762	2848.49
987.137	2179.33
990.511	1629.14
993.886	1138.47
997.261	705.69
1000.64	409.955
1004.01	246.164
1007.38	117.066
1010.76	143.971
1014.13	207.965
1017.51	293.104
1020.88	361.001
1024.26	488.194
1027.63	660.047
1031.01	1113.5
1034.38	1779.09
1037.76	2495.61
1041.13	2969.09
1044.51	2735.26
1047.88	1741.59
1051.26	815.642
1054.63	389.785
1058.01	152.213
1061.38	57.3026
1064.76	16.3879
1068.13	38.0535
1071.51	45.1476
1074.88	40.5184
1078.26	14.3458
1081.63	97.5588
1085.01	188.255
1088.38	177.5
1091.76	56.5922
1095.13	77.9479
1098.51	95.3179
1101.88	128.765
1105.26	167.958
1108.63	202.942
1112.01	246.793
1115.38	277.165
1118.76	316.514
1122.13	349.663
1125.5	380.658
1128.88	369.605
1132.25	313.018
1135.63	300.528
1139	240.063
1142.38	185.406
1145.75	87.8829
1149.13	44.9524
1152.5	10.2026
1155.88	5.73932
1159.25	21.7376
1162.63	2.1347
1166	3.51092
1169.38	13.5738
1172.75	0.106201
1176.13	12.4902
1179.5	28.5881
1182.88	0.061218
1186.25	19.0685
1189.63	30.1566
1193	33.7487
1196.38	23.6988
1199.75	36.8449
1203.12	41.5319
1206.5	48.842
1209.88	29.0351
1213.25	33.2889
1216.62	28.3008
1220	60.6175
1223.37	31.9358
1226.75	37.2916
1230.12	15.126
1233.5	8.14771
1236.87	37.119
1240.25	38.8153
1243.62	28.4656
1247	30.2075
1250.37	29.1615
1253.75	25.7716
1257.12	8.67255
1260.5	16.5718
1263.87	15.2027
1267.25	7.11664
1270.62	6.50513
1274	2.95898
1277.37	22.9279
1280.75	4.41522
1284.12	24.9301
1287.49	15.9795
1290.87	15.7519
1294.24	29.6645
1297.62	14.3351
1300.99	31.2837
1304.37	6.70465
