Measurement: Raman, 780 nm, unoriented, Raman Data Processed
Mineral: Aegirine
Rruff sample: R120144
Ideal chemistry: NaFe^3+^Si_2_O_6_
Locality: Zagi Mountain, Hameed Abad Kafoor Dheri, Peshawar, Khyber Pakhtunkhwa, Pakistan
Source: Ikram Mineralogy
Description: Black bladed crystal
Raman shift (cm-1)	intensity
104.217	0
107.591	0.176577
110.966	0.269152
114.341	1.76335
117.716	0.127831
121.091	0.104828
124.466	0.57991
127.84	1.7756
131.215	5.0622
134.59	8.17669
137.965	1.30361
141.34	0.104763
144.714	0.430412
148.089	0.601547
151.464	1.58527
154.839	2.963
158.214	8.12523
161.589	19.8947
164.963	7.73118
168.338	3.94564
171.713	6.5369
175.088	14.0169
178.463	33.0317
181.838	54.7037
185.212	45.0365
188.587	99.7433
191.962	250.18
195.337	154.515
198.712	46.183
202.086	24.4602
205.461	19.9686
208.836	26.2707
212.211	52.3174
215.586	45.0173
218.96	14.0371
222.335	4.66615
225.71	1.84552
229.085	0.469152
232.46	0.501842
235.834	0.624798
239.209	0.840672
242.584	0.868446
245.959	0.062511
249.334	0.095636
252.709	0.198137
256.083	0.431871
259.458	1.61389
262.833	6.17212
266.208	6.19655
269.583	2.82332
272.957	4.67576
276.332	8.57821
279.707	7.15924
283.082	3.6867
286.457	1.83754
289.832	4.84963
293.206	10.62
296.581	8.42107
299.956	2.55982
303.331	1.08343
306.706	5.49246
310.08	11.2475
313.455	10.5781
316.83	5.03246
320.205	4.42543
323.58	7.76978
326.954	15.2843
330.329	28.3885
333.704	53.9816
337.079	103.041
340.454	165.684
343.829	154.857
347.203	103.625
350.578	52.2541
353.953	25.2809
357.328	19.0556
360.703	22.117
364.077	34.8704
367.452	50.8078
370.827	40.4601
374.202	23.8948
377.577	21.5603
380.952	29.0551
384.326	41.7144
387.701	41.5484
391.076	23.6859
394.451	11.9277
397.826	6.24346
401.2	2.84694
404.575	1.34304
407.95	0.429543
411.325	0.117471
414.7	0.543688
418.075	0.397645
421.449	0.629714
424.824	0.691509
428.199	0.532277
431.574	0.313989
434.949	0.032579
438.323	0.067125
441.698	0.569946
445.073	0.524599
448.448	0.830464
451.823	1.03965
455.197	1.52638
458.572	2.39431
461.947	3.15285
465.322	3.81059
468.697	3.54124
472.072	2.87231
475.446	2.67712
478.821	2.63764
482.196	3.37612
485.571	5.14808
488.946	8.74417
492.32	18.8215
495.695	38.8044
499.07	51.4261
502.445	26.6627
505.82	10.9344
509.195	5.88374
512.569	3.81686
515.944	2.38382
519.319	2.60331
522.694	3.85875
526.068	6.77638
529.443	10.9472
532.818	15.9602
536.193	25.6627
539.568	48.3382
542.943	77.6519
546.317	61.7704
549.692	33.4278
553.067	22.5258
556.442	21.9424
559.817	26.3106
563.192	26.5318
566.566	17.4471
569.941	11.5186
573.316	8.92881
576.691	7.03718
580.066	5.42067
583.44	4.19396
586.815	2.52547
590.19	2.07106
593.565	0.991148
596.94	0.406307
600.314	0.070992
603.689	0.060153
607.064	0.196969
610.439	0.125726
613.814	0.393941
617.188	0.324996
620.563	0.017768
623.938	0.046419
627.313	0.087447
630.688	0.334187
634.063	0.378844
637.437	0.31066
640.812	0.718812
644.187	0.871633
647.562	1.0408
650.937	1.74256
654.312	2.1605
657.686	2.81396
661.061	3.42825
664.436	4.79432
667.811	7.10872
671.186	11.2688
674.56	18.7209
677.935	24.3709
681.31	19.6543
684.685	10.2992
688.06	5.65104
691.434	3.14206
694.809	2.19414
698.184	1.31997
701.559	0.67166
704.934	0.553832
708.308	0.434192
711.683	0.087747
715.058	0.291526
718.433	0.344871
721.808	0.343929
725.183	0.246243
728.557	0.075231
731.932	0.318913
735.307	0.37912
738.682	0.30299
742.057	0.533339
745.432	0.763511
748.806	1.01342
752.181	1.73691
755.556	2.67749
758.931	4.52303
762.306	3.01754
765.68	1.45658
769.055	1.01724
772.43	0.83103
775.805	0.452082
779.18	0.22301
782.554	0.186063
785.929	0.223809
789.304	0.148774
792.679	0.130149
796.054	0.187818
799.428	0.176283
802.803	0.117846
806.178	0.007953
809.553	0.042234
812.928	0.090286
816.303	0.217163
819.677	0.184332
823.052	0.210654
826.427	0.179038
829.802	0.049557
833.177	0.449518
836.552	0.82739
839.926	1.15616
843.301	1.55045
846.676	2.37261
850.051	3.68795
853.426	6.55924
856.8	10.9042
860.175	18.3571
863.55	29.1654
866.925	36.5478
870.3	28.6611
873.674	16.7983
877.049	9.31499
880.424	5.0615
883.799	2.97402
887.174	2.03726
890.548	0.82742
893.923	0.017702
897.298	0.128116
900.673	0.072406
904.048	0.036069
907.423	0.171367
910.797	0.344275
914.172	0.102294
917.547	0.434862
920.922	0.973801
924.297	1.69754
927.671	2.47779
931.046	4.31325
934.421	6.29342
937.796	10.7276
941.171	18.754
944.545	36.2537
947.92	70.1413
951.295	102.768
954.67	74.6757
958.045	47.0197
961.42	44.4257
964.794	40.0879
968.169	52.5294
971.544	93.4574
974.919	105.925
978.294	45.0225
981.668	20.6327
985.043	12.0409
988.418	7.02413
991.793	3.25284
995.168	1.81977
998.543	1.28831
1001.92	0.085268
1005.29	0.141514
1008.67	0.352947
1012.04	0.016935
1015.42	1.06633
1018.79	3.40498
1022.17	4.96936
1025.54	3.05466
1028.92	2.64399
1032.29	3.4456
1035.67	7.42037
1039.04	19.8713
1042.41	50.5202
1045.79	51.0078
1049.16	16.9895
1052.54	5.49227
1055.91	3.05134
1059.29	1.49505
1062.66	0.533787
1066.04	0.06053
1069.41	0.022552
1072.79	0.599846
1076.16	0.388222
1079.54	0.366243
1082.91	0.205988
1086.29	0.723536
1089.66	0.285103
1093.04	0.20562
1096.41	0.145779
1099.79	0.158573
1103.16	0.124876
1106.54	0.176527
1109.91	0.098837
1113.29	0.504814
1116.66	0.309099
1120.04	0.327154
1123.41	0.408962
1126.79	0.280825
1130.16	0.017349
1133.54	0.092131
1136.91	0.000849
1140.29	0.092018
1143.66	0.024235
1147.03	0.261463
1150.41	0.041334
1153.78	0.365139
1157.16	0.125521
1160.53	0.46829
1163.91	0.343857
1167.28	0.025816
1170.66	0.176826
1174.03	0.340157
1177.41	0.179302
1180.78	0.019032
1184.16	0.051331
1187.53	0.496103
1190.91	0.223055
1194.28	0.511021
1197.66	0.601574
1201.03	0.549015
1204.41	0.675373
1207.78	0.251181
1211.16	0.309841
1214.53	0.142775
1217.91	0.12604
1221.28	0.503763
1224.65	0.734468
1228.03	0.42774
1231.4	0.493895
1234.78	0.011948
1238.15	0.113192
1241.53	0.564995
1244.9	0.539192
1248.28	0.224655
1251.65	0.174492
1255.03	0.123962
1258.4	0.398769
1261.78	0.054941
1265.15	0.823711
1268.53	0.3617
1271.9	0.242144
1275.28	0.085417
1278.65	0.923592
1282.03	0.202654
