Measurement: Raman, 532 nm, unoriented, Raman Data Processed
Mineral: Aegirine
Rruff sample: R070253
Ideal chemistry: NaFe^3+^Si_2_O_6_
Locality: Lovozero Massif, Kola Peninsula, Murmanskaya Oblast'; Northern Region, Russia
Source: Michael Scott
Description: Dark green to black prismatic aegirine associated with a brown mica and microcline
Raman shift (cm-1)	intensity
129.544	0
132.918	16.248
136.293	1.47226
139.668	20.8378
143.043	87.4423
146.418	162.556
149.792	296.154
153.167	487.782
156.542	664.412
159.917	912.813
163.292	1063.52
166.667	875.397
170.041	850.649
173.416	924.287
176.791	1105.08
180.166	1325.05
183.541	1207.89
186.916	1384.04
190.29	1667.53
193.665	1760.77
197.04	1491.15
200.415	1224.71
203.79	1096.04
207.164	1092.97
210.539	1166.46
213.914	1144.7
217.289	916.094
220.664	647.888
224.038	453.933
227.413	311.144
230.788	217.507
234.163	140.697
237.538	78.9254
240.913	52.5512
244.287	9.76599
247.662	2.72241
251.037	21.2061
254.412	32.4412
257.787	27.4795
261.161	17.5592
264.536	9.67908
267.911	31.0729
271.286	20.3697
274.661	32.65
278.036	86.6229
281.41	124.884
284.785	170.404
288.16	238.145
291.535	267.742
294.91	325.736
298.284	354.055
301.659	379.859
305.034	439.083
308.409	514.153
311.784	547.802
315.159	481.399
318.533	404.871
321.908	386.743
325.283	451.26
328.658	635.672
332.033	924.308
335.408	1277.33
338.782	1463.44
342.157	1303.85
345.532	1009.13
348.907	765.309
352.281	619.864
355.656	570.589
359.031	605.027
362.406	715.516
365.781	790.432
369.156	788.476
372.53	730.626
375.905	732.443
379.28	821.368
382.655	947.45
386.03	1063.7
389.404	1066.12
392.779	882.592
396.154	587.798
399.529	332.665
402.904	169.821
406.279	81.4626
409.653	54.5737
413.028	31.0997
416.403	16.2485
419.778	2.59876
423.153	18.1202
426.527	33.5659
429.902	24.2031
433.277	27.4
436.652	15.8613
440.027	5.91559
443.402	7.61346
446.776	5.81024
450.151	4.90057
453.526	29.0464
456.901	37.3993
460.276	47.4695
463.651	51.0343
467.025	44.0853
470.4	34.3541
473.775	36.5313
477.15	51.2341
480.525	72.6572
483.899	117.543
487.274	167.017
490.649	249.414
494.024	380.673
497.399	530.213
500.774	494.369
504.148	319.299
507.523	188.666
510.898	133.01
514.273	136.336
517.648	166.44
521.022	264.665
524.397	394.51
527.772	603.639
531.147	798.645
534.522	1044.8
537.896	1391.9
541.271	1792.13
544.646	1933.67
548.021	1794.82
551.396	1627.18
554.771	1499.09
558.145	1434.05
561.52	1366.48
564.895	1225.22
568.27	1056.63
571.645	877.241
575.019	744.479
578.394	621.888
581.769	517.381
585.144	428.465
588.519	332.367
591.894	267.285
595.268	179.047
598.643	102.349
602.018	63.754
605.393	26.6356
608.768	0.20874
612.142	3.98657
615.517	14.1886
618.892	19.5622
622.267	12.7743
625.642	9.58469
629.016	1.42599
632.391	3.19934
635.766	4.81766
639.141	20.4726
642.516	42.2269
645.891	45.295
649.265	55.3577
652.64	72.8231
656.015	102.821
659.39	122.343
662.765	152.301
666.139	220.402
669.514	298.076
672.889	405.479
676.264	445.37
679.639	378.09
683.014	245.962
686.388	148.502
689.763	80.0903
693.138	64.0921
696.513	47.038
699.888	34.2878
703.263	29.2137
706.637	28.0498
710.012	27.518
713.387	35.1399
716.762	24.6259
720.136	28.6146
723.511	32.9312
726.886	21.0624
730.261	34.7955
733.636	51.7983
737.011	45.413
740.385	49.851
743.76	75.3578
747.135	102.503
750.51	129.361
753.885	178.001
757.26	161.761
760.634	94.5798
764.009	44.8349
767.384	41.8861
770.759	23.2519
774.134	13.6894
777.508	10.9773
780.883	9.35373
784.258	10.0408
787.633	12.8803
791.008	5.86414
794.383	6.50207
797.757	1.7691
801.132	2.58127
804.507	0.222961
807.882	2.95316
811.257	10.9598
814.631	26.2694
818.006	33.6311
821.381	64.04
824.756	90.4567
828.131	119.473
831.505	162.853
834.88	213.421
838.255	280.11
841.63	370.473
845.005	467.032
848.38	550.116
851.754	654.523
855.129	734.689
858.504	805.403
861.879	857.527
865.254	882.183
868.629	837.946
872.003	738.298
875.378	607.431
878.753	477.493
882.128	360.161
885.503	268.997
888.877	191.599
892.252	151.299
895.627	103.947
899.002	82.7463
902.377	51.0382
905.751	19.2145
909.126	13.6299
912.501	5.39478
915.876	4.56952
919.251	0.114807
922.625	4.98724
926	18.5892
929.375	51.142
932.75	89.3495
936.125	137.588
939.5	229.702
942.875	329.183
946.249	476.187
949.624	616.247
952.999	742.883
956.374	778.731
959.749	801.778
963.123	802.706
966.498	751.961
969.873	680.742
973.248	553.183
976.623	415.091
979.997	280.751
983.372	197.833
986.747	141.219
990.122	90.637
993.497	35.3049
996.871	1.3811
1000.25	7.18896
1003.62	1.98529
1007	12.9685
1010.37	29.0935
1013.75	43.3767
1017.12	60.4942
1020.5	93.1293
1023.87	117.838
1027.24	172.46
1030.62	259.064
1033.99	361.964
1037.37	514.311
1040.74	628.22
1044.12	604.049
1047.49	402.793
1050.87	233.58
1054.24	137.161
1057.62	82.1054
1060.99	46.6005
1064.37	28.5693
1067.74	12.1717
1071.12	14.9966
1074.49	10.5237
1077.87	12.1614
1081.24	4.13257
1084.62	2.8924
1087.99	0.955566
1091.37	10.2101
1094.74	5.96451
1098.12	7.45978
1101.49	7.4733
1104.87	11.8923
1108.24	37.1032
1111.62	36.3035
1114.99	60.2899
1118.37	65.1503
1121.74	78.9289
1125.12	77.1286
1128.49	94.954
1131.86	100.725
1135.24	89.4008
1138.61	95.1425
1141.99	68.0301
1145.36	41.5694
1148.74	14.4496
1152.11	8.76524
1155.49	4.97176
1158.86	2.41989
1162.24	0.959381
1165.61	2.61528
1168.99	8.7366
1172.36	9.63843
1175.74	19.7889
1179.11	9.91751
1182.49	18.7274
1185.86	23.5751
1189.24	21.1046
1192.61	27.7392
1195.99	23.942
1199.36	29.9876
1202.73	29.1658
1206.11	32.5687
1209.48	33.9196
1212.86	37.9579
1216.23	32.5666
1219.61	29.3259
1222.98	34.2805
1226.36	23.627
1229.73	24.2007
1233.11	34.1431
1236.48	25.0206
1239.86	24.8913
1243.23	16.9009
1246.61	17.8243
1249.98	16.2829
1253.36	27.1386
1256.73	8.41521
1260.11	18.7627
1263.48	13.9159
1266.86	15.6639
1270.23	18.369
1273.61	0.22554
1276.98	3.79593
1280.36	9.87602
1283.73	17.2499
1287.11	5.0318
1290.48	17.3625
1293.86	15.0982
1297.23	9.83568
1300.61	3.64072
