Measurement: Raman, 514 nm, unoriented, Raman Data Processed
Mineral: Aegirine
Rruff sample: R040054
Ideal chemistry: NaFe^3+^Si_2_O_6_
Locality: Mont Saint-Hilaire, Rouville County, Quebec, Canada
Source: Bob Downs
Description: Black cleavage fragments
Measured chemistry: (Na_0.96_Ca_0.04_)(Fe_0.86_Ti_0.07_Mn_0.06_Mg_0.02_)(Si_0.97_Al_0.03_)_2_O_6_
Raman shift (cm-1)	intensity
155.863	0
160.013	84.04
164.161	233.041
168.308	166.335
172.452	457.148
176.594	1305.94
180.734	3118.72
184.872	4460.95
189.008	8276
193.143	14645.9
197.275	12724.9
201.405	6862.21
205.534	4026.76
209.66	3179.88
213.784	3083.9
217.907	2436.82
222.027	1464.4
226.146	826.722
230.263	386.833
234.377	190.417
238.49	33
242.601	2.975
246.709	45.265
250.816	112.943
254.921	0.288
259.024	138.962
263.125	278.263
267.224	568.539
271.321	653.78
275.416	1160
279.51	1533.19
283.601	1408.7
287.69	1274.89
291.778	1142.83
295.863	1323.47
299.947	1464.86
304.029	1637.3
308.108	1937.08
312.186	2125.46
316.262	2162.34
320.336	2389.94
324.408	2924.12
328.478	4105.97
332.546	6256.12
336.612	10081.2
340.677	13718
344.739	13286.4
348.799	9374.1
352.858	6529.31
356.915	5305.15
360.969	5274.65
365.022	6000.89
369.073	6397.16
373.122	5234.93
377.169	4224.78
381.215	3824.72
385.258	3936.73
389.299	3938.79
393.339	3196.9
397.376	2207.87
401.412	1528.32
405.446	940.143
409.478	641.666
413.508	369.479
417.536	249.765
421.562	105.179
425.586	1.033
429.609	40.972
433.629	35.032
437.648	11.221
441.665	30.495
445.68	16.903
449.693	42.601
453.704	63.08
457.713	114.238
461.721	173.939
465.726	197.942
469.73	175.342
473.731	167.846
477.731	292.47
481.729	350.259
485.725	590.102
489.72	1221.27
493.712	2583.53
497.703	4221.49
501.691	4407.95
505.678	2464.97
509.663	1442.84
513.646	976.562
517.627	716.14
521.607	653.574
525.584	855.873
529.56	1140.69
533.534	1583.14
537.506	2415.11
541.476	3976.97
545.444	5076.72
549.41	5189.37
553.375	4878.88
557.337	4573.27
561.298	4603.62
565.257	4355.14
569.214	3935.68
573.17	3778.22
577.123	3419.04
581.075	3101.7
585.024	2899.39
588.972	2533.39
592.918	1973.33
596.863	1454.26
600.805	1068.52
604.746	581.316
608.685	312.969
612.621	113.073
616.557	3.562
620.49	6.588
624.421	3.69
628.351	36.102
632.279	18.114
636.205	19.732
640.129	78.724
644.051	177.308
647.972	234.076
651.89	280.2
655.807	340.187
659.722	300.097
663.636	368.87
667.547	535.418
671.457	1005.74
675.365	1481.85
679.271	1750.73
683.175	1330.4
687.077	846.847
690.978	588.083
694.877	346.105
698.774	333.917
702.669	276.521
706.562	268.917
710.454	198.108
714.344	269.097
718.232	227.885
722.118	235.47
726.002	191.854
729.885	144.039
733.766	217.025
737.645	168.819
741.522	252.439
745.397	237.909
749.271	196.329
753.143	284.652
757.013	330.876
760.881	271.065
764.748	134.139
768.613	91.027
772.476	2.737
776.337	32.704
780.196	69.816
784.054	4.721
787.91	7.444
791.764	61.078
795.616	164.328
799.467	70.534
803.316	89.743
807.163	55.663
811.008	16.88
814.851	70.746
818.693	178.32
822.533	230.852
826.371	369.347
830.208	558.812
834.042	723.255
837.875	1123.86
841.706	1349.08
845.536	1712.23
849.363	2044.93
853.189	2439.35
857.013	2664.8
860.836	3696.24
864.656	3236.73
868.475	3176.26
872.292	3107.75
876.108	2913.15
879.922	2567.78
883.733	2237.61
887.544	2068.78
891.352	1902
895.159	1839.81
898.964	1879.2
902.767	1910.12
906.568	1848.29
910.368	1932.78
914.166	2016.52
917.962	1961.23
921.757	2100.16
925.55	2309.02
929.341	2446.89
933.13	2838.4
936.918	3260.64
940.703	3871.67
944.488	5081.03
948.27	7169.45
952.051	8977.63
955.83	8195.82
959.607	7471.11
963.383	6581.64
967.156	5534.6
970.928	4580.9
974.699	3986.41
978.468	3316.16
982.234	2628.13
986	2278.34
989.763	2104.78
993.525	2040.44
997.285	1887.33
1001.04	1796.45
1004.8	1928.78
1008.55	1947.34
1012.31	1964.12
1016.06	2044.11
1019.81	1941.33
1023.56	1810.96
1027.31	1672.03
1031.05	1757.85
1034.79	2026.03
1038.53	2467.11
1042.27	3315.81
1046.01	3426.86
1049.75	2682.45
1053.48	2318.29
1057.22	2273.89
1060.95	2305.15
1064.68	2224.24
1068.4	2134.47
1072.13	2188.87
1075.86	2147.84
1079.58	2184.85
1083.3	2153.07
1087.02	2180.8
1090.74	1997
1094.45	1690.18
1098.17	1492.28
1101.88	1438.69
1105.59	1257.15
1109.3	1202.24
1113.01	1099.6
1116.71	1055.53
1120.42	1015.45
1124.12	1233.56
1127.82	822.1
1131.52	765.512
1135.22	671.604
1138.91	610.313
1142.61	505.437
1146.3	321.304
1149.99	281.967
1153.68	144.604
1157.37	89.206
1161.06	17.767
1164.74	57.282
1168.42	14.818
1172.1	21.727
1175.78	80.435
1179.46	83.499
1183.14	56.918
1186.81	58.573
1190.48	20.437
1194.15	3.291
1197.83	25.336
1201.49	46.339
1205.16	99.814
1208.82	25.838
1212.49	10.754
1216.15	58.962
1219.81	2.963
1223.46	43.632
1227.12	85.098
1230.78	103.805
1234.43	21.362
1238.08	3.552
1241.73	33.228
1245.38	50.704
1249.03	110.998
1252.67	93.103
1256.31	104.001
1259.95	82.691
1263.6	112.157
1267.23	88.403
1270.87	154.438
1274.51	139.252
1278.14	113.842
1281.77	164.194
1285.4	73.317
1289.03	107.21
1292.66	152.555
1296.28	188.33
1299.91	235.418
1303.53	216.626
1307.15	183.487
1310.77	177.158
1314.38	208.642
1318	144.037
1321.61	231.082
1325.23	187.5
1328.84	142.747
1332.45	116.141
1336.06	155.579
1339.66	187.647
1343.27	162.135
1346.87	188.792
1350.47	153.711
1354.07	158.029
1357.67	129.205
1361.26	188.805
1364.86	154.442
1368.45	195.007
1372.04	138.901
1375.63	201.382
1379.22	122.341
1382.81	139.298
1386.39	175.025
1389.98	133.847
1393.56	69.824
1397.14	158.299
1400.72	201.917
1404.3	200.889
1407.87	132.778
1411.45	112.295
1415.02	126.867
1418.59	165.007
1422.16	95.603
1425.73	155.812
1429.29	163.347
1432.86	204.841
1436.42	166.806
1439.98	165.389
1443.54	160.803
1447.1	132.705
1450.66	218.817
1454.21	197.9
1457.77	142.892
1461.32	175.054
1464.87	139.245
1468.42	151.562
1471.96	104.451
1475.51	119.771
1479.06	137.942
1482.6	164.628
1486.14	128.806
1489.68	151.357
1493.22	74.314
1496.75	102.791
1500.29	105.949
1503.82	29.968
1507.35	23.973
1510.88	31.167
1514.41	80.543
1517.94	126.383
1521.46	93.44
1524.99	35.786
