Measurement: Raman, 532 nm, unoriented, Raman Data Processed
Mineral: Aegirine
Rruff sample: R120167
Ideal chemistry: NaFe^3+^Si_2_O_6_
Locality: Locotal metaevaporite breccia, Alto Chapare, Cochabamba Dept, Bolivia
Source: Rock Currier
Description: Mass of dark green crystals
Raman shift (cm-1)	intensity
175.178	0
178.071	128.093
180.964	383.759
183.857	291.289
186.749	845.243
189.642	2370.41
192.535	4195.48
195.427	1765.89
198.32	546.138
201.213	327.784
204.105	349.642
206.998	521.273
209.891	959.187
212.784	1554.59
215.676	978.231
218.569	290.429
221.462	100.718
224.354	32.2005
227.247	3.23196
230.14	19.6467
233.032	34.1828
235.925	33.4904
238.818	28.7853
241.71	18.1856
244.603	13.4363
247.496	2.74121
250.389	26.3136
253.281	42.8632
256.174	73.3511
259.067	127.241
261.959	206.494
264.852	285.312
267.745	297.463
270.637	389.235
273.53	526.734
276.423	605.184
279.316	464.195
282.208	261.964
285.101	151.919
287.994	119.013
290.886	122.985
293.779	131.86
296.672	80.8257
299.565	23.0586
302.457	8.65399
305.35	34.6633
308.243	94.2575
311.135	123.796
314.028	84.5151
316.921	71.7009
319.813	131.823
322.706	283.424
325.599	545.491
328.491	915.633
331.384	1445.24
334.277	2289.49
337.17	3452.37
340.062	4240.53
342.955	3420.43
345.848	2204.59
348.74	1417.7
351.633	961.859
354.526	904.985
357.418	1075.42
360.311	1486.5
363.204	2291.54
366.097	3358
368.989	3574.06
371.882	2294.52
374.775	1534.16
377.667	1412.52
380.56	1664.45
383.453	2059.49
386.346	2085.34
389.238	1403.7
392.131	775.498
395.024	431.724
397.916	256.352
400.809	157.895
403.702	93.7787
406.594	56.8918
409.487	31.6881
412.38	10.9041
415.272	0.201324
418.165	9.8208
421.058	13.0289
423.951	15.9819
426.843	7.81854
429.736	9.83246
432.629	11.8184
435.521	6.5278
438.414	7.23544
441.307	4.76645
444.2	3.12524
447.092	3.93475
449.985	5.75241
452.878	14.8083
455.77	17.1308
458.663	32.5143
461.556	44.9242
464.448	47.4302
467.341	49.3334
470.234	44.9115
473.127	52.3902
476.019	64.1303
478.912	96.6001
481.805	162.423
484.697	282.899
487.59	462.351
490.483	755.271
493.375	1218.87
496.268	1762.28
499.161	1595.51
502.053	771.203
504.946	378.197
507.839	217.029
510.732	153.408
513.624	117.935
516.517	118.591
519.41	133.407
522.302	182.628
525.195	290.039
528.088	492.234
530.981	815.511
533.873	1282.38
536.766	2018.75
539.659	3104.35
542.551	4047.76
545.444	3275.53
548.337	1820
551.229	1076.27
554.122	778.784
557.015	648.976
559.908	586.234
562.8	482.709
565.693	341.519
568.586	227.565
571.478	164.625
574.371	125.799
577.264	104.783
580.156	87.2414
583.049	70.0833
585.942	58.9165
588.835	49.4741
591.727	39.1933
594.62	26.8956
597.513	12.6905
600.405	5.46262
603.298	2.50281
606.191	6.14371
609.083	6.92676
611.976	8.4808
614.869	4.97464
617.761	3.64429
620.654	2.62219
623.547	0.410828
626.44	0.308228
629.332	1.1329
632.225	2.11807
635.118	1.35629
638.01	7.49728
640.903	11.575
643.796	16.5463
646.688	24.2687
649.581	35.9979
652.474	47.0996
655.367	57.6992
658.259	72.2875
661.152	93.8113
664.045	129.339
666.937	183.344
669.83	258.407
672.723	357.201
675.615	472.017
678.508	509.626
681.401	390.58
684.294	226.053
687.186	126.301
690.079	77.8772
692.972	44.887
695.864	34.9214
698.757	23.1203
701.65	14.1708
704.543	13.7912
707.435	8.15714
710.328	9.10712
713.221	14.3259
716.113	6.49466
719.006	9.81043
721.899	10.7266
724.791	7.05408
727.684	9.41754
730.577	8.1817
733.47	9.65521
736.362	7.36908
739.255	8.37909
742.148	12.4976
745.04	16.2564
747.933	21.1127
750.826	29.794
753.718	38.5106
756.611	48.9363
759.504	51.1688
762.396	41.8996
765.289	27.3449
768.182	25.5423
771.075	21.2674
773.967	21.9475
776.86	22.0724
779.753	19.154
782.645	21.8757
785.538	12.9561
788.431	9.52365
791.323	8.00284
794.216	4.87289
797.109	4.11728
800.002	2.04291
802.894	0.326385
805.787	0.395721
808.68	0.718933
811.572	2.6929
814.465	2.59177
817.358	2.48712
820.25	0.23526
823.143	0.258942
826.036	2.67099
828.929	4.0726
831.821	7.44794
834.714	16.3374
837.607	21.955
840.5	31.3652
843.392	39.9916
846.285	60.275
849.178	86.9239
852.07	121.403
854.963	164.927
857.856	215.319
860.748	270.392
863.641	326.355
866.534	357.234
869.427	301.605
872.319	200.039
875.212	117.154
878.105	65.6638
880.997	28.5307
883.89	7.2731
886.783	1.50278
889.675	3.44809
892.568	5.72675
895.461	1.92645
898.354	0.695557
901.246	4.12567
904.139	10.5305
907.032	15.032
909.924	26.1193
912.817	38.6797
915.71	59.288
918.602	85.5289
921.495	123.204
924.388	165.352
927.28	228.697
930.173	324.61
933.066	463.53
935.959	696.115
938.851	1127.39
941.744	1837.48
944.637	2984.35
947.529	4693.81
950.422	6264.83
953.315	5068.93
956.207	2932.2
959.1	2066.91
961.993	1822.6
964.886	1508.35
967.778	1409.99
970.671	1573.38
973.564	1722.64
976.456	1202.86
979.349	583.573
982.242	315.37
985.135	199.275
988.027	129.975
990.92	79.389
993.813	48.5308
996.705	29.388
999.598	10.6387
1002.49	1.17542
1005.38	7.11798
1008.28	4.9259
1011.17	4.25888
1014.06	5.23508
1016.95	16.705
1019.85	28.4319
1022.74	34.4665
1025.63	24.4748
1028.53	31.3468
1031.42	69.0211
1034.31	167.159
1037.2	302.117
1040.1	470.445
1042.99	657.2
1045.88	480.823
1048.77	180.015
1051.67	68.738
1054.56	30.9811
1057.45	16.9509
1060.35	7.55353
1063.24	0.946136
1066.13	2.31982
1069.02	0.315155
1071.92	0.850677
1074.81	0.6362
1077.7	1.00964
1080.59	4.75497
1083.49	4.32562
1086.38	9.02933
1089.27	8.99576
1092.16	9.95151
1095.06	8.91586
1097.95	14.3657
1100.84	14.8361
1103.73	12.8515
1106.63	16.9833
1109.52	19.4379
1112.41	21.5471
1115.31	24.268
1118.2	25.5828
1121.09	25.2557
1123.98	23.3986
1126.88	24.9068
1129.77	22.9595
1132.66	16.5119
1135.56	22.3117
1138.45	19.3525
1141.34	13.7721
1144.23	12.9534
1147.13	14.4953
1150.02	8.72467
1152.91	10.4033
1155.8	9.05685
1158.7	3.88995
1161.59	5.76712
1164.48	4.79456
1167.38	1.57654
1170.27	2.83115
1173.16	2.45447
1176.05	4.66217
1178.94	3.37784
1181.84	0.080414
1184.73	0.791046
1187.62	1.34225
1190.52	0.155579
1193.41	1.76431
1196.3	2.0304
1199.19	2.35974
1202.09	5.36853
1204.98	9.79706
1207.87	8.22971
1210.77	12.882
1213.66	17.752
1216.55	12.5364
1219.44	4.96762
1222.34	5.09924
1225.23	3.12778
1228.12	4.5206
1231.01	6.99182
1233.91	5.54172
1236.8	4.79837
1239.69	1.77322
1242.59	2.19177
1245.48	4.13089
1248.37	2.51031
1251.26	8.60504
1254.16	6.69733
1257.05	7.01569
1259.94	6.50851
1262.83	7.57047
1265.73	5.43292
1268.62	4.16101
1271.51	0.672028
1274.4	1.85635
1277.3	1.40439
1280.19	2.92935
1283.08	3.54755
1285.97	2.64829
1288.87	3.18335
1291.76	1.95724
1294.65	0.650421
1297.55	2.19473
1300.44	3.14697
