Measurement: Raman, 532 nm, unoriented, Raman Data Processed
Mineral: Aegirine
Rruff sample: R040054
Ideal chemistry: NaFe^3+^Si_2_O_6_
Locality: Mont Saint-Hilaire, Rouville County, Quebec, Canada
Source: Bob Downs
Description: Black cleavage fragments
Measured chemistry: (Na_0.96_Ca_0.04_)(Fe_0.86_Ti_0.07_Mn_0.06_Mg_0.02_)(Si_0.97_Al_0.03_)_2_O_6_
Raman shift (cm-1)	intensity
127.308	0
130.2	45.9607
133.093	63.2801
135.986	38.9087
138.878	23.6958
141.771	6.36548
144.664	1.5578
147.556	39.7319
150.449	38.1537
153.342	103.49
156.235	193.057
159.127	286.644
162.02	337.726
164.913	218.909
167.805	232.415
170.698	362.259
173.591	502.525
176.483	686.75
179.376	895.425
182.269	870.731
185.162	982.509
188.054	1224.26
190.947	1438.23
193.84	1190.16
196.732	789.866
199.625	573.425
202.518	614.621
205.411	735.826
208.303	911.809
211.196	988.9
214.089	1014.04
216.981	663.692
219.874	299.246
222.767	162.761
225.659	62.92
228.552	47.5853
231.445	12.6948
234.338	22.835
237.23	32.3633
240.123	25.0181
243.016	47.8398
245.908	25.5124
248.801	16.6324
251.694	4.45721
254.586	20.7906
257.479	100.216
260.372	169.44
263.265	220.21
266.157	180.963
269.05	110.947
271.943	90.6525
274.835	131.674
277.728	150.868
280.621	173.992
283.514	252.094
286.406	324.803
289.299	471.594
292.192	566.499
295.084	573.104
297.977	562.912
300.87	582.805
303.762	642.905
306.655	727.612
309.548	740.654
312.44	614.531
315.333	443.478
318.226	286.877
321.119	279.286
324.011	417.08
326.904	628.954
329.797	963.627
332.689	1405.24
335.582	1994.59
338.475	2569.75
341.368	2807.72
344.26	2780.78
347.153	2501.55
350.046	1940.16
352.938	1430.6
355.831	1235.99
358.724	1276.93
361.616	1438.03
364.509	1595.46
367.402	1646.13
370.295	1496.85
373.187	1384.98
376.08	1431.07
378.973	1628.62
381.865	1794.57
384.758	1932.42
387.651	1895.02
390.543	1490.12
393.436	1010.72
396.329	609.389
399.221	377.053
402.114	236.304
405.007	116.695
407.9	81.2144
410.792	36.7602
413.685	8.35303
416.578	9.33606
419.47	35.5839
422.363	31.8437
425.256	32.1298
428.149	25.6761
431.041	41.3931
433.934	5.24835
436.827	17.1652
439.719	2.49799
442.612	12.7728
445.505	15.7194
448.397	32.4036
451.29	73.5047
454.183	102.744
457.076	128.553
459.968	196.531
462.861	174.107
465.754	194.663
468.646	151.725
471.539	139.867
474.432	111.422
477.325	85.66
480.217	97.351
483.11	166.69
486.003	238.965
488.895	327.966
491.788	458.94
494.681	622.789
497.573	642.372
500.466	480.081
503.359	289.8
506.252	174.897
509.144	129.192
512.037	130.571
514.93	163.735
517.822	207.428
520.715	327.224
523.608	500.972
526.5	763.913
529.393	1016.18
532.286	1368.58
535.178	1800.23
538.071	2379.61
540.964	2940.56
543.857	3105.62
546.749	2708.58
549.642	2329.76
552.535	2155.88
555.427	2108.85
558.32	2078.47
561.213	1960.83
564.106	1795.74
566.998	1471.7
569.891	1208.33
572.784	1022.92
575.676	880.312
578.569	780.251
581.462	648.088
584.354	532.799
587.247	419.777
590.14	339.516
593.033	226.573
595.925	122.832
598.818	74.2483
601.711	32.2342
604.603	0.497681
607.496	8.48968
610.389	13.8068
613.281	30.0198
616.174	24.6913
619.067	2.54108
621.96	5.84638
624.852	7.63812
627.745	18.6677
630.638	25.7427
633.53	21.5998
636.423	27.9771
639.316	10.4888
642.208	21.4352
645.101	31.1024
647.994	25.8514
650.887	51.6745
653.779	73.5187
656.672	100.341
659.565	119.515
662.457	136.935
665.35	222.306
668.243	277.276
671.135	366.104
674.028	419.078
676.921	473.026
679.814	392.457
682.706	266.511
685.599	180.253
688.492	121.462
691.384	74.7347
694.277	59.1628
697.17	56.0443
700.062	25.2764
702.955	45.2017
705.848	62.9777
708.741	22.6981
711.633	23.7028
714.526	41.8496
717.419	59.3221
720.311	43.8537
723.204	47.206
726.097	47.4218
728.99	82.3449
731.882	70.7526
734.775	53.196
737.668	60.9034
740.56	99.512
743.453	121.31
746.346	145.293
749.238	199.457
752.131	158.33
755.024	264.322
757.917	277.005
760.809	166.148
763.702	127.837
766.595	76.3304
769.487	58.6627
772.38	41.7824
775.273	46.1283
778.165	41.9296
781.058	46.7
783.951	2.39856
786.844	29.9482
789.736	19.9042
792.629	17.8235
795.522	28.5591
798.414	15.319
801.307	6.74457
804.2	1.76971
807.092	12.2706
809.985	15.6318
812.878	31.4263
815.771	95.0688
818.663	104.284
821.556	134.272
824.449	192.542
827.341	230.737
830.234	261.607
833.127	309.339
836.019	412.238
838.912	509.505
841.805	603.333
844.698	696.263
847.59	779.471
850.483	817.788
853.376	904.162
856.268	970.421
859.161	1050.91
862.054	1094.3
864.947	1111.9
867.839	1053.68
870.732	894.227
873.625	696.922
876.517	532.246
879.41	399.414
882.303	280.975
885.195	169.169
888.088	121.232
890.981	59.8991
893.874	70.3882
896.766	40.4144
899.659	14.964
902.552	25.5349
905.444	11.8377
908.337	2.04578
911.23	5.19873
914.122	11.4418
917.015	53.2578
919.908	84.939
922.801	168.921
925.693	243.445
928.586	343.839
931.479	432.604
934.371	615.351
937.264	907.533
940.157	1332.14
943.049	1777.8
945.942	2322.25
948.835	2682.94
951.727	3003.03
954.62	3018.7
957.513	3002.96
960.406	3308.3
963.298	3811.12
966.191	4345.84
969.084	4955.59
971.976	5083.19
974.869	4219.47
977.762	2880.53
980.654	1951.03
983.547	1363.78
986.44	1027.7
989.333	758.966
992.225	531.765
995.118	372.094
998.011	267.146
1000.9	136.244
1003.8	68.6812
1006.69	9.67944
1009.58	9.70508
1012.47	28.0718
1015.37	39.0461
1018.26	7.76843
1021.15	36.5747
1024.05	84.3341
1026.94	208.005
1029.83	399.215
1032.72	712.391
1035.62	1167.19
1038.51	1717.72
1041.4	2169.62
1044.29	2115.19
1047.19	1385.3
1050.08	780.755
1052.97	478.747
1055.87	301.133
1058.76	231.404
1061.65	152.537
1064.54	81.9148
1067.44	84.9259
1070.33	45.257
1073.22	34.5472
1076.11	5.02344
1079.01	15.0907
1081.9	26.9708
1084.79	32.6833
1087.68	25.4093
1090.58	11.2799
1093.47	25.6718
1096.36	53.6342
1099.26	75.365
1102.15	76.0872
1105.04	99.8758
1107.93	118.604
1110.83	144.396
1113.72	162.619
1116.61	200.01
1119.5	187.756
1122.4	229.03
1125.29	226.188
1128.18	279.629
1131.08	285.136
1133.97	291.327
1136.86	273.496
1139.75	242.116
1142.65	196.144
1145.54	130.172
1148.43	75.3852
1151.32	58.0974
1154.22	10.321
1157.11	4.42969
1160	8.64893
1162.89	1.3783
1165.79	9.35376
1168.68	0.834534
1171.57	1.15344
1174.47	21.7122
1177.36	25.35
1180.25	9.77862
1183.14	29.624
1186.04	38.9257
1188.93	34.3531
1191.82	69.887
1194.71	88.0644
1197.61	76.0457
1200.5	56.3398
1203.39	67.5485
1206.29	80.3591
1209.18	67.9407
1212.07	72.9466
1214.96	56.0975
1217.86	69.8689
1220.75	38.3148
1223.64	37.4114
1226.53	46.3494
1229.43	3.94672
1232.32	36.9244
1235.21	6.36127
1238.11	8.92395
1241	20.7584
