Measurement: Raman, 785 nm, unoriented, Raman Data Processed
Mineral: Aegirine
Rruff sample: R070125
Ideal chemistry: NaFe^3+^Si_2_O_6_
Locality: Ice River Alkaline Complex, Golden, British Columbia, Canada
Source: Mark Mauthner
Description: Fragmented prismatic dark gray crystals associated with white microcline
Measured chemistry: Na_1.00_(Fe^3+^_0.91_Al_0.07_Mg_0.01_Ti_0.01_)_Î£=1_Si_2.00_O_6_
Raman shift (cm-1)	intensity
168.558	0
171.45	37.6875
174.343	86.771
177.236	195.864
180.128	316.142
183.021	383.638
185.914	455.832
188.806	585.927
191.699	732.813
194.592	766.064
197.484	574.418
200.377	464.107
203.27	362.402
206.163	275.643
209.055	246.488
211.948	224.966
214.841	160.753
217.733	75.2399
220.626	28.4581
223.519	13.5726
226.411	12.2262
229.304	5.49365
232.197	14.316
235.089	7.5849
237.982	18.4871
240.875	26.064
243.768	49.5568
246.66	78.9458
249.553	56.881
252.446	76.7274
255.338	67.699
258.231	15.1967
261.124	21.8106
264.017	1.5343
266.909	4.90753
269.802	8.07275
272.695	1.3172
275.587	13.5256
278.48	1.04938
281.373	35.0781
284.265	41.3992
287.158	65.8448
290.051	68.423
292.943	86.5958
295.836	104.107
298.729	104.483
301.622	103.649
304.514	111.004
307.407	117.241
310.3	127.824
313.192	141.807
316.085	129.457
318.978	164.767
321.87	160.928
324.763	225.036
327.656	323.805
330.549	390.059
333.441	557.32
336.334	686.121
339.227	787.662
342.119	787.72
345.012	692.615
347.905	560.739
350.798	478.949
353.69	386.045
356.583	351.047
359.476	349.187
362.368	407.381
365.261	432.082
368.154	475.117
371.046	471.823
373.939	445.473
376.832	440.501
379.724	462.932
382.617	479.272
385.51	507.992
388.403	425.113
391.295	330.396
394.188	238.495
397.081	152.988
399.973	68.0882
402.866	52.8965
405.759	18.826
408.651	0.91217
411.544	0.442871
414.437	6.7804
417.33	10.4842
420.222	25.7162
423.115	17.4775
426.008	2.06616
428.9	14.2638
431.793	2.89191
434.686	1.80591
437.579	12.6487
440.471	16.9106
443.364	46.9689
446.257	30.3597
449.149	27.7447
452.042	30.9221
454.935	18.2666
457.827	60.3185
460.72	61.1948
463.613	52.21
466.505	80.8166
469.398	55.8513
472.291	55.9611
475.184	74.2054
478.076	31.785
480.969	49.2851
483.862	32.3262
486.754	62.3607
489.647	70.8507
492.54	113.394
495.433	182.103
498.325	221.151
501.218	179.212
504.111	140.269
507.003	102.242
509.896	47.9452
512.789	46.1536
515.681	55.9852
518.574	64.6224
521.467	93.7266
524.36	143.232
527.252	164.223
530.145	271.05
533.038	381.951
535.93	467.447
538.823	600.995
541.716	716.101
544.608	720.031
547.501	690.922
550.394	638.094
553.286	562.806
556.179	567.029
559.072	562.55
561.965	565.225
564.857	525.567
567.75	454.914
570.643	416.168
573.535	366.616
576.428	303.891
579.321	265.821
582.213	218.807
585.106	178.567
587.999	138.85
590.891	83.2141
593.784	61.8851
596.677	56.5709
599.57	24.7127
602.462	16.2069
605.355	5.35968
608.248	6.20364
611.14	22.3483
614.033	12.4953
616.926	15.5939
619.818	12.5807
622.711	5.39117
625.604	7.15451
628.497	1.0329
631.389	4.96903
634.282	8.32123
637.175	0.37619
640.067	11.971
642.96	30.8386
645.853	44.3657
648.745	33.5887
651.638	54.7135
654.531	45.633
657.424	62.0181
660.316	77.717
663.209	123.716
666.102	122.183
668.994	189.77
671.887	238.468
674.78	279.08
677.673	271.841
680.565	227.233
683.458	160.225
686.351	110.717
689.243	95.6788
692.136	44.1262
695.029	64.0633
697.921	51.843
700.814	36.7161
703.707	33.5472
706.6	25.5193
709.492	40.1981
712.385	40.0242
715.278	26.9789
718.17	34.6675
721.063	28.3961
723.956	43.2
726.848	33.1364
729.741	31.0942
732.634	38.901
735.527	34.5311
738.419	30.1987
741.312	25.227
744.205	9.16397
747.097	40.7385
749.99	38.2619
752.883	60.7686
755.775	42.191
758.668	38.4111
761.561	31.7064
764.453	0.108398
767.346	35.0471
770.239	14.9235
773.132	0.837219
776.024	20.8496
778.917	23.6193
781.81	6.29303
784.702	23.4956
787.595	18.3268
790.488	6.12415
793.38	15.8744
796.273	13.6968
799.166	1.97354
802.059	4.43994
804.951	22.2401
807.844	7.16309
810.737	17.5822
813.629	20.4976
816.522	7.67526
819.415	25.5088
822.308	2.7525
825.2	10.523
828.093	11.6043
830.986	22.8677
833.878	3.70795
836.771	12.9811
839.664	19.1111
842.556	33.6834
845.449	37.7249
848.342	73.0984
851.235	64.6882
854.127	103.614
857.02	118.951
859.913	164.237
862.805	197.225
865.698	191.84
868.591	193.565
871.483	195.227
874.376	132.241
877.269	101.993
880.162	93.2033
883.054	74.826
885.947	67.7236
888.84	67.1724
891.732	45.2958
894.625	33.2864
897.518	53.4663
900.41	45.571
903.303	26.8439
906.196	5.08917
909.088	25.4825
911.981	13.8539
914.874	0.295471
917.767	20.7848
920.659	22.7365
923.552	9.53802
926.445	13.8717
929.337	21.0228
932.23	15.6566
935.123	29.4634
938.015	33.6632
940.908	65.1659
943.801	115.605
946.693	149.776
949.586	252.54
952.479	303.735
955.372	329.544
958.264	334.085
961.157	342.152
964.05	332.13
966.942	420.627
969.835	448.016
972.728	403.068
975.62	309.698
978.513	197.563
981.406	125.237
984.299	112.765
987.191	87.813
990.084	51.7864
992.977	26.9963
995.869	28.9865
998.762	2.77765
1001.65	7.75525
1004.55	3.33264
1007.44	2.71728
1010.33	14.0718
1013.23	22.9891
1016.12	35.833
1019.01	44.2093
1021.9	41.9072
1024.8	66.3822
1027.69	53.1438
1030.58	75.0846
1033.47	89.5503
1036.37	117.923
1039.26	200.164
1042.15	194.381
1045.05	193.974
1047.94	143.27
1050.83	75.3159
1053.72	57.6586
1056.62	41.4655
1059.51	28.8268
1062.4	20.0904
1065.29	33.4376
1068.19	6.35529
1071.08	10.4467
1073.97	22.4763
1076.87	15.0612
1079.76	43.1202
1082.65	32.9191
1085.54	30.4255
1088.44	15.1388
1091.33	4.76709
1094.22	19.1438
1097.11	9.53799
1100.01	15.7646
1102.9	8.3454
1105.79	10.193
1108.68	13.3673
1111.58	19.4775
1114.47	26.2755
1117.36	25.8771
1120.26	24.9112
1123.15	24.3379
1126.04	21.0405
1128.93	6.24039
1131.83	17.319
1134.72	24.4747
1137.61	20.7774
1140.5	7.79861
1143.4	11.4403
1146.29	12.4658
1149.18	10.6909
1152.08	4.27301
1154.97	6.67053
1157.86	13.3876
1160.75	11.5275
1163.65	3.76062
1166.54	17.51
1169.43	15.3581
1172.32	22.1057
1175.22	14.6511
1178.11	24.7451
1181	31.8473
1183.89	56.9772
1186.79	74.8124
1189.68	84.701
1192.57	56.7589
1195.47	54.3644
1198.36	50.0119
1201.25	39.7903
1204.14	33.683
1207.04	39.601
1209.93	10.4142
1212.82	3.9585
1215.71	12.1011
1218.61	28.7652
1221.5	32.3754
1224.39	6.63123
1227.29	15.6995
1230.18	23.0807
1233.07	11.7634
