Measurement: Raman, 532 nm, unoriented, Raman Data Processed
Mineral: Aegirine
Rruff sample: R120144
Ideal chemistry: NaFe^3+^Si_2_O_6_
Locality: Zagi Mountain, Hameed Abad Kafoor Dheri, Peshawar, Khyber Pakhtunkhwa, Pakistan
Source: Ikram Mineralogy
Description: Black bladed crystal
Raman shift (cm-1)	intensity
168.429	0
171.321	0.054306
174.214	1.20685
177.107	3.72649
180	11.506
182.892	13.3074
185.785	14.0553
188.678	33.4264
191.57	80.6734
194.463	88.4098
197.356	32.1985
200.249	15.6889
203.141	12.4203
206.034	14.4325
208.927	21.8289
211.819	43.8486
214.712	62.2007
217.605	31.6894
220.497	10.1851
223.39	4.56
226.283	2.001
229.175	0.742746
232.068	0.265504
234.961	0.403718
237.854	0.348409
240.746	0.761236
243.639	0.860658
246.532	0.844499
249.424	0.222822
252.317	0.025329
255.21	0.514034
258.103	2.88437
260.995	8.56296
263.888	18.8138
266.781	15.1062
269.673	5.72614
272.566	4.29343
275.459	5.3818
278.351	5.98173
281.244	4.77928
284.137	3.45415
287.029	5.19584
289.922	11.1041
292.815	21.451
295.708	25.3002
298.6	15.1581
301.493	8.69062
304.386	11.4822
307.278	20.4782
310.171	34.7902
313.064	35.7388
315.957	18.0987
318.849	6.22706
321.742	3.21692
324.635	4.38305
327.527	7.84866
330.42	15.1079
333.313	27.5025
336.205	51.5275
339.098	86.7772
341.991	119.788
344.884	126.912
347.776	117.261
350.669	63.001
353.562	30.0085
356.454	18.9636
359.347	18.6512
362.24	27.4699
365.132	45.1848
368.025	66.4734
370.918	56.2802
373.81	34.2503
376.703	27.5907
379.596	32.1537
382.489	45.8359
385.381	62.1894
388.274	58.3449
391.167	34.5456
394.059	18.5613
396.952	9.93199
399.845	5.76892
402.738	3.07067
405.63	1.53975
408.523	0.655
411.416	0.081141
414.308	0.452614
417.201	0.499767
420.094	0.727829
422.986	0.86014
425.879	0.600609
428.772	0.645996
431.664	0.332943
434.557	0.403229
437.45	0.029466
440.343	0.161952
443.235	0.365057
446.128	0.128397
449.021	0.515043
451.913	0.811141
454.806	1.20234
457.699	2.05053
460.591	3.1992
463.484	4.80776
466.377	5.0126
469.27	3.81957
472.162	2.47634
475.055	2.1173
477.948	1.9528
480.84	1.87042
483.733	2.43246
486.626	3.90807
489.519	6.62641
492.411	12.2
495.304	24.0308
498.197	36.702
501.089	29.2486
503.982	13.0002
506.875	7.02907
509.767	4.28397
512.66	3.42905
515.553	3.14052
518.446	4.07513
521.338	5.4054
524.231	8.96425
527.124	14.9584
530.016	23.1242
532.909	29.7094
535.802	40.0622
538.694	65.8347
541.587	108.553
544.48	128.597
547.372	86.8129
550.265	49.1534
553.158	35.475
556.051	36.1538
558.943	48.03
561.836	57.6925
564.729	46.4014
567.621	27.1311
570.514	15.7465
573.407	10.1137
576.299	7.10283
579.192	5.04735
582.085	3.80237
584.978	2.88742
587.87	2.01928
590.763	1.76484
593.656	0.777291
596.548	0.35733
599.441	0.066449
602.334	0.037684
605.226	0.165104
608.119	0.160429
611.012	0.308553
613.905	0.086704
616.797	0.077705
619.69	0.143591
622.583	0.059456
625.475	0.119081
628.368	0.284764
631.261	0.118216
634.154	0.125974
637.046	0.231231
639.939	0.295815
642.832	0.653997
645.724	0.740588
648.617	1.12775
651.51	1.34088
654.402	1.355
657.295	1.82313
660.188	2.29174
663.081	2.56962
665.973	3.71076
668.866	5.11339
671.759	7.57845
674.651	11.4303
677.544	15.2276
680.437	14.2447
683.329	9.12343
686.222	4.88286
689.115	3.17151
692.008	1.94389
694.9	1.20346
697.793	0.86605
700.686	1.21352
703.578	0.390748
706.471	1.22876
709.364	0.370549
712.256	0.289394
715.149	0.290922
718.042	0.263261
720.934	0.265085
723.827	0.196903
726.72	0.111931
729.613	0.156468
732.505	0.148027
735.398	0.438886
738.291	0.400245
741.183	0.500939
744.076	0.873782
746.969	1.03867
749.861	1.61615
752.754	2.61157
755.647	4.33823
758.54	8.19003
761.432	8.92677
764.325	4.22189
767.218	1.7804
770.11	1.42417
773.003	0.967792
775.896	0.613972
778.788	0.480128
781.681	0.570186
784.574	0.477308
787.467	0.335002
790.359	0.116075
793.252	0.154125
796.145	0.094541
799.037	0.2808
801.93	0.080753
804.823	0.009943
807.716	0.093559
810.608	0.022519
813.501	0.144698
816.394	0.109698
819.286	0.084786
822.179	0.222409
825.072	0.023529
827.964	0.060638
830.857	0.107066
833.75	0.580448
836.643	0.794572
839.535	1.20715
842.428	1.81655
845.321	2.74367
848.213	4.00559
851.106	6.86881
853.999	10.459
856.891	16.3925
859.784	25.199
862.677	39.638
865.569	57.0176
868.462	59.2001
871.355	43.4419
874.248	26.6593
877.14	16.4006
880.033	10.026
882.926	6.24591
885.818	3.76435
888.711	2.1889
891.604	1.29703
894.496	1.05909
897.389	0.205029
900.282	0.074449
903.175	0.089399
906.067	0.060456
908.96	0.16372
911.853	0.040183
914.745	0.317837
917.638	0.870519
920.531	1.549
923.423	2.26782
926.316	3.67142
929.209	5.14148
932.102	7.25708
934.994	10.5181
937.887	16.1379
940.78	25.2398
943.672	41.2697
946.565	69.799
949.458	120.969
952.351	156.405
955.243	112.077
958.136	71.8577
961.029	67.7511
963.921	67.6831
966.814	75.2224
969.707	114.819
972.599	195.247
975.492	215.16
978.385	104.124
981.278	48.12
984.17	30.3286
987.063	20.1681
989.956	12.2092
992.848	7.74654
995.741	4.33081
998.634	2.46881
1001.53	1.32958
1004.42	0.628146
1007.31	0.024362
1010.21	0.291988
1013.1	0.384135
1015.99	0.39365
1018.88	0.772023
1021.77	1.92838
1024.67	2.09177
1027.56	2.40296
1030.45	3.70245
1033.35	7.12597
1036.24	14.1281
1039.13	30.2296
1042.02	69.956
1044.92	118.189
1047.81	64.0695
1050.7	23.2498
1053.6	10.7507
1056.49	5.01171
1059.38	2.76403
1062.27	1.43099
1065.17	0.641273
1068.06	0.214518
1070.95	0.166595
1073.84	0.154687
1076.74	0.052316
1079.63	0.150132
1082.52	0.173761
1085.41	0.083664
1088.31	0.142882
1091.2	0.088339
1094.09	0.358029
1096.99	0.077081
1099.88	0.267517
1102.77	0.335511
1105.66	0.702496
1108.56	0.742057
1111.45	0.698407
1114.34	0.921769
1117.23	0.8736
1120.13	1.12428
1123.02	1.09275
1125.91	0.807981
1128.81	1.20438
1131.7	0.983024
1134.59	1.08704
1137.48	0.818621
1140.38	0.801738
1143.27	0.630262
1146.16	0.485699
1149.05	0.475211
1151.95	0.298112
1154.84	0.244233
1157.73	0.146834
1160.62	0.265656
1163.52	0.038214
1166.41	0.142477
1169.3	0.107039
1172.2	0.20483
1175.09	0.001359
1177.98	0.180391
1180.87	0.111087
1183.77	0.09439
1186.66	0.162534
1189.55	0.018478
1192.44	0.023474
1195.34	0.269395
1198.23	0.041941
1201.12	0.001775
1204.02	0.095277
1206.91	0.053701
1209.8	0.144314
1212.69	0.042043
1215.59	0.020542
1218.48	0.063156
1221.37	0.050648
1224.26	0.054682
1227.16	0.070964
1230.05	0.075763
1232.94	0.139972
1235.84	0.138334
1238.73	0.072039
1241.62	0.022169
1244.51	0.118969
1247.41	0.054175
1250.3	0.247304
1253.19	0.107443
1256.08	0.140051
1258.98	0.105888
1261.87	0.164289
1264.76	0.110697
1267.65	0.14658
1270.55	0.008138
1273.44	0.099905
1276.33	0.018745
1279.23	0.110677
1282.12	0.106761
1285.01	0.029734
1287.9	0.035485
1290.8	0.093788
1293.69	0.078605
1296.58	0.253148
1299.47	0.002211
