Measurement: Raman, 785 nm, unoriented, Raman Data Processed
Mineral: Aegirine
Rruff sample: R040054
Ideal chemistry: NaFe^3+^Si_2_O_6_
Locality: Mont Saint-Hilaire, Rouville County, Quebec, Canada
Source: Bob Downs
Description: Black cleavage fragments
Measured chemistry: (Na_0.96_Ca_0.04_)(Fe_0.86_Ti_0.07_Mn_0.06_Mg_0.02_)(Si_0.97_Al_0.03_)_2_O_6_
Raman shift (cm-1)	intensity
150.937	0
153.83	0.387695
156.723	55.0115
159.615	129.934
162.508	271.861
165.401	369.372
168.293	502.963
171.186	661.557
174.079	692.118
176.971	829.692
179.864	921.415
182.757	896.083
185.65	1191.36
188.542	1535.88
191.435	1556.23
194.328	1209.29
197.22	791.725
200.113	602.797
203.006	534.939
205.899	449.837
208.791	573.009
211.684	567.75
214.577	508.466
217.469	236.925
220.362	139.132
223.255	31.5852
226.147	19.1407
229.04	15.7449
231.933	7.32568
234.826	46.6545
237.718	20.4851
240.611	27.0291
243.504	23.7346
246.396	24.4434
249.289	17.3218
252.182	50.8535
255.074	112.371
257.967	144.541
260.86	99.1025
263.752	171.742
266.645	112.843
269.538	74.2429
272.431	68.5723
275.323	90.9009
278.216	154.035
281.109	131.5
284.001	163.317
286.894	199.514
289.787	220.786
292.68	244.348
295.572	278.897
298.465	290.881
301.358	309.958
304.25	316.2
307.143	374.393
310.036	481.365
312.928	385.203
315.821	275.438
318.714	223.098
321.606	246.651
324.499	380.075
327.392	611.701
330.285	936.468
333.177	1298.34
336.07	1700.5
338.963	1914.44
341.855	1962.2
344.748	1862.38
347.641	1506.41
350.534	1190.64
353.426	933.777
356.319	859.167
359.212	914.677
362.104	1079.23
364.997	1243.14
367.89	1232.5
370.782	1094.22
373.675	996.877
376.568	1057.67
379.461	1102.94
382.353	1169.31
385.246	1149.06
388.139	1041.18
391.031	809.21
393.924	518.549
396.817	339.5
399.709	229.842
402.602	91.9141
405.495	41.1793
408.387	35.146
411.28	34.5544
414.173	22.6625
417.066	12.1001
419.958	51.7089
422.851	43.2358
425.744	20.2183
428.636	8.4797
431.529	12.7921
434.422	18.9282
437.315	23.5013
440.207	4.98962
443.1	25.8138
445.993	31.7469
448.885	35.2246
451.778	69.9918
454.671	92.6368
457.563	92.6094
460.456	188.416
463.349	157.303
466.241	164.054
469.134	140.282
472.027	77.7372
474.92	107.616
477.812	127.133
480.705	93.8251
483.598	153.935
486.49	257.907
489.383	356.377
492.276	511.206
495.168	691.238
498.061	600.614
500.954	356.407
503.847	235.423
506.739	145.503
509.632	84.8246
512.525	66.1952
515.417	39.1793
518.31	65.3353
521.203	117.748
524.096	199.519
526.988	286.046
529.881	428.48
532.774	568.395
535.666	871.558
538.559	1118.18
541.452	1454.42
544.344	1509.63
547.237	1454.39
550.13	1344.41
553.023	1301.57
555.915	1285.75
558.808	1330.23
561.701	1266.69
564.593	1146.95
567.486	1028.14
570.379	983.443
573.271	893.367
576.164	864.612
579.057	776.001
581.949	758.418
584.842	621.536
587.735	552.523
590.628	431.87
593.52	315.212
596.413	233.859
599.306	130.546
602.198	93.7212
605.091	33.251
607.984	0.203613
610.876	21.6681
613.769	41.9982
616.662	6.32153
619.555	31.2139
622.447	1.38892
625.34	17.0203
628.233	7.88538
631.125	8.81396
634.018	20.7391
636.911	39.96
639.803	52.309
642.696	44.1348
645.589	72.4197
648.482	95.2473
651.374	97.4285
654.267	109.337
657.16	113.613
660.052	147.686
662.945	197.218
665.838	226.242
668.731	306.092
671.623	433.572
674.516	592.633
677.409	612.511
680.301	531.382
683.194	371.399
686.087	228.364
688.979	158.327
691.872	136.267
694.765	119.411
697.658	62.3634
700.55	75.7948
703.443	22.3694
706.336	73.7198
709.228	28.5087
712.121	50.2881
715.014	33.1996
717.906	43.3877
720.799	56.8103
723.692	57.8156
726.585	28.2262
729.477	29.8162
732.37	76.4503
735.263	43.9228
738.155	60.4096
741.048	82.3207
743.941	53.3705
746.833	65.7245
749.726	53.0273
752.619	97.6262
755.511	142.043
758.404	89.083
761.297	32.9545
764.19	26.6763
767.082	41.6449
769.975	52.7263
772.868	66.5237
775.76	20.4629
778.653	30.6951
781.546	10.7596
784.438	10.3717
787.331	45.1538
790.224	2.99634
793.117	12.0885
796.009	14.3492
798.902	17.3165
801.795	4.29846
804.687	13.0099
807.58	12.9426
810.473	12.5238
813.365	53.7622
816.258	84.7775
819.151	32.0923
822.044	93.3674
824.936	88.1011
827.829	86.1554
830.722	118.842
833.614	157.071
836.507	225.634
839.4	220.125
842.293	318.555
845.185	354.238
848.078	364.125
850.971	420.12
853.863	479.869
856.756	497.707
859.649	498.396
862.541	514.079
865.434	513.744
868.327	456.642
871.22	414.863
874.112	314.004
877.005	257.577
879.898	212.247
882.79	182.275
885.683	112.31
888.576	87.8154
891.468	113.487
894.361	7.16785
897.254	4.16235
900.146	9.83447
903.039	20.014
905.932	28.0037
908.825	25.7594
911.717	62.8805
914.61	5.31543
917.503	36.9022
920.395	12.3589
923.288	22.8854
926.181	64.6591
929.073	64.1212
931.966	152.895
934.859	195.74
937.751	228.884
940.644	399.43
943.537	514.49
946.43	732.346
949.322	948.903
952.215	1027.12
955.108	919.412
958	945.922
960.893	994.298
963.786	1153.87
966.678	1354.15
969.571	1556.17
972.464	1569.2
975.357	1189.57
978.249	858.076
981.142	593.149
984.035	434.403
986.927	329.621
989.82	186.245
992.713	96.5642
995.606	73.4392
998.498	84.6521
1001.39	66.0598
1004.28	46.9839
1007.18	32.8828
1010.07	2.07605
1012.96	32.2616
1015.85	52.2484
1018.75	16.4655
1021.64	23.2061
1024.53	24.8546
1027.42	40.3961
1030.32	159.732
1033.21	194.26
1036.1	384.63
1039	615.786
1041.89	761.753
1044.78	626.448
1047.67	447.981
1050.57	246.069
1053.46	189.147
1056.35	163.684
1059.24	99.0053
1062.14	111.177
1065.03	41.9445
1067.92	45.6188
1070.82	67.1757
1073.71	14.6334
1076.6	79.3528
1079.49	73.6365
1082.39	8.72681
1085.28	25.6323
1088.17	37.3466
1091.07	17.6572
1093.96	46.423
1096.85	4.6209
1099.74	13.9043
1102.63	72.7512
1105.53	59.6619
1108.42	117.092
1111.31	96.5497
1114.21	128.946
1117.1	169.743
1119.99	209.495
1122.88	257.475
1125.78	240.435
1128.67	235.469
1131.56	293.754
1134.45	379.902
1137.35	333.721
1140.24	385.184
1143.13	389.413
1146.03	315.768
1148.92	334.783
1151.81	330.457
1154.7	307.707
1157.6	306.89
1160.49	218.282
1163.38	210.519
1166.28	167.7
1169.17	153.014
1172.06	129.321
1174.95	97.8184
1177.85	54.2353
1180.74	2.7655
1183.63	19.585
1186.52	39.5397
1189.42	13.4456
1192.31	3.51685
1195.2	7.38013
1198.09	54.1768
1200.99	53.0597
1203.88	7.37659
1206.77	8.1062
1209.66	0
