Measurement: Raman, 532 nm, unoriented, Raman Data Processed
Mineral: Aenigmatite
Rruff sample: R061088
Ideal chemistry: Na_4_(Fe^2+^_10_Ti_2_)O_4_[Si_12_O_36_]
Locality: Naujakasik, Greenland
Source: Michael Scott
Description: Black prismatic crystals
Measured chemistry: (Na_1.72_Ca_0.28_)_Σ=2_(Fe^2+^_4.90_Mn_0.08_Mg_0.02_)_Σ=5_(Ti_0.85_Al_0.14_Fe^3+^_0.01_)_Σ=1_(Si_5.87_Al_0.13_)_Σ=6_O_20_
Raman shift (cm-1)	intensity
123.493	0
126.868	100.662
130.243	163.514
133.618	86.7899
136.993	48.8655
140.367	44.8923
143.742	78.7961
147.117	160.499
150.492	237.262
153.867	301.175
157.241	276.082
160.616	377.602
163.991	295.84
167.366	257.499
170.741	236.712
174.115	165.124
177.49	144.535
180.865	81.7111
184.24	52.0651
187.615	57.192
190.99	0.361084
194.364	5.90186
197.739	0.985962
201.114	1.69531
204.489	8.04077
207.864	17.3826
211.238	2.94812
214.613	1.50134
217.988	16.8388
221.363	0.646973
224.738	12.5161
228.113	43.5703
231.487	36.6652
234.862	55.6688
238.237	13.1516
241.612	50.2129
244.987	37.0774
248.361	9.34717
251.736	13.4849
255.111	9.54456
258.486	4.51843
261.861	21.6132
265.236	3.23035
268.61	31.3467
271.985	40.1388
275.36	52.3508
278.735	55.2611
282.11	72.061
285.484	103.774
288.859	113.715
292.234	141.724
295.609	177.174
298.984	251.629
302.358	277.521
305.733	265.289
309.108	252.984
312.483	242.559
315.858	181.739
319.233	149.555
322.607	119.477
325.982	111.921
329.357	60.6757
332.732	62.2515
336.107	2.69922
339.481	6.79102
342.856	29.2736
346.231	49.1304
349.606	86.7742
352.981	122.361
356.356	187.275
359.73	261.094
363.105	255.81
366.48	198.296
369.855	175.061
373.23	139.259
376.604	95.3832
379.979	79.1934
383.354	63.2417
386.729	56.8706
390.104	43.9502
393.478	28.2234
396.853	9.40002
400.228	3.81921
403.603	2.86389
406.978	5.79651
410.353	2.35974
413.727	17.8629
417.102	6.75024
420.477	66.6991
423.852	95.0391
427.227	138.631
430.601	132.717
433.976	149.103
437.351	192.468
440.726	180.231
444.101	134.021
447.476	140.04
450.85	63.3447
454.225	59.9471
457.6	49.7596
460.975	40.8126
464.35	56.1371
467.724	45.9418
471.099	17.8572
474.474	66.4298
477.849	39.928
481.224	9.04065
484.599	58.3312
487.973	31.5122
491.348	11.3121
494.723	4.85413
498.098	12.297
501.473	12.2001
504.847	0.753784
508.222	22.5855
511.597	26.2173
514.972	60.7218
518.347	89.796
521.721	138.649
525.096	122.514
528.471	173.791
531.846	190.345
535.221	187.925
538.596	177.889
541.97	173.289
545.345	162.227
548.72	157.572
552.095	157.386
555.47	156.181
558.844	109.723
562.219	81.6654
565.594	70.6765
568.969	19.4115
572.344	2.20606
575.718	20.8449
579.093	21.1541
582.468	31.1815
585.843	14.7479
589.218	5.21411
592.593	47.6603
595.967	89.9404
599.342	131.942
602.717	166.328
606.092	238.987
609.467	272.577
612.841	312.995
616.216	332.077
619.591	459.305
622.966	645.769
626.341	890.063
629.716	1282.23
633.09	1750.51
636.465	2211.66
639.84	2677.55
643.215	2915.16
646.59	2733.37
649.964	2272.61
653.339	1715.02
656.714	1280.02
660.089	939.241
663.464	715.744
666.838	581.083
670.213	514.057
673.588	539.747
676.963	584.913
680.338	606.666
683.713	602.008
687.087	628.877
690.462	526.608
693.837	369.27
697.212	222.354
700.587	148.872
703.962	110.258
707.336	82.5696
710.711	14.6876
714.086	10.1958
717.461	5.7334
720.836	11.2605
724.21	14.7977
727.585	25.2103
730.96	28.068
734.335	65.0546
737.71	13.7137
741.085	28.524
744.459	0.312622
747.834	13.556
751.209	8.73511
754.584	5.30713
757.959	10.7794
761.333	30.714
764.708	20.6848
768.083	18.6151
771.458	27.7003
774.833	26.6454
778.207	35.5759
781.582	4.1709
784.957	5.02759
788.332	4.14893
791.707	10.1846
795.082	7.48389
798.456	14.7792
801.831	22.1842
805.206	7.99768
808.581	10.4601
811.956	5.35266
815.33	11.3794
818.705	23.5275
822.08	46.2062
825.455	73.2861
828.83	82.2103
832.205	90.7123
835.579	73.2602
838.954	67.3966
842.329	81.2799
845.704	93.0594
849.079	85.0493
852.453	102.828
855.828	146.603
859.203	142.344
862.578	152.142
865.953	149.072
869.327	191.245
872.702	227.164
876.077	316.41
879.452	392.096
882.827	519.112
886.202	634.799
889.576	696.079
892.951	659.75
896.326	559.759
899.701	403.465
903.076	300.24
906.45	209.035
909.825	134.775
913.2	96.6335
916.575	69.7975
919.95	64.4933
923.324	48.8915
926.699	14.8001
930.074	20.0449
933.449	9.8186
936.824	10.7377
940.198	40.4727
943.573	5.35168
946.948	28.1234
950.323	32.7772
953.698	62.6985
957.073	50.404
960.447	50.4321
963.822	47.8506
967.197	49.8656
970.572	44.9995
973.947	35.2065
977.322	54.6577
980.696	72.7576
984.071	75.319
987.446	89.9823
990.821	90.288
994.196	52.0552
997.57	39.483
1000.95	7.37915
1004.32	3.36047
1007.7	10.026
1011.07	8.41333
1014.44	0.368286
1017.82	15.1393
1021.19	34.7368
1024.57	45.1819
1027.94	59.4546
1031.32	62.1031
1034.69	95.9635
1038.07	111.8
1041.44	114.041
1044.82	96.307
1048.19	85.6271
1051.57	80.7249
1054.94	64.7662
1058.32	46.8231
1061.69	72.939
1065.07	63.6604
1068.44	51.6525
1071.82	16.9592
1075.19	38.4979
1078.57	2.35168
1081.94	17.635
1085.32	29.7369
1088.69	24.1357
1092.07	23.1533
1095.44	5.57568
1098.82	33.0326
1102.19	52.6926
1105.56	33.5866
1108.94	18.3236
1112.31	34.8167
1115.69	23.7159
1119.06	6.67969
1122.44	3.6875
1125.81	29.7537
1129.19	23.2107
1132.56	28.3699
1135.94	20.5874
1139.31	2.84497
1142.69	26.5319
1146.06	8.28784
1149.44	24.2492
1152.81	50.2355
1156.19	20.6394
1159.56	45.9939
1162.94	33.2747
1166.31	65.4131
1169.69	73.7186
1173.06	51.3137
1176.44	59.0283
1179.81	73.8502
1183.18	54.9436
1186.56	54.2664
1189.93	72.4541
1193.31	84.6433
1196.68	87.812
1200.06	83.1781
1203.43	62.9923
1206.81	75.7832
1210.18	42.068
1213.56	82.1853
1216.93	57.0807
1220.31	55.6641
1223.68	51.7266
1227.06	21.1704
1230.43	39.2112
1233.81	23.6771
1237.18	7.0957
1240.56	9.17236
1243.93	1.95288
1247.31	15.9961
1250.68	28.4181
1254.06	16.4877
1257.43	31.8424
1260.81	4.53845
1264.18	29.4605
1267.56	8.92127
1270.93	59.9564
1274.31	56.418
1277.68	44.8927
1281.06	18.6204
1284.43	60.7512
1287.81	50.9841
1291.18	3.26257
1294.55	10.3159
