Measurement: Raman, 532 nm, unoriented, Raman Data Processed
Mineral: Aenigmatite
Rruff sample: R061089
Ideal chemistry: Na_4_(Fe^2+^_10_Ti_2_)O_4_[Si_12_O_36_]
Locality: Eveslogchorr, Khibiny Massif, Kola Peninsula, Russia
Source: Michael Scott
Description: Black prismatic crystals embedded in eucryptite with astrophyllite and magnesioriebeckite
Measured chemistry: Na_2.00_(Fe^2+^_4.08_Mn_0.51_Fe^3+^_0.21_Mg_0.16_Ca_0.03_Cr^3+^_0.01_)_Σ=5_Ti_1.00_(Si_5.78_Al_0.22_)_Σ=6.00_O_20_
Raman shift (cm-1)	intensity
117.708	0
121.083	89.8581
124.457	349.084
127.832	472.995
131.207	457.66
134.582	211.216
137.957	159.208
141.332	114.803
144.706	129.512
148.081	104.458
151.456	179.017
154.831	199.876
158.206	164.39
161.581	206.278
164.955	190.109
168.33	140.653
171.705	90.5475
175.08	45.6874
178.454	24.2904
181.829	4.0354
185.204	25.6151
188.579	25.7534
191.954	36.6102
195.329	57.6433
198.703	57.5847
202.078	125.873
205.453	112.501
208.828	150.875
212.203	111.22
215.577	100.9
218.952	70.3015
222.327	41.2946
225.702	18.2144
229.077	9.05859
232.452	19.5876
235.826	5.80353
239.201	11.0104
242.576	45.0139
245.951	70.6987
249.326	65.1625
252.701	98.655
256.075	99.0154
259.45	115.905
262.825	106.211
266.2	99.9821
269.575	130.16
272.949	140.66
276.324	180.377
279.699	218.059
283.074	226.858
286.449	273.646
289.824	358.65
293.198	381.443
296.573	410.043
299.948	441.878
303.323	439.698
306.697	385.108
310.072	353.274
313.447	281.766
316.822	237.22
320.197	211.783
323.572	159.665
326.946	119.295
330.321	32.5434
333.696	46.1512
337.071	2.85754
340.446	6.31457
343.82	8.54804
347.195	3.64172
350.57	53.0414
353.945	77.5734
357.32	89.5701
360.695	113.958
364.069	127.203
367.444	123.009
370.819	102.918
374.194	66.4984
377.569	56.3621
380.943	28.697
384.318	59.041
387.693	65.128
391.068	39.5541
394.443	31.8549
397.817	15.7868
401.192	7.51489
404.567	20.9523
407.942	16.955
411.317	5.58069
414.692	3.32379
418.066	29.5209
421.441	38.9963
424.816	43.1558
428.191	71.9341
431.566	55.2202
434.94	99.2802
438.315	104.614
441.69	70.0664
445.065	69.9423
448.44	50.577
451.815	79.8632
455.189	52.891
458.564	52.1782
461.939	52.8528
465.314	55.8006
468.689	59.6583
472.063	37.2834
475.438	41.9703
478.813	64.6571
482.188	65.7073
485.563	96.4312
488.938	68.4541
492.312	41.9445
495.687	40.6346
499.062	27.5184
502.437	39.1386
505.812	8.78009
509.186	63.29
512.561	61.8901
515.936	118.627
519.311	153.955
522.686	176.516
526.061	199.258
529.435	253.772
532.81	251.203
536.185	213.712
539.56	195.79
542.935	197.589
546.309	184.256
549.684	195.199
553.059	175.226
556.434	174.015
559.809	130.457
563.183	91.7996
566.558	52.8822
569.933	46.7308
573.308	8.61035
576.683	8.29218
580.058	3.40417
583.432	25.1052
586.807	20.0356
590.182	24.3406
593.557	14.3045
596.932	73.6251
600.307	114.644
603.681	205.227
607.056	243.799
610.431	291.741
613.806	323.307
617.181	340.773
620.555	446.415
623.93	555.891
627.305	736.057
630.68	1078.3
634.055	1464.12
637.429	1854.06
640.804	2253.12
644.179	2532.03
647.554	2473.26
650.929	2230.77
654.303	1886.79
657.678	1565.59
661.053	1294.11
664.428	1185.45
667.803	1062.19
671.178	1086.56
674.552	1037.53
677.927	1012.56
681.302	991.555
684.677	916.058
688.052	892.352
691.427	721.589
694.801	523.093
698.176	389.642
701.551	274.878
704.926	175.906
708.301	117.726
711.675	100.572
715.05	70.0424
718.425	55.3589
721.8	25.4913
725.175	30.458
728.549	34.9067
731.924	47.876
735.299	59.6235
738.674	13.09
742.049	10.0197
745.423	16.7637
748.798	32.2966
752.173	29.5984
755.548	10.2989
758.923	3.73321
762.298	34.7058
765.672	37.2866
769.047	45.99
772.422	38.2753
775.797	27.1493
779.172	29.5078
782.546	25.3763
785.921	8.16919
789.296	18.634
792.671	30.3183
796.046	22.2393
799.42	18.1549
802.795	33.5286
806.17	5.6394
809.545	23.1335
812.92	5.86194
816.295	9.03449
819.669	3.01141
823.044	26.0455
826.419	50.2007
829.794	16.579
833.169	34.9473
836.543	65.5925
839.918	72.5337
843.293	108.216
846.668	109.435
850.043	148.92
853.418	178.14
856.792	212.631
860.167	208.577
863.542	196.324
866.917	165.316
870.292	194.337
873.667	220.064
877.041	272.219
880.416	382.957
883.791	456.316
887.166	551.125
890.54	589.703
893.915	525.543
897.29	439.743
900.665	345.259
904.04	258.696
907.415	246.791
910.789	220.723
914.164	165.467
917.539	102.859
920.914	71.6504
924.289	53.9309
927.663	10.3096
931.038	12.5747
934.413	23.0786
937.788	24.0089
941.163	22.2203
944.538	24.7609
947.912	92.7981
951.287	77.0591
954.662	117.39
958.037	104.929
961.412	103.845
964.787	95.1401
968.161	74.1636
971.536	77.6824
974.911	104.863
978.286	141.508
981.661	155.731
985.035	192.622
988.41	191.681
991.785	135.345
995.16	76.8023
998.535	45.4697
1001.91	10.2354
1005.28	14.3621
1008.66	23.2921
1012.03	55.9141
1015.41	115.963
1018.78	95.6464
1022.16	155.17
1025.53	172.957
1028.91	206.114
1032.28	269.069
1035.66	304.393
1039.03	295.889
1042.41	273.627
1045.78	233.932
1049.16	166.171
1052.53	141.418
1055.91	116.433
1059.28	61.8353
1062.66	63.2357
1066.03	35.6277
1069.41	1.57568
1072.78	2.83325
1076.15	6.25476
1079.53	13.3901
1082.9	9.02918
1086.28	3.76489
1089.65	5.68896
1093.03	6.48083
1096.4	30.6706
1099.78	19.6389
1103.15	26.4942
1106.53	1.38294
1109.9	25.1751
1113.28	39.0661
1116.65	20.0421
1120.03	7.07983
1123.4	33.4898
1126.78	23.4815
1130.15	47.3489
1133.53	39.3226
1136.9	25.6926
1140.28	20.5312
1143.65	0.425842
1147.03	22.8544
1150.4	0.348999
1153.78	24.83
1157.15	45.0029
1160.53	19.3886
1163.9	32.1861
1167.28	29.6266
1170.65	31.749
1174.03	37.4639
1177.4	72.0767
1180.78	46.7487
1184.15	55.3862
1187.52	86.4285
1190.9	58.7648
1194.27	70.3483
1197.65	79.5288
1201.02	67.0048
1204.4	56.1527
1207.77	46.8348
1211.15	85.5151
1214.52	40.5913
1217.9	14.997
1221.27	46.1202
1224.65	47.3275
1228.02	42.478
1231.4	62.6168
1234.77	21.03
1238.15	7.27258
1241.52	53.5626
1244.9	14.5463
1248.27	29.2098
1251.65	19.1183
1255.02	21.0167
1258.39	40.0056
1261.77	18.4025
1265.14	15.5025
1268.52	48.9819
1271.89	25.2905
1275.27	0.997253
