Measurement: Raman, 785 nm, unoriented, Raman Data Processed
Mineral: Aenigmatite
Rruff sample: R061089
Ideal chemistry: Na_4_(Fe^2+^_10_Ti_2_)O_4_[Si_12_O_36_]
Locality: Eveslogchorr, Khibiny Massif, Kola Peninsula, Russia
Source: Michael Scott
Description: Black prismatic crystals embedded in eucryptite with astrophyllite and magnesioriebeckite
Measured chemistry: Na_2.00_(Fe^2+^_4.08_Mn_0.51_Fe^3+^_0.21_Mg_0.16_Ca_0.03_Cr^3+^_0.01_)_Σ=5_Ti_1.00_(Si_5.78_Al_0.22_)_Σ=6.00_O_20_
Raman shift (cm-1)	intensity
148.628	0
151.521	82.4375
154.413	2.04883
157.306	115
160.199	42.4746
163.091	209.84
165.984	6.5459
168.877	102.995
171.769	94.8408
174.662	129.032
177.555	237.579
180.448	233.261
183.34	190.219
186.233	117.175
189.126	125.338
192.018	48.3208
194.911	97.5889
197.804	81.615
200.696	56.7959
203.589	58.8328
206.482	20.1186
209.375	34.5703
212.267	12.4224
215.16	23.9814
218.053	55.6077
220.945	15.7979
223.838	34.1912
226.731	29.5832
229.624	35.7947
232.516	22.0869
235.409	42.2959
238.302	93.9993
241.194	117.717
244.087	173.213
246.98	185.401
249.872	222.43
252.765	176.804
255.658	212.158
258.55	222.502
261.443	252.586
264.336	250.342
267.229	183.722
270.121	189.29
273.014	191.832
275.907	160.645
278.799	182.825
281.692	188.701
284.585	174.67
287.478	106.885
290.37	100.864
293.263	56.5098
296.156	75.6655
299.048	13.71
301.941	14.7476
304.834	15.5747
307.726	2.38208
310.619	22.3113
313.512	2.33374
316.404	4.85278
319.297	25.7266
322.19	32.9473
325.083	44.054
327.975	52.3982
330.868	64.2712
333.761	69.3787
336.653	22.0212
339.546	5.19727
342.439	57.9299
345.332	19.5227
348.224	27.342
351.117	87.428
354.01	59.8455
356.902	61.6043
359.795	108.406
362.688	136.351
365.58	147.35
368.473	129.169
371.366	125.391
374.259	112.011
377.151	119.2
380.044	69.0598
382.937	79.6458
385.829	51.5544
388.722	41.6477
391.615	34.658
394.507	60.0605
397.4	35.9509
400.293	71.0884
403.185	52.5581
406.078	54.0127
408.971	8.45923
411.864	25.6184
414.756	65.343
417.649	41.5149
420.542	116.204
423.434	140.445
426.327	138.921
429.22	191.181
432.113	186.235
435.005	215.213
437.898	185.327
440.791	148.845
443.683	160.674
446.576	129.552
449.469	119.633
452.361	107.948
455.254	103.93
458.147	42.9153
461.039	62.5657
463.932	35.4928
466.825	44.8457
469.718	38.3721
472.61	51.3301
475.503	33.6169
478.396	35.4707
481.288	15.0508
484.181	37.3433
487.074	40.4916
489.966	52.39
492.859	71.7557
495.752	58.8873
498.645	90.0184
501.537	48.0807
504.43	14.1575
507.323	14.7159
510.215	16.0164
513.108	17.6803
516.001	10.1716
518.894	63.1478
521.786	105.421
524.679	110.427
527.572	135.548
530.464	140.883
533.357	147.987
536.25	168.209
539.142	202.93
542.035	164.161
544.928	189.061
547.821	187.723
550.713	193.624
553.606	202.746
556.499	192.306
559.391	137.756
562.284	122.783
565.177	73.0931
568.069	41.294
570.962	9.33911
573.855	11.3844
576.747	27.302
579.64	17.5008
582.533	0.599976
585.426	41.3905
588.318	2.22253
591.211	13.2636
594.104	10.0826
596.996	11.9993
599.889	1.42566
602.782	11.2377
605.674	29.2284
608.567	40.9885
611.46	38.7
614.352	46.4553
617.245	50.9059
620.138	107.636
623.031	155.643
625.923	227.932
628.816	274.537
631.709	420.418
634.601	635.227
637.494	824.919
640.387	1105.61
643.279	1306.5
646.172	1360.46
649.065	1283.51
651.958	1173.57
654.85	960.497
657.743	818.303
660.636	606.739
663.528	445.169
666.421	408.393
669.314	344.249
672.207	261.876
675.099	232.635
677.992	181.1
680.885	278.757
683.777	316.055
686.67	325.659
689.563	318.559
692.455	264.474
695.348	186.813
698.241	150.038
701.134	108.159
704.026	68.837
706.919	42.1029
709.812	33.6914
712.704	31.3877
715.597	24.988
718.49	31.1061
721.382	24.4753
724.275	27.464
727.168	7.98999
730.061	2.25305
732.953	10.063
735.846	4.13013
738.739	23.9111
741.631	2.4834
744.524	2.61902
747.417	0.032959
750.309	13.5088
753.202	4.32642
756.095	14.0079
758.987	9.51672
761.88	6.05847
764.773	21.2321
767.666	18.6787
770.558	13.5228
773.451	9.12476
776.344	21.7261
779.236	50.6432
782.129	49.7325
785.022	38.92
787.915	48.3946
790.807	40.5526
793.7	69.3716
796.593	21.7167
799.485	13.817
802.378	4.83508
805.271	2.67285
808.163	14.9951
811.056	12.297
813.949	10.501
816.842	30.2267
819.734	25.963
822.627	24.9545
825.52	33.2159
828.412	17.6957
831.305	37.5658
834.198	39.5487
837.091	42.6954
839.983	23.635
842.876	42.9192
845.769	1.36633
848.661	21.5067
851.554	13.8629
854.447	28.6265
857.339	26.5309
860.232	51.1722
863.125	73.0803
866.018	116.546
868.91	139.858
871.803	156.896
874.696	207.783
877.588	256.138
880.481	309.459
883.374	383.108
886.266	412.134
889.159	463.007
892.052	485.854
894.944	421.973
897.837	333.527
900.73	256.663
903.623	183.568
906.515	178.227
909.408	167.937
912.301	172.756
915.193	129.856
918.086	141.709
920.979	110.395
923.871	105.503
926.764	84.9988
929.657	75.9458
932.549	85.7705
935.442	68.9702
938.335	62.7994
941.228	40.594
944.12	24.3634
947.013	15.6036
949.906	21.791
952.798	33.7421
955.691	4.4364
958.584	1.86645
961.476	0.102051
964.369	31.2523
967.262	2.96423
970.155	12.8992
973.047	25.455
975.94	49.0881
978.833	59.6897
981.725	83.0305
984.618	82.6743
987.511	79.7429
990.404	34.1945
993.296	31.7183
996.189	35.3392
999.082	36.0886
1001.97	13.4722
1004.87	12.5021
1007.76	4.38892
1010.65	2.80774
1013.54	2.24207
1016.44	34.8862
1019.33	60.6439
1022.22	58.4858
1025.12	101.832
1028.01	105.382
1030.9	108.369
1033.79	112.724
1036.69	129.379
1039.58	141.51
1042.47	150.801
1045.37	116.059
1048.26	110.275
1051.15	114.511
1054.04	131.42
1056.94	124.647
1059.83	100.774
1062.72	100.411
1065.61	87.0149
1068.51	74.514
1071.4	40.9621
1074.29	13.0591
1077.18	11.7668
1080.08	1.53778
1082.97	19.5429
1085.86	24.4056
1088.76	29.9008
1091.65	16.752
1094.54	15.6422
1097.43	27.705
1100.33	29.0775
1103.22	27.4402
1106.11	30.2112
1109	33.1237
1111.9	22.9615
1114.79	39.09
1117.68	15.9373
1120.58	14.0997
1123.47	2.4613
1126.36	35.6434
1129.25	42.8693
1132.15	28.9463
1135.04	41.6489
1137.93	5.60303
1140.82	36.6632
1143.72	19.9374
1146.61	33.4551
1149.5	27.6493
1152.39	44.7647
1155.29	15.7551
1158.18	29.1835
1161.07	35.3904
1163.96	16.1024
1166.86	22.8542
1169.75	14.4927
1172.64	37.9594
1175.54	30.7268
1178.43	29.9445
1181.32	32.3959
1184.21	26.8748
1187.11	45.5588
1190	19.5033
1192.89	23.4384
1195.79	7.52801
1198.68	46.8016
1201.57	16.8437
1204.46	1.04456
1207.36	18.4228
1210.25	42.5505
1213.14	16.4756
1216.03	37.1824
1218.93	18.4995
1221.82	40.6735
1224.71	25.4227
1227.61	36.4124
1230.5	15.4563
1233.39	18.6752
1236.28	24.7323
1239.18	21.5333
1242.07	10.8763
1244.96	11.9799
1247.85	10.3731
1250.75	15.6104
1253.64	29.6049
1256.53	22.2344
1259.42	33.9367
1262.32	3.47583
1265.21	17.8442
1268.1	24.8905
1270.99	3.79181
