Measurement: Raman, 532 nm, unoriented, Raman Data Processed
Mineral: Aeschynite-(Y)
Rruff sample: R080045
Ideal chemistry: (Y,Ca,Th)(Ti,Nb)_2_(O,OH)_6_
Locality: Hittero, Vest-Agder, Norway
Source: Herb Obodda
Description: Light brown glassy, from black amorphous sample R060312 after heating at T = 850 C for 18 hours
Raman shift (cm-1)	intensity
149.752	0
152.645	1.27393
155.537	42.7515
158.43	40.7925
161.323	70.0093
164.215	128.618
167.108	162.18
170.001	260.361
172.894	318.482
175.786	307.258
178.679	207.809
181.572	123.191
184.464	49.7065
187.357	0.266602
190.25	52.2812
193.143	80.8184
196.035	34.6704
198.928	18.1314
201.821	53.7764
204.713	120.105
207.606	220.447
210.499	358.285
213.391	504.148
216.284	695.106
219.177	888.099
222.069	1070.27
224.962	1273.41
227.855	1455.38
230.748	1612.59
233.64	1741.37
236.533	1823.33
239.426	1856.3
242.318	1815.35
245.211	1787.68
248.104	1739.96
250.996	1720.04
253.889	1700.82
256.782	1662.3
259.675	1607.78
262.567	1487.44
265.46	1375.57
268.353	1366.95
271.245	1362.19
274.138	1330.42
277.031	1347.77
279.923	1369.81
282.816	1397.8
285.709	1502.77
288.601	1542.87
291.494	1624.72
294.387	1699.27
297.28	1797.86
300.172	1875.17
303.065	1856.94
305.958	1851.06
308.85	1834.47
311.743	1784.01
314.636	1725.69
317.529	1651.14
320.421	1531.12
323.314	1358.31
326.207	1164.79
329.099	915.12
331.992	719.444
334.885	501.602
337.777	298.304
340.67	127.731
343.563	15.9287
346.455	91.0674
349.348	146.057
352.241	203.319
355.134	169.538
358.026	97.2812
360.919	8.46094
363.812	224.579
366.704	547.755
369.597	956.121
372.49	1476.27
375.382	2123.98
378.275	2855.95
381.168	3744.16
384.061	4643.51
386.953	5467.6
389.846	6261.86
392.739	6915.22
395.631	7239.21
398.524	7275.24
401.417	7100.99
404.309	6629.83
407.202	6003.9
410.095	5363.26
412.988	4830.19
415.88	4552.33
418.773	4522.95
421.666	4736.74
424.558	5149.73
427.451	5510.24
430.344	5595.71
433.236	5399.94
436.129	4873.08
439.022	4293.14
441.915	3514.77
444.807	2784.74
447.7	2241.88
450.593	1993.78
453.485	2097.16
456.378	2392.26
459.271	2735.76
462.163	3014.88
465.056	2952.01
467.949	2543.49
470.841	1757.32
473.734	919.725
476.627	110.15
479.52	427.213
482.412	509.228
485.305	209.408
488.198	442.639
491.09	1303.97
493.983	2185.58
496.876	3053.27
499.769	3806.91
502.661	4431.06
505.554	4865.99
508.447	5209.42
511.339	5689.56
514.232	6212.37
517.125	6849.94
520.017	7567.91
522.91	8337.7
525.803	8949.62
528.696	9006.04
531.588	8464.48
534.481	7467.52
537.374	6467.55
540.266	5647.34
543.159	5213.39
546.052	5095.52
548.944	5042.44
551.837	5091.07
554.73	4960.59
557.622	4659.07
560.515	4078.5
563.408	3442.81
566.301	2769.2
569.193	2122.66
572.086	1586.06
574.979	1272.69
577.871	1071.43
580.764	985.219
583.657	955.504
586.549	920.066
589.442	790.807
592.335	509.264
595.227	168.438
598.12	150.469
601.013	279.856
603.906	178.719
606.798	222.383
609.691	884.188
612.584	1740.27
615.476	2803.81
618.369	3812.66
621.262	4807.85
624.154	5728.02
627.047	6571.39
629.94	7296.49
632.833	7767.25
635.725	7886.39
638.618	7763.86
641.511	7506.8
644.403	7072.98
647.296	6551.44
650.189	5886.93
653.082	5182.44
655.974	4451.32
658.867	3695.78
661.76	2971.69
664.652	2315.32
667.545	1690.43
670.438	1169.55
673.33	760.584
676.223	390.19
679.116	98.4131
682.009	114.533
684.901	197.175
687.794	161.614
690.687	19.5166
693.579	386.644
696.472	795.023
699.365	1359.47
702.257	1967.2
705.15	2636.07
708.043	3293.65
710.936	3918
713.828	4447.3
716.721	4861.44
719.614	5066.4
722.506	5157.77
725.399	5051.75
728.292	4773.62
731.184	4480.53
734.077	4118.6
736.97	3799.95
739.862	3312.26
742.755	2794.67
745.648	2214.78
748.541	1701.59
751.433	1252.18
754.326	846.283
757.219	473.942
760.111	223.789
763.004	20.5381
765.897	51.9512
768.789	45.2598
771.682	129.353
774.575	321.44
777.468	599.487
780.36	864.682
783.253	1185.74
786.146	1487.72
789.038	1795.37
791.931	2009.87
794.824	2334.3
797.716	2642.13
800.609	2886
803.502	3141.95
806.395	3384.82
809.287	3598.62
812.18	3808.24
815.073	3834.02
817.965	3836.93
820.858	3784.3
823.751	3628.04
826.643	3423.82
829.536	3151.48
832.429	2840.34
835.322	2506.18
838.214	2134.19
841.107	1795.53
844	1494.77
846.892	1196.86
849.785	935.004
852.678	703.196
855.57	543.801
858.463	374.282
861.356	257.405
864.249	180.13
867.141	103.533
870.034	60.3203
872.927	25.0083
875.819	32.9399
878.712	48.3442
881.605	65.4998
884.497	55.4036
887.39	32.9121
890.283	20.6916
893.176	2.78125
896.068	40.9023
898.961	73.3357
901.854	121.471
904.746	152.939
907.639	185.265
910.532	223.008
913.424	258.901
916.317	296.923
919.21	332.332
922.102	361.815
924.995	374.06
927.888	398.224
930.781	401.849
933.673	407.974
936.566	396.061
939.459	375.046
942.351	335.634
945.244	306.08
948.137	281.401
951.029	241.205
953.922	222.687
956.815	214.963
959.708	207.11
962.6	183.517
965.493	177.99
968.386	167.422
971.278	155.254
974.171	138.366
977.064	128.042
979.957	113.593
982.849	120.583
985.742	92.4004
988.635	87.8245
991.527	81.661
994.42	76.8344
997.313	66.3179
1000.21	62.8805
1003.1	61.2458
1005.99	47.3679
1008.88	38.7856
1011.78	31.3621
1014.67	33.3528
1017.56	28.0687
1020.45	25.8445
1023.35	20.6139
1026.24	12.2294
1029.13	12.7012
1032.03	18.1101
1034.92	11.5507
1037.81	8.96875
1040.7	0.063477
1043.6	9.30188
1046.49	0.394409
1049.38	8.49866
1052.27	10.0315
1055.17	1.62061
1058.06	3.34961
1060.95	1.12439
1063.85	4.172
1066.74	0.393921
1069.63	1.47522
1072.52	2.13257
1075.42	3.39258
1078.31	1.98914
1081.2	4.42664
1084.09	2.38525
1086.99	4.59753
1089.88	7.5719
1092.77	5.69373
1095.66	6.22308
1098.56	10.2554
1101.45	3.2937
1104.34	4.73059
1107.23	4.49652
1110.13	0.028198
1113.02	2.9137
1115.91	3.72949
1118.81	4.30676
1121.7	4.77765
1124.59	6.2196
1127.48	9.32861
1130.38	10.9523
1133.27	15.9385
1136.16	14.3268
1139.06	14.9968
1141.95	12.5405
1144.84	16.6814
1147.73	15.075
1150.63	13.9584
1153.52	17.1143
1156.41	18.8929
1159.3	14.6578
1162.2	11.6885
1165.09	13.0603
1167.98	5.20917
1170.88	7.69409
1173.77	9.4101
1176.66	2.48303
1179.55	8.14282
1182.44	7.56238
1185.34	8.7738
1188.23	2.20691
1191.12	6.14471
1194.02	10.9529
1196.91	10.8401
1199.8	12.8127
1202.69	13.1709
1205.59	12.2915
1208.48	9.36511
1211.37	8.06891
1214.27	12.2233
1217.16	8.32837
1220.05	12.3847
1222.94	12.8732
1225.84	13.2397
1228.73	8.19629
1231.62	12.5256
1234.51	9.74078
1237.41	6.49393
1240.3	4.56064
1243.19	9.15219
1246.09	11.49
1248.98	7.12631
1251.87	6.75104
1254.76	0.820465
1257.66	4.41403
1260.55	7.21649
1263.44	6.13
1266.33	6.70834
1269.23	7.00333
1272.12	7.52884
1275.01	8.16196
1277.9	6.09027
1280.8	8.03696
1283.69	7.44373
1286.58	5.65616
1289.47	4.22116
1292.37	0.717133
1295.26	1.22977
1298.15	1.82306
1301.05	0.638306
1303.94	0.060455
