Measurement: Raman, 532 nm, unoriented, Raman Data Processed
Mineral: Afghanite
Rruff sample: R070558
Ideal chemistry: Na_22_Ca_10_(Si_24_Al_24_)O_96_(SO_4_)_6_Cl_6_
Locality: Badakhshan, Afghanistan
Source: Farooq Hashmi
Description: Deep blue translucent fragment
Measured chemistry: (Na_19.10_K_2.90_)_Σ=22_Ca_10.00_(Si_24.00_Al_24.00_)_Σ=48_O_96_(S_1.00_O_4_)_6_((OH)_3.21_Cl_2.79_)_Σ=6_ ; OH estimated by difference and charge balance
Raman shift (cm-1)	intensity
158.297	0
161.19	105.055
164.083	631.898
166.975	795.344
169.868	1035.38
172.761	911.875
175.653	524.633
178.546	858.422
181.439	806.789
184.331	1045.92
187.224	853.039
190.117	680.672
193.01	582.664
195.902	445.805
198.795	507.5
201.688	936.344
204.58	1373.81
207.473	1059.31
210.366	397.258
213.258	138.445
216.151	239.305
219.044	245.398
221.936	441.242
224.829	48.1328
227.722	36.0781
230.615	269.469
233.507	449.688
236.4	1177.61
239.293	1199.02
242.185	1450.63
245.078	1481.05
247.971	1811.12
250.863	1810.96
253.756	2436.31
256.649	2924.31
259.542	3229.81
262.434	3422.45
265.327	4051.99
268.22	4268.47
271.112	3636.57
274.005	3299.05
276.898	2969.91
279.791	2974.62
282.683	2953.21
285.576	2537.67
288.469	1977.02
291.361	1522.17
294.254	1881.12
297.147	1636.38
300.039	1260.32
302.932	851.961
305.825	290.398
308.718	659.117
311.61	788.828
314.503	616.328
317.396	180.328
320.288	378.391
323.181	965.188
326.074	427.641
328.966	21.5156
331.859	153.664
334.752	191.695
337.645	410.766
340.537	422.328
343.43	157.359
346.323	149.938
349.215	376.438
352.108	769.938
355.001	546.195
357.894	209.141
360.786	91.3516
363.679	154.406
366.572	694.125
369.464	508.734
372.357	88.9062
375.25	284.281
378.142	66.9922
381.035	347.25
383.928	224.719
386.82	252.859
389.713	113.711
392.606	10.2656
395.499	1.16406
398.391	463.961
401.284	835.594
404.177	664.469
407.069	80.4922
409.962	394.625
412.855	707.781
415.748	455.734
418.64	1016.66
421.533	1490.05
424.426	1429.73
427.318	2084.37
430.211	1531.95
433.104	2015.53
435.996	2285.66
438.889	3244.88
441.782	3863.03
444.675	4836.73
447.567	5893.8
450.46	7255.19
453.353	8035.59
456.245	9350.01
459.138	11212.1
462.031	13332
464.923	15325.5
467.816	13237.9
470.709	8807.23
473.601	5435.48
476.494	3664.98
479.387	2612.76
482.28	1630.21
485.172	912.906
488.065	922.016
490.958	335.312
493.85	50.1797
496.743	210.336
499.636	352.898
502.529	144.602
505.421	286.922
508.314	99.7109
511.207	53.2578
514.099	273.523
516.992	590.703
519.885	534.906
522.778	722.062
525.67	1818.5
528.563	3243.25
531.456	5293.98
534.348	7185.34
537.241	9665.53
540.134	11427.3
543.026	11523.8
545.919	9752.92
548.812	6769.12
551.705	4583.58
554.597	2726.88
557.49	1242.48
560.383	211.766
563.275	65.7031
566.168	95.2188
569.061	901.125
571.953	698.953
574.846	794.156
577.739	253.953
580.631	47.3125
583.524	395.109
586.417	642.891
589.31	712.297
592.202	643.688
595.095	320.203
597.988	227.141
600.88	774.047
603.773	397.609
606.666	521.031
609.558	288.562
612.451	79.375
615.344	318.031
618.237	310.344
621.129	564.391
624.022	663.375
626.915	484.172
629.807	782.312
632.7	543.859
635.593	566.188
638.486	994.359
641.378	1246.47
644.271	1227.73
647.164	522.469
650.056	371.391
652.949	837.531
655.842	1245.52
658.734	1151.11
661.627	822.516
664.52	368.719
667.413	742.094
670.305	1027.05
673.198	1186.75
676.091	1133.17
678.983	704.453
681.876	144.281
684.769	240.141
687.661	291.641
690.554	841.609
693.447	998.781
696.34	1184.67
699.232	1051.56
702.125	567.141
705.018	242.906
707.91	17.875
710.803	594.125
713.696	1251.92
716.588	1869.69
719.481	1438.27
722.374	1065.83
725.266	126.703
728.159	432.094
731.052	628.531
733.945	700.312
736.837	981.25
739.73	1066.52
742.623	1191.08
745.515	1393.09
748.408	1342.48
751.301	875.281
754.193	196.016
757.086	167.125
759.979	250.656
762.872	876.625
765.764	1018.55
768.657	678.344
771.55	517.703
774.442	702.031
777.335	910.203
780.228	985.578
783.12	1366.58
786.013	792.094
788.906	147.766
791.799	300.578
794.691	470.719
797.584	931.984
800.477	531.891
803.369	53.25
806.262	103.875
809.155	702.406
812.048	779.719
814.94	285.297
817.833	617.484
820.726	792.578
823.618	181.359
826.511	491.5
829.404	193.906
832.297	445.578
835.189	660.406
838.082	517.469
840.975	247.969
843.867	380.672
846.76	358.812
849.653	615.141
852.545	1295.98
855.438	1750.91
858.331	1210.38
861.223	587.969
864.116	423.422
867.009	671.203
869.902	827.781
872.794	1338.38
875.687	896.547
878.58	604.922
881.472	56.0469
884.365	30.0469
887.258	252.281
890.15	403.797
893.043	490.188
895.936	153.188
898.829	184.406
901.721	471.359
904.614	178.203
907.507	31.1875
910.399	352.359
913.292	689.312
916.185	738.062
919.077	530.656
921.97	241.297
924.863	435.891
927.756	533.484
930.648	163.375
933.541	64.0469
936.434	63.8125
939.326	79.5469
942.219	265.688
945.112	318.297
948.005	419.266
950.897	611.922
953.79	1178.92
956.683	1504.33
959.575	1427.23
962.468	1012.22
965.361	620.344
968.253	1363.2
971.146	1853.78
974.039	2872.06
976.932	4808.62
979.824	7083.95
982.717	9691.94
985.61	11930.9
988.502	14613.7
991.395	15872.9
994.288	13641.6
997.181	9674.77
1000.07	6688.89
1002.97	5980.25
1005.86	5149.5
1008.75	4399.95
1011.64	3537.8
1014.54	3370.31
1017.43	3263.89
1020.32	2187.94
1023.22	843.016
1026.11	533.062
1029	389.719
1031.89	66.4219
1034.79	272.719
1037.68	592.578
1040.57	48.2812
1043.46	861.438
1046.36	592.938
1049.25	465.219
1052.14	597.484
1055.03	354.172
1057.93	1345.38
1060.82	1921.94
1063.71	1807.02
1066.61	2517.5
1069.5	2840.03
1072.39	2906.83
1075.28	2838.02
1078.18	2793.8
1081.07	2748.55
1083.96	1893.83
1086.85	2176.7
1089.75	2451.19
1092.64	2851.78
1095.53	2655.22
1098.42	2595.45
1101.32	2033.23
1104.21	1634.39
1107.1	1001.62
1110	535.859
1112.89	684.531
1115.78	1198.22
1118.67	1062.16
1121.57	790.844
1124.46	845.562
1127.35	470.312
1130.24	521.953
1133.14	907.078
1136.03	989.531
1138.92	1312.19
1141.82	874.844
1144.71	657.266
1147.6	534.703
1150.49	969.406
1153.39	455.844
1156.28	574.641
1159.17	835.297
1162.06	703.219
1164.96	695.266
1167.85	227.922
1170.74	64.5469
1173.63	1103.14
1176.53	965.984
1179.42	655.703
1182.31	604
1185.21	1074.83
1188.1	988.234
1190.99	939.875
1193.88	870.141
1196.78	561.109
1199.67	598.234
1202.56	225.156
1205.45	287.156
1208.35	20.2031
1211.24	441.375
1214.13	146.328
1217.03	144.422
1219.92	162.328
1222.81	275.344
1225.7	532.391
1228.6	231.234
1231.49	699.984
1234.38	414.875
1237.28	341.266
1240.17	307.75
1243.06	65.8594
1245.95	251.688
1248.85	4.07812
1251.74	373.469
1254.63	1170.58
1257.52	208.734
1260.42	446.078
1263.31	587.766
1266.2	574.203
1269.09	339.047
1271.99	510.312
1274.88	105.641
1277.77	209.484
1280.66	243.109
1283.56	687.328
1286.45	559.594
1289.34	34.7188
1292.24	551
1295.13	560.469
1298.02	1128.91
1300.91	552.328
1303.81	281.594
