Measurement: Raman, 785 nm, unoriented, Raman Data Processed
Mineral: Afghanite
Rruff sample: R070558
Ideal chemistry: Na_22_Ca_10_(Si_24_Al_24_)O_96_(SO_4_)_6_Cl_6_
Locality: Badakhshan, Afghanistan
Source: Farooq Hashmi
Description: Deep blue translucent fragment
Measured chemistry: (Na_19.10_K_2.90_)_Σ=22_Ca_10.00_(Si_24.00_Al_24.00_)_Σ=48_O_96_(S_1.00_O_4_)_6_((OH)_3.21_Cl_2.79_)_Σ=6_ ; OH estimated by difference and charge balance
Raman shift (cm-1)	intensity
171.19	0
174.082	78.2617
176.975	128.519
179.868	132.411
182.76	83.5967
185.653	251.983
188.546	342.172
191.439	254.594
194.331	245.152
197.224	175.762
200.117	159.752
203.009	232.009
205.902	167.345
208.795	140.92
211.687	105.644
214.58	55.082
217.473	3.89746
220.365	79.6523
223.258	70.1406
226.151	26.4434
229.044	12.2148
231.936	15.1094
234.829	43.3525
237.722	228.016
240.614	217.629
243.507	224.065
246.4	437.652
249.292	430.106
252.185	671.676
255.078	743.81
257.971	731.227
260.863	918.807
263.756	923.158
266.649	807.616
269.541	670.463
272.434	660.689
275.327	519.1
278.219	582.619
281.112	308.82
284.005	419.425
286.898	528.094
289.79	410.721
292.683	584.722
295.576	394.773
298.468	197.058
301.361	238.74
304.254	115.682
307.147	94.6807
310.039	53.8711
312.932	4.20801
315.825	54.9111
318.717	20.6875
321.61	167.706
324.503	103.347
327.395	493.352
330.288	480.953
333.181	715.465
336.074	825.243
338.966	1108.72
341.859	1285.84
344.752	1504.25
347.644	1662.98
350.537	1791.62
353.43	1946.08
356.322	2021.95
359.215	1952.44
362.108	2110.49
365	1795.59
367.893	1568.95
370.786	1382.55
373.679	1123.77
376.571	799.198
379.464	716.149
382.357	414.228
385.25	246.616
388.142	224.453
391.035	148.023
393.928	100.875
396.82	69.2559
399.713	43.9688
402.606	63.7568
405.498	26.6299
408.391	66.3643
411.284	81.4522
414.176	66.3672
417.069	85.4346
419.962	163.106
422.855	277.281
425.747	264.188
428.64	189.952
431.533	293.301
434.425	421.808
437.318	456.672
440.211	666.909
443.103	793.135
445.996	1085.44
448.889	1498.98
451.782	1616.45
454.674	1849.57
457.567	2175.59
460.46	2630.88
463.352	2764.96
466.245	2258.69
469.138	1404.07
472.031	858.909
474.923	691.156
477.816	428.624
480.709	246.46
483.601	300.545
486.494	160.627
489.387	183.648
492.279	187.23
495.172	169.172
498.065	32.3857
500.957	69.1162
503.85	23.6807
506.743	7.09082
509.636	8.58594
512.528	27.415
515.421	37.8545
518.314	43.8496
521.206	40.0684
524.099	6.50293
526.992	65.5693
529.885	246.811
532.777	262.959
535.67	332.851
538.563	431.691
541.455	352.101
544.348	323.782
547.241	150.384
550.133	272.565
553.026	124.349
555.919	66.0195
558.812	96.8047
561.704	123.606
564.597	124.28
567.49	136.556
570.382	43.8701
573.275	134.689
576.168	76.6689
579.06	39.1738
581.953	14.8926
584.846	45.4863
587.739	110.772
590.631	129.439
593.524	14.2158
596.417	96.5478
599.309	58.3203
602.202	163.174
605.095	278.884
607.987	353.619
610.88	308.009
613.773	350.344
616.665	370.06
619.558	302.61
622.451	464.104
625.344	271.42
628.236	232.473
631.129	224.511
634.022	217.49
636.914	116.87
639.807	23.8506
642.7	185.788
645.592	33.4463
648.485	68.9424
651.378	40.3965
654.271	18.9316
657.163	78.543
660.056	126.446
662.949	95.3603
665.841	99.8037
668.734	58.7559
671.627	28.7588
674.519	68.5576
677.412	26.4951
680.305	144.378
683.198	60.9697
686.09	212.756
688.983	179.093
691.876	182.083
694.768	212.984
697.661	166.602
700.554	286.677
703.447	301.446
706.339	276.162
709.232	296.062
712.125	240.657
715.017	441.885
717.91	423.339
720.803	260.672
723.695	161.325
726.588	226.197
729.481	159.778
732.374	250.455
735.266	232.67
738.159	273.345
741.052	212.028
743.944	157.178
746.837	123.748
749.73	130.311
752.622	101.393
755.515	86.7676
758.408	81.48
761.301	84.8276
764.193	65.6753
767.086	27.9185
769.979	34.7339
772.871	61.2866
775.764	90.9497
778.657	22.7168
781.549	5.74854
784.442	42.4273
787.335	23.123
790.227	40.8169
793.12	13.6304
796.013	85.0327
798.906	22.2573
801.798	62.2798
804.691	71.8193
807.584	23.9556
810.476	13.7437
813.369	75.9268
816.262	8.8999
819.154	78.7944
822.047	73.0557
824.94	222.739
827.833	128.327
830.725	36.1914
833.618	98.8828
836.511	101.587
839.403	67.7778
842.296	160.747
845.189	116.541
848.082	73.71
850.974	61.2793
853.867	165.606
856.76	123.634
859.652	75.0171
862.545	75.7666
865.438	138.596
868.33	97.4185
871.223	200.787
874.116	126.394
877.009	60.8672
879.901	83.3433
882.794	109.672
885.687	149.414
888.579	101.367
891.472	54.501
894.365	76.0864
897.257	150.784
900.15	111.09
903.043	92.6025
905.936	68.5552
908.828	32.3984
911.721	49.1328
914.614	3.65137
917.506	117.116
920.399	103.366
923.292	51.2886
926.184	70.6968
929.077	114.5
931.97	141.275
934.863	70.4238
937.755	90.5644
940.648	111.684
943.541	103.115
946.433	89.6636
949.326	107.147
952.219	96.4331
955.111	30.0566
958.004	133.987
960.897	244.694
963.79	281.512
966.682	294.154
969.575	366.981
972.468	625.366
975.36	766.219
978.253	1214.28
981.146	1690.11
984.038	2172.83
986.931	2669.8
989.824	2548.71
992.717	2024.59
995.609	1523.33
998.502	1189.21
1001.39	897.342
1004.29	695.454
1007.18	516.925
1010.07	395.442
1012.97	393.729
1015.86	285.733
1018.75	346.404
1021.64	154.36
1024.54	194.036
1027.43	224.667
1030.32	107.54
1033.21	172.186
1036.11	187.735
1039	224.812
1041.89	75.6011
1044.79	71.083
1047.68	193.731
1050.57	120.246
1053.46	179.553
1056.36	115.645
1059.25	74.2051
1062.14	42.3784
1065.03	61.0996
1067.93	89.8013
1070.82	69.2266
1073.71	36.333
1076.61	39.4131
1079.5	77.2305
1082.39	82.1582
1085.28	101.949
1088.18	108.936
1091.07	179.964
1093.96	258.7
1096.85	258.888
1099.75	265.932
1102.64	235.135
1105.53	166.753
1108.42	265.184
1111.32	156.295
1114.21	81.6064
1117.1	267.881
1119.99	143.766
1122.89	122.44
1125.78	130.831
1128.67	114.867
1131.57	90.2539
1134.46	68.3623
1137.35	31.6826
1140.24	96.5019
1143.14	60.126
1146.03	130.732
1148.92	92.2588
1151.82	44.5107
1154.71	52.8916
