Measurement: Raman, 780 nm, unoriented, Raman Data Processed
Mineral: Afghanite
Rruff sample: R060422
Ideal chemistry: Na_22_Ca_10_(Si_24_Al_24_)O_96_(SO_4_)_6_Cl_6_
Locality: Kokscha Valley, Badakshan Province, Afghanistan
Source: Herb Obodda
Description: Blue hexagonal prism with pyramidal termination
Measured chemistry: (Na_19.94_K_2.06_)_Î£=22_Ca_10.00_[Si_24.00_Al_24.00_O_96_](S_1.00_O_4_)_6_Cl_6.00_
Raman shift (cm-1)	intensity
121.461	0
124.836	4.40869
128.21	0.661499
131.585	9.2085
134.96	8.11853
138.335	8.00146
141.71	11.411
145.085	10.8871
148.459	7.68115
151.834	16.0536
155.209	21.1248
158.584	18.1242
161.959	20.4391
165.333	30.2329
168.708	33.3811
172.083	30.0172
175.458	34.0662
178.833	32.7523
182.208	40.6036
185.582	42.7026
188.957	39.9503
192.332	31.5059
195.707	33.9437
199.082	37.0066
202.457	37.1145
205.831	30.5591
209.206	21.2134
212.581	23.0129
215.956	11.8629
219.331	10.8182
222.705	7.17505
226.08	1.64502
229.455	5.1178
232.83	1.88611
236.205	3.41504
239.579	7.54272
242.954	0.071533
246.329	1.14319
249.704	2.42432
253.079	2.06018
256.454	1.14539
259.828	0.788086
263.203	0.069336
266.578	0.182983
269.953	0.339844
273.328	1.32861
276.702	1.10877
280.077	1.99219
283.452	2.21228
286.827	2.95715
290.202	7.79907
293.576	18.9232
296.951	25.0998
300.326	42.4886
303.701	68.4238
307.076	80.7308
310.45	94.8202
313.825	115.65
317.2	156.866
320.575	197.365
323.95	253.391
327.325	316.32
330.699	377.987
334.074	436.764
337.449	507.226
340.824	568.801
344.199	628.645
347.574	688.674
350.948	736.332
354.323	766.237
357.698	772.618
361.073	740.683
364.447	670.322
367.822	581.783
371.197	468.284
374.572	349.833
377.947	251.395
381.322	175.056
384.696	116.536
388.071	76.6533
391.446	44.3297
394.821	28.5435
398.196	14.5663
401.57	8.10229
404.945	2.39441
408.32	3.64356
411.695	2.87268
415.07	3.60339
418.445	2.32837
421.819	8.09729
425.194	11.9752
428.569	23.4241
431.944	40.5944
435.319	61.9487
438.693	81.3505
442.068	85.8442
445.443	96.3965
448.818	109.035
452.193	119.824
455.567	99.1754
458.942	79.6749
462.317	62.6188
465.692	40.6406
469.067	28.2119
472.442	18.9558
475.816	10.28
479.191	5.4342
482.566	2.14294
485.941	1.92993
489.316	5.24841
492.69	2.22144
496.065	0.323975
499.44	0.472229
502.815	1.88989
506.19	1.48749
509.565	4.29498
512.939	9.10901
516.314	11.8712
519.689	19.5652
523.064	29.3686
526.439	44.8186
529.813	57.4275
533.188	81.9
536.563	101.425
539.938	108.936
543.313	83.7656
546.688	62.5694
550.062	42.6911
553.437	35.1622
556.812	27.6467
560.187	31.0614
563.562	25.5909
566.936	22.5553
570.311	18.0308
573.686	13.7257
577.061	10.4968
580.436	5.58765
583.811	0.140747
587.185	3.08472
590.56	3.29224
593.935	0.799072
597.31	3.32605
600.685	9.23608
604.059	19.5151
607.434	21.2843
610.809	25.5538
614.184	27.92
617.559	29.5864
620.933	28.6551
624.308	20.3674
627.683	14.3571
631.058	10.7278
634.433	13.5647
637.808	10.2916
641.182	7.61438
644.557	8.25415
647.932	2.21191
651.307	0.331665
654.682	0.612671
658.056	7.58618
661.431	13.314
664.806	9.81335
668.181	13.3481
671.556	17.1559
674.931	21.0648
678.305	29.2661
681.68	31.2712
685.055	40.3457
688.43	48.2683
691.805	51.3436
695.179	53.0955
698.554	60.365
701.929	71.6304
705.304	70.6964
708.679	71.5669
712.053	77.7481
715.428	76.8151
718.803	74.3035
722.178	72.833
725.553	70.5494
728.928	63.3451
732.302	54.8586
735.677	51.6326
739.052	42.3516
742.427	38.4091
745.802	33.7653
749.176	27.2173
752.551	30.2771
755.926	22.7816
759.301	24.6641
762.676	32.4973
766.051	30.3035
769.425	20.6555
772.8	16.8046
776.175	5.10419
779.55	0.605713
782.925	2.60773
786.299	7.01587
789.674	4.59607
793.049	2.40155
796.424	1.521
799.799	4.34015
803.173	2.8291
806.548	6.56421
809.923	4.77411
813.298	2.12622
816.673	2.98773
820.048	8.96234
823.422	8.15961
826.797	8.9046
830.172	3.11444
833.547	3.98114
836.922	5.90295
840.296	3.31366
843.671	9.0282
847.046	6.13757
850.421	7.92731
853.796	5.73968
857.17	1.33197
860.545	7.53473
863.92	5.80371
867.295	6.94879
870.67	5.32593
874.044	6.62445
877.419	7.43726
880.794	7.61322
884.169	10.0096
887.544	10.0614
890.919	7.09003
894.293	11.5226
897.668	7.88837
901.043	7.37775
904.418	9.41022
907.793	10.415
911.168	10.7263
914.542	7.85065
917.917	8.52173
921.292	3.75055
924.667	6.4198
928.042	4.45837
931.416	3.72699
934.791	1.61267
938.166	0.829773
941.541	1.84479
944.916	0.413696
948.29	0.582703
951.665	2.35516
955.04	3.19739
958.415	7.54004
961.79	15.683
965.164	22.0274
968.539	36.5828
971.914	56.2814
975.289	88.741
978.664	142.311
982.039	188.693
985.413	233.221
988.788	303.283
992.163	261.677
995.538	184.705
998.913	126.486
1002.29	86.637
1005.66	54.0189
1009.04	33.8388
1012.41	19.2081
1015.79	17.139
1019.16	10.1426
1022.54	14.0781
1025.91	11.5401
1029.29	4.30371
1032.66	0.536072
1036.04	4.15735
1039.41	0.73999
1042.79	1.5257
1046.16	3.70648
1049.54	1.69751
1052.91	3.58026
1056.29	0.732117
1059.66	6.31708
1063.03	2.7456
1066.41	4.88196
1069.78	4.13763
1073.16	0.526062
1076.53	3.8598
1079.91	0.137146
1083.28	1.35333
1086.66	5.9881
1090.03	8.13373
1093.41	5.92212
1096.78	5.78998
1100.16	2.64685
1103.53	8.89893
1106.91	9.82452
1110.28	14.1956
1113.66	4.66534
1117.03	8.15558
1120.41	1.72253
1123.78	7.99658
1127.16	9.10236
1130.53	4.56415
1133.9	2.22906
1137.28	3.80322
1140.65	4.33899
1144.03	1.76929
1147.4	6.96887
1150.78	4.67212
1154.15	13.6415
1157.53	13.8447
1160.9	17.3147
1164.28	26.8186
1167.65	29.5775
1171.03	27.7323
1174.4	28.6805
1177.78	32.0144
1181.15	26.39
1184.53	18.2971
1187.9	14.7063
1191.28	16.3511
1194.65	15.628
1198.03	12.7744
1201.4	7.44299
1204.78	7.83716
1208.15	9.02563
1211.53	11.9759
1214.9	5.01428
1218.28	1.94605
1221.65	5.42615
1225.03	6.84143
1228.4	1.495
1231.78	1.70239
1235.15	10.5446
1238.53	11.2916
1241.9	9.95544
1245.27	17.3744
1248.65	14.637
1252.02	16.7247
1255.4	14.9355
1258.77	10.6594
1262.15	9.53955
1265.52	0.904785
1268.9	1.3512
1272.27	4.46606
1275.65	3.34778
1279.02	1.25012
1282.4	2.8081
