Measurement: Raman, 532 nm, unoriented, Raman Data Processed
Mineral: Afghanite
Rruff sample: R060422
Ideal chemistry: Na_22_Ca_10_(Si_24_Al_24_)O_96_(SO_4_)_6_Cl_6_
Locality: Kokscha Valley, Badakshan Province, Afghanistan
Source: Herb Obodda
Description: Blue hexagonal prism with pyramidal termination
Measured chemistry: (Na_19.94_K_2.06_)_Î£=22_Ca_10.00_[Si_24.00_Al_24.00_O_96_](S_1.00_O_4_)_6_Cl_6.00_
Raman shift (cm-1)	intensity
175.406	0
178.298	2.86554
181.191	3.10202
184.084	4.60275
186.976	11.8496
189.869	18.3524
192.762	25.3648
195.655	24.5377
198.547	28.4776
201.44	30.5243
204.333	32.5001
207.225	31.8664
210.118	21.8879
213.011	18.3263
215.904	10.4053
218.796	5.80066
221.689	6.24139
224.582	0.027679
227.474	0.194702
230.367	2.66855
233.26	0.87262
236.152	1.11346
239.045	8.46939
241.938	10.5997
244.831	18.9265
247.723	22.9601
250.616	34.5425
253.509	37.766
256.401	48.5352
259.294	52.4759
262.187	50.6527
265.079	51.0139
267.972	42.2825
270.865	39.6188
273.758	36.605
276.65	32.4532
279.543	27.3992
282.436	24.6109
285.328	22.8583
288.221	16.0649
291.114	10.8822
294.007	6.38736
296.899	1.31107
299.792	5.43686
302.685	3.24005
305.577	5.85071
308.47	1.76929
311.363	2.01071
314.255	0.856964
317.148	5.64221
320.041	13.2463
322.933	5.85822
325.826	16.7967
328.719	19.0957
331.612	23.4924
334.504	24.4057
337.397	20.4532
340.29	18.3175
343.183	16.8799
346.075	12.4573
348.968	11.363
351.861	8.77612
354.753	7.80926
357.646	9.90863
360.539	4.13751
363.431	4.88699
366.324	3.83975
369.217	0.554169
372.11	1.65009
375.002	0.748505
377.895	1.19858
380.788	0.133179
383.68	0.104279
386.573	0.816772
389.466	6.21497
392.358	4.52008
395.251	1.08948
398.144	6.54477
401.036	7.84531
403.929	9.20096
406.822	12.2584
409.715	16.7292
412.607	27.8595
415.5	31.4745
418.393	38.6982
421.285	51.1624
424.178	64.5133
427.071	74.4824
429.964	81.1254
432.856	90.9867
435.749	111.521
438.642	133.215
441.534	156.709
444.427	179.416
447.32	202.283
450.212	226.874
453.105	232.638
455.998	210.66
458.891	185.967
461.783	155.064
464.676	124.678
467.569	92.5582
470.461	66.3836
473.354	47.0187
476.247	31.4919
479.139	21.1384
482.032	10.7733
484.925	3.90421
487.818	2.29767
490.71	0.207092
493.603	0.062897
496.496	4.87775
499.388	2.74921
502.281	0.424072
505.174	2.27072
508.067	7.21289
510.959	19.1593
513.852	39.0869
516.745	61.2707
519.637	91.9203
522.53	139.743
525.423	211.019
528.316	308.052
531.208	436.187
534.101	600.811
536.994	766.607
539.886	869.198
542.779	848.318
545.672	674.208
548.564	436.992
551.457	254.425
554.35	157.558
557.242	104.285
560.135	77.1166
563.028	64.9818
565.921	57.8362
568.813	61.4686
571.706	64.7275
574.599	75.0632
577.491	77.4904
580.384	70.7651
583.277	59.42
586.17	50.0812
589.062	35.3312
591.955	20.7561
594.848	9.63818
597.74	2.56403
600.633	0.30835
603.526	1.25458
606.418	3.53442
609.311	11.7736
612.204	19.6741
615.097	18.8805
617.989	23.2139
620.882	19.8142
623.775	25.134
626.667	20.7753
629.56	21.8193
632.453	19.7596
635.346	19.4327
638.238	23.2309
641.131	23.5892
644.024	26.3134
646.916	24.012
649.809	9.4931
652.702	5.84503
655.594	7.14056
658.487	7.44849
661.38	4.05695
664.273	8.02924
667.165	3.55182
670.058	1.13769
672.951	0.566284
675.843	2.16199
678.736	0.380676
681.629	1.7475
684.521	2.05597
687.414	0.285522
690.307	2.77094
693.199	2.10675
696.092	1.54242
698.985	1.15112
701.878	1.95447
704.77	1.44409
707.663	5.46533
710.556	4.94617
713.448	3.1153
716.341	3.87042
719.234	1.78503
722.127	1.16254
725.019	1.96643
727.912	0.925903
730.805	1.03174
733.697	3.69824
736.59	3.41687
739.483	4.98926
742.375	2.3288
745.268	2.59369
748.161	1.92749
751.054	4.60956
753.946	6.86169
756.839	10.9435
759.732	17.2894
762.625	23.8667
765.517	30.7001
768.41	40.1078
771.303	29.451
774.195	18.3829
777.088	14.3521
779.981	12.1052
782.873	12.1585
785.766	9.71252
788.659	9.91101
791.552	15.3492
794.444	13.293
797.337	12.5645
800.23	17.1604
803.122	16.6901
806.015	14.0172
808.908	16.7454
811.8	15.3322
814.693	16.0566
817.586	13.2191
820.479	15.4799
823.371	12.8271
826.264	8.20087
829.157	8.53088
832.049	8.46973
834.942	4.81256
837.835	1.50555
840.727	4.06024
843.62	5.36328
846.513	4.68536
849.405	1.31097
852.298	3.18201
855.191	3.26117
858.084	0.663635
860.976	1.51099
863.869	1.16833
866.762	3.09387
869.654	4.36688
872.547	5.70947
875.44	2.93958
878.333	4.95447
881.225	4.20026
884.118	3.34345
887.011	6.69244
889.903	2.22479
892.796	3.06537
895.689	3.54443
898.582	4.60346
901.474	4.23761
904.367	9.32056
907.26	7.1546
910.152	5.31403
913.045	3.50842
915.938	4.43451
918.83	5.62256
921.723	4.22321
924.616	3.62482
927.509	1.96967
930.401	1.8739
933.294	5.50391
936.187	3.25806
939.079	2.78052
941.972	0.294373
944.865	0.450012
947.757	1.68219
950.65	3.07739
953.543	3.53906
956.436	4.75641
959.328	8.34485
962.221	12.5475
965.114	27.0217
968.006	40.7209
970.899	61.6746
973.792	107.55
976.684	164.263
979.577	255.438
982.47	345.944
985.362	437.92
988.255	569.74
991.148	654.091
994.041	516.05
996.933	381.26
999.826	293.046
1002.72	210.198
1005.61	148.751
1008.5	93.6984
1011.4	58.0055
1014.29	37.8412
1017.18	28.0245
1020.08	28.0183
1022.97	23.2197
1025.86	15.6451
1028.75	14.8088
1031.65	6.56714
1034.54	2.289
1037.43	3.28534
1040.32	4.90521
1043.22	3.15131
1046.11	1.15704
1049	5.51782
1051.89	17.4838
1054.79	25.8118
1057.68	38.2269
1060.57	52.4644
1063.47	72.1968
1066.36	88.4854
1069.25	107.036
1072.14	125.338
1075.04	142.978
1077.93	152.345
1080.82	155.942
1083.71	153.322
1086.61	144.317
1089.5	133.849
1092.39	115.52
1095.29	101.237
1098.18	82.4221
1101.07	69.5314
1103.96	63.7427
1106.86	56.777
1109.75	54.7325
1112.64	50.9374
1115.53	45.1557
1118.43	41.8218
1121.32	36.7366
1124.21	32.9395
1127.11	25.8232
1130	24.2076
1132.89	21.1355
1135.78	17.1666
1138.68	11.9633
1141.57	15.947
1144.46	11.2864
1147.35	8.33874
1150.25	12.8872
1153.14	11.5281
1156.03	13.9352
1158.92	10.7992
1161.82	8.93372
1164.71	11.1621
1167.6	9.3396
1170.5	1.61304
1173.39	4.49475
1176.28	6.32886
1179.17	0.379517
1182.07	6.79724
1184.96	3.25635
1187.85	1.99439
1190.74	0.269043
1193.64	2.17542
1196.53	2.92603
1199.42	2.64856
1202.32	3.21692
1205.21	0.079102
1208.1	4.33814
1210.99	0.86438
1213.89	3.89575
1216.78	7.8949
1219.67	2.30261
1222.56	3.86475
1225.46	5.72729
1228.35	2.72205
1231.24	5.47473
1234.13	1.65198
1237.03	2.71435
1239.92	1.64563
1242.81	4.39807
1245.71	6.14526
1248.6	5.21802
1251.49	6.6958
1254.38	7.11231
1257.28	6.95227
1260.17	8.86487
1263.06	7.67835
1265.95	5.88074
1268.85	10.6152
1271.74	10.3099
1274.63	12.072
1277.53	2.47278
1280.42	4.0686
1283.31	4.25354
1286.2	3.85608
1289.1	6.80566
1291.99	3.38672
1294.88	4.38599
1297.78	0.298096
1300.67	1.26953
