Measurement: Raman, 532 nm, unoriented, Raman Data Processed
Mineral: Afwillite
Rruff sample: R080022
Ideal chemistry: Ca_3_(SiO_4_)(SiO_2_(OH)_2_)2H_2_O
Locality: Crestmore Quarry, Riverside County, Jurupa Mountains, California, USA
Source: Michael Scott
Description: Colorless, prismatic and elongated crystals associated with colorless fibers of thaumasite, R060814
Measured chemistry: Ca_3.00_(Si_1.00_O_3_)_2_(OH)_2_Â·2H_2_O; trace amounts of Fe, Al, Cr; OH estimated by charge balance; H_2_O by difference;
Raman shift (cm-1)	intensity
142.582	0
145.957	3.76144
149.332	2.57233
152.707	1.13356
156.081	3.72836
159.456	13.1248
162.831	18.8799
166.206	7.18485
169.581	6.46886
172.956	14.816
176.33	13.6374
179.705	0.08844
183.08	2.02167
186.455	4.65095
189.83	9.6592
193.204	9.52
196.579	6.85275
199.954	11.9712
203.329	16.0879
206.704	9.43904
210.078	12.547
213.453	20.6446
216.828	27.8864
220.203	35.0083
223.578	44.7182
226.952	55.1989
230.327	50.5058
233.702	44.6694
237.077	37.3356
240.452	34.2642
243.827	25.2815
247.201	21.1641
250.576	19.7017
253.951	21.1907
257.326	19.3755
260.701	15.0696
264.075	5.524
267.45	1.94504
270.825	1.00562
274.2	3.4403
277.575	8.18766
280.95	11.5098
284.324	11.1946
287.699	11.915
291.074	10.6177
294.449	5.63973
297.824	1.3296
301.199	0.21769
304.573	0.304558
307.948	0.045273
311.323	1.04845
314.698	0.110558
318.073	1.29121
321.447	4.3437
324.822	6.87579
328.197	6.34545
331.572	3.8112
334.947	2.33841
338.322	0.765404
341.696	1.75127
345.071	2.64112
348.446	3.0765
351.821	3.53952
355.196	4.27746
358.57	0.831985
361.945	0.431854
365.32	0.228767
368.695	0.263344
372.07	0.408653
375.445	2.38729
378.819	4.89027
382.194	8.44826
385.569	12.2864
388.944	16.2518
392.318	20.8073
395.693	22.9098
399.068	26.2917
402.443	30.5552
405.818	36.8261
409.193	45.5972
412.567	51.9057
415.942	49.9666
419.317	39.252
422.692	26.7936
426.067	16.8795
429.442	8.31784
432.816	3.09973
436.191	0.039452
439.566	0.975586
442.941	0.171257
446.316	0.59903
449.69	1.3427
453.065	4.94508
456.44	7.77991
459.815	9.5513
463.19	8.57035
466.565	9.60815
469.939	9.56712
473.314	8.66786
476.689	6.44182
480.064	6.73617
483.439	7.61754
486.813	11.0184
490.188	14.6376
493.563	18.4571
496.938	22.8739
500.313	27.0903
503.688	26.9538
507.062	24.8972
510.437	23.2824
513.812	25.832
517.187	27.6931
520.562	31.2711
523.936	28.0978
527.311	21.1589
530.686	15.3966
534.061	11.045
537.436	6.42574
540.81	2.43766
544.185	1.85004
547.56	0.468269
550.935	0.221191
554.31	0.084183
557.684	0.313889
561.059	0.524666
564.434	0.707703
567.809	0.232887
571.184	0.667641
574.559	0.466331
577.933	0.421997
581.308	0.541107
584.683	0.113144
588.058	0.472137
591.433	1.40617
594.808	2.0187
598.182	1.74642
601.557	3.10981
604.932	3.51614
608.307	4.48919
611.682	6.14448
615.056	6.10024
618.431	6.7145
621.806	6.84251
625.181	4.96646
628.556	4.55518
631.931	5.44065
635.305	5.13402
638.68	6.33366
642.055	6.93595
645.43	7.76279
648.805	6.42708
652.179	6.39387
655.554	7.99336
658.929	11.5475
662.304	15.4793
665.679	18.0324
669.053	17.7045
672.428	14.8185
675.803	11.3044
679.178	7.96233
682.553	6.49464
685.928	5.32937
689.302	4.97347
692.677	5.22665
696.052	4.36282
699.427	4.94438
702.802	4.73757
706.177	3.30719
709.551	2.55931
712.926	2.23491
716.301	2.78925
719.676	1.34302
723.051	1.4304
726.425	1.76605
729.8	0.245789
733.175	0.113205
736.55	0.668678
739.925	0.689247
743.299	1.19779
746.674	1.2889
750.049	0.118019
753.424	0.145798
756.799	0.568024
760.173	1.53909
763.548	4.10926
766.923	8.24596
770.298	12.1951
773.673	16.516
777.048	25.9958
780.422	35.4637
783.797	47.8298
787.172	53.2494
790.547	39.0812
793.922	24.8136
797.296	16.1835
800.671	14.8117
804.046	21.0374
807.421	31.9078
810.796	50.0294
814.17	72.9837
817.545	97.3739
820.92	106.956
824.295	88.1288
827.67	53.3641
831.045	25.034
834.419	12.1087
837.794	5.19603
841.169	1.16272
844.544	1.85577
847.919	5.01858
851.293	10.4234
854.668	16.0553
858.043	21.5149
861.418	28.999
864.793	36.1784
868.168	44.9537
871.542	54.5924
874.917	60.454
878.292	61.5898
881.667	58.81
885.042	53.4226
888.417	42.192
891.791	30.6021
895.166	16.9606
898.541	6.8398
901.916	0.356583
905.291	1.30953
908.665	0.58223
912.04	0.616135
915.415	2.43802
918.79	6.99486
922.165	12.8294
925.539	20.6066
928.914	18.7709
932.289	14.4282
935.664	14.0359
939.039	15.4774
942.414	22.24
945.788	30.9783
949.163	31.9924
952.538	35.3552
955.913	40.5395
959.288	31.678
962.662	34.6085
966.037	27.4204
969.412	15.3343
972.787	7.56228
976.162	2.42616
979.537	0.289749
982.911	0.116745
986.286	1.19197
989.661	0.402618
993.036	0.093224
996.411	0.861984
999.785	2.00208
1003.16	1.7242
1006.53	1.30093
1009.91	2.61417
1013.28	2.58735
1016.66	3.6277
1020.03	4.42122
1023.41	5.16381
1026.78	5.2235
1030.16	6.4223
1033.53	6.61437
1036.91	5.11864
1040.28	5.27729
1043.66	4.15247
1047.03	4.10731
1050.41	3.88755
1053.78	3.18213
1057.16	3.3758
1060.53	4.45662
1063.91	2.84756
1067.28	3.22197
1070.66	2.33852
1074.03	3.27669
1077.41	3.43295
1080.78	2.13256
1084.16	2.18086
1087.53	3.24215
1090.9	1.16138
1094.28	2.21677
1097.65	0.92643
1101.03	3.67099
1104.4	1.8535
1107.78	1.34267
1111.15	3.12647
1114.53	2.89452
1117.9	1.07154
1121.28	1.23152
1124.65	1.32444
1128.03	0.54155
1131.4	0.654175
1134.78	0.567093
1138.15	0.207626
1141.53	0.26281
1144.9	0.835625
1148.28	0.220741
1151.65	1.17194
1155.03	0.3601
1158.4	0.957451
1161.78	0.891685
1165.15	1.40272
1168.53	1.17081
1171.9	0.714706
1175.28	0.295334
1178.65	1.18983
1182.03	0.803276
1185.4	0.183334
1188.78	1.69403
1192.15	0.362663
1195.53	0.340126
1198.9	1.24788
1202.27	0.361954
1205.65	1.09819
1209.02	0.092255
1212.4	0.091576
1215.77	1.16054
1219.15	1.93598
1222.52	0.959679
1225.9	1.10697
1229.27	1.59846
1232.65	0.311234
1236.02	0.098099
1239.4	0.207108
1242.77	0.872711
1246.15	0.437767
1249.52	1.58566
1252.9	0.566666
1256.27	0.732208
1259.65	0.293182
1263.02	1.61747
1266.4	0.708405
1269.77	0.392883
1273.15	0.632011
1276.52	0.879692
1279.89	0.447197
1283.27	1.14817
1286.64	1.07111
1290.02	1.23456
1293.39	0.317871
1296.77	0.719841
1300.14	0.323212
1303.52	0.432076
