Measurement: Raman, 532 nm, unoriented, Raman Data Processed
Mineral: Afwillite
Rruff sample: R141097
Ideal chemistry: Ca_3_(SiO_4_)(SiO_2_(OH)_2_)2H_2_O
Locality: Caspar quarry, Bellerberg volcano, Mayen, Eifel, Germany
Source: Ch. and H. Sch√§fer
Description: Spherical aggregate of radiating colorless crystals
Raman shift (cm-1)	intensity
89.7832	0
93.158	47.2602
96.5328	32.4392
99.9077	27.7023
103.282	1.9245
106.657	6.10181
110.032	31.5169
113.407	43.2418
116.782	107.963
120.157	136.736
123.531	170.88
126.906	149.958
130.281	108.457
133.656	120.288
137.031	113.28
140.405	94.3211
143.78	43.0861
147.155	43.6162
150.53	48.4388
153.905	44.1903
157.28	41.582
160.654	37.3718
164.029	43.5178
167.404	34.1118
170.779	48.602
174.154	76.9288
177.528	66.7814
180.903	23.7952
184.278	4.21668
187.653	0.819824
191.028	20.4441
194.403	23.7796
197.777	17.9098
201.152	30.9938
204.527	39.6906
207.902	26.5393
211.277	32.5568
214.651	66.0875
218.026	104.69
221.401	146.272
224.776	205.83
228.151	258.621
231.525	244.041
234.9	198.929
238.275	169.01
241.65	132.615
245.025	86.0892
248.4	69.1177
251.774	71.1852
255.149	65.6229
258.524	53.8344
261.899	34.6414
265.274	8.1178
268.649	8.53833
272.023	1.8075
275.398	25.2916
278.773	64.1978
282.148	97.7974
285.523	122.194
288.897	121.676
292.272	94.9531
295.647	60.0054
299.022	24.5328
302.397	18.2882
305.772	8.00494
309.146	6.15967
312.521	2.25922
315.896	4.71503
319.271	7.76611
322.646	20.1227
326.02	31.5963
329.395	31.8959
332.77	25.4944
336.145	18.3904
339.52	8.5896
342.894	2.30743
346.269	2.91303
349.644	2.35101
353.019	1.9342
356.394	1.7381
359.769	2.30572
363.143	8.96344
366.518	17.918
369.893	23.5489
373.268	40.3988
376.643	61.0095
380.017	97.4764
383.392	144.284
386.767	193.452
390.142	250.351
393.517	300.129
396.892	338.793
400.266	345.827
403.641	324.377
407.016	289.912
410.391	272.466
413.766	253.342
417.14	218.079
420.515	168.665
423.89	116.285
427.265	73.706
430.64	36.9
434.014	13.5026
437.389	0.44342
440.764	4.67761
444.139	1.96558
447.514	0.004639
450.889	11.9905
454.263	34.9976
457.638	65.2982
461.013	78.8728
464.388	89.6807
467.763	98.0173
471.137	108.123
474.512	98.4587
477.887	88.6605
481.262	97.073
484.637	132.467
488.012	120.215
491.386	126.224
494.761	136.565
498.136	144.626
501.511	157.782
504.886	166.247
508.26	171.584
511.635	188.477
515.01	225.397
518.385	260.714
521.76	280.976
525.135	267.366
528.509	211.626
531.884	165.067
535.259	123.429
538.634	82.2078
542.009	52.1985
545.384	33.051
548.758	13.2909
552.133	9.85706
555.508	0.551147
558.883	6.72388
562.258	0.560303
565.632	2.56628
569.007	4.27631
572.382	2.1698
575.757	2.03833
579.132	4.55737
582.506	4.58173
585.881	8.87109
589.256	8.24725
592.631	9.22089
596.006	14.1162
599.381	16.2757
602.755	20.4312
606.13	24.2295
609.505	31.0981
612.88	35.6544
616.255	39.5249
619.63	38.4224
623.004	43.2527
626.379	46.8344
629.754	42.3315
633.129	42.2229
636.504	32.9471
639.878	34.0476
643.253	32.3035
646.628	29.2419
650.003	28.9273
653.378	27.9039
656.752	27.2103
660.127	26.0552
663.502	24.6197
666.877	31.9573
670.252	30.9571
673.626	34.4683
677.001	31.1059
680.376	29.5168
683.751	33.644
687.126	34.7525
690.501	32.8505
693.875	29.595
697.25	28.4036
700.625	23.8994
704	22.2398
707.375	18.584
710.75	16.8746
714.124	13.2195
717.499	12.3816
720.874	5.75293
724.249	3.29578
727.624	2.14282
730.998	2.83862
734.373	6.09949
737.748	2.60608
741.123	11.8636
744.498	3.8916
747.872	3.81055
751.247	2.58106
754.622	4.49341
757.997	12.1798
761.372	23.6217
764.747	53.3683
768.121	79.8718
771.496	123.038
774.871	177.672
778.246	230.169
781.621	273.473
784.995	295.62
788.37	278.441
791.745	228.896
795.12	181.3
798.495	155.478
801.87	172.048
805.244	212.324
808.619	278.433
811.994	357.562
815.369	434.268
818.744	472.901
822.119	443.674
825.493	347.822
828.868	267.897
832.243	219.12
835.618	215.093
838.993	243.317
842.367	306.821
845.742	406.372
849.117	526.472
852.492	649.936
855.867	747
859.241	766.465
862.616	717.964
865.991	627.618
869.366	522.44
872.741	425.832
876.115	344.966
879.49	274.365
882.865	210.155
886.24	152.577
889.615	110.618
892.99	59.6461
896.364	20.0848
899.739	0.506104
903.114	7.2832
906.489	11.6156
909.864	8.55652
913.239	4.12524
916.613	6.23413
919.988	9.01892
923.363	6.8584
926.738	3.37781
930.113	2.64478
933.487	3.53369
936.862	8.47046
940.237	9.59375
943.612	3.1106
946.987	1.6322
950.361	21.5181
953.736	44.9202
957.111	64.306
960.486	89.7699
963.861	110.88
967.236	101.215
970.61	68.4452
973.985	46.0555
977.36	29.1129
980.735	28.137
984.11	24.8435
987.485	44.5443
990.859	43.2353
994.234	32.4065
997.609	21.8516
1000.98	26.153
1004.36	31.0979
1007.73	51.2056
1011.11	40.3281
1014.48	21.3152
1017.86	7.90674
1021.23	3.75147
1024.61	1.77539
1027.98	6.55847
1031.36	1.88294
1034.73	3.20166
1038.11	10.5298
1041.48	7.97473
1044.86	7.25391
1048.23	6.87695
1051.61	12.8868
1054.98	11.7921
1058.36	9.40881
1061.73	15.8188
1065.11	20.3311
1068.48	22.2141
1071.86	24.896
1075.23	32.2632
1078.6	37.1449
1081.98	48.9271
1085.35	76.0278
1088.73	69.8084
1092.1	39.8552
1095.48	19.4179
1098.85	7.26648
1102.23	3.17944
1105.6	2.28076
1108.98	5.64734
1112.35	6.90125
1115.73	4.00049
1119.1	1.88318
1122.48	4.66284
1125.85	4.24561
1129.23	1.30945
1132.6	0.139404
1135.98	7.97852
1139.35	4.51221
1142.73	2.48096
1146.1	3.07922
1149.48	2.77515
1152.85	1.98291
1156.22	3.93897
1159.6	3.64978
1162.97	3.1781
1166.35	1.54358
1169.72	5.25793
1173.1	3.21228
1176.47	7.26733
1179.85	4.93652
1183.22	9.72485
1186.6	9.17419
1189.97	8.05041
1193.35	7.45203
1196.72	3.26343
1200.1	1.22852
1203.47	0.180542
1206.85	6.92261
1210.22	5.34448
1213.6	3.70386
1216.97	3.48535
1220.35	3.41333
1223.72	8.04932
1227.1	2.29016
1230.47	1.23364
1233.85	2.51892
1237.22	4.58984
1240.6	0.77063
1243.97	4.37732
1247.35	3.1698
1250.72	5.57825
1254.1	6.89722
1257.47	9.38245
1260.85	8.70532
1264.22	5.92432
1267.59	5.40552
1270.97	5.63501
1274.34	4.70142
1277.72	8.06177
1281.09	9.71497
1284.47	6.97803
1287.84	4.70642
1291.22	6.74011
1294.59	7.55212
1297.97	3.23059
1301.34	0.242676
