Measurement: Raman, 532 nm, unoriented, Raman Data Processed
Mineral: Afwillite
Rruff sample: R070296
Ideal chemistry: Ca_3_(SiO_4_)(SiO_2_(OH)_2_)2H_2_O
Locality: Hatrurim Formation, Negev Desert, West of Dead Sea, southern Israel
Source: Michael Scott
Description: Colorless bladed crystals, associated with yellow ettringite, R070208.
Measured chemistry: Ca_3.00_(Si_1.00_O_3_)_2_(OH)_2_Â·2H_2_O; trace amounts of Al. OH by charge balance; H_2_O by difference
Raman shift (cm-1)	intensity
167.018	0
169.911	190.872
172.803	273.16
175.696	369.436
178.589	201.312
181.482	65.1279
184.374	12.5322
187.267	59.6294
190.16	154.291
193.052	147.42
195.945	92.3242
198.838	61.2886
201.731	25.5625
204.623	140.7
207.516	172.859
210.409	168.147
213.301	144.28
216.194	236.458
219.087	326.79
221.979	391.781
224.872	490.884
227.765	650.925
230.657	775.545
233.55	914.469
236.443	790.551
239.336	667.472
242.228	492.491
245.121	279.881
248.014	309.75
250.906	437.744
253.799	473.693
256.692	486.025
259.584	405.82
262.477	232.981
265.37	37.7402
268.263	58.1885
271.155	17.0122
274.048	241.41
276.941	626.192
279.833	1009.61
282.726	1459.06
285.619	1536.13
288.512	1430.8
291.404	1066.69
294.297	697.384
297.19	446.853
300.082	333.117
302.975	315.107
305.868	290.464
308.76	332.261
311.653	282.54
314.546	260.796
317.438	298.291
320.331	467.008
323.224	618.431
326.117	749.496
329.009	798.773
331.902	649.812
334.795	575.957
337.687	409.265
340.58	305.109
343.473	216.095
346.365	92.7275
349.258	29.417
352.151	33.623
355.044	19.4258
357.936	50.0986
360.829	51.2607
363.722	109.641
366.614	155.763
369.507	277.411
372.4	475.571
375.293	697.255
378.185	972.409
381.078	1474.58
383.971	2056.21
386.863	2747.71
389.756	3627.77
392.649	4315.88
395.541	4683.25
398.434	4638.01
401.327	4135.73
404.219	3394.46
407.112	2693.95
410.005	2112.3
412.898	1587.65
415.79	1111.8
418.683	853.839
421.576	572.568
424.469	412.691
427.361	247.97
430.254	128.949
433.147	72.8662
436.039	5.28027
438.932	1.58301
441.825	8.61621
444.717	21.666
447.61	73.9844
450.503	126.121
453.396	305.928
456.288	334.185
459.181	535.846
462.074	630.505
464.966	728.689
467.859	913.506
470.752	1127.86
473.644	1044.72
476.537	1029.12
479.43	875.572
482.322	809.396
485.215	840.138
488.108	681.847
491.001	722.32
493.893	797.819
496.786	726.499
499.679	666.037
502.571	611.962
505.464	629.161
508.357	587.871
511.25	796.381
514.142	1030.5
517.035	1223.88
519.928	1437.14
522.82	1623.88
525.713	1548.68
528.606	1438.17
531.498	1315.26
534.391	1126.18
537.284	864.489
540.177	580.072
543.069	372.144
545.962	192.334
548.855	166.352
551.747	16.6523
554.64	52.8506
557.533	6.37598
560.425	5.00586
563.318	11.5303
566.211	7.29102
569.104	18.6641
571.996	46.4424
574.889	25.9277
577.782	12.7676
580.674	80.6387
583.567	40.8369
586.46	25.8779
589.352	59.8779
592.245	126.473
595.138	83.7363
598.031	79.0478
600.923	150.723
603.816	174.581
606.709	127.622
609.601	245.68
612.494	251.717
615.387	305.117
618.279	330.027
621.172	298.746
624.065	321.322
626.958	324.207
629.85	337.351
632.743	299.438
635.636	286.426
638.528	236.851
641.421	270.002
644.314	262.802
647.207	289.78
650.099	179.213
652.992	237.476
655.885	217.303
658.777	328.422
661.67	250.065
664.563	219.169
667.455	200.908
670.348	238.207
673.241	258.789
676.134	157.284
679.026	296.557
681.919	212.65
684.812	217.393
687.704	175.724
690.597	158.98
693.49	260.946
696.382	161.154
699.275	332.506
702.168	97.9141
705.061	107.119
707.953	76.7773
710.846	51.4424
713.739	93.4443
716.631	17.2188
719.524	50.5967
722.417	5.91602
725.309	41.4316
728.202	22.1465
731.095	23.9727
733.987	57.7178
736.88	55.499
739.773	33.8477
742.666	70.6777
745.558	79.3926
748.451	52.2148
751.344	78.3926
754.236	114.117
757.129	320.28
760.022	351.552
762.915	599.138
765.807	913.263
768.7	1191.53
771.593	1486.63
774.485	1813.7
777.378	2141.7
780.271	2143.78
783.163	2095.63
786.056	1769.83
788.949	1329.09
791.842	1100.38
794.734	873.2
797.627	860.57
800.52	941.923
803.412	1121.34
806.305	1347.07
809.198	1551
812.091	1685.06
814.983	1572.04
817.876	1488.55
820.769	1430.08
823.661	1355.03
826.554	1467.27
829.447	1501.37
832.339	1847.47
835.232	2435.27
838.125	3013.62
841.018	4071.57
843.91	5415.92
846.803	6976.11
849.696	8646.55
852.588	9616.36
855.481	9798.53
858.374	8580.79
861.266	6812.19
864.159	5006.13
867.052	3695.89
869.944	2719
872.837	1962.09
875.73	1441.96
878.623	1037.2
881.515	772.186
884.408	627.394
887.301	257.776
890.193	103.974
893.086	79.0928
895.979	75.9023
898.871	112.769
901.764	44.4463
904.657	15.123
907.55	12.9678
910.442	46.5244
913.335	37.4736
916.228	52.6435
919.12	59.2861
922.013	41.6963
924.906	162.719
927.798	99.6211
930.691	4.97168
933.584	12.0059
936.477	34.127
939.369	13.1318
942.262	89.7949
945.155	123.346
948.047	318.533
950.94	598.493
953.833	1056.94
956.726	1535.09
959.618	1999.26
962.511	2363.64
965.404	2133.16
968.296	1456.62
971.189	847.096
974.082	517.367
976.974	313.962
979.867	160.394
982.76	144.61
985.653	103.582
988.545	167.24
991.438	156
994.331	213.44
997.223	309.455
1000.12	282.808
1003.01	348.875
1005.9	254.071
1008.79	175.507
1011.69	78.71
1014.58	9.70215
1017.47	38.4502
1020.37	9.94824
1023.26	81.4844
1026.15	70.9873
1029.04	13.2773
1031.94	90.1318
1034.83	30.04
1037.72	139.7
1040.61	4.95312
1043.51	12.5869
1046.4	28.998
1049.29	1.67676
1052.18	38.791
1055.08	96.7295
1057.97	36.3828
1060.86	171.889
1063.76	174.605
1066.65	116.068
1069.54	96.8955
1072.43	149.43
1075.33	77.0332
1078.22	127.454
1081.11	18.0498
1084	104.15
1086.9	115.811
1089.79	146.898
1092.68	145.953
1095.58	43.2617
1098.47	178.58
1101.36	95.2852
1104.25	78.8516
1107.15	94.2539
1110.04	84.3731
1112.93	42.6602
1115.82	102.266
1118.72	143.359
1121.61	61.8848
1124.5	105.764
1127.39	92.8144
1130.29	25.3398
1133.18	96.7871
1136.07	48.9785
1138.97	52.709
1141.86	92.1758
1144.75	46.4414
1147.64	155.754
1150.54	66.4102
1153.43	95.1602
1156.32	139.356
1159.21	13.873
1162.11	108.416
1165	106.836
1167.89	97.8457
1170.79	56.0664
1173.68	145.315
1176.57	32.6484
1179.46	111.064
1182.36	81.0215
1185.25	102.127
1188.14	146.045
1191.03	156.15
1193.93	8.25977
1196.82	91.4043
1199.71	51.4785
1202.61	2.56445
1205.5	26.1875
1208.39	104.91
1211.28	87.625
1214.18	45.9863
1217.07	69.832
1219.96	92.5977
1222.85	29.7129
1225.75	148.022
1228.64	144.287
1231.53	17.3047
1234.42	75.4219
1237.32	58.2129
1240.21	95.1914
1243.1	28.5508
1246	172.332
1248.89	176.023
1251.78	191.117
1254.67	86.2773
1257.57	20.3301
1260.46	64.8496
1263.35	77.7246
1266.24	217.799
1269.14	133.197
1272.03	114.582
1274.92	88.8984
1277.82	135.047
1280.71	41.834
1283.6	113.031
1286.49	100.045
