Measurement: Raman, 785 nm, unoriented, Raman Data Processed
Mineral: Afwillite
Rruff sample: R070296
Ideal chemistry: Ca_3_(SiO_4_)(SiO_2_(OH)_2_)2H_2_O
Locality: Hatrurim Formation, Negev Desert, West of Dead Sea, southern Israel
Source: Michael Scott
Description: Colorless bladed crystals, associated with yellow ettringite, R070208.
Measured chemistry: Ca_3.00_(Si_1.00_O_3_)_2_(OH)_2_Â·2H_2_O; trace amounts of Al. OH by charge balance; H_2_O by difference
Raman shift (cm-1)	intensity
158.625	0
161.517	8.95874
164.41	25.3204
167.303	87.3995
170.195	88.4425
173.088	123.009
175.981	142.491
178.873	39.8801
181.766	16.6652
184.659	14.1753
187.552	32.2058
190.444	112.762
193.337	99.895
196.23	83.194
199.122	108.596
202.015	76.2304
204.908	124.594
207.8	63.2609
210.693	57.2026
213.586	73.3425
216.478	80.7833
219.371	165.095
222.264	242.255
225.157	337.335
228.049	424.852
230.942	476.851
233.835	499.514
236.727	461.296
239.62	480.55
242.513	337.756
245.405	176.9
248.298	190.707
251.191	249.974
254.084	336.029
256.976	263.543
259.869	229.962
262.762	145.348
265.654	17.5321
268.547	25.4435
271.44	12.3751
274.332	92.2056
277.225	253.858
280.118	476.77
283.011	666.504
285.903	711.317
288.796	617.888
291.689	486.461
294.581	343.707
297.474	197.423
300.367	133.478
303.26	125.654
306.152	146.344
309.045	168.966
311.938	128.847
314.83	164.939
317.723	167.86
320.616	251.848
323.508	272.857
326.401	325.608
329.294	333.775
332.187	368.459
335.079	280.388
337.972	242.055
340.865	106.259
343.757	71.0156
346.65	51.912
349.543	31.736
352.435	18.4705
355.328	2.42285
358.221	14.2246
361.113	3.14404
364.006	5.6084
366.899	42.4498
369.792	64.9855
372.684	174.554
375.577	244.956
378.47	400.83
381.362	548.975
384.255	783.481
387.148	1063.75
390.041	1362.69
392.933	1625.23
395.826	1764.8
398.719	1712.52
401.611	1531.28
404.504	1179.57
407.397	890.453
410.289	696.981
413.182	499.874
416.075	376.65
418.967	275.888
421.86	213.239
424.753	176.536
427.646	102.635
430.538	65.5651
433.431	21.6379
436.324	31.0571
439.216	22.4891
442.109	27.2331
445.002	14.2949
447.894	16.6846
450.787	83.3785
453.68	161.429
456.573	157.537
459.465	286.9
462.358	311.709
465.251	338.625
468.143	483.72
471.036	473.488
473.929	444.305
476.822	421.298
479.714	387.632
482.607	299.029
485.5	317.47
488.392	347.913
491.285	359.935
494.178	375.971
497.07	354.885
499.963	331.018
502.856	322.617
505.748	328.062
508.641	349.212
511.534	421.565
514.427	535.366
517.319	657.608
520.212	840.053
523.105	841.498
525.997	805.057
528.89	740.783
531.783	766.779
534.676	645.86
537.568	480.978
540.461	254.054
543.354	215.331
546.246	128.783
549.139	112.793
552.032	12.8342
554.924	54.5609
557.817	19.7272
560.71	49.45
563.602	11.4174
566.495	1.61841
569.388	28.804
572.281	0.844727
575.173	15.6337
578.066	6.02722
580.959	43.3595
583.851	19.1167
586.744	6.68445
589.637	53.3125
592.529	57.0431
595.422	20.1273
598.315	60.1521
601.208	68.4119
604.1	51.9326
606.993	90.3477
609.886	46.1855
612.778	17.744
615.671	111.261
618.564	87.6427
621.457	112.089
624.349	141.709
627.242	108.624
630.135	109.553
633.027	76.9086
635.92	67.9822
638.813	80.4214
641.705	64.9273
644.598	38.3273
647.491	46.6727
650.384	40.3351
653.276	48.6039
656.169	63.6249
659.062	13.9579
661.954	61.8124
664.847	49.6826
667.74	71.6871
670.632	62.183
673.525	61.0192
676.418	109.18
679.311	83.5848
682.203	55.4417
685.096	82.6934
687.989	42.0994
690.881	36.9808
693.774	58.5947
696.667	33.9644
699.559	63.5399
702.452	89.5512
705.345	50.2727
708.237	65.5413
711.13	43.9326
714.023	47.0223
716.916	22.0299
719.808	19.1104
722.701	26.3367
725.594	35.7362
728.486	9.16821
731.379	0.226563
734.272	10.66
737.164	51.934
740.057	11.1211
742.95	11.572
745.843	17.3762
748.735	9.12048
751.628	29.5886
754.521	58.4692
757.413	61.6337
760.306	137.421
763.199	243.091
766.091	293.426
768.984	408.998
771.877	518.717
774.77	616.995
777.662	657.53
780.555	684.87
783.448	603.988
786.34	489.364
789.233	428.3
792.126	316.741
795.019	221.224
797.911	218.014
800.804	247.503
803.697	274.292
806.589	357.305
809.482	438.887
812.375	454.707
815.267	468.924
818.16	471.58
821.053	441.665
823.946	470.788
826.838	557.65
829.731	594.792
832.624	722.035
835.516	934.037
838.409	1278.35
841.302	1645.6
844.194	2261.97
847.087	2954.28
849.98	3595.42
852.872	4019.9
855.765	4104.3
858.658	3575.24
861.551	2809.2
864.443	2085.11
867.336	1511.77
870.229	1091.34
873.121	802.663
876.014	566.479
878.907	409.791
881.799	308.96
884.692	198.736
887.585	149.567
890.478	39.9585
893.37	41.8353
896.263	22.7898
899.156	12.0857
902.048	37.072
904.941	37.0593
907.834	20.3931
910.726	19.9081
913.619	76.7058
916.512	19.4458
919.405	77.1204
922.297	36.1234
925.19	47.7705
928.083	61.4448
930.975	49.1976
933.868	31.2352
936.761	1.17346
939.654	37.2429
942.546	59.4727
945.439	92.9507
948.332	230.514
951.224	342.803
954.117	558.108
957.01	795.705
959.902	1113.98
962.795	1272.87
965.688	1062.82
968.581	752.751
971.473	468.638
974.366	257.774
977.259	156.369
980.151	111.281
983.044	54.5207
985.937	49.741
988.829	35.5123
991.722	64.8881
994.615	64.5582
997.508	79.38
1000.4	97.4889
1003.29	122.543
1006.19	83.795
1009.08	59.2935
1011.97	27.4592
1014.86	8.79065
1017.76	39.1478
1020.65	18.9177
1023.54	39.2042
1026.43	10.1042
1029.33	33.7693
1032.22	6.80798
1035.11	28.7775
1038.01	14.9499
1040.9	13.077
1043.79	2.81714
1046.68	16.2631
1049.58	43.764
1052.47	55.9566
1055.36	36.3261
1058.25	27.5139
1061.15	68.0543
1064.04	69.888
1066.93	47.5704
1069.83	41.1721
1072.72	33.324
1075.61	21.0371
1078.5	73.0966
1081.4	66.3155
1084.29	69.5358
1087.18	62.1135
1090.07	51.3861
1092.97	77.0429
1095.86	75.0349
1098.75	29.9793
1101.64	60.3213
1104.54	50.8404
1107.43	27.1428
1110.32	26.3615
1113.21	28.35
1116.11	42.3793
1119	23.2354
1121.89	49.2396
1124.79	39.2909
1127.68	74.2866
1130.57	39.596
1133.46	24.1267
1136.36	46.0241
1139.25	28.8065
1142.14	7.33411
1145.04	36.926
1147.93	15.859
1150.82	27.2565
1153.71	34.336
1156.61	42.3527
1159.5	32.2773
1162.39	45.8254
1165.28	42.2579
1168.18	37.4292
1171.07	46.5829
1173.96	58.7184
1176.86	40.158
1179.75	5.01294
1182.64	0.27887
1185.53	21.4659
1188.43	43.691
1191.32	53.8319
1194.21	54.7848
1197.1	0.3974
1200	27.3423
1202.89	71.6296
1205.78	46.1485
