Measurement: Raman, 780 nm, unoriented, Raman Data Processed
Mineral: Afwillite
Rruff sample: R080022
Ideal chemistry: Ca_3_(SiO_4_)(SiO_2_(OH)_2_)2H_2_O
Locality: Crestmore Quarry, Riverside County, Jurupa Mountains, California, USA
Source: Michael Scott
Description: Colorless, prismatic and elongated crystals associated with colorless fibers of thaumasite, R060814
Measured chemistry: Ca_3.00_(Si_1.00_O_3_)_2_(OH)_2_Â·2H_2_O; trace amounts of Fe, Al, Cr; OH estimated by charge balance; H_2_O by difference;
Raman shift (cm-1)	intensity
148.507	0
151.4	0.464809
154.292	0.136681
157.185	1.06399
160.078	1.14313
162.971	0.727694
165.863	0.865213
168.756	0.887112
171.649	1.32086
174.541	1.45124
177.434	0.281475
180.327	0.14167
183.22	0.345036
186.112	1.10018
189.005	2.22736
191.898	2.49908
194.79	2.86635
197.683	2.1737
200.576	3.17212
203.468	3.14546
206.361	1.37332
209.254	1.27464
212.147	1.92354
215.039	3.2047
217.932	4.99099
220.825	7.48106
223.717	8.83119
226.61	10.3255
229.503	10.6873
232.395	10.7444
235.288	12.3311
238.181	12.3833
241.073	9.72323
243.966	6.91587
246.859	5.65235
249.752	4.73099
252.644	3.90346
255.537	3.1102
258.43	3.26684
261.322	2.67514
264.215	1.13407
267.108	0.154793
270	0.247084
272.893	0.01334
275.786	0.521679
278.679	1.31774
281.571	1.81094
284.464	1.52803
287.357	0.542597
290.249	1.02098
293.142	0.520178
296.035	0.312414
298.928	0.344009
301.82	0.982119
304.713	1.53216
307.606	2.26614
310.498	2.39687
313.391	3.12014
316.284	3.63031
319.176	4.90656
322.069	6.03848
324.962	5.90281
327.854	5.47658
330.747	4.3301
333.64	3.16058
336.533	2.75396
339.425	2.25852
342.318	2.65453
345.211	2.40125
348.103	2.09353
350.996	1.70664
353.889	1.50574
356.781	0.345957
359.674	0.531157
362.567	0.075298
365.46	0.081018
368.352	0.255388
371.245	0.161188
374.138	0.162648
377.03	0.650461
379.923	1.44806
382.816	1.96576
385.709	3.11861
388.601	3.66439
391.494	4.15742
394.387	5.23122
397.279	4.69738
400.172	4.45338
403.065	3.83588
405.957	3.55914
408.85	3.6775
411.743	3.48913
414.635	3.74768
417.528	2.87691
420.421	2.27243
423.314	1.8129
426.206	0.712434
429.099	0.749857
431.992	0.021681
434.884	0.158316
437.777	0.445485
440.67	0.30302
443.562	0.44292
446.455	0.47113
449.348	0.885324
452.241	1.67901
455.133	2.58637
458.026	2.75775
460.919	2.94117
463.811	3.08043
466.704	3.45575
469.597	2.91341
472.49	3.16442
475.382	2.7732
478.275	2.19185
481.168	2.48364
484.06	2.65101
486.953	3.32601
489.846	3.71008
492.738	4.49341
495.631	4.62446
498.524	5.43706
501.416	5.86235
504.309	6.23929
507.202	6.95345
510.095	7.36932
512.987	8.14101
515.88	9.73379
518.773	10.947
521.665	11.2837
524.558	10.7995
527.451	9.83916
530.343	9.39777
533.236	7.95766
536.129	5.89306
539.022	3.47366
541.914	2.12829
544.807	1.43093
547.7	0.933063
550.592	0.416808
553.485	0.272505
556.378	0.215376
559.27	0.128273
562.163	0.021834
565.056	0.067177
567.949	0.249642
570.841	0.185004
573.734	0.019858
576.627	0.206172
579.519	0.088763
582.412	0.276427
585.305	0.079569
588.197	0.096685
591.09	0.261295
593.983	0.331983
596.876	0.213327
599.768	0.59277
602.661	0.563237
605.554	0.649554
608.446	0.847963
611.339	1.37205
614.232	1.16536
617.125	1.10796
620.017	1.52327
622.91	1.23734
625.803	1.16337
628.695	1.26115
631.588	1.53816
634.481	1.3092
637.373	1.20856
640.266	1.43485
643.159	1.49303
646.052	1.827
648.944	2.14057
651.837	1.84703
654.73	2.38944
657.622	2.65987
660.515	3.39318
663.408	3.94854
666.3	4.44645
669.193	4.0496
672.086	3.38449
674.979	2.81543
677.871	2.13724
680.764	1.7438
683.657	1.19879
686.549	1.40277
689.442	0.979918
692.335	0.956033
695.227	0.673604
698.12	0.890371
701.013	0.480089
703.905	0.519187
706.798	0.461786
709.691	0.660189
712.584	0.005971
715.476	0.191366
718.369	0.023849
721.262	0.112242
724.154	0.116919
727.047	0.16059
729.94	0.009418
732.832	0.12839
735.725	0.467581
738.618	0.091626
741.511	0.066334
744.403	0.27478
747.296	0.402584
750.189	0.029175
753.081	0.793183
755.974	0.948005
758.867	1.13092
761.76	1.88318
764.652	2.45283
767.545	3.27237
770.438	4.03122
773.33	4.77111
776.223	5.81821
779.116	6.98581
782.008	7.43179
784.901	8.34598
787.794	7.67666
790.687	6.1314
793.579	4.43049
796.472	3.48387
799.365	3.7919
802.257	3.99898
805.15	5.92342
808.043	8.43385
810.935	10.6509
813.828	14.2142
816.721	16.1789
819.614	17.2081
822.506	14.8528
825.399	10.7177
828.292	6.27694
831.184	3.10989
834.077	2.01363
836.97	1.36232
839.862	1.41556
842.755	2.3563
845.648	3.45177
848.54	4.83109
851.433	6.33207
854.326	8.26423
857.219	9.7665
860.111	11.2324
863.004	12.9111
865.897	14.3265
868.789	15.3
871.682	16.053
874.575	16.153
877.467	14.324
880.36	12.3784
883.253	10.2788
886.146	7.90588
889.038	5.67346
891.931	3.97996
894.824	1.7528
897.716	0.635322
900.609	0.340536
903.502	0.822846
906.394	0.259141
909.287	0.395575
912.18	0.143263
915.073	1.05835
917.965	1.67384
920.858	2.38434
923.751	3.61204
926.643	3.71848
929.536	3.43418
932.429	3.4603
935.322	4.55627
938.214	5.82624
941.107	7.17778
944	9.08437
946.892	10.4256
949.785	10.5038
952.678	11.328
955.57	12.4291
958.463	11.8922
961.356	12.8448
964.249	13.0632
967.141	10.8688
970.034	8.4415
972.927	5.49546
975.819	3.14902
978.712	1.68229
981.605	0.545559
984.497	0.322408
987.39	0.252931
990.283	0.070785
993.176	0.092421
996.068	0.176174
998.961	0.026223
1001.85	0.045724
1004.75	0.139218
1007.64	0.131156
1010.53	0.347155
1013.42	0.57297
1016.32	0.53791
1019.21	0.723294
1022.1	0.873503
1024.99	0.90372
1027.89	1.08594
1030.78	1.42471
1033.67	0.882981
1036.57	1.11829
1039.46	1.18898
1042.35	0.767189
1045.24	1.10799
1048.14	1.05105
1051.03	0.943152
1053.92	0.772927
1056.82	0.762467
1059.71	0.905066
1062.6	0.979531
1065.49	0.753541
1068.39	0.893343
1071.28	0.500937
1074.17	0.724593
1077.06	0.788748
1079.96	0.827682
1082.85	1.16719
1085.74	0.899555
1088.63	0.484116
1091.53	0.328926
1094.42	0.517932
1097.31	0.392043
1100.2	0.714971
1103.1	0.627735
1105.99	0.645788
1108.88	0.251379
1111.78	0.329447
1114.67	0.37902
1117.56	0.356822
1120.45	0.251292
1123.35	0.203202
1126.24	0.164982
1129.13	0.02724
1132.03	0.158784
1134.92	0.110684
1137.81	0.176556
1140.7	0.075583
1143.6	0.167415
1146.49	0.233347
1149.38	0.100352
1152.27	0.276287
1155.17	0.31161
1158.06	0.095464
1160.95	0.010885
1163.85	0.077194
1166.74	0.199185
1169.63	0.217473
1172.52	0.136501
1175.42	0.342254
1178.31	0.227788
1181.2	0.453362
1184.09	0.221821
1186.99	0.17743
1189.88	0.253728
1192.77	0.13926
1195.66	0.173147
1198.56	0.048105
1201.45	0.206367
1204.34	0.048727
1207.23	0.060015
1210.13	0.234688
1213.02	0.155457
1215.91	0.324921
1218.81	0.334083
1221.7	0.46114
1224.59	0.490799
1227.48	0.184341
1230.38	0.213135
1233.27	0.358327
1236.16	0.322894
1239.06	0.349902
1241.95	0.463248
1244.84	0.293352
1247.73	0.443078
1250.63	0.006678
1253.52	0.273461
1256.41	0.351735
1259.3	0.415442
1262.2	0.236582
1265.09	0.404639
1267.98	0.204976
1270.88	0.430129
1273.77	0.194551
1276.66	0.575434
1279.55	0.322915
1282.44	0.529152
1285.34	0.115459
1288.23	0
