Measurement: Raman, 785 nm, unoriented, Raman Data Processed
Mineral: Agardite-(Y)
Rruff sample: R060711
Ideal chemistry: Cu^2+^_6_Y^3+^(As^5+^O_4_)_3_(OH)_6_3H_2_O
Locality: Brumado, Bahia, Brazil
Source: Bob Jenkins
Description: Mass of pale green fibers
Measured chemistry: (Cu_5.73_Fe_0.04_)_Σ=5.77_(Y_0.32_Gd_0.10_Nd_0.03_Sm_0.08_Ca_0.39_)_Σ=0.92_[(AsO_4_)_0.79_(PO_4_)_0.06_(SiO_4_)_0.01_]_3_(OH)_6_·4.58H_2_O
Raman shift (cm-1)	intensity
162.507	0
165.4	44.1475
168.293	135.666
171.185	166.854
174.078	115.405
176.971	125.996
179.863	133.207
182.756	175.36
185.649	213.236
188.542	238.002
191.434	241.099
194.327	191.182
197.22	188.51
200.112	170.173
203.005	158.414
205.898	94.854
208.79	219.953
211.683	337.656
214.576	570.618
217.469	654.204
220.361	587.177
223.254	382.58
226.147	288.944
229.039	230.033
231.932	219.504
234.825	203.687
237.717	111.605
240.61	105.503
243.503	0.243652
246.396	4.28857
249.288	40.3359
252.181	15.3879
255.074	25.3821
257.966	66.3872
260.859	66.0898
263.752	136.387
266.645	177.594
269.537	261.677
272.43	344.312
275.323	476.158
278.215	620.919
281.108	722.263
284.001	803.661
286.893	665.377
289.786	534.583
292.679	462.401
295.572	290.623
298.464	273.263
301.357	186.9
304.25	196.288
307.142	206.902
310.035	201.925
312.928	230.705
315.82	255.415
318.713	227.106
321.606	275.784
324.499	265.231
327.391	247.29
330.284	174.608
333.177	123.87
336.069	77.6501
338.962	106.906
341.855	18.5205
344.747	27.9846
347.64	43.8162
350.533	36.9116
353.426	5.89844
356.318	58.3872
359.211	24.3691
362.104	8.67822
364.996	20.2991
367.889	4.58081
370.782	70.7017
373.674	107.03
376.567	141.123
379.46	195.714
382.353	204.165
385.245	279.843
388.138	316.112
391.031	408.449
393.923	474.236
396.816	489.955
399.709	429.567
402.602	381.178
405.494	278.936
408.387	200.426
411.28	149.384
414.172	174.531
417.065	163.15
419.958	196.399
422.85	257.451
425.743	277.559
428.636	339.61
431.529	247.478
434.421	200.995
437.314	190.535
440.207	103.54
443.099	100.147
445.992	79.4744
448.885	75.8875
451.777	103.773
454.67	189.32
457.563	175.103
460.456	268.41
463.348	363.446
466.241	479.352
469.134	627.793
472.026	722.166
474.919	912.994
477.812	1005.48
480.704	946.864
483.597	739.413
486.49	598.465
489.383	392.874
492.275	289.994
495.168	214.805
498.061	151.371
500.953	110.418
503.846	47.3428
506.739	75.6431
509.631	5.61157
512.524	15.844
515.417	6.63501
518.31	26.9485
521.202	45.5742
524.095	14.3018
526.988	31.9072
529.88	31.7336
532.773	86.3103
535.666	88.1765
538.558	68.6338
541.451	62.7053
544.344	17.8674
547.237	39.1514
550.129	3.77661
553.022	23.0781
555.915	15.0591
558.807	42.9006
561.7	5.27026
564.593	35.1401
567.485	33.1086
570.378	0.775879
573.271	6.61401
576.164	32.4333
579.056	19.0815
581.949	56.3603
584.842	57.5395
587.734	74.7048
590.627	61.3921
593.52	61.9807
596.412	75.915
599.305	104.093
602.198	108.09
605.091	84.7876
607.983	34.9683
610.876	17.9634
613.769	48.9031
616.661	24.3208
619.554	73.571
622.447	43.311
625.339	42.5625
628.232	10.4514
631.125	8.14941
634.018	22.3059
636.91	32.3213
639.803	28.6682
642.696	54.5256
645.588	29.3137
648.481	70.3337
651.374	56.0798
654.266	65.8601
657.159	61.5469
660.052	54.1785
662.945	40.5037
665.837	51.1658
668.73	57.6367
671.623	48.7493
674.515	117.306
677.408	69.198
680.301	88.4512
683.193	82.0369
686.086	107.347
688.979	101.407
691.872	107.641
694.764	140.236
697.657	122.798
700.55	89.8933
703.442	80.4126
706.335	49.6924
709.228	55.136
712.12	100.954
715.013	77.3843
717.906	99.0266
720.799	74.4966
723.691	51.3013
726.584	36.7717
729.477	42.5266
732.369	6.13379
735.262	34.1262
738.155	53.1316
741.047	32.8877
743.94	10.7854
746.833	15.8606
749.726	2.45435
752.618	29.0347
755.511	18.5122
758.404	13.9844
761.296	5.12109
764.189	13.8171
767.082	11.5764
769.974	59.7715
772.867	8.62915
775.76	40.7712
778.653	18.1475
781.545	28.3953
784.438	75.707
787.331	119.752
790.223	129.68
793.116	93.75
796.009	108.353
798.901	99.2444
801.794	95.7439
804.687	106.258
807.58	181.063
810.472	278.418
813.365	299.978
816.258	422.786
819.15	556.663
822.043	663.002
824.936	833.224
827.828	886.252
830.721	886.111
833.614	868.119
836.507	854.993
839.399	756.518
842.292	718.739
845.185	718.107
848.077	739.975
850.97	799.52
853.863	854.226
856.755	1018.61
859.648	1177.19
862.541	1357.35
865.434	1324.52
868.326	1219.53
871.219	970.94
874.112	752.673
877.004	572.868
879.897	362.903
882.79	307.952
885.682	209.006
888.575	138.983
891.468	64.8254
894.361	91.718
897.253	25.4587
900.146	62.1003
903.039	60.8811
905.931	71.5344
908.824	35.6982
911.717	12.1394
914.609	59.0471
917.502	16.0561
920.395	38.7844
923.288	13.3042
926.18	7.39771
929.073	29.4905
931.966	69.7937
934.858	73.323
937.751	27.7144
940.644	22.3054
943.536	7.4043
946.429	6.95996
949.322	18.2463
952.215	21.2402
955.107	42.7422
958	34.8608
960.893	23.644
963.785	44.5727
966.678	16.606
969.571	34.1614
972.464	46.9202
975.356	55.5127
978.249	41.1731
981.142	73.6599
984.034	71.8533
986.927	25.7127
989.82	70.3979
992.712	47.5081
995.605	26.0222
998.498	69.2146
1001.39	71.9702
1004.28	39.7146
1007.18	62.6895
1010.07	58.5784
1012.96	49.1467
1015.85	32.3584
1018.75	1.05395
1021.64	43.166
1024.53	6.03564
1027.42	43.3901
1030.32	4.04272
1033.21	10.8982
1036.1	11.4082
1039	76.6777
1041.89	38.4363
1044.78	34.9558
1047.67	21.3264
1050.57	68.9011
1053.46	6.6626
1056.35	16.9399
1059.24	51.6445
1062.14	23.9834
1065.03	37.647
1067.92	43.6187
1070.82	6.22778
1073.71	24.2283
1076.6	44.105
1079.49	33.45
1082.39	33.6963
1085.28	22.5081
1088.17	42.3272
1091.06	69.2856
1093.96	34.2776
1096.85	74.6103
1099.74	49.8594
1102.63	39.8765
1105.53	37.2522
1108.42	51.8157
1111.31	18.1069
1114.21	48.147
1117.1	28.4382
1119.99	3.94702
1122.88	41.4141
1125.78	34.9119
1128.67	1.73254
1131.56	26.9638
1134.45	9.52173
1137.35	62.9978
1140.24	45.8412
1143.13	75.6775
1146.03	56.8652
1148.92	17.5607
1151.81	34.6246
1154.7	19.5714
1157.6	25.3547
1160.49	14.0378
1163.38	61.7728
1166.27	81.7202
1169.17	19.9945
1172.06	25.2172
1174.95	50.238
1177.85	39.2937
1180.74	56.01
1183.63	13.0535
1186.52	66.2773
1189.42	3.28247
1192.31	27.7556
1195.2	14.2505
1198.09	28.5463
1200.99	76.9312
1203.88	39.2018
1206.77	17.8755
1209.66	34.2391
1212.56	61.8141
1215.45	9.44055
1218.34	27.5832
1221.24	45.7826
1224.13	42.5245
1227.02	67.2959
1229.91	38.1029
1232.81	79.8884
1235.7	65.6252
1238.59	22.2285
1241.48	70.3586
1244.38	65.4258
1247.27	65.7822
1250.16	5.52881
1253.06	21.1925
1255.95	40.6838
1258.84	51.7416
1261.73	48.1094
1264.63	70.9884
1267.52	8.9259
1270.41	24.5984
