Measurement: Raman, 532 nm, unoriented, Raman Data Processed
Mineral: Agardite-(Y)
Rruff sample: R070357
Ideal chemistry: Cu^2+^_6_Y^3+^(As^5+^O_4_)_3_(OH)_6_3H_2_O
Locality: Hayashi, Setoda, Ikuchi Island, Hiroshima Prefecture, Chugoku Region, Honshu Island, Japan
Source: Michael Scott
Description: Green acicular to fibrous in spherical aggregates
Measured chemistry: (Cu_5.59_Ca_0.28_Zn_0.03_Fe_0.01_)_Σ=5.91_(Y_0.35_La_0.08_Nd_0.06_Gd_0.03_Ce_0.02_Sm_0.01_Pr_0.01_Al_0.50_)_Σ=1.05_[(AsO_4_)_0.80_(SiO_4_)_0.14_(PO_4_)_0.02_]_3_(OH)_6_·3.51H_2_O
Raman shift (cm-1)	intensity
178.589	0
181.482	3.61914
184.374	168.756
187.267	205.107
190.16	482.906
193.052	546.4
195.945	609.01
198.838	615.891
201.731	359.894
204.623	363.633
207.516	176.904
210.409	293.408
213.301	148.027
216.194	204.85
219.087	332.549
221.979	454.541
224.872	604.443
227.765	630.404
230.657	987.266
233.55	949.939
236.443	858.795
239.336	585.135
242.228	459.578
245.121	291.467
248.014	240.496
250.906	142.629
253.799	37.4648
256.692	76.6914
259.584	14.6191
262.477	18.127
265.37	78
268.263	58.1875
271.155	73.918
274.048	84.5156
276.941	121.391
279.833	167.84
282.726	188.162
285.619	203.062
288.512	299.607
291.404	237.496
294.297	187.209
297.19	267.656
300.082	245.527
302.975	333.113
305.868	380.453
308.76	470.949
311.653	552.141
314.546	801.1
317.438	960.871
320.331	992.674
323.224	1147.57
326.117	911.82
329.009	803.107
331.902	529.506
334.795	513.342
337.687	398.293
340.58	176.684
343.473	249.281
346.365	47.0547
349.258	96.0293
352.151	54.5918
355.044	35.4668
357.936	38.752
360.829	198.455
363.722	93.375
366.614	115.549
369.507	52.7773
372.4	25.7129
375.293	81.4434
378.185	103.422
381.078	270.977
383.971	509.434
386.863	538.891
389.756	610
392.649	933.035
395.541	1008.57
398.434	1011.81
401.327	832.539
404.219	679.148
407.112	589.289
410.005	286.438
412.898	290.406
415.79	284.43
418.683	230.969
421.576	545.102
424.469	808.5
427.361	1023.3
430.254	919.922
433.147	826.863
436.039	661.617
438.932	537.117
441.825	595.961
444.717	644.969
447.61	557.633
450.503	744.715
453.396	1087.97
456.288	1275.77
459.181	1407.14
462.074	1894.53
464.966	2246.24
467.859	2808.92
470.752	3364.73
473.644	4037.62
476.537	4693.59
479.43	4991.85
482.322	4568.57
485.215	3713.66
488.108	2889.5
491.001	2578.16
493.893	1788.98
496.786	1221.85
499.679	1023.5
502.571	690.512
505.464	426.707
508.357	283.984
511.25	209.422
514.142	93.9297
517.035	11.9375
519.928	115.34
522.82	8.16406
525.713	151.043
528.606	315.309
531.498	581.344
534.391	459.941
537.284	605.043
540.177	440.723
543.069	429.266
545.962	149.453
548.855	220.203
551.747	169.871
554.64	82.1562
557.533	78.8203
560.425	113.574
563.318	173.262
566.211	167.695
569.104	47.3945
571.996	41.6523
574.889	11.3047
577.782	13.8477
580.674	3.43359
583.567	67.4688
586.46	14.5977
589.352	69.5352
592.245	51.043
595.138	68.5312
598.031	134.406
600.923	128.492
603.816	35.0625
606.709	263.574
609.601	239.305
612.494	403.934
615.387	192.094
618.279	305.785
621.172	403.5
624.065	414.285
626.958	535.492
629.85	474.461
632.743	554.523
635.636	592.207
638.528	551.41
641.421	578.871
644.314	534.062
647.207	487.106
650.099	441.305
652.992	567.547
655.885	615.188
658.777	548.629
661.67	512.465
664.563	557.906
667.455	488.102
670.348	597.738
673.241	512.606
676.134	421.262
679.026	497.941
681.919	570.684
684.812	530.316
687.704	558.586
690.597	416.684
693.49	454.066
696.382	627.613
699.275	514.305
702.168	543.543
705.061	419.219
707.953	460.652
710.846	475.144
713.739	330.316
716.631	289.695
719.524	246.891
722.417	211.863
725.309	142.703
728.202	234.875
731.095	188.484
733.987	94.0625
736.88	135.367
739.773	9.46875
742.666	168.242
745.558	40.457
748.451	7.82422
751.344	125.953
754.236	126.277
757.129	5.33203
760.022	30.7812
762.915	102.918
765.807	53.4141
768.7	23.0547
771.593	124.684
774.485	115.684
777.378	147.109
780.271	215.043
783.163	409.438
786.056	304.559
788.949	343.231
791.842	239.019
794.734	320.566
797.627	311.398
800.52	458.805
803.412	329.723
806.305	602.367
809.198	585.188
812.091	714.977
814.983	1023.6
817.876	1372.38
820.769	1754.7
823.661	2343
826.554	2735.91
829.447	3100.7
832.339	3301.34
835.232	3590.74
838.125	3348.9
841.018	3390.02
843.91	3201.43
846.803	3159.66
849.696	3328.83
852.588	3578.4
855.481	4134.94
858.374	4739.9
861.266	5690.43
864.159	6806.84
867.052	7685.48
869.944	8068.07
872.837	7704.49
875.73	6549.19
878.623	5229
881.515	3783.48
884.408	2878.47
887.301	2161.77
890.193	1444.68
893.086	1115.86
895.979	821.871
898.871	630.527
901.764	474.418
904.657	329.375
907.55	371.098
910.442	212.312
913.335	183.32
916.228	217.984
919.12	271.219
922.013	72.207
924.906	21.5391
927.798	19.9961
930.691	31.3438
933.584	91.7031
936.477	182.824
939.369	9.14062
942.262	25.918
945.155	32.9609
948.047	27.7148
950.94	57.7461
953.833	53.0664
956.726	145.324
959.618	121.508
962.511	94.1484
965.404	65.6797
968.296	307.965
971.189	237.602
974.082	191.469
976.974	313.941
979.867	272.898
982.76	272.398
985.653	262.043
988.545	434.516
991.438	364.68
994.331	305.426
997.223	371.648
1000.12	318.32
1003.01	327.281
1005.9	195.512
1008.79	304.328
1011.69	296.699
1014.58	273.91
1017.47	186.93
1020.37	162.266
1023.26	252.047
1026.15	154.621
1029.04	108.812
1031.94	170.883
1034.83	5.0625
1037.72	156.535
1040.61	155.535
1043.51	97.8047
1046.4	134.664
1049.29	121.234
1052.18	48.6953
1055.08	34.1172
1057.97	189.129
1060.86	139.977
1063.76	106.414
1066.65	135.488
1069.54	73.6523
1072.43	97.4805
1075.33	124.352
1078.22	192.418
1081.11	42.4922
1084	57.4023
1086.9	203.367
1089.79	95.1484
1092.68	144.879
1095.58	198.43
1098.47	170.738
1101.36	14.7383
1104.25	43.0859
1107.15	117.742
1110.04	39.707
1112.93	49.5195
1115.82	118.879
1118.72	199.457
1121.61	54.3086
1124.5	117.227
1127.39	165.137
1130.29	148.023
1133.18	152.082
1136.07	59.3828
1138.97	236.121
1141.86	96.1719
1144.75	134.832
1147.64	169.754
1150.54	180.723
1153.43	186.359
1156.32	140.254
1159.21	241.109
1162.11	125.25
1165	125.133
1167.89	109.875
1170.79	168.426
1173.68	170.414
1176.57	68.5703
1179.46	41.7734
1182.36	47.0742
1185.25	89.5156
1188.14	38.5664
1191.03	144.871
1193.93	96.3047
1196.82	217.359
1199.71	72.2773
1202.61	120.215
1205.5	3.01172
1208.39	124.832
1211.28	117.16
1214.18	156.453
1217.07	80.2812
1219.96	240.633
1222.85	256.805
1225.75	122.504
1228.64	4.51562
1231.53	75.9844
1234.42	141.098
1237.32	53.6523
1240.21	23.1094
1243.1	173.094
1246	53.0781
1248.89	107.981
1251.78	23.168
1254.67	2.00781
1257.57	85.8125
1260.46	140.379
1263.35	123.973
1266.24	31.8828
1269.14	178.488
1272.03	198.836
1274.92	198.981
1277.82	205.816
1280.71	267.617
1283.6	148.887
1286.49	159.363
1289.39	88.1445
1292.28	56.5664
1295.17	197.266
1298.06	8.49609
1300.96	60.2148
