Measurement: Raman, 532 nm, unoriented, Raman Data Processed
Mineral: Agardite-(Y)
Rruff sample: R070649
Ideal chemistry: Cu^2+^_6_Y^3+^(As^5+^O_4_)_3_(OH)_6_3H_2_O
Locality: Jote West mine, Pampa Larga Mining District, Copiapo, Chile
Source: Bob Jenkins
Description: Sprays of bright green acicular crystals
Measured chemistry: (Cu_5.33_Al_0.12_Ca_0.03_Mn_0.01_)_Σ=5.49_(Y_0.52_Er_0.02_Dy_0.01_Yb_0.01_Ho_0.01_Ca_0.43_)_Σ=1.00_[(AsO_4_)_0.88_(PO_4_)_0.14_)]_3_(OH)_6_·2.99H_2_O
Raman shift (cm-1)	intensity
147.941	0
150.834	4.72144
153.727	48.3413
156.619	95.7148
159.512	114.813
162.405	191.673
165.298	250.192
168.19	368.955
171.083	570.699
173.976	657.531
176.868	699.293
179.761	801.782
182.654	827.454
185.546	881.139
188.439	940.898
191.332	904.259
194.225	803.56
197.117	675.931
200.01	507.819
202.903	375.206
205.795	349.771
208.688	318.318
211.581	223.886
214.473	224.308
217.366	222.684
220.259	244.889
223.151	394.053
226.044	473.536
228.937	535.628
231.83	553.691
234.722	494.231
237.615	343.873
240.508	188.924
243.4	111.956
246.293	40.5398
249.186	1.74707
252.078	28.3628
254.971	0.9375
257.864	9.85718
260.757	20.3303
263.649	18.5715
266.542	16.887
269.435	8.7666
272.327	21.2473
275.22	64.2893
278.113	52.6079
281.005	97.9106
283.898	64.6642
286.791	84.6256
289.684	54.619
292.576	58.9637
295.469	32.8514
298.362	8.46143
301.254	55.6083
304.147	115.792
307.04	200.055
309.933	335.87
312.825	502.233
315.718	638.492
318.611	775.572
321.503	908.906
324.396	972.242
327.289	999.946
330.181	881.266
333.074	769.39
335.967	619.226
338.86	488.567
341.752	320.327
344.645	275.046
347.538	201.451
350.43	100.176
353.323	77.4898
356.216	16.9023
359.108	6.08972
362.001	69.2061
364.894	46.4102
367.786	47.535
370.679	16.7696
373.572	7.45801
376.464	10.89
379.357	77.8682
382.25	114.826
385.143	167.813
388.035	327.275
390.928	375.129
393.821	524.92
396.713	447.862
399.606	433.079
402.499	418.655
405.392	320.803
408.284	299.516
411.177	195.835
414.07	232.071
416.962	178.985
419.855	261.693
422.748	307.62
425.64	355.336
428.533	366.705
431.426	327
434.318	311.625
437.211	160.061
440.104	73.1401
442.997	38.7698
445.889	99.021
448.782	208.514
451.675	338.241
454.567	580.968
457.46	868.444
460.353	1228.1
463.245	1742.95
466.138	2257.43
469.031	2847
471.924	3445.01
474.816	3985.55
477.709	4422.57
480.602	4292.1
483.494	3593.34
486.387	2784.37
489.28	2033.37
492.173	1379.65
495.065	1036.32
497.958	719.2
500.851	504.398
503.743	425.211
506.636	241.211
509.529	214.671
512.421	106.787
515.314	27.5637
518.207	15.749
521.1	26.0952
523.992	29.4534
526.885	135.613
529.778	326.981
532.67	362.668
535.563	406.328
538.456	418.539
541.348	357.348
544.241	305.466
547.134	295.263
550.027	266.074
552.919	276.79
555.812	268.836
558.705	253.227
561.597	232.656
564.49	194.011
567.383	145.304
570.275	61.6184
573.168	59.0136
576.061	79.4312
578.953	3.6637
581.846	40.5469
584.739	31.8742
587.632	18.2316
590.524	17.1138
593.417	18.6782
596.31	17.609
599.202	31.5109
602.095	4.97925
604.988	31.8988
607.88	48.2358
610.773	104.799
613.666	77.74
616.559	96.8652
619.451	128.179
622.344	56.3815
625.237	116.969
628.129	116.954
631.022	78.5664
633.915	115.912
636.808	145.554
639.7	151.682
642.593	132.55
645.486	161
648.378	128.069
651.271	155.951
654.164	137.942
657.056	165.824
659.949	122.554
662.842	149.15
665.734	127.094
668.627	173.589
671.52	135.631
674.413	158.757
677.305	150.028
680.198	178.932
683.091	170.624
685.983	183.926
688.876	198.706
691.769	198.147
694.661	196.001
697.554	197.963
700.447	222.458
703.34	234.223
706.232	219.139
709.125	215.089
712.018	212.586
714.91	190.15
717.803	127.275
720.696	148.667
723.588	103.238
726.481	95.1715
729.374	88.0088
732.266	66.6217
735.159	36.4562
738.052	59.6974
740.945	2.32446
743.837	21.2201
746.73	3.09033
749.623	18.3823
752.515	12.0319
755.408	12.6841
758.301	47.062
761.193	47.671
764.086	1.59656
766.979	2.24292
769.872	1.07361
772.764	63.6445
775.657	46.0157
778.55	111.563
781.442	139.581
784.335	97.2897
787.228	95.233
790.12	72.1548
793.013	84.2972
795.906	64.4179
798.799	49.8831
801.691	69.4387
804.584	117.657
807.477	138.941
810.369	239.174
813.262	335.393
816.155	473.436
819.048	594.072
821.94	786.4
824.833	986.875
827.726	1148.77
830.618	1292.97
833.511	1310.93
836.404	1297.34
839.296	1365.6
842.189	1437.57
845.082	1545.24
847.975	1796.42
850.867	2120.27
853.76	2631.1
856.653	3235.75
859.545	3904.07
862.438	4626.87
865.331	5252.38
868.223	5639.67
871.116	5457.79
874.009	4774.33
876.902	3775.03
879.794	2777.25
882.687	2011.24
885.58	1480.62
888.472	1157.38
891.365	874.843
894.258	670.695
897.15	578.226
900.043	405.99
902.936	351.033
905.828	251.196
908.721	158.504
911.614	196.837
914.507	96.228
917.399	49.9556
920.292	5.68176
923.185	28.2621
926.077	23.7241
928.97	32.2905
931.863	5.31641
934.755	51.5874
937.648	6.86462
940.541	23.6221
943.434	6.28833
946.326	12.103
949.219	25.0956
952.112	33.1399
955.004	7.63367
957.897	47.1897
960.79	39.6938
963.683	13.1519
966.575	33.9622
969.468	25.9642
972.361	5.6106
975.253	73.8086
978.146	28.8831
981.039	0.612549
983.931	67.3041
986.824	44.1562
989.717	58.1078
992.609	47.5866
995.502	36.4155
998.395	80.5005
1001.29	96.8904
1004.18	83.6559
1007.07	60.5259
1009.97	99.7218
1012.86	87.7748
1015.75	136.543
1018.64	168.509
1021.54	152.588
1024.43	160.558
1027.32	197.028
1030.21	200.83
1033.11	165.488
1036	126.898
1038.89	151.023
1041.79	87.0533
1044.68	95.4138
1047.57	48.6377
1050.46	35.0061
1053.36	13.6834
1056.25	3.60791
1059.14	10.6938
1062.03	28.3479
1064.93	24.8744
1067.82	22.3227
1070.71	53.2948
1073.61	54.6748
1076.5	51.3729
1079.39	50.2881
1082.28	50.6302
1085.18	49.7841
1088.07	10.9945
1090.96	27.4401
1093.85	60.0668
1096.75	54.1997
1099.64	68.9022
1102.53	63.7966
1105.42	48.724
1108.32	70.2568
1111.21	74.2501
1114.1	73.7634
1116.99	28.8108
1119.89	60.1499
1122.78	63.4763
1125.67	37.0193
1128.57	40.3658
1131.46	44.494
1134.35	20.8487
1137.24	20.7056
1140.14	28.3412
1143.03	10.7527
1145.92	6.96252
1148.82	9.29419
1151.71	8.9386
1154.6	4.34936
1157.49	19.7769
1160.39	8.04773
1163.28	28.7797
1166.17	13.2374
1169.06	35.9233
1171.96	2.92896
1174.85	22.0149
1177.74	33.447
1180.63	35.2242
1183.53	24.6205
1186.42	24.3234
1189.31	47.4296
1192.21	28.374
1195.1	38.3143
1197.99	42.804
1200.88	25.8153
1203.78	41.8174
1206.67	17.0049
1209.56	30.7135
1212.45	29.9755
1215.35	5.95984
1218.24	20.5456
1221.13	36.4102
1224.03	43.4491
1226.92	36.0332
1229.81	4.68799
1232.7	12.684
1235.6	7.87512
1238.49	28.9086
1241.38	63.1031
1244.27	48.5828
1247.17	17.748
1250.06	45.5633
1252.95	46.9646
1255.85	34.5457
1258.74	44.4656
1261.63	36.432
1264.52	23.9335
1267.42	29.3451
1270.31	6.84668
1273.2	1.48877
1276.09	9.02515
1278.99	13.8608
1281.88	3.77014
