Measurement: Raman, 532 nm, unoriented, Raman Data Processed
Mineral: Agardite-(Y)
Rruff sample: R060711
Ideal chemistry: Cu^2+^_6_Y^3+^(As^5+^O_4_)_3_(OH)_6_3H_2_O
Locality: Brumado, Bahia, Brazil
Source: Bob Jenkins
Description: Mass of pale green fibers
Measured chemistry: (Cu_5.73_Fe_0.04_)_Σ=5.77_(Y_0.32_Gd_0.10_Nd_0.03_Sm_0.08_Ca_0.39_)_Σ=0.92_[(AsO_4_)_0.79_(PO_4_)_0.06_(SiO_4_)_0.01_]_3_(OH)_6_·4.58H_2_O
Raman shift (cm-1)	intensity
115.255	0
118.63	1037.17
122.005	838.253
125.38	400.828
128.755	429.416
132.129	853.883
135.504	1498.73
138.879	1593.47
142.254	1075.81
145.629	986.481
149.003	1271.04
152.378	1638.78
155.753	2008.94
159.128	2488.86
162.503	3177.07
165.877	3749.87
169.252	4385.35
172.627	4920.03
176.002	5161.32
179.377	5376.74
182.751	5766.98
186.126	6131.04
189.501	6211.55
192.876	6052.26
196.251	5577.2
199.626	5041.09
203	4425.23
206.375	3832.05
209.75	3273.82
213.125	2786.82
216.5	2423.55
219.874	2629.97
223.249	3121.76
226.624	3731.77
229.999	4207.72
233.374	3685.33
236.749	2756.68
240.123	1706.12
243.498	1038.43
246.873	666.351
250.248	481.307
253.623	253.672
256.997	170.354
260.372	156.954
263.747	165.299
267.122	381.268
270.497	283.974
273.871	228.534
277.246	458.316
280.621	590.813
283.996	704.939
287.371	653.209
290.746	480.974
294.12	274.772
297.495	189.317
300.87	196.973
304.245	340.827
307.62	466.996
310.994	856.247
314.369	1566.18
317.744	2521.28
321.119	3487.26
324.494	4111.31
327.868	3836.36
331.243	2831.05
334.618	1657.9
337.993	1044.85
341.368	720.161
344.743	382.248
348.117	69.195
351.492	272.22
354.867	412.036
358.242	535.401
361.617	424.685
364.991	328.888
368.366	138.943
371.741	172.724
375.116	627.142
378.491	1173.03
381.866	1772.09
385.24	2503.05
388.615	3445.58
391.99	4165.25
395.365	4696.36
398.74	4855.78
402.114	4463.91
405.489	3633.52
408.864	2897.37
412.239	2628.91
415.614	3089.5
418.988	3920.26
422.363	5180.39
425.738	6361.44
429.113	6946.27
432.488	6519.76
435.863	5392.61
439.237	4361.49
442.612	3782.73
445.987	4043.95
449.362	4928.85
452.737	6246.31
456.112	7969.96
459.486	9969.67
462.861	12229.6
466.236	14611.5
469.611	17500.1
472.986	20716.5
476.36	22417.7
479.735	21242.6
483.11	16797.2
486.485	12162
489.86	8896.22
493.234	6724.66
496.609	5246.12
499.984	4321.32
503.359	3834.51
506.734	3468.48
510.108	3169.68
513.483	2661.95
516.858	2423.01
520.233	2584.93
523.608	3011.82
526.983	3351.72
530.357	3699.96
533.732	3667.43
537.107	3349.02
540.482	2837.87
543.857	2381.37
547.231	2142.43
550.606	1915.25
553.981	1730.48
557.356	1480.77
560.731	1293.72
564.106	997.902
567.48	749.032
570.855	527.68
574.23	347.024
577.605	102.216
580.98	13.831
584.354	35.689
587.729	72.407
591.104	153.375
594.479	203.788
597.854	233.124
601.229	236.856
604.603	218.087
607.978	188.374
611.353	192.848
614.728	162.14
618.103	189.578
621.477	144.202
624.852	147.035
628.227	111.529
631.602	182.056
634.977	172.939
638.351	176.422
641.726	197.851
645.101	150.362
648.476	109.996
651.851	18.029
655.226	56.67
658.6	60.958
661.975	46.167
665.35	8.436
668.725	55.886
672.1	62.614
675.474	185.729
678.849	201.105
682.224	296.337
685.599	329.779
688.974	363.025
692.349	398.579
695.723	439.143
699.098	376.148
702.473	315.596
705.848	206.984
709.222	138.296
712.597	93.555
715.972	25.824
719.347	12.719
722.722	0.729
726.097	84.413
729.471	157.316
732.846	143.71
736.221	251.085
739.596	198.392
742.971	138.893
746.346	171.096
749.72	44.304
753.095	131.062
756.47	111.94
759.845	225.858
763.22	509.079
766.594	792.628
769.969	1096.59
773.344	1472.16
776.719	1680.3
780.094	1790.69
783.468	1881.16
786.843	1795.27
790.218	1889.95
793.593	1909.53
796.968	2023.17
800.343	2286.97
803.717	2720.83
807.092	3420.6
810.467	4333.84
813.842	5648.29
817.217	7191.31
820.591	8912.78
823.966	10711.5
827.341	12121.2
830.716	12761.5
834.091	12069.1
837.466	11182.1
840.84	10591.6
844.215	10976.3
847.59	11227
850.965	12580.2
854.34	14857.2
857.714	17771.3
861.089	21366.3
864.464	24737
867.839	26676.4
871.214	25913.1
874.588	22151.3
877.963	16845.6
881.338	12221.5
884.713	8962.26
888.088	6859.83
891.463	5524.44
894.837	4696.95
898.212	3987.33
901.587	3329.23
904.962	2954.06
908.337	2614.58
911.711	2302.31
915.086	2002.16
918.461	1785.14
921.836	1659.65
925.211	1616.16
928.586	1595.44
931.96	1372.29
935.335	1184.37
938.71	930.337
942.085	678.859
945.46	481.81
948.834	193.065
952.209	71.518
955.584	95.839
958.959	18.351
962.334	32.205
965.708	7.061
969.083	42.103
972.458	105.87
975.833	163.479
979.208	199.72
982.583	336.758
985.957	419.029
989.332	467.498
992.707	506.626
996.082	535.983
999.457	390.214
1002.83	426.307
1006.21	312.052
1009.58	211.063
1012.96	91.673
1016.33	82.197
1019.71	68.297
1023.08	50.059
1026.45	115.427
1029.83	55.01
1033.2	6.412
1036.58	0.508
1039.95	10.653
1043.33	68.16
1046.7	70.021
1050.08	121.928
1053.45	178.932
1056.83	65.688
1060.2	88.564
1063.58	139.06
1066.95	77.353
1070.33	83.639
1073.7	5.951
1077.08	25.179
1080.45	21.758
1083.83	122.249
1087.2	361.257
1090.58	470.319
1093.95	639.137
1097.33	774.383
1100.7	606.554
1104.08	226.391
1107.45	129.176
1110.83	55.04
1114.2	8.374
1117.58	43.773
1120.95	75.739
1124.33	17.717
1127.7	45.248
1131.07	3.465
1134.45	59.243
1137.82	3.696
1141.2	7.595
1144.57	25.542
1147.95	68.837
1151.32	31.162
1154.7	6.561
1158.07	5.537
1161.45	99.674
1164.82	94.167
1168.2	106.373
1171.57	45.928
1174.95	55.881
1178.32	10.59
1181.7	19.032
1185.07	7.168
1188.45	23.463
1191.82	14.18
1195.2	11.264
1198.57	18.135
1201.94	15.399
1205.32	1.327
1208.69	2.536
1212.07	70.927
1215.44	10.45
1218.82	9.442
1222.19	23.206
1225.57	21.003
1228.94	104.348
1232.32	16.106
1235.69	11.657
1239.07	35.071
1242.44	36.982
1245.82	52.218
1249.19	40.849
1252.57	28.415
1255.94	48.319
1259.32	38.461
1262.69	22.667
1266.07	20.888
1269.44	68.423
1272.82	24.221
1276.19	105.252
1279.57	40.006
1282.94	19.398
1286.32	34.815
1289.69	5.167
