Measurement: Raman, 785 nm, unoriented, Raman Data Processed
Mineral: Aheylite
Rruff sample: R070070
Ideal chemistry: Fe^2+^Al_6_(PO_4_)_4_(OH)_8_4H_2_O
Locality: Huanuni, Bolivia
Source: Bob Jenkins
Description: Spherical aggregates of small tan colored crystals, associated with cassiterite
Raman shift (cm-1)	intensity
172.414	0
175.307	332.759
178.2	168.465
181.093	7.25
183.985	37.793
186.878	110.92
189.771	258.294
192.663	283.671
195.556	257.549
198.449	392.873
201.341	491.443
204.234	433.477
207.127	146.569
210.019	135.916
212.912	60.5529
215.805	10.3555
218.698	5.98731
221.59	117.727
224.483	214.578
227.376	322.241
230.268	555.6
233.161	762.236
236.054	751.936
238.946	471.224
241.839	406.74
244.732	308.584
247.625	217.45
250.517	185.292
253.41	57.5293
256.303	67.8809
259.195	22.6787
262.088	142.242
264.981	98.1953
267.873	56.3262
270.766	107.147
273.659	87.666
276.552	45.9023
279.444	94.8857
282.337	111.258
285.23	112.761
288.122	226.165
291.015	241.286
293.908	194.942
296.8	192.557
299.693	261.15
302.586	250.865
305.479	229.889
308.371	267.597
311.264	410.125
314.157	634.47
317.049	747.934
319.942	912.029
322.835	1219.89
325.728	1549.95
328.62	1788.6
331.513	1913.8
334.406	1783.99
337.298	1349.52
340.191	1056.18
343.084	917.227
345.976	590.503
348.869	413.012
351.762	396.76
354.654	204.51
357.547	114.192
360.44	55.5049
363.333	62.8545
366.225	71.0811
369.118	6.56543
372.011	82.2129
374.903	177.157
377.796	293.558
380.689	301.992
383.582	334.854
386.474	192.815
389.367	181.127
392.26	179.344
395.152	101.263
398.045	28.6787
400.938	23.7822
403.83	37.0908
406.723	105.334
409.616	314.841
412.509	579.474
415.401	806.551
418.294	881.41
421.187	593.918
424.079	362.528
426.972	323.005
429.865	293.281
432.757	332.82
435.65	272.84
438.543	307.978
441.435	320.711
444.328	309.83
447.221	331.233
450.114	211.147
453.006	151.64
455.899	215.766
458.792	176.929
461.684	188.684
464.577	174.766
467.47	317.629
470.363	295.595
473.255	286.633
476.148	291.152
479.041	286.745
481.933	338.391
484.826	284.216
487.719	295.3
490.611	286.008
493.504	198.71
496.397	203.785
499.289	186.91
502.182	211.884
505.075	188.066
507.968	145.746
510.86	115.2
513.753	99.3975
516.646	135.879
519.538	4.02832
522.431	11.3604
525.324	88.2393
528.217	33.6553
531.109	178.606
534.002	139.219
536.895	47.085
539.787	55.1719
542.68	12.9297
545.573	26.9717
548.466	64.2969
551.358	13.4688
554.251	1.66016
557.144	39.9824
560.036	105.394
562.929	221.344
565.822	364.527
568.714	366.251
571.607	424.481
574.5	586.856
577.392	739.703
580.285	731.51
583.178	584.64
586.071	523.92
588.963	473.133
591.856	456.396
594.749	440.465
597.641	426.511
600.534	420.688
603.427	348.969
606.319	329.389
609.212	337.381
612.105	224.907
614.997	277.37
617.89	244.09
620.783	334.603
623.676	424.212
626.568	558.715
629.461	700.107
632.354	797.798
635.246	836.364
638.139	802.498
641.032	774.44
643.924	601.479
646.817	568.649
649.71	390.872
652.603	273.108
655.495	230.932
658.388	124.657
661.281	167.054
664.173	151.828
667.066	133.535
669.959	92.8848
672.851	142.199
675.744	127.655
678.637	38.2695
681.53	33.3535
684.422	50.2549
687.315	81.7764
690.208	51.0879
693.1	16.2373
695.993	20.4111
698.886	25.4922
701.779	10.2383
704.671	72.75
707.564	9.70312
710.457	23.6719
713.349	11.1396
716.242	26.4814
719.135	25.0039
722.027	10.5195
724.92	34.1885
727.813	4.98535
730.706	90.7764
733.598	15.1777
736.491	83.8838
739.384	27.6602
742.276	24.4014
745.169	100.514
748.062	77.8184
750.954	123.782
753.847	27.1016
756.74	91.4707
759.633	18.1143
762.525	59.3984
765.418	174.517
768.311	36.0703
771.203	100.53
774.096	133.855
776.989	92.4736
779.881	59.1484
782.774	90.668
785.667	70.3936
788.559	41.2315
791.452	12.2207
794.345	118.265
797.238	53.3643
800.13	25.3311
803.023	11.2217
805.916	48.6065
808.808	18.1064
811.701	66.5684
814.594	70.0986
817.486	81.5
820.379	2.97168
823.272	36.7568
826.165	6.96289
829.057	44.9658
831.95	29.4307
834.843	14.6123
837.735	19.5479
840.628	66.4053
843.521	25.6553
846.413	36.9717
849.306	18.0771
852.199	5.00391
855.092	35.1045
857.984	22.8369
860.877	52.2227
863.77	80.6709
866.662	105.003
869.555	103.173
872.448	123.029
875.341	58.6973
878.233	64.7207
881.126	89.7168
884.019	99.9697
886.911	77.71
889.804	108.013
892.697	130.139
895.589	131.111
898.482	115.03
901.375	85.1894
904.268	110.871
907.16	90.8506
910.053	121.091
912.946	54.3477
915.838	10.8242
918.731	38.668
921.624	50.959
924.516	107.609
927.409	83.0273
930.302	29.6562
933.194	15.4395
936.087	86.8613
938.98	55.8008
941.873	11.0381
944.765	35.6758
947.658	54.8272
950.551	20.7295
953.443	48.0215
956.336	50.4668
959.229	29.9121
962.121	34.9482
965.014	18.0312
967.907	51.666
970.8	70.3457
973.692	79.6953
976.585	86.9775
979.478	166.891
982.37	230.572
985.263	256.228
988.156	280.584
991.048	336.078
993.941	352.496
996.834	333.216
999.727	288.522
1002.62	277.556
1005.51	264.479
1008.4	239.512
1011.3	282.642
1014.19	373.025
1017.08	376.783
1019.98	542.126
1022.87	679.073
1025.76	999.253
1028.65	1286.79
1031.55	1706.99
1034.44	2119.21
1037.33	2554.8
1040.22	2772.7
1043.12	2735.3
1046.01	2340.22
1048.9	1854.89
1051.8	1463.1
1054.69	1141.61
1057.58	904.294
1060.47	877.881
1063.37	710.372
1066.26	445.367
1069.15	372.423
1072.04	239.451
1074.94	125.374
1077.83	93.0264
1080.72	30.6621
1083.62	21.3496
1086.51	31.9482
1089.4	75.0293
1092.29	79.1777
1095.19	135.167
1098.08	114.548
1100.97	112.446
1103.86	139.458
1106.76	117.91
1109.65	104.177
1112.54	81.0967
1115.43	4.58106
1118.33	0.354492
1121.22	45.1953
1124.11	36.3652
1127.01	44.3008
1129.9	24.1504
1132.79	15.9092
1135.68	13.6738
1138.58	108.014
1141.47	35.248
1144.36	1.53125
1147.25	119.695
1150.15	198.81
1153.04	202.708
1155.93	249.533
1158.83	204.339
1161.72	264.316
1164.61	130.919
1167.5	156.364
1170.4	138.496
1173.29	85.6143
1176.18	16.5283
1179.07	0.307617
1181.97	32.4541
1184.86	78.7959
1187.75	73.1894
1190.64	8.24023
1193.54	124.752
1196.43	84.5098
1199.32	87.8027
1202.22	3.42725
1205.11	27.3564
1208	96.0527
1210.89	68.4805
1213.79	51.1728
1216.68	74.8769
1219.57	46.8057
1222.46	48.4736
1225.36	30.1074
1228.25	14.6123
1231.14	3.18945
1234.04	87.9668
