Measurement: Raman, 532 nm, unoriented, Raman Data Processed
Mineral: Aheylite
Rruff sample: R070070
Ideal chemistry: Fe^2+^Al_6_(PO_4_)_4_(OH)_8_4H_2_O
Locality: Huanuni, Bolivia
Source: Bob Jenkins
Description: Spherical aggregates of small tan colored crystals, associated with cassiterite
Raman shift (cm-1)	intensity
169.465	0
172.358	1063.43
175.251	2424.51
178.143	1950.89
181.036	456.443
183.929	439.445
186.821	749.811
189.714	867.102
192.607	1102.71
195.5	1452.2
198.392	1668.5
201.285	1760.43
204.178	1578.77
207.07	707.672
209.963	227.035
212.856	142.049
215.749	107.598
218.641	118.598
221.534	22.4746
224.427	564.996
227.319	1169.11
230.212	2597.59
233.105	3009.96
235.997	2902.25
238.89	2113.9
241.783	1578.54
244.675	1362.88
247.568	1056.97
250.461	610.949
253.354	400.504
256.246	311.832
259.139	137.637
262.032	370.162
264.924	220.301
267.817	112.939
270.71	49.1055
273.603	110.25
276.495	81.6191
279.388	1.06641
282.281	129.117
285.173	463.15
288.066	760.832
290.959	934.156
293.851	855.547
296.744	624.699
299.637	565.125
302.529	586.883
305.422	923.828
308.315	1157.43
311.208	1759.62
314.1	2078.77
316.993	2899.16
319.886	3443.32
322.778	4734.97
325.671	5873.34
328.564	6632.79
331.457	7048.27
334.349	6180.82
337.242	4832.21
340.135	3541.38
343.027	2915.97
345.92	2041.47
348.813	1629.68
351.705	1256.16
354.598	709.305
357.491	398.144
360.384	44.3047
363.276	244.246
366.169	285.402
369.062	22.7812
371.954	320.707
374.847	751.086
377.74	1114.66
380.632	1258.41
383.525	1141.24
386.418	1066.93
389.31	662.891
392.203	469.805
395.096	332.445
397.989	52.4375
400.881	120.215
403.774	294.191
406.667	945.754
409.559	1939.55
412.452	3066.47
415.345	4448.85
418.238	4198.58
421.13	2839.27
424.023	1634.2
426.916	1339.1
429.808	1230.24
432.701	1344.97
435.594	1176.92
438.486	1463.39
441.379	1415.47
444.272	1699.84
447.165	1435.23
450.057	1094.12
452.95	716.172
455.843	673.496
458.735	595.254
461.628	822.391
464.521	866.023
467.413	1071.67
470.306	1083.31
473.199	1305.83
476.092	1499.23
478.984	1758.8
481.877	1757.98
484.77	1816.36
487.662	1531.31
490.555	1373.19
493.448	1070.64
496.341	903.312
499.233	874.609
502.126	803.758
505.019	814.184
507.911	899.148
510.804	551.055
513.697	651.625
516.589	449.523
519.482	288.211
522.375	228.316
525.268	438.887
528.16	306.656
531.053	460.266
533.946	362.566
536.838	399.867
539.731	36.9492
542.624	9.25
545.516	103.461
548.409	320.731
551.302	154.324
554.194	27.9609
557.087	179.379
559.98	427.883
562.873	971.941
565.765	1394.96
568.658	2009.33
571.551	2449.8
574.443	2814.41
577.336	3144.92
580.229	3108.98
583.121	2897.31
586.014	2297.6
588.907	2227.28
591.8	2212.24
594.692	2166.39
597.585	2164.95
600.478	2209.49
603.37	1948.7
606.263	1715.3
609.156	1699.75
612.048	1355.56
614.941	1521.42
617.834	1782.11
620.727	2158.22
623.619	2665.51
626.512	3138.15
629.405	3945.25
632.297	4446.95
635.19	4630.34
638.083	4481.5
640.976	4197.81
643.868	3579.92
646.761	2869.68
649.654	2410.33
652.546	1813.28
655.439	1698.51
658.332	1597.19
661.224	1360.86
664.117	1206.23
667.01	1207.62
669.903	927.047
672.795	887.566
675.688	770.93
678.581	603.793
681.473	441.731
684.366	410.25
687.259	290.012
690.151	108.973
693.044	59.0312
695.937	174.309
698.83	42.7578
701.722	44.5234
704.615	29.1328
707.508	43.0547
710.4	11.875
713.293	9.87109
716.186	1.92578
719.078	35.082
721.971	100.242
724.864	227.676
727.756	235.012
730.649	207.086
733.542	351.293
736.435	256.762
739.327	273.824
742.22	284.512
745.113	176.824
748.005	378.176
750.898	250.477
753.791	492.207
756.683	383.309
759.576	312.281
762.469	215.582
765.362	393.479
768.254	362.262
771.147	473.727
774.04	481.512
776.932	523.93
779.825	268.59
782.718	578.938
785.611	386.121
788.503	444.316
791.396	372.242
794.289	215.391
797.181	308.637
800.074	313.363
802.967	391.82
805.859	310.09
808.752	410.09
811.645	259.445
814.538	379.621
817.43	64.9102
820.323	191.477
823.216	214.559
826.108	138.57
829.001	251.332
831.894	22.1484
834.786	173.594
837.679	93.0234
840.572	145.555
843.465	148.668
846.357	149.051
849.25	169.606
852.143	89.7266
855.035	90.1523
857.928	163.262
860.821	141.961
863.713	144.359
866.606	72.7461
869.499	201.074
872.391	144.246
875.284	344.547
878.177	514.281
881.07	265.008
883.962	285.043
886.855	465.996
889.748	435.055
892.64	435.25
895.533	434.144
898.426	357.426
901.318	207.309
904.211	344.734
907.104	228.242
909.997	160.973
912.889	299.008
915.782	174.785
918.675	120.621
921.567	121.039
924.46	122.68
927.353	50.1797
930.246	77.9844
933.138	3.87109
936.031	100.863
938.924	74.7578
941.816	33.1992
944.709	196.672
947.602	147.012
950.495	94.8164
953.387	10.7734
956.28	5.04297
959.173	96.5781
962.065	36.7656
964.958	124.988
967.851	174.703
970.743	220.078
973.636	254.008
976.529	702.07
979.422	954.973
982.314	1419.86
985.207	1433.67
988.1	2004.59
990.992	2063.95
993.885	2050.12
996.778	2027.95
999.67	1817.95
1002.56	1472.65
1005.46	1464.04
1008.35	1529.86
1011.24	1781.34
1014.13	2020.52
1017.03	2799.7
1019.92	3626.62
1022.81	5133.58
1025.7	6960.77
1028.6	9384.22
1031.49	12235.5
1034.38	15271.2
1037.28	17702.6
1040.17	19053.3
1043.06	17939.7
1045.95	15335
1048.85	12027.5
1051.74	9324.85
1054.63	7347.49
1057.52	6110.86
1060.42	5047.27
1063.31	4000.66
1066.2	2687.89
1069.1	1813.02
1071.99	1218.15
1074.88	746.398
1077.77	296.93
1080.67	329.617
1083.56	261.164
1086.45	150.938
1089.34	307.211
1092.24	563.055
1095.13	781.516
1098.02	1176.71
1100.91	1051.09
1103.81	965.461
1106.7	709.234
1109.59	383.656
1112.49	200.898
1115.38	92.8672
1118.27	7.89844
1121.16	111.539
1124.06	55.8281
1126.95	129.664
1129.84	117
1132.73	23.5625
1135.63	217.562
1138.52	267.758
1141.41	513.117
1144.31	818.523
1147.2	1014.52
1150.09	1285.16
1152.98	1721.07
1155.88	1992.22
1158.77	2175.37
1161.66	1789.62
1164.55	1285.11
1167.45	1120.99
1170.34	927.602
1173.23	541.547
1176.12	652.93
1179.02	792.773
1181.91	648.219
1184.8	659.617
1187.7	715.039
1190.59	681.078
1193.48	744.672
1196.37	611.734
1199.27	267.234
1202.16	492.555
1205.05	241.656
1207.94	132.789
1210.84	137.102
1213.73	79.6641
1216.62	44.7734
1219.52	142.477
1222.41	164.953
1225.3	119.742
1228.19	65.2031
1231.09	154.711
1233.98	129.945
1236.87	85.75
1239.77	58.6797
1242.66	225.555
1245.55	339.352
1248.44	70.0781
1251.34	233.125
1254.23	83.9375
1257.12	209.359
1260.01	310.43
1262.91	248.852
1265.8	330.984
1268.69	290.344
1271.58	233.648
1274.48	352.945
1277.37	441.578
1280.26	148.484
1283.15	289.469
1286.05	457.031
1288.94	381.195
1291.83	196.312
1294.73	261.852
1297.62	122.227
1300.51	2.91406
1303.4	329.758
1306.3	11.4688
1309.19	174.898
1312.08	237.266
