Measurement: Raman, 532 nm, unoriented, Raman Data Processed
Mineral: Aheylite
Rruff sample: R070171
Ideal chemistry: Fe^2+^Al_6_(PO_4_)_4_(OH)_8_4H_2_O
Locality: Bali Lo, Ashburton Downs, Western Australia, Australia
Source: Michael Scott
Description: Green radial aggregate around a bronze red core
Raman shift (cm-1)	intensity
152.11	0
155.003	110.161
157.895	216.918
160.788	72.208
163.681	36.9961
166.573	60.7002
169.466	485.495
172.359	1042.17
175.252	1849.42
178.144	2815.65
181.037	3866.05
183.93	4684.97
186.822	5394.25
189.715	5911.88
192.608	6347.2
195.5	6961.5
198.393	7651.29
201.286	8317.84
204.179	8941.45
207.071	9241.92
209.964	9156.54
212.857	8739.07
215.749	8024.11
218.642	7278.8
221.535	6356.25
224.428	5748.58
227.32	5110.89
230.213	4300.73
233.106	3467.11
235.998	2673.06
238.891	2044.38
241.784	1596.09
244.676	1160.94
247.569	960.159
250.462	774.62
253.355	468.327
256.247	289.478
259.14	177.892
262.033	1.68066
264.925	162.789
267.818	96.0019
270.711	69.0762
273.603	204.108
276.496	618.414
279.389	1190.51
282.281	1899.6
285.174	2696.85
288.067	3416.69
290.959	4134.06
293.852	4551.59
296.745	5014.81
299.638	5499.75
302.53	5903.13
305.423	6334.36
308.316	6636.15
311.208	6875.16
314.101	6944.54
316.994	6623.07
319.887	6149.45
322.779	5554.94
325.672	4674.04
328.565	3747.3
331.457	2905.51
334.35	2165.94
337.243	1565.43
340.135	1165.16
343.028	874.739
345.921	703.044
348.813	628.99
351.706	598.244
354.599	545.646
357.492	361.996
360.384	92.4707
363.277	4.04102
366.17	141.501
369.062	81.1553
371.955	49.5547
374.848	269.8
377.74	490.368
380.633	747.35
383.526	1083.21
386.418	1430.7
389.311	1773.85
392.204	2144.69
395.097	2407.41
397.989	2592.45
400.882	2541.81
403.775	2314.84
406.667	2054.43
409.56	1767.05
412.453	1303.43
415.346	843.363
418.238	480.585
421.131	202.883
424.024	91.2627
426.916	62.8643
429.809	228.545
432.702	532.699
435.594	609.481
438.487	918.588
441.38	957.624
444.272	1121.71
447.165	1152.05
450.058	1219.3
452.951	1225.51
455.843	1131.23
458.736	942.026
461.629	803.51
464.521	609.235
467.414	389.341
470.307	203.621
473.2	125.267
476.092	0.442383
478.985	96.7031
481.878	153.794
484.77	94.6162
487.663	18.2119
490.556	97.9902
493.448	152.698
496.341	391.202
499.234	487.202
502.127	613.064
505.019	748.851
507.912	795.94
510.805	771.483
513.697	806.985
516.59	856.249
519.483	900.915
522.375	915.214
525.268	1026.71
528.161	1169.55
531.053	1184.47
533.946	1115.6
536.839	985.483
539.731	678.271
542.624	466.723
545.517	237.337
548.41	134.992
551.302	78.0674
554.195	228.108
557.088	432.19
559.98	875.17
562.873	1262.17
565.766	1522.43
568.659	1846.82
571.551	2006.52
574.444	2140.25
577.337	2136.15
580.229	2093.41
583.122	1841.38
586.015	1608.52
588.907	1324.73
591.8	946.796
594.693	700.153
597.585	451.211
600.478	366.34
603.371	248.477
606.264	357.027
609.156	378.891
612.049	552.682
614.942	750.825
617.834	906.577
620.727	1172.51
623.62	1230.96
626.513	1308.07
629.405	1375.93
632.298	1307.04
635.191	1184.98
638.083	1038.35
640.976	911.965
643.869	847.445
646.761	685.034
649.654	532.824
652.547	456.723
655.439	349.246
658.332	233.696
661.225	147.475
664.117	98.3149
667.01	13.0801
669.903	78.7534
672.796	17.0142
675.688	67.3325
678.581	29.083
681.474	83.8652
684.366	32.582
687.259	15.5278
690.152	72.7344
693.044	85.2163
695.937	126.102
698.83	128.532
701.723	220.476
704.615	239.651
707.508	283.886
710.401	250.913
713.293	321.232
716.186	318.263
719.079	316.901
721.971	299.845
724.864	342.877
727.757	307.201
730.649	305.162
733.542	268.397
736.435	216.558
739.328	174.542
742.22	122.203
745.113	73.3965
748.006	32.5649
750.898	33.0552
753.791	21.4307
756.684	23.8145
759.577	15.459
762.469	15.8384
765.362	58.9956
768.255	73.0996
771.147	123.168
774.04	244.058
776.933	323.81
779.825	385.244
782.718	464.599
785.611	526.477
788.504	587.748
791.396	530.513
794.289	468.096
797.182	406.257
800.074	339.488
802.967	313.195
805.86	271.343
808.752	344.315
811.645	391.534
814.538	598.735
817.431	507.187
820.323	507.64
823.216	530.96
826.109	407.935
829.001	438.036
831.894	403.256
834.787	452.17
837.679	413.094
840.572	434.775
843.465	507.737
846.357	568.337
849.25	594.583
852.143	549.305
855.036	575.174
857.928	632.559
860.821	660.573
863.714	660.852
866.606	819.102
869.499	870.757
872.392	910.49
875.284	856.174
878.177	880.581
881.07	807.153
883.962	652.305
886.855	457.736
889.748	242.034
892.641	95.561
895.533	2.49023
898.426	76.0889
901.319	95.3569
904.211	71.9477
907.104	0.037598
909.997	152.547
912.889	150.392
915.782	218.102
918.675	206.183
921.568	238.577
924.46	209.297
927.353	222.978
930.246	199.862
933.138	270.144
936.031	198.942
938.924	178.205
941.817	108.925
944.709	132.239
947.602	53.5781
950.495	29.21
953.387	17.3818
956.28	48.0903
959.173	6.46191
962.065	103.764
964.958	25.0957
967.851	154.452
970.744	325.907
973.636	608.315
976.529	852.363
979.422	1206.48
982.314	1636.93
985.207	2198.26
988.1	2837.38
990.992	3647.27
993.885	4421.98
996.778	5110.49
999.67	5599.25
1002.56	5943.08
1005.46	6298.39
1008.35	6580.31
1011.24	6717.66
1014.13	6752.47
1017.03	7088.44
1019.92	7392.93
1022.81	7981.14
1025.7	8455.56
1028.6	9035.58
1031.49	9373.6
1034.38	9488.74
1037.28	9457.85
1040.17	9081.01
1043.06	8306.23
1045.95	7355.47
1048.85	6267.89
1051.74	5166.71
1054.63	4103.73
1057.52	3103.63
1060.42	2163.96
1063.31	1333.34
1066.2	732.406
1069.1	219.926
1071.99	3.21094
1074.88	73.5518
1077.77	44.5527
1080.67	92.8311
1083.56	361.22
1086.45	632.097
1089.34	919.51
1092.24	1120.86
1095.13	1330.65
1098.02	1430.96
1100.91	1367.42
1103.81	1254.6
1106.7	1082.72
1109.59	897.93
1112.49	695.105
1115.38	559.771
1118.27	388.139
1121.16	274.675
1124.06	199.226
1126.95	116.72
1129.84	49.6035
1132.73	16.8906
1135.63	51.189
1138.52	36.2466
1141.41	53.7212
1144.31	31.1299
1147.2	38.3687
1150.09	52.104
1152.98	237.016
1155.88	370.503
1158.77	203.864
1161.66	297.47
1164.55	207.379
1167.45	108.115
1170.34	120.561
1173.23	89.519
1176.12	52.5908
1179.02	23.4365
1181.91	75.5439
1184.8	15.8081
