Measurement: Raman, 785 nm, unoriented, Raman Data Processed
Mineral: Aheylite
Rruff sample: R070171
Ideal chemistry: Fe^2+^Al_6_(PO_4_)_4_(OH)_8_4H_2_O
Locality: Bali Lo, Ashburton Downs, Western Australia, Australia
Source: Michael Scott
Description: Green radial aggregate around a bronze red core
Raman shift (cm-1)	intensity
147.826	0
150.719	102.357
153.611	89.0804
156.504	8.2207
159.397	14.2802
162.289	91.3094
165.182	161.391
168.075	271.974
170.968	416.316
173.86	544.817
176.753	729.426
179.646	975.019
182.538	1158.54
185.431	1354.03
188.324	1439.39
191.216	1501.22
194.109	1644.88
197.002	1689.25
199.894	1792.84
202.787	1883.04
205.68	1915.07
208.573	1923.67
211.465	1860.76
214.358	1710.8
217.251	1520.15
220.143	1333.1
223.036	1166.57
225.929	934.926
228.821	821.817
231.714	657.165
234.607	493.459
237.5	442.038
240.392	292.935
243.285	261.669
246.178	190.813
249.07	155.597
251.963	92.0834
254.856	39.46
257.748	13.5136
260.641	18.8445
263.534	29.3766
266.427	20.4877
269.319	41.2208
272.212	12.7795
275.105	36.1217
277.997	92.4961
280.89	146.454
283.783	267.43
286.675	341.65
289.568	398.969
292.461	468.368
295.354	520.481
298.246	556.429
301.139	622.601
304.032	711.823
306.924	793.046
309.817	875.2
312.71	918.5
315.603	935.55
318.495	968.674
321.388	965.003
324.281	974.2
327.173	951.761
330.066	858.595
332.959	798.232
335.851	752.981
338.744	713.272
341.637	663.506
344.529	654.666
347.422	632.341
350.315	591.961
353.208	557.413
356.1	467.779
358.993	339.477
361.886	247.03
364.778	123.275
367.671	57.1195
370.564	36.1334
373.457	5.15808
376.349	52.4899
379.242	44.2052
382.135	32.5203
385.027	50.7941
387.92	132.317
390.813	204.655
393.705	327.431
396.598	355.496
399.491	384.406
402.384	381.348
405.276	381.203
408.169	338.432
411.062	304.472
413.954	263.225
416.847	228.539
419.74	255.737
422.632	220.79
425.525	271.646
428.418	349.88
431.31	449.991
434.203	480.632
437.096	555.861
439.989	614.012
442.881	686.178
445.774	742.958
448.667	799.294
451.559	858.783
454.452	871.121
457.345	908.071
460.238	864.419
463.13	804.556
466.023	751.555
468.916	649.559
471.808	555.395
474.701	453.692
477.594	360.106
480.486	301.193
483.379	193.035
486.272	144.829
489.164	99.9692
492.057	24.5507
494.95	23.7607
497.843	0.419189
500.735	26.0293
503.628	21.0383
506.521	25.9707
509.413	6.19373
512.306	22.8922
515.199	76.7216
518.091	86.9894
520.984	95.4353
523.877	97.6022
526.77	152.455
529.662	188.856
532.555	239.02
535.448	185.153
538.34	151.513
541.233	114.409
544.126	62.1498
547.019	41.5382
549.911	18.8717
552.804	30.1492
555.697	89.4476
558.589	142.431
561.482	195.19
564.375	279.772
567.267	371.161
570.16	373.053
573.053	429.769
575.946	436.432
578.838	457.438
581.731	441.428
584.624	447.641
587.516	372.449
590.409	353.542
593.302	294.53
596.194	211.341
599.087	228.527
601.98	203.808
604.872	198.389
607.765	204.426
610.658	232.731
613.551	234.299
616.443	269.642
619.336	251.229
622.229	310.034
625.121	279.291
628.014	221.234
630.907	189.233
633.799	180.015
636.692	135.555
639.585	119.022
642.478	94.7527
645.37	48.4606
648.263	42.1296
651.156	49.1473
654.048	43.8401
656.941	21.3575
659.834	38.3839
662.726	8.76117
665.619	0.872253
668.512	2.24188
671.405	20.9992
674.297	4.62897
677.19	14.738
680.083	8.51166
682.975	9.21832
685.868	5.72894
688.761	22.9142
691.654	6.29816
694.546	15.0605
697.439	38.2313
700.332	27.6713
703.224	24.0352
706.117	18.7371
709.01	41.665
711.902	60.7745
714.795	44.9324
717.688	68.9133
720.581	60.6049
723.473	90.0067
726.366	71.9757
729.259	34.4562
732.151	30.4973
735.044	44.8654
737.937	6.97229
740.829	63.0319
743.722	34.8912
746.615	32.3696
749.508	27.2387
752.4	30.4346
755.293	21.4272
758.186	23.7099
761.078	20.5462
763.971	0.898438
766.864	20.5716
769.756	26.1088
772.649	15.5007
775.542	45.4036
778.434	72.2457
781.327	92.1705
784.22	73.9003
787.113	77.8341
790.005	93.2107
792.898	75.2811
795.791	64.9422
798.683	48.5674
801.576	34.3285
804.469	34.9969
807.361	24.7338
810.254	37.85
813.147	32.0471
816.04	45.7623
818.932	25.1035
821.825	18.7083
824.718	3.64655
827.61	17.0159
830.503	0.212402
833.396	22.9528
836.288	20.975
839.181	25.5123
842.074	22.8853
844.967	37.8862
847.859	28.1183
850.752	34.2205
853.645	20.8483
856.537	26.3568
859.43	33.53
862.323	50.9272
865.216	52.3499
868.108	30.6755
871.001	92.7617
873.894	74.0081
876.786	86.9151
879.679	61.4301
882.572	57.4135
885.464	32.2664
888.357	40.8603
891.25	9.70026
894.143	27.3308
897.035	11.2872
899.928	1.72064
902.821	35.3899
905.713	54.6304
908.606	78.2642
911.499	90.912
914.391	99.0159
917.284	126.894
920.177	161.556
923.069	124.471
925.962	98.066
928.855	93.5827
931.748	88.4431
934.64	63.7183
937.533	43.2747
940.426	52.1674
943.318	38.8459
946.211	27.9453
949.104	6.5509
951.996	2.63422
954.889	29.359
957.782	15.0801
960.675	26.496
963.567	28.1906
966.46	56.3881
969.353	43.1962
972.245	87.5086
975.138	136.481
978.031	195.075
980.923	278.539
983.816	353.387
986.709	474.87
989.602	609.509
992.494	732.576
995.387	865.398
998.28	961.516
1001.17	1042.77
1004.07	1073.59
1006.96	1119.62
1009.85	1200.1
1012.74	1192.64
1015.64	1186.62
1018.53	1247.93
1021.42	1296.25
1024.31	1328.09
1027.21	1373.53
1030.1	1435.09
1032.99	1427.16
1035.88	1350.24
1038.78	1304.55
1041.67	1205.08
1044.56	1059.04
1047.46	913.166
1050.35	826.61
1053.24	648.882
1056.13	549.594
1059.03	367.283
1061.92	231.019
1064.81	160.271
1067.7	61.4479
1070.6	0.039063
1073.49	1.05786
1076.38	6.599
1079.28	5.20032
1082.17	21.9423
1085.06	78.0447
1087.95	115.594
1090.85	166.674
1093.74	163.722
1096.63	183.446
1099.52	194.399
1102.42	199.627
1105.31	200.591
1108.2	122.701
1111.1	105.209
1113.99	113.256
1116.88	65.4274
1119.77	32.6081
1122.67	17.4141
1125.56	17.7349
1128.45	17.9834
1131.34	5.7478
1134.24	27.5835
1137.13	6.99396
1140.02	46.4474
1142.91	7.47436
1145.81	0
