Measurement: Raman, 532 nm, unoriented, Raman Data Processed
Mineral: Ajoite
Rruff sample: R120018
Ideal chemistry: K_3_Cu^2+^_20_Al_3_Si_29_O_76_(OH)_16_8H_2_O
Locality: New Cornelia mine, Ajo, Arizona, USA
Source: Ron Gibbs
Description: Bed of pale greenish-blue bladed crystals associated with green conichalcite R120017
Raman shift (cm-1)	intensity
190.773	0
193.665	6.32971
196.558	14.4673
199.451	20.9132
202.343	26.3743
205.236	13.4035
208.129	8.21811
211.021	12.0247
213.914	11.3735
216.807	15.0104
219.699	22.112
222.592	23.7987
225.485	20.4201
228.377	20.9255
231.27	18.2956
234.163	12.2787
237.056	9.76028
239.948	9.27817
242.841	2.93512
245.734	2.20322
248.626	14.1719
251.519	15.1122
254.412	16.6465
257.305	15.3155
260.197	17.8347
263.09	17.3935
265.983	20.1887
268.875	19.3506
271.768	15.8573
274.661	13.4688
277.553	10.3023
280.446	4.89749
283.339	3.12134
286.232	6.0596
289.124	9.56278
292.017	11.9367
294.91	6.59982
297.802	6.4946
300.695	2.94141
303.588	1.48624
306.481	4.47717
309.373	0.332031
312.266	12.7551
315.159	17.449
318.051	33.3162
320.944	43.8777
323.837	53.045
326.729	58.1461
329.622	67.0424
332.515	64.9192
335.408	64.7459
338.3	63.7193
341.193	61.1249
344.086	65.2776
346.978	56.8493
349.871	49.0349
352.764	36.0793
355.656	29.5525
358.549	15.4215
361.442	7.91623
364.334	6.26797
367.227	3.70401
370.12	0.318329
373.012	2.85754
375.905	5.76224
378.798	3.40466
381.691	2.4068
384.583	10.6965
387.476	24.8897
390.369	48.9168
393.261	68.4696
396.154	93.3648
399.047	126.29
401.94	148.426
404.832	173.906
407.725	185.827
410.618	192.941
413.51	198.963
416.403	199.874
419.296	205.923
422.188	207.825
425.081	200.595
427.974	195.003
430.866	179.359
433.759	164.689
436.652	145.391
439.545	130.054
442.437	111.879
445.33	97.2598
448.223	81.6144
451.115	60.8325
454.008	42.1177
456.901	31.5655
459.793	26.3091
462.686	19.6319
465.579	14.678
468.472	9.64893
471.364	12.8777
474.257	21.9088
477.15	25.7193
480.042	40.7647
482.935	47.6928
485.828	53.5886
488.721	45.7171
491.613	37.3682
494.506	24.5019
497.399	12.9383
500.291	10.8266
503.184	20.8
506.077	31.784
508.969	41.8485
511.862	42.5904
514.755	46.0359
517.648	49.456
520.54	39.4804
523.433	30.1274
526.326	24.6288
529.218	15.2563
532.111	8.53638
535.004	1.24109
537.896	1.39159
540.789	3.78386
543.682	2.16624
546.575	2.74516
549.467	1.32399
552.36	0.240005
555.253	6.64694
558.145	7.13968
561.038	4.35779
563.931	6.75049
566.823	6.94106
569.716	11.8158
572.609	5.76771
575.502	8.47697
578.394	10.3705
581.287	9.48622
584.18	13.2229
587.072	9.36224
589.965	10.6772
592.858	8.97256
595.75	7.42809
598.643	4.43088
601.536	1.97228
604.428	1.15584
607.321	0.750168
610.214	0.096039
613.107	3.0047
615.999	3.18298
618.892	4.72873
621.785	3.51102
624.677	7.09296
627.57	11.4458
630.463	15.4514
633.356	24.1106
636.248	32.9917
639.141	50.4845
642.034	65.1382
644.926	83.2766
647.819	103.086
650.712	115.091
653.604	130.235
656.497	153.126
659.39	183.179
662.283	234.031
665.175	300.106
668.068	371.429
670.961	435.193
673.853	453.928
676.746	404.4
679.639	301.863
682.531	206.639
685.424	137.283
688.317	93.9447
691.21	65.8562
694.102	49.0179
696.995	38.2147
699.888	25.5897
702.78	20.4097
705.673	14.7487
708.566	9.66066
711.458	8.84367
714.351	4.82507
717.244	2.49445
720.136	3.01679
723.029	0.600601
725.922	1.52212
728.815	0.780609
731.707	1.98267
734.6	0.958496
737.493	1.21626
740.385	0.457336
743.278	0.986038
746.171	0.033264
749.063	0.971191
751.956	6.76199
754.849	5.95226
757.742	8.77098
760.634	7.18787
763.527	6.1577
766.42	12.0605
769.312	10.721
772.205	10.4469
775.098	15.274
777.99	21.3874
780.883	26.8145
783.776	31.4355
786.669	36.2751
789.561	43.6811
792.454	49.1012
795.347	48.6576
798.239	35.1593
801.132	32.4725
804.025	25.8187
806.918	21.3981
809.81	20.6452
812.703	15.8401
815.596	13.3302
818.488	16.4248
821.381	15.9004
824.274	12.8629
827.166	9.91867
830.059	12.3305
832.952	12.2805
835.845	10.6153
838.737	11.3149
841.63	12.9956
844.523	7.93202
847.415	9.46933
850.308	6.95628
853.201	5.16745
856.093	7.44193
858.986	6.99678
861.879	3.45583
864.771	7.07144
867.664	6.81575
870.557	7.14498
873.45	6.3987
876.342	4.71276
879.235	7.71641
882.128	4.52334
885.02	3.19644
887.913	3.65768
890.806	1.26054
893.698	1.46998
896.591	2.30205
899.484	0.864281
902.377	0.029243
905.269	1.452
908.162	3.42606
911.055	1.0596
913.947	1.28452
916.84	1.39324
919.733	0.72422
922.625	2.06007
925.518	0.298485
928.411	2.90393
931.304	2.30658
934.196	3.55978
937.089	0.1474
939.982	2.03628
942.875	1.976
945.767	2.46898
948.66	3.17541
951.553	3.13172
954.445	4.04899
957.338	1.46593
960.231	4.60998
963.123	3.39749
966.016	5.95126
968.909	7.49504
971.802	7.44728
974.694	5.61346
977.587	8.47123
980.48	3.68016
983.372	7.95477
986.265	3.87769
989.158	4.53008
992.05	6.34232
994.943	3.06337
997.836	4.03352
1000.73	4.06728
1003.62	7.49572
1006.51	5.04394
1009.41	8.67361
1012.3	8.58754
1015.19	4.89644
1018.09	11.4884
1020.98	10.5506
1023.87	14.1455
1026.76	11.2056
1029.66	13.3675
1032.55	16.9315
1035.44	21.1157
1038.33	23.0466
1041.23	30.6209
1044.12	35.6123
1047.01	43.4032
1049.9	47.3547
1052.8	47.3149
1055.69	42.4393
1058.58	31.5702
1061.47	25.1475
1064.37	17.7881
1067.26	12.8042
1070.15	6.39207
1073.05	5.72458
1075.94	2.08887
1078.83	0.705551
1081.72	0.096909
1084.62	1.38657
1087.51	1.57275
1090.4	0.880089
1093.3	1.54991
1096.19	0.654633
1099.08	2.23524
1101.97	1.5051
1104.87	2.80576
1107.76	5.31724
1110.65	4.79242
1113.54	3.06784
1116.44	5.48645
1119.33	5.27776
1122.22	4.71423
1125.12	4.79781
1128.01	8.87516
1130.9	7.41819
1133.79	10.9645
1136.68	10.0033
1139.58	10.4884
1142.47	11.8687
1145.36	9.57108
1148.26	9.50348
1151.15	10.3187
1154.04	8.30622
1156.93	6.65782
1159.83	9.19549
1162.72	6.88004
1165.61	5.68092
1168.51	2.85548
1171.4	5.04878
1174.29	3.47379
1177.18	5.14695
1180.08	4.527
1182.97	6.57207
1185.86	3.61663
1188.75	3.50535
1191.65	2.35317
1194.54	1.64078
1197.43	0.687096
1200.33	2.90168
1203.22	3.05466
1206.11	2.59574
1209	3.32557
1211.9	0.678238
1214.79	4.17977
1217.68	1.75028
1220.57	0.419109
1223.47	0.185493
1226.36	0.106144
1229.25	1.41319
1232.14	0.476639
1235.04	2.41136
1237.93	1.25724
1240.82	3.2201
1243.71	3.57446
1246.61	3.11906
1249.5	2.86141
1252.39	2.98656
1255.29	4.60831
1258.18	3.77705
1261.07	3.40021
1263.96	3.84415
1266.86	1.78134
1269.75	2.22799
1272.64	3.18174
1275.54	0.58947
1278.43	2.88366
1281.32	0.374802
1284.21	2.69105
1287.11	2.82422
1290	2.21273
1292.89	0.377403
1295.78	0.66185
1298.68	1.76553
1301.57	0.293732
