Measurement: Raman, 532 nm, unoriented, Raman Data Processed
Mineral: Ajoite
Rruff sample: R060735
Ideal chemistry: K_3_Cu^2+^_20_Al_3_Si_29_O_76_(OH)_16_8H_2_O
Locality: Pinal County, Arizona, USA
Source: Bob Jenkins
Description: Radiating aggregates of blue acicular crystals
Raman shift (cm-1)	intensity
193.017	0
195.909	42.3027
198.802	45.9761
201.695	24.5621
204.588	3.91638
207.48	1.29639
210.373	2.42786
213.266	3.80432
216.158	21.2882
219.051	19.1899
221.944	16.8872
224.836	19.172
227.729	18.5951
230.622	8.89941
233.514	1.36292
236.407	7.67163
239.3	1.08789
242.193	2.61914
245.085	9.38354
247.978	13.4727
250.871	21.0821
253.763	27.3477
256.656	29.2037
259.549	30.193
262.442	23.0387
265.334	21.3281
268.227	17.0795
271.12	10.1056
274.012	4.53589
276.905	0.817139
279.798	5.40967
282.69	2.18298
285.583	0.053589
288.476	3.69434
291.368	8.29883
294.261	3.11304
297.154	3.90112
300.047	6.50793
302.939	5.99365
305.832	19.36
308.725	41.3867
311.617	65.0774
314.51	87.866
317.403	99.7335
320.296	105.982
323.188	119.349
326.081	135.997
328.974	146.438
331.866	136.185
334.759	128.723
337.652	120.999
340.544	118.092
343.437	109.691
346.33	87.9075
349.223	64.5085
352.115	51.0746
355.008	29.0443
357.901	11.615
360.793	0.538452
363.686	3.5874
366.579	1.79504
369.471	0.43689
372.364	0.545654
375.257	1.28919
378.149	8.51453
381.042	11.9191
383.935	13.0126
386.828	23.0701
389.72	35.5793
392.613	45.6919
395.506	57.6036
398.398	70.6846
401.291	78.5277
404.184	91.4224
407.077	103.383
409.969	105.361
412.862	111.564
415.755	111.319
418.647	104.941
421.54	108.773
424.433	107.479
427.325	107.396
430.218	107.257
433.111	103.334
436.003	90.1456
438.896	87.6125
441.789	84.4163
444.682	66.6412
447.574	60.5574
450.467	49.8749
453.36	34.9429
456.252	20.4836
459.145	16.4281
462.038	9.19263
464.93	0.190308
467.823	0.540894
470.716	12.462
473.609	16.9285
476.501	29.5364
479.394	34.3368
482.287	29.2035
485.179	27.5587
488.072	19.6903
490.965	13.9627
493.858	3.70874
496.75	1.59314
499.643	5.2124
502.536	16.3117
505.428	23.7417
508.321	34.5883
511.214	41.8133
514.106	38.7247
516.999	34.6605
519.892	27.8258
522.784	24.1665
525.677	26.8529
528.57	14.4091
531.463	11.2391
534.355	6.11511
537.248	6.76111
540.141	5.93372
543.033	3.04541
545.926	1.21081
548.819	3.67114
551.712	2.27222
554.604	3.1283
557.497	0.154541
560.39	0.483276
563.282	2.47595
566.175	2.14478
569.068	3.64685
571.96	1.92468
574.853	2.55737
577.746	0.565918
580.639	3.02124
583.531	5.08362
586.424	10.2704
589.317	5.88721
592.209	6.80689
595.102	9.41736
597.995	11.0823
600.888	10.7507
603.78	9.84692
606.673	19.3518
609.566	24.4285
612.458	21.2992
615.351	25.2714
618.244	35.687
621.136	41.2402
624.029	39.6094
626.922	39.2328
629.814	45.0061
632.707	47.36
635.6	60.2835
638.493	64.7372
641.385	72.3811
644.278	82.2286
647.171	98.642
650.063	111.93
652.956	127.61
655.849	144.335
658.741	167.421
661.634	204.974
664.527	256.022
667.42	317.546
670.312	380.859
673.205	406.188
676.098	373.934
678.99	285.409
681.883	196.884
684.776	123.947
687.668	88.795
690.561	61.8648
693.454	46.011
696.347	31.0889
699.239	21.0065
702.132	12.3796
705.025	9.80603
707.917	11.1627
710.81	6.18713
713.703	0.536499
716.596	3.62891
719.488	0.025635
722.381	3.89185
725.274	0.803467
728.166	1.97742
731.059	1.23743
733.952	0.459473
736.844	1.43616
739.737	1.59558
742.63	0.268555
745.523	7.40112
748.415	5.59082
751.308	4.22852
754.201	1.20019
757.093	0.557861
759.986	4.66125
762.879	9.7168
765.771	11.2084
768.664	11.9845
771.557	14.1757
774.449	17.7535
777.342	13.2961
780.235	14.9543
783.128	17.7294
786.02	18.1971
788.913	21.5121
791.806	26.4544
794.698	23.6896
797.591	20.8562
800.484	12.3861
803.376	9.84448
806.269	11.0887
809.162	10.9844
812.055	5.25012
814.947	10.5035
817.84	6.59705
820.733	12.9471
823.625	15.7583
826.518	17.8796
829.411	4.21289
832.303	5.67163
835.196	5.53235
838.089	1.55347
840.982	8.53137
843.874	8.03638
846.767	5.63721
849.66	2.48047
852.552	5.42334
855.445	6.37073
858.338	5.11609
861.231	3.90906
864.123	2.45361
867.016	5.93359
869.909	2.9856
872.801	1.99243
875.694	4.18555
878.587	7.65723
881.479	3.44604
884.372	3.70068
887.265	0.902832
890.158	2.3081
893.05	0.977173
895.943	0.368652
898.836	0.566772
901.728	4.46033
904.621	2.58411
907.514	2.46265
910.406	3.76917
913.299	4.40466
916.192	3.8053
919.085	4.36609
921.977	12.077
924.87	7.34912
927.763	6.32471
930.655	3.2876
933.548	8.14978
936.441	7.55689
939.333	13.0057
942.226	8.89893
945.119	9.33166
948.011	9.28003
950.904	5.57178
953.797	1.13269
956.69	2.35815
959.582	0.398926
962.475	3.43188
965.368	7.00207
968.26	9.41357
971.153	5.75745
974.046	7.31189
976.938	7.60022
979.831	6.21606
982.724	7
985.617	6.12036
988.509	9.57873
991.402	6.67053
994.295	7.35205
997.187	5.88061
1000.08	10.2566
1002.97	4.59509
1005.87	4.01904
1008.76	8.57837
1011.65	9.45447
1014.54	11.3738
1017.44	10.8595
1020.33	12.0018
1023.22	10.7639
1026.11	17.5789
1029.01	18.4822
1031.9	19.621
1034.79	25.4089
1037.68	29.4227
1040.58	38.8296
1043.47	44.5217
1046.36	58.9105
1049.26	59.5562
1052.15	50.7146
1055.04	39.9908
1057.93	28.9969
1060.83	18.4794
1063.72	14.3102
1066.61	8.7832
1069.51	5.73193
1072.4	4.58167
1075.29	0.664307
1078.18	0.659668
1081.08	0.749878
1083.97	0.053101
1086.86	2.19775
1089.75	2.99634
1092.65	2.37866
1095.54	1.23731
1098.43	2.16931
1101.33	1.50464
1104.22	2.8269
1107.11	2.28076
1110	2.66162
1112.89	6.81274
1115.79	5.47241
1118.68	5.26245
1121.57	9.71619
1124.47	7.11389
1127.36	11.2217
1130.25	6.922
1133.14	15.2935
1136.04	14.4545
1138.93	10.9042
1141.82	10.8591
1144.71	12.2775
1147.61	15.5518
1150.5	11.9647
1153.39	13.5966
1156.29	7.82532
1159.18	6.39514
1162.07	5.58301
1164.96	4.76343
1167.86	2.88513
1170.75	6.99854
1173.64	8.64355
1176.54	11.1929
1179.43	7.80029
1182.32	5.43616
1185.21	2.03162
1188.11	1.64356
1191	1.65466
1193.89	1.12927
1196.78	4.7196
1199.68	6.16199
1202.57	5.48254
1205.46	3.94214
1208.35	5.8938
1211.25	10.9027
1214.14	7.99756
1217.03	3.52539
1219.92	1.96289
1222.82	0.333862
1225.71	3.75098
1228.6	6.32532
1231.5	6.40015
1234.39	2.05652
1237.28	4.69739
1240.17	2.60193
1243.07	1.65369
1245.96	2.83203
1248.85	8.62317
1251.74	3.29004
1254.64	2.09167
1257.53	8.79016
1260.42	10.6869
1263.32	6.84595
1266.21	11.304
1269.1	6.97205
1271.99	8.54956
1274.89	5.28357
1277.78	4.48144
1280.67	3.10828
1283.57	4.65735
1286.46	4.32752
1289.35	0.012939
1292.24	9.04761
1295.13	4.93543
1298.03	3.20215
1300.92	2.44775
