Measurement: Raman, 780 nm, unoriented, Raman Data Processed
Mineral: Akatoreite
Rruff sample: R060230
Ideal chemistry: Mn^2+^_9_Al_2_Si_8_O_24_(OH)_8_
Locality: near mouth of Akatore Creek, Taieri, Otago Province, New Zealand
Source: Michael Scott
Description: Orange-brown massive
Measured chemistry: (Mn^2+^_8.66_Mg_0.12_Fe^2+^_0.09_Fe^3+^_0.09_Ca_0.04_)_Σ=9_(Al_1.87_Cr_0.13_)_Σ=2_(Si_7.91_Al_0.09_)_Σ=8_O_24_(OH)_8_ ; OH estimated by difference and stoichiometry ; Fe2 and Fe3 by charge balance
Raman shift (cm-1)	intensity
150.163	0
153.056	4.0633
155.949	6.66604
158.841	1.33106
161.734	0.777345
164.627	2.26421
167.519	8.20384
170.412	7.30441
173.305	2.25754
176.198	0.314084
179.09	0.730759
181.983	4.99303
184.876	6.11597
187.768	9.29832
190.661	10.2492
193.554	9.86458
196.446	10.0712
199.339	7.85342
202.232	4.34089
205.125	2.27516
208.017	8.10939
210.91	0.845653
213.803	0.539209
216.695	0.301493
219.588	6.764
222.481	12.963
225.374	15.6379
228.266	21.6273
231.159	23.0147
234.052	22.3886
236.944	21.476
239.837	20.3885
242.73	11.0321
245.622	8.77706
248.515	0.126509
251.408	2.3082
254.3	1.81889
257.193	0.085545
260.086	0.163514
262.978	2.01186
265.871	8.06317
268.764	6.89391
271.657	10.8691
274.549	6.52673
277.442	3.0788
280.335	2.38862
283.227	3.87277
286.12	1.91209
289.013	6.69901
291.906	7.83098
294.798	6.5986
297.691	7.70873
300.584	7.23936
303.476	8.92128
306.369	9.20242
309.262	12.7338
312.154	12.2991
315.047	11.5527
317.94	4.07999
320.833	0.808706
323.725	0.512223
326.618	0.077433
329.511	0.498129
332.403	1.65447
335.296	2.68314
338.189	4.27947
341.082	8.09376
343.974	5.87543
346.867	4.26408
349.76	9.93292
352.652	8.85513
355.545	12.7253
358.438	12.0283
361.33	6.14901
364.223	5.30061
367.116	2.16815
370.009	7.67895
372.901	8.96189
375.794	9.05702
378.687	12.5325
381.579	16.3497
384.472	18.067
387.365	15.5634
390.257	10.1992
393.15	7.54496
396.043	2.96812
398.935	2.75634
401.828	1.35302
404.721	0.908673
407.614	0.402207
410.506	1.29794
413.399	1.65267
416.292	3.63977
419.184	4.99243
422.077	6.27009
424.97	7.8862
427.863	9.19915
430.755	4.77334
433.648	7.20205
436.541	12.1513
439.433	16.3082
442.326	20.2162
445.219	26.5348
448.111	36.4903
451.004	50.7551
453.897	48.7342
456.789	37.4791
459.682	24.4808
462.575	19.1069
465.467	17.6036
468.36	20.6211
471.253	23.7522
474.146	23.3766
477.038	8.15951
479.931	3.81643
482.824	1.23097
485.716	1.25972
488.609	1.4553
491.502	0.601
494.394	0.221066
497.287	0.758146
500.18	4.92181
503.073	5.88271
505.965	6.25028
508.858	5.49735
511.751	10.3632
514.643	10.9191
517.536	6.12956
520.429	3.65083
523.322	1.2708
526.214	1.76174
529.107	5.36885
532	6.82739
534.892	9.57306
537.785	7.48574
540.678	0.355383
543.57	1.67758
546.463	2.79712
549.356	1.70297
552.249	0.35132
555.141	1.80313
558.034	0.991431
560.927	2.25531
563.819	1.50068
566.712	3.42778
569.605	1.96805
572.497	3.87642
575.39	2.10877
578.283	4.59255
581.176	1.37473
584.068	1.08389
586.961	0.32347
589.854	0.315341
592.746	0.304279
595.639	0.68016
598.532	2.58477
601.424	0.504719
604.317	0.195788
607.21	0.598029
610.102	0.346573
612.995	2.14629
615.888	1.85557
618.781	2.61014
621.673	1.7533
624.566	0.130349
627.459	3.76437
630.351	8.92164
633.244	11.6446
636.137	18.6969
639.029	23.8021
641.922	26.4227
644.815	38.6491
647.708	50.2617
650.6	60.2195
653.493	68.8451
656.386	65.3786
659.278	50.2391
662.171	31.9947
665.064	19.0029
667.957	12.5447
670.849	8.90324
673.742	3.83398
676.635	4.91437
679.527	4.96719
682.42	2.33155
685.313	7.76027
688.205	6.18646
691.098	7.01034
693.991	5.30702
696.884	6.5233
699.776	3.75996
702.669	4.25057
705.562	6.99369
708.454	10.1428
711.347	8.96796
714.24	11.7134
717.132	10.2929
720.025	11.0334
722.918	10.2915
725.811	7.48737
728.703	5.61487
731.596	7.86401
734.489	6.01896
737.381	3.32327
740.274	0.371021
743.167	1.5746
746.059	0.560014
748.952	0.198437
751.845	0.490002
754.737	0.506483
757.63	1.03626
760.523	0.566597
763.416	0.100214
766.308	1.15668
769.201	2.16699
772.094	2.16891
774.986	2.4652
777.879	0.817662
780.772	0.923293
783.665	0.810869
786.557	1.1918
789.45	2.9778
792.343	5.72747
795.235	5.55189
798.128	7.69783
801.021	4.6632
803.913	6.1493
806.806	7.53487
809.699	10.5366
812.592	6.85313
815.484	5.44402
818.377	5.84988
821.27	6.19072
824.162	2.26796
827.055	5.40148
829.948	2.42137
832.84	11.6232
835.733	6.38255
838.626	10.8672
841.519	13.2
844.411	15.1451
847.304	18.0501
850.197	24.0066
853.089	22.8857
855.982	20.4503
858.875	12.3303
861.767	5.02351
864.66	7.14443
867.553	6.01417
870.446	5.09539
873.338	0.694562
876.231	0.388265
879.124	0.265829
882.016	0.117306
884.909	0.012456
887.802	0.454109
890.694	1.92414
893.587	3.78089
896.48	0.200218
899.372	1.9209
902.265	0.176403
905.158	2.39569
908.051	0.047718
910.943	0.113663
913.836	1.19259
916.729	5.62104
919.621	7.86212
922.514	5.30345
925.407	7.477
928.299	9.78765
931.192	12.7232
934.085	21.6718
936.978	27.8568
939.87	37.5059
942.763	50.4627
945.656	56.6418
948.548	57.8554
951.441	46.1141
954.334	29.471
957.226	16.7041
960.119	12.0061
963.012	12.0421
965.905	4.19838
968.797	4.17716
971.69	0.721151
974.583	1.00666
977.475	0.678073
980.368	1.70189
983.261	4.21688
986.154	11.6944
989.046	20.3476
991.939	34.5687
994.832	39.2339
997.724	52.2995
1000.62	59.5888
1003.51	67.4852
1006.4	64.3523
1009.29	56.8239
1012.19	37.9572
1015.08	19.7487
1017.97	10.6603
1020.87	7.95631
1023.76	3.52272
1026.65	1.61681
1029.54	3.37627
1032.44	2.56958
1035.33	1.08101
1038.22	1.75561
1041.12	2.64854
1044.01	0.14827
1046.9	2.27239
1049.79	3.78362
1052.69	2.63681
1055.58	1.82758
1058.47	4.34555
1061.36	1.05172
1064.26	0.083965
1067.15	0.020102
1070.04	1.71209
1072.93	1.25479
1075.83	0.341382
1078.72	3.93081
1081.61	3.4733
1084.51	4.09068
1087.4	3.85107
1090.29	2.61558
1093.18	2.43686
1096.08	1.33724
1098.97	0.264532
1101.86	0.293097
1104.75	4.38222
1107.65	4.23531
1110.54	1.72373
1113.43	0.513361
1116.33	0.884495
1119.22	5.77349
1122.11	0.422366
1125	4.19301
1127.9	4.74182
1130.79	1.67343
1133.68	0.642005
1136.57	0.334453
1139.47	5.47079
1142.36	2.86216
1145.25	0.154231
1148.14	2.0051
1151.04	1.41143
1153.93	2.19859
1156.82	0.828206
1159.71	1.58872
1162.61	4.88135
1165.5	2.57089
1168.39	1.90836
1171.29	0.49918
1174.18	2.11174
1177.07	0.096909
1179.96	3.86292
1182.86	3.80306
1185.75	1.39311
1188.64	5.29066
1191.54	1.85828
1194.43	3.02686
1197.32	1.07583
1200.21	3.97949
1203.11	3.34628
1206	2.19818
1208.89	1.69733
1211.78	1.59015
1214.68	2.58107
1217.57	1.09217
1220.46	1.16802
1223.36	0.374939
1226.25	1.58028
1229.14	4.12825
1232.03	2.00696
1234.93	1.78916
1237.82	2.89986
1240.71	2.41882
1243.6	2.03468
1246.5	2.75202
1249.39	2.28989
1252.28	1.52187
1255.17	1.68387
1258.07	0.783094
1260.96	3.04075
1263.85	2.6251
1266.74	1.9886
1269.64	0.878191
1272.53	2.61648
1275.42	2.71692
1278.32	0.635237
1281.21	0.203453
1284.1	0.520795
