Measurement: Raman, 532 nm, unoriented, Raman Data Processed
Mineral: Akatoreite
Rruff sample: R060230
Ideal chemistry: Mn^2+^_9_Al_2_Si_8_O_24_(OH)_8_
Locality: near mouth of Akatore Creek, Taieri, Otago Province, New Zealand
Source: Michael Scott
Description: Orange-brown massive
Measured chemistry: (Mn^2+^_8.66_Mg_0.12_Fe^2+^_0.09_Fe^3+^_0.09_Ca_0.04_)_Σ=9_(Al_1.87_Cr_0.13_)_Σ=2_(Si_7.91_Al_0.09_)_Σ=8_O_24_(OH)_8_ ; OH estimated by difference and stoichiometry ; Fe2 and Fe3 by charge balance
Raman shift (cm-1)	intensity
164.396	0
167.288	3.59842
170.181	32.4076
173.074	32.1881
175.966	28.4265
178.859	15.5858
181.752	13.7325
184.644	25.6654
187.537	57.2231
190.43	64.8434
193.323	35.257
196.215	32.2581
199.108	46.0313
202.001	33.421
204.893	20.7831
207.786	16.4208
210.679	8.55345
213.571	2.63745
216.464	1.56959
219.357	0.691321
222.25	2.05032
225.142	13.7324
228.035	16.5676
230.928	24.6356
233.82	32.1106
236.713	41.8817
239.606	45.2798
242.499	46.5
245.391	36.8408
248.284	20.9304
251.177	10.2874
254.069	13.0806
256.962	12.3158
259.855	6.65168
262.747	6.53038
265.64	8.76413
268.533	17.182
271.425	29.3156
274.318	37.2409
277.211	28.7643
280.104	15.3079
282.996	2.9053
285.889	0.9941
288.782	1.14146
291.674	2.82004
294.567	9.86024
297.46	9.80467
300.353	11.9641
303.245	14.2978
306.138	14.192
309.031	22.0946
311.923	27.5414
314.816	33.9902
317.709	32.7067
320.601	21.5659
323.494	4.25243
326.387	0.878038
329.279	0.630222
332.172	0.993305
335.065	1.3085
337.958	3.3727
340.85	4.91707
343.743	2.47335
346.636	4.09929
349.528	10.5486
352.421	23.0001
355.314	22.0388
358.207	28.3574
361.099	25.3817
363.992	25.6238
366.885	6.27957
369.777	0.383436
372.67	1.37137
375.563	5.24558
378.455	13.0941
381.348	21.1158
384.241	32.8093
387.134	46.4064
390.026	43.0219
392.919	37.3692
395.812	26.2435
398.704	13.4565
401.597	4.36176
404.49	1.51484
407.382	0.67287
410.275	0.045475
413.168	0.042621
416.06	7.13494
418.953	13.4417
421.846	23.854
424.739	33.9222
427.631	27.3189
430.524	18.1131
433.417	12.4568
436.309	11.4135
439.202	17.7781
442.095	36.0755
444.987	59.0439
447.88	92.4177
450.773	140.863
453.666	186.962
456.558	180.862
459.451	109.107
462.344	63.6781
465.236	49.6788
468.129	49.2883
471.022	59.3492
473.914	67.8068
476.807	54.9109
479.7	31.7552
482.592	15.4144
485.485	8.55741
488.378	4.45536
491.271	0.515837
494.163	0.942768
497.056	0.88615
499.949	0.379962
502.841	4.24999
505.734	6.64001
508.627	9.67097
511.519	14.1366
514.412	17.0966
517.305	18.6877
520.198	11.1901
523.09	7.97535
525.983	14.2393
528.876	22.8901
531.768	37.3688
534.661	50.368
537.554	53.5474
540.447	38.3218
543.339	21.1944
546.232	10.775
549.125	1.61372
552.017	0.465008
554.91	2.41798
557.803	0.650905
560.695	0.453708
563.588	0.411079
566.481	0.416006
569.374	1.80291
572.266	0.915037
575.159	0.782195
578.052	1.55361
580.944	0.904951
583.837	1.11163
586.73	0.274565
589.622	0.290055
592.515	2.1031
595.408	1.52111
598.301	0.307567
601.193	0.499587
604.086	1.91597
606.979	0.440665
609.871	2.66339
612.764	0.197477
615.657	0.286865
618.549	1.57558
621.442	2.52709
624.335	1.77132
627.227	3.34522
630.12	5.67535
633.013	6.47547
635.906	12.7078
638.798	21.1273
641.691	35.3413
644.584	55.3034
647.476	82.5905
650.369	118.444
653.262	160.626
656.154	190.953
659.047	189.317
661.94	143.871
664.833	92.7813
667.725	58.9845
670.618	42.7829
673.511	24.6202
676.403	17.3671
679.296	14.0605
682.189	12.3062
685.082	8.44376
687.974	8.54865
690.867	12.4489
693.76	10.5164
696.652	10.7248
699.545	11.7916
702.438	8.56613
705.33	7.86171
708.223	9.32165
711.116	12.8393
714.009	16.265
716.901	25.6791
719.794	28.3004
722.687	29.0308
725.579	23.2057
728.472	16.2397
731.365	13.4581
734.257	10.4388
737.15	9.6899
740.043	4.0846
742.936	5.92717
745.828	5.04745
748.721	1.29837
751.614	0.032474
754.506	0.992198
757.399	0.418221
760.292	0.17937
763.184	0.054468
766.077	1.09872
768.97	0.518426
771.862	0.349699
774.755	0.048571
777.648	0.772604
780.541	1.66769
783.433	2.66404
786.326	3.28757
789.219	2.42853
792.111	4.97284
795.004	13.8779
797.897	9.34062
800.789	9.24657
803.682	14.7879
806.575	12.6876
809.467	15.6886
812.36	13.0056
815.253	11.4198
818.146	10.2106
821.038	4.05912
823.931	5.45325
826.824	2.01343
829.716	1.86061
832.609	3.1893
835.502	1.66087
838.394	8.71271
841.287	12.3179
844.18	21.845
847.073	38.3032
849.965	52.9478
852.858	67.5422
855.751	68.422
858.643	54.7726
861.536	39.6487
864.429	28.9688
867.322	17.4449
870.214	11.9799
873.107	4.03454
876	1.18664
878.892	0.530012
881.785	1.43904
884.678	0.417503
887.57	1.31557
890.463	3.89564
893.356	8.4054
896.249	15.3765
899.141	14.0573
902.034	7.61187
904.927	2.96488
907.819	4.95394
910.712	6.91075
913.605	3.51197
916.497	2.72716
919.39	4.43158
922.283	7.89012
925.176	9.1988
928.068	8.72232
930.961	11.3041
933.854	18.2755
936.746	24.9628
939.639	40.8022
942.532	62.0663
945.424	91.3832
948.317	129.216
951.21	137.957
954.102	101.194
956.995	59.7058
959.888	37.6966
962.781	25.4673
965.673	17.978
968.566	9.80605
971.459	4.80696
974.351	0.695895
977.244	1.24501
980.137	0.340679
983.029	1.92993
985.922	16.7848
988.815	33.1709
991.708	64.6419
994.6	84.4678
997.493	109.123
1000.39	140.999
1003.28	176.043
1006.17	206.395
1009.06	226.709
1011.96	209.009
1014.85	127.367
1017.74	66.4335
1020.63	37.2498
1023.53	23.1826
1026.42	11.89
1029.31	8.86476
1032.2	5.61024
1035.1	0.880556
1037.99	2.51853
1040.88	0.314759
1043.78	0.769496
1046.67	1.02041
1049.56	0.058271
1052.45	0.266654
1055.35	0.41855
1058.24	0.42627
1061.13	0.47768
1064.03	1.37997
1066.92	0.035108
1069.81	0.450807
1072.7	1.1621
1075.6	0.425989
1078.49	3.03463
1081.38	2.16604
1084.27	3.8303
1087.17	5.66621
1090.06	8.04641
1092.95	8.65657
1095.85	6.82203
1098.74	7.89751
1101.63	6.16169
1104.52	3.53038
1107.42	3.63192
1110.31	4.29642
1113.2	5.63179
1116.09	4.76855
1118.99	7.69678
1121.88	6.02341
1124.77	6.15331
1127.66	7.0012
1130.56	8.88296
1133.45	5.88222
1136.34	5.38082
1139.23	3.55447
1142.13	4.29335
1145.02	2.11861
1147.91	4.91661
1150.81	3.17516
1153.7	4.07806
1156.59	4.84132
1159.48	0.265692
1162.38	0.201423
1165.27	0.369277
1168.16	3.1902
1171.06	0.860656
1173.95	2.33589
1176.84	3.25761
1179.73	2.81013
1182.63	1.66107
1185.52	0.262268
1188.41	1.19676
1191.3	0.459842
1194.2	1.82543
1197.09	3.32355
1199.98	1.93379
1202.88	0.887263
1205.77	1.58245
1208.66	1.56078
1211.55	0.011403
1214.44	3.39855
1217.34	1.52649
1220.23	2.10074
1223.12	2.82699
1226.02	2.39074
1228.91	1.1968
1231.8	0.028095
1234.69	0.172646
1237.59	0.291887
1240.48	2.42997
1243.37	2.3011
1246.27	3.9707
1249.16	0.582257
1252.05	2.39507
1254.94	0.626197
1257.84	2.33204
1260.73	3.22907
1263.62	1.56929
1266.51	2.2379
1269.41	2.69091
1272.3	3.2237
1275.19	3.0785
1278.09	2.28921
1280.98	2.03932
1283.87	4.13747
1286.76	1.76617
1289.66	2.70455
1292.55	1.27983
1295.44	1.41159
1298.33	1.6557
1301.23	3.04967
1304.12	0
