Measurement: Raman, 532 nm, unoriented, Raman Data Processed
Mineral: Akermanite
Rruff sample: R061085
Ideal chemistry: Ca_2_MgSi_2_O_7_
Locality: Kovdor, Kola Peninsula, Russia
Source: Michael Scott
Description: Dark blue coarsely crystalline massive associated with green diopside
Measured chemistry: (Ca_1.78_Na_0.22_)_Σ=2_(Mg_0.70_Al_0.22_Fe^2+^_0.08_)_Σ=1_Si_2.00_O_7_
Raman shift (cm-1)	intensity
119.154	0
122.529	19.5882
125.904	91.0412
129.279	140.346
132.654	109.453
136.028	80.3768
139.403	79.5066
142.778	67.0101
146.153	82.8013
149.528	86.5914
152.902	80.0074
156.277	46.9475
159.652	23.2618
163.027	25.9836
166.402	3.19559
169.776	0.8125
173.151	21.4351
176.526	3.09744
179.901	11.0797
183.276	28.1177
186.65	44.056
190.025	97.7088
193.4	101.83
196.775	123.693
200.15	156.436
203.525	185.602
206.899	220.187
210.274	271.775
213.649	316.256
217.024	382.094
220.399	404.133
223.774	439.546
227.148	404.305
230.523	326.753
233.898	279.495
237.273	184.824
240.648	139.593
244.022	59.0582
247.397	15.9719
250.772	0.977478
254.147	4.3551
257.522	7.31201
260.897	6.32861
264.271	7.95837
267.646	24.55
271.021	51.3129
274.396	76.2476
277.771	127.106
281.145	190.998
284.52	267.676
287.895	368.98
291.27	500.299
294.645	626.153
298.019	787.584
301.394	955.366
304.769	1107.77
308.144	1184.34
311.519	1177.67
314.894	1076.41
318.268	864.723
321.643	682.542
325.018	533.429
328.393	380.117
331.767	276.418
335.142	202.205
338.517	161.146
341.892	145.329
345.267	126.193
348.642	105.479
352.016	97.4545
355.391	100.111
358.766	114.579
362.141	99.2901
365.516	104.84
368.89	51.9905
372.265	40.6438
375.64	14.1511
379.015	0.366791
382.39	7.56197
385.765	2.65074
389.139	4.63136
392.514	5.02402
395.889	8.79712
399.264	4.34003
402.639	16.8723
406.014	11.0985
409.388	15.8702
412.763	22.7788
416.138	25.6187
419.513	36.8417
422.888	32.1468
426.262	34.0991
429.637	28.0271
433.012	51.6963
436.387	89.8242
439.762	128.07
443.136	189.793
446.511	257.198
449.886	282.041
453.261	223.736
456.636	175.488
460.01	136.897
463.385	145.63
466.76	153.234
470.135	148.376
473.51	165.403
476.885	175.029
480.259	190.138
483.634	196.363
487.009	156.604
490.384	147.536
493.759	134.175
497.134	123.408
500.508	118.642
503.883	136.426
507.258	141.733
510.633	160.487
514.008	166.543
517.382	177.924
520.757	173.857
524.132	141.021
527.507	100.72
530.882	65.3324
534.256	40.9644
537.631	30.0942
541.006	20.3473
544.381	10.4458
547.756	19.4721
551.131	4.45488
554.505	3.68445
557.88	6.85666
561.255	19.7828
564.63	14.9679
568.005	13.228
571.38	0.016144
574.754	10.4065
578.129	15.1106
581.504	29.8359
584.879	32.7934
588.254	61.7197
591.628	97.1717
595.003	151.324
598.378	235.671
601.753	321.24
605.128	433.408
608.502	548.469
611.877	698.909
615.252	867.913
618.627	1033.76
622.002	1120.58
625.376	1047.91
628.751	877.223
632.126	735.243
635.501	534.535
638.876	432.312
642.25	437.362
645.625	569.882
649	863.46
652.375	1376.91
655.75	2008.51
659.125	2658.07
662.5	3007.05
665.874	2765.06
669.249	2067.19
672.624	1393.24
675.999	920.594
679.374	609.088
682.748	393.503
686.123	260.752
689.498	167.461
692.873	93.5417
696.248	65.1415
699.622	57.3526
702.997	32.9788
706.372	22.9722
709.747	1.52858
713.122	1.37912
716.496	10.0981
719.871	1.85347
723.246	7.44106
726.621	9.98129
729.996	4.13112
733.37	6.19293
736.745	8.8709
740.12	6.82092
743.495	18.4738
746.87	19.1671
750.245	15.1002
753.619	18.6259
756.994	24.6435
760.369	45.3669
763.744	54.3415
767.119	38.2072
770.494	47.3436
773.868	51.2893
777.243	48.2482
780.618	47.4206
783.993	43.794
787.368	45.3604
790.742	26.137
794.117	30.5443
797.492	30.0575
800.867	15.0258
804.242	17.8135
807.616	5.65697
810.991	7.32571
814.366	0.553345
817.741	11.5138
821.116	6.00444
824.49	0.257355
827.865	15.1017
831.24	14.9637
834.615	9.40981
837.99	19.019
841.365	23.9574
844.739	45.2535
848.114	76.9473
851.489	119.885
854.864	173.473
858.239	205.049
861.614	242.665
864.988	223.711
868.363	139.782
871.738	29.3694
875.113	23.8721
878.488	20.5437
881.862	5.27341
885.237	48.6122
888.612	127.394
891.987	283.677
895.362	536.921
898.736	952.678
902.111	1622.71
905.486	2526.41
908.861	3528.6
912.236	3975.86
915.611	3746.56
918.985	3190.51
922.36	2429.38
925.735	1623.21
929.11	1035.5
932.485	635.679
935.859	397.89
939.234	283.674
942.609	194.906
945.984	174.462
949.359	207.582
952.734	220.937
956.108	192.81
959.483	156.323
962.858	108.397
966.233	92.6186
969.608	51.0297
972.982	19.9421
976.357	19.3002
979.732	28.971
983.107	60.9948
986.482	130.25
989.856	208.131
993.231	271.909
996.606	329.371
999.981	314.814
1003.36	254.855
1006.73	196.381
1010.11	133.06
1013.48	107.448
1016.86	58.8469
1020.23	19.445
1023.61	28.3459
1026.98	12.4665
1030.35	5.36182
1033.73	8.59817
1037.1	2.22778
1040.48	5.45917
1043.85	3.96576
1047.23	6.55765
1050.6	0.946289
1053.98	0.293274
1057.35	0.695679
1060.73	2.61617
1064.1	5.77065
1067.48	7.32642
1070.85	5.70428
1074.23	27.9931
1077.6	17.3327
1080.98	28.4569
1084.35	30.9201
1087.73	38.4517
1091.1	32.9225
1094.48	38.4769
1097.85	37.5824
1101.22	20.1943
1104.6	22.8887
1107.97	33.1539
1111.35	26.7795
1114.72	20.3232
1118.1	21.7328
1121.47	27.7941
1124.85	25.7988
1128.22	14.584
1131.6	28.9708
1134.97	20.6426
1138.35	29.0166
1141.72	21.1206
1145.1	20.3771
1148.47	28.0828
1151.85	29.7828
1155.22	32.0232
1158.6	21.0012
1161.97	24.4576
1165.35	20.0615
1168.72	19.7256
1172.1	4.75948
1175.47	23.2781
1178.85	24.7946
1182.22	10.7396
1185.6	13.7932
1188.97	7.19997
1192.35	6.24023
1195.72	5.28076
1199.1	21.1224
1202.47	7.48273
1205.85	5.53748
1209.22	13.593
1212.59	12.6912
1215.97	4.95163
1219.34	14.6913
1222.72	5.92561
1226.09	2.91815
1229.47	1.01727
1232.84	17.4691
1236.22	10.0091
1239.59	15.6801
1242.97	8.91937
1246.34	2.32283
1249.72	9.55135
1253.09	11.2679
1256.47	14.8065
1259.84	1.25819
1263.22	13.6775
1266.59	5.50394
1269.97	7.64069
1273.34	1.66519
1276.72	1.7043
1280.09	4.9404
1283.46	9.22275
1286.84	0.154648
1290.21	2.35114
