Measurement: Raman, 532 nm, unoriented, Raman Data Processed
Mineral: Akermanite
Rruff sample: R061100
Ideal chemistry: Ca_2_MgSi_2_O_7_
Locality: Lago de Vico, Viterbo, Italy
Source: Michael Scott
Description: Colorless to white short prismatic crystals
Measured chemistry: (Ca_1.80_Na_0.20_)_Σ=2_(Mg_0.58_Al_0.38_Fe_0.04_)_Σ=1_(Si_1.82_Al_0.18_)_Σ=2_O_7_
Raman shift (cm-1)	intensity
122.529	0
125.904	790.006
129.279	542.532
132.654	106.457
136.028	64.2349
139.403	341.228
142.778	257.431
146.153	219.31
149.528	90.6538
152.902	38.4663
156.277	16.0977
159.652	27.0337
163.027	0.681641
166.402	30.9761
169.776	41.6006
173.151	22.1035
176.526	23.1006
179.901	18.9546
183.276	42.0078
186.65	191.861
190.025	313.654
193.4	473.373
196.775	570.73
200.15	767.859
203.525	918.003
206.899	1111.72
210.274	1152.89
213.649	1227.21
217.024	1329.66
220.399	1435.55
223.774	1510.4
227.148	1496.92
230.523	1306.92
233.898	1102.18
237.273	876.398
240.648	672.639
244.022	522.324
247.397	409.682
250.772	350.219
254.147	308.547
257.522	319.698
260.896	240.747
264.271	201.408
267.646	148.752
271.021	98.0776
274.396	121.053
277.771	64.7295
281.145	118.623
284.52	115.988
287.895	87.1626
291.27	92.1826
294.645	66.0205
298.019	98.3227
301.394	133.911
304.769	54.4102
308.144	44.044
311.519	46.4966
314.893	45.6587
318.268	39.0855
321.643	12.8516
325.018	56.4033
328.393	57.0723
331.767	9.94482
335.142	41.3823
338.517	51.8364
341.892	125.17
345.267	196.101
348.642	192.494
352.016	212.462
355.391	181.853
358.766	150.231
362.141	104.17
365.516	23.5454
368.89	79.7349
372.265	10.7798
375.64	12.6074
379.015	75.7256
382.39	7.94238
385.765	14.0425
389.139	28.8184
392.514	18.4619
395.889	13.5625
399.264	8.43896
402.639	11.6182
406.013	58.9028
409.388	92.064
412.763	106.184
416.138	218.768
419.513	294.25
422.887	456.434
426.262	650.179
429.637	849.845
433.012	1088.12
436.387	1297.88
439.762	1464.94
443.136	1788.02
446.511	2147.68
449.886	2352.9
453.261	2448.11
456.636	1983.81
460.01	1434.31
463.385	1130.59
466.76	1000.7
470.135	946.608
473.51	983.248
476.885	1087.28
480.259	1174.69
483.634	1145.72
487.009	1097.69
490.384	832.114
493.759	692.707
497.133	572.865
500.508	449.618
503.883	415.033
507.258	353.292
510.633	344.25
514.008	306.225
517.382	330.655
520.757	357.771
524.132	302.824
527.507	240.965
530.882	132.081
534.256	110.322
537.631	76.9238
541.006	58.0752
544.381	1.93359
547.756	47.0693
551.13	10.4556
554.505	63.7139
557.88	18.3115
561.255	8.51562
564.63	55.1284
568.005	68.9678
571.379	92.7441
574.754	10.438
578.129	35.8169
581.504	114.666
584.879	181.91
588.253	366.396
591.628	623.71
595.003	968.036
598.378	1394.65
601.753	1919.74
605.128	2568.39
608.502	3132.39
611.877	3667.63
615.252	4231.67
618.627	4648.47
622.001	4786.85
625.376	4498.38
628.751	4015.7
632.126	3432.27
635.501	2922.61
638.876	2569.5
642.25	2805.04
645.625	3553.29
649	4932.22
652.375	6796.63
655.75	8665.21
659.125	9909.78
662.499	9896.05
665.874	8892.97
669.249	7103.69
672.624	5194.82
675.999	3666.41
679.373	2541.93
682.748	1749.58
686.123	1176.55
689.498	742.416
692.873	480.397
696.247	296.403
699.622	168.275
702.997	134.676
706.372	121.754
709.747	36.0669
713.121	22.2168
716.496	0.826172
719.871	8.59033
723.246	63.7246
726.621	21.4131
729.996	22.7222
733.37	54.4629
736.745	37.9341
740.12	19.4878
743.495	9.06836
746.87	103.936
750.245	126.496
753.619	184.694
756.994	239.8
760.369	246.355
763.744	286.449
767.119	270.959
770.493	223.596
773.868	217.763
777.243	214.612
780.618	269.266
783.993	128.418
787.367	116.416
790.742	147.1
794.117	131.741
797.492	42.3999
800.867	22.5034
804.241	6.3291
807.616	25.1191
810.991	29.9683
814.366	61.7109
817.741	72.1284
821.116	42.6148
824.49	73.1597
827.865	102.883
831.24	97.6167
834.615	75.5825
837.99	94.9233
841.365	130.922
844.739	238.287
848.114	222.06
851.489	384.895
854.864	584.565
858.239	815.422
861.613	809.327
864.988	785.513
868.363	662.316
871.738	422.619
875.113	521.771
878.487	534.639
881.862	1135.32
885.237	1710.86
888.612	2204.83
891.987	2611.7
895.361	3205.3
898.736	4295.52
902.111	6039.86
905.486	8137.16
908.861	10374.5
912.236	11614.4
915.61	11486.3
918.985	10429
922.36	9365.26
925.735	7738.77
929.11	5734.63
932.485	4023.6
935.859	2796.6
939.234	2029.69
942.609	1478.23
945.984	1180.76
949.359	939.834
952.733	715.87
956.108	598.59
959.483	485.353
962.858	299.375
966.233	206.243
969.607	91.7368
972.982	23.083
976.357	4.94824
979.732	13.4707
983.107	14.6724
986.481	22.7173
989.856	2.78662
993.231	20.7564
996.606	34.4731
999.981	5.33691
1003.36	33.4336
1006.73	57.2163
1010.11	19.4199
1013.48	56.9702
1016.86	3.6919
1020.23	6.17578
1023.6	83.4116
1026.98	77.0918
1030.35	106.982
1033.73	121.867
1037.1	92.981
1040.48	49.394
1043.85	136.454
1047.23	175.977
1050.6	201.333
1053.98	132.12
1057.35	132.21
1060.73	117.993
1064.1	61.5742
1067.48	111.701
1070.85	114.032
1074.23	72.8872
1077.6	173.498
1080.98	115.253
1084.35	172.501
1087.73	240.53
1091.1	278.323
1094.48	263.192
1097.85	251.347
1101.22	232.04
1104.6	207.36
1107.97	95.9248
1111.35	174.664
1114.72	153.709
1118.1	131.12
1121.47	140.65
1124.85	57.8852
1128.22	89.4394
1131.6	120.989
1134.97	125.535
1138.35	133.719
1141.72	69.8135
1145.1	41.4619
1148.47	45.9746
1151.85	59.1773
1155.22	71.5562
1158.6	39.7383
1161.97	41.0376
1165.35	47.3467
1168.72	39.6968
1172.1	86.1919
1175.47	77.7974
1178.85	55.3545
1182.22	24.4365
1185.6	16.1714
1188.97	36.9243
1192.35	12.8213
1195.72	103.061
1199.1	3.88623
1202.47	20.6377
1205.84	24.0161
1209.22	19.0054
1212.59	60.5156
1215.97	3.03955
1219.34	11.3999
1222.72	15.9648
1226.09	59.2129
1229.47	11.3408
1232.84	99.5298
1236.22	123.458
1239.59	100.47
1242.97	40.356
1246.34	89.2871
1249.72	0.349609
1253.09	80.6763
1256.47	44.0747
1259.84	63.8828
1263.22	78.8687
1266.59	38.7173
1269.97	4.521
1273.34	2.85742
1276.72	76.8999
1280.09	75.396
1283.46	0.788086
