Measurement: Raman, 785 nm, unoriented, Raman Data Processed
Mineral: Akermanite
Rruff sample: R061100
Ideal chemistry: Ca_2_MgSi_2_O_7_
Locality: Lago de Vico, Viterbo, Italy
Source: Michael Scott
Description: Colorless to white short prismatic crystals
Measured chemistry: (Ca_1.80_Na_0.20_)_Σ=2_(Mg_0.58_Al_0.38_Fe_0.04_)_Σ=1_(Si_1.82_Al_0.18_)_Σ=2_O_7_
Raman shift (cm-1)	intensity
173.216	0
176.108	16.4854
179.001	58.0566
181.894	6.57373
184.787	43.4522
187.679	3.96924
190.572	21.6406
193.465	89.3272
196.357	210.969
199.25	272.403
202.143	350.471
205.036	396.237
207.928	430.377
210.821	519.897
213.714	587.086
216.606	675.472
219.499	852.254
222.392	929.261
225.284	1024.95
228.177	929.907
231.07	812.203
233.963	695.216
236.855	585.095
239.748	502.998
242.641	447.69
245.533	336.824
248.426	219.086
251.319	221.149
254.211	191.31
257.104	166.167
259.997	174.545
262.889	104.899
265.782	37.0176
268.675	26.9326
271.568	2.76367
274.46	45.9785
277.353	20.9775
280.246	16.231
283.138	16.8428
286.031	5.60205
288.924	17.0825
291.817	8.18115
294.709	66.2744
297.602	70.5161
300.495	98.9204
303.387	102.568
306.28	132.667
309.173	187.315
312.065	151.907
314.958	222.137
317.851	199.266
320.743	263.137
323.636	244.058
326.529	258.65
329.422	325.848
332.314	262.811
335.207	313.537
338.1	282.197
340.992	339.12
343.885	331.666
346.778	365.835
349.671	332.69
352.563	345.778
355.456	343.932
358.349	305.938
361.241	154.88
364.134	213.209
367.027	182.96
369.919	111.215
372.812	135.286
375.705	96.666
378.598	88.8296
381.49	80.6162
384.383	34.9565
387.276	15.3809
390.168	12.9922
393.061	2.83691
395.954	10.6611
398.846	16.9497
401.739	46.6645
404.632	9.95166
407.524	14.9487
410.417	16.5405
413.31	4.47607
416.202	64.0503
419.095	88.458
421.988	111.077
424.881	163.029
427.773	224.587
430.666	323.305
433.559	350.94
436.451	491.736
439.344	577.917
442.237	654.092
445.13	766.751
448.022	954.157
450.915	1014.38
453.808	1075.64
456.7	958.524
459.593	715.585
462.486	603.154
465.378	535.79
468.271	488.281
471.164	566.29
474.057	577.046
476.949	702.32
479.842	660.688
482.735	696.462
485.627	717.248
488.52	545.332
491.413	486.078
494.305	410.391
497.198	354.763
500.091	302.654
502.983	261.215
505.876	183.659
508.769	190.143
511.662	248.978
514.554	175.544
517.447	190.488
520.34	97.2729
523.232	157.892
526.125	145.924
529.018	99.7681
531.91	94.4155
534.803	99.9014
537.696	65.1089
540.589	21.1528
543.481	85.9717
546.374	15.6279
549.267	18.2969
552.159	41.4893
555.052	0.531738
557.945	34.2017
560.837	47.0596
563.73	28.6865
566.623	60.7417
569.516	19.4648
572.408	56.0615
575.301	22.9194
578.194	13.4751
581.086	16.6128
583.979	111.565
586.872	138.007
589.764	227.555
592.657	352.536
595.55	564.756
598.443	782.327
601.335	1024.61
604.228	1315.3
607.121	1640.04
610.013	1954.41
612.906	2262.37
615.799	2589.13
618.692	2890.12
621.584	3074.22
624.477	3058.36
627.37	2783.49
630.262	2564.05
633.155	2116.04
636.048	1815.35
638.94	1650
641.833	1560.39
644.726	1731.71
647.619	2286.38
650.511	3160.05
653.404	4332.82
656.297	5594.4
659.189	6463.34
662.082	6717
664.975	6400.49
667.867	5512.14
670.76	4363.53
673.653	3347.89
676.545	2375.64
679.438	1821.35
682.331	1220.72
685.224	869.466
688.116	661.119
691.009	424.991
693.902	281.161
696.794	226.521
699.687	169.875
702.58	146.409
705.472	55.6709
708.365	58.8023
711.258	64.2109
714.151	9.20508
717.043	0.733398
719.936	10.1855
722.829	0.871582
725.721	8.96777
728.614	22.3169
731.507	22.0293
734.399	20.7246
737.292	20.5254
740.185	15.3296
743.077	34.522
745.97	78.5859
748.863	16.4336
751.756	32.9121
754.648	22.2573
757.541	69.2769
760.434	52.6426
763.326	47.5776
766.219	50.4463
769.112	40.9297
772.005	66.292
774.897	96.4233
777.79	86.4604
780.683	103.752
783.575	119.692
786.468	64.7353
789.361	88.1973
792.253	104.332
795.146	92.1348
798.039	16.998
800.932	88.2402
803.824	48.3486
806.717	87.5171
809.61	41.2476
812.502	63.8203
815.395	98.3945
818.288	31.9731
821.18	10.1816
824.073	16.4375
826.966	34.2119
829.859	14.6265
832.751	1.66211
835.644	40.0825
838.537	10.1152
841.429	1.83789
844.322	38.544
847.215	54.1065
850.107	120.606
853	180.288
855.893	297.555
858.785	333.18
861.678	428.891
864.571	463.956
867.464	454.937
870.356	277.619
873.249	267.357
876.142	298.99
879.034	401.474
881.927	624.354
884.82	858.446
887.712	1133.51
890.605	1382.73
893.498	1499.54
896.391	1728.44
899.283	2146.44
902.176	2844.61
905.069	3946.96
907.961	5097.1
910.854	6114.89
913.747	6490.73
916.639	6229.96
919.532	5843.28
922.425	5463.87
925.318	4617.91
928.21	3779.08
931.103	2848.96
933.996	2037.57
936.888	1578.19
939.781	1166.12
942.674	899.221
945.567	714.182
948.459	529.678
951.352	438.516
954.245	453.97
957.137	350.617
960.03	354.484
962.923	246.822
965.815	155.177
968.708	57.4243
971.601	39.1328
974.494	9.64844
977.386	14.4951
980.279	43.5166
983.172	39.0727
986.064	73.1079
988.957	30.9932
991.85	8.77734
994.742	15.9844
997.635	31.2642
1000.53	7.63477
1003.42	25.4692
1006.31	7.21094
1009.21	0.168945
1012.1	7.00537
1014.99	43.9136
1017.88	44.833
1020.78	5.20264
1023.67	5.90186
1026.56	38.4937
1029.45	90.5928
1032.35	52.165
1035.24	83.2085
1038.13	26.5102
1041.03	80.3745
1043.92	82.731
1046.81	69.4658
1049.7	65.6367
1052.6	96.9375
1055.49	66.7173
1058.38	40.9253
1061.27	76.9238
1064.17	88.9966
1067.06	117.227
1069.95	101.796
1072.85	93.7739
1075.74	109.135
1078.63	118.717
1081.52	116.195
1084.42	163.56
1087.31	144.072
1090.2	155.054
1093.09	240.89
1095.99	159.838
1098.88	189.437
1101.77	104.279
1104.66	76.8897
1107.56	55.5889
1110.45	64.0019
1113.34	32.9443
1116.24	24.709
1119.13	38.398
1122.02	60.3247
1124.91	73.6899
1127.81	86.606
1130.7	56.249
1133.59	80.4473
1136.48	105.338
1139.38	162.28
1142.27	153.385
1145.16	153.444
1148.06	156.894
1150.95	183.178
1153.84	100.07
1156.73	79.1621
1159.63	65.5278
1162.52	73.8784
1165.41	56.563
1168.3	1.54199
1171.2	10.1514
