Measurement: Raman, 785 nm, unoriented, Raman Data Processed
Mineral: Akermanite
Rruff sample: R061085
Ideal chemistry: Ca_2_MgSi_2_O_7_
Locality: Kovdor, Kola Peninsula, Russia
Source: Michael Scott
Description: Dark blue coarsely crystalline massive associated with green diopside
Measured chemistry: (Ca_1.78_Na_0.22_)_Σ=2_(Mg_0.70_Al_0.22_Fe^2+^_0.08_)_Σ=1_Si_2.00_O_7_
Raman shift (cm-1)	intensity
123.558	0
126.451	0.8172
129.343	26.0747
132.236	112.858
135.129	151.539
138.021	134.016
140.914	81.8679
143.807	120.874
146.699	200.995
149.592	240.853
152.485	215.091
155.377	162.23
158.27	96.3105
161.163	67.307
164.056	59.4404
166.948	52.6338
169.841	44.2897
172.734	30.9295
175.626	20.2665
178.519	26.5767
181.412	8.97345
184.305	23.8875
187.197	26.0554
190.09	12.0137
192.983	29.1133
195.875	58.6461
198.768	66.2844
201.661	79.3911
204.554	91.1947
207.446	113.819
210.339	131.724
213.232	151.245
216.124	156.112
219.017	169.423
221.91	184.398
224.802	190.207
227.695	173.052
230.588	161.744
233.48	122.4
236.373	109.124
239.266	65.4973
242.159	52.0861
245.051	33.69
247.944	11.4034
250.837	0.133087
253.729	8.35764
256.622	7.59506
259.515	3.17252
262.407	3.52969
265.3	1.27902
268.193	2.53
271.086	11.2497
273.978	10.9459
276.871	27.0244
279.764	45.6512
282.656	55.0657
285.549	76.878
288.442	100.115
291.334	139.164
294.227	174.498
297.12	215.005
300.012	255.451
302.905	308.954
305.798	344.064
308.691	362.084
311.583	358.299
314.476	330.003
317.369	289.566
320.261	233.532
323.154	180.964
326.047	148.093
328.94	109.634
331.832	84.5369
334.725	58.4449
337.618	55.0904
340.51	46.1627
343.403	40.9694
346.296	32.3852
349.188	28.0383
352.081	29.385
354.974	22.7084
357.866	22.0232
360.759	24.8079
363.652	32.9821
366.545	24.9618
369.437	5.97372
372.33	8.27966
375.223	3.41981
378.115	0.590363
381.008	0.072769
383.901	2.31055
386.793	1.34943
389.686	0.579163
392.579	5.80787
395.472	6.13055
398.364	2.31856
401.257	1.22961
404.15	6.93271
407.042	1.35085
409.935	8.39578
412.828	5.51397
415.721	12.7256
418.613	9.53304
421.506	11.4505
424.399	7.62409
427.291	12.0126
430.184	21.5639
433.077	23.6981
435.969	40.9732
438.862	61.2187
441.755	86.2393
444.647	140.105
447.54	189.321
450.433	197.944
453.326	162.002
456.218	120.726
459.111	76.5878
462.004	79.2125
464.896	62.1292
467.789	75.2314
470.682	68.3887
473.575	78.4643
476.467	82.9038
479.36	86.4438
482.253	99.9376
485.145	85.5799
488.038	79.0278
490.931	75.8365
493.823	62.6734
496.716	60.1856
499.609	50.2109
502.502	50.2923
505.394	53.5966
508.287	60.3609
511.18	60.4073
514.072	65.8865
516.965	71.4358
519.858	59.269
522.75	61.808
525.643	37.7567
528.536	45.3733
531.428	18.9271
534.321	23.0477
537.214	21.5951
540.107	14.8673
542.999	10.8463
545.892	17.2085
548.785	8.39617
551.677	5.10882
554.57	6.44099
557.463	5.05518
560.356	0.74527
563.248	8.28683
566.141	6.54982
569.034	1.84885
571.926	1.50696
574.819	1.35919
577.712	9.20349
580.604	4.98733
583.497	3.94074
586.39	8.02725
589.283	24.8448
592.175	34.3751
595.068	46.314
597.961	70.8007
600.853	107.07
603.746	141.576
606.639	169.725
609.531	220.221
612.424	281.508
615.317	349.591
618.21	434.516
621.102	486.311
623.995	489.895
626.888	444.26
629.78	376.947
632.673	323.289
635.566	260.306
638.458	206.927
641.351	186.24
644.244	194.193
647.136	261.315
650.029	366.778
652.922	596.984
655.815	868.797
658.707	1167.41
661.6	1425.85
664.493	1420.74
667.385	1228.66
670.278	950.6
673.171	652.213
676.063	477.976
678.956	356.389
681.849	247.218
684.742	184.783
687.634	129.086
690.527	84.5014
693.42	73.093
696.312	45.816
699.205	34.0903
702.098	31.3742
704.99	18.3785
707.883	15.4956
710.776	1.71799
713.669	8.41286
716.561	1.27702
719.454	3.03078
722.347	0.983131
725.239	3.9889
728.132	6.78858
731.025	2.42951
733.918	2.00333
736.81	2.28106
739.703	2.94491
742.596	1.20205
745.488	1.55515
748.381	0.798988
751.274	8.68612
754.166	8.64991
757.059	6.28079
759.952	10.9314
762.845	8.31192
765.737	8.70513
768.63	8.30149
771.523	18.2224
774.415	22.9792
777.308	16.9438
780.201	20.5026
783.093	17.9031
785.986	18.1926
788.879	21.3077
791.771	18.8847
794.664	18.2081
797.557	2.20521
800.45	7.94625
803.342	8.60228
806.235	6.17588
809.128	11.178
812.02	4.47964
814.913	1.88757
817.806	8.95805
820.698	0.744881
823.591	2.74736
826.484	1.9917
829.377	4.06517
832.269	1.75644
835.162	0.506393
838.055	8.16025
840.947	13.2435
843.84	7.09396
846.733	10.3821
849.625	30.5131
852.518	28.6505
855.411	48.8514
858.304	73.5397
861.196	86.2869
864.089	89.5079
866.982	70.2853
869.874	45.1885
872.767	15.9879
875.66	12.098
878.553	5.24861
881.445	12.2991
884.338	12.5821
887.231	26.2875
890.123	72.2082
893.016	113.675
895.909	174.085
898.801	313.917
901.694	492.474
904.587	778.447
907.48	1129.79
910.372	1420.28
913.265	1495.13
916.158	1405.32
919.05	1243.13
921.943	972.453
924.836	723.481
927.728	481.996
930.621	322.94
933.514	217.036
936.406	139.298
939.299	104.754
942.192	71.6186
945.085	49.2954
947.977	48.9533
950.87	43.572
953.763	57.0433
956.655	55.2296
959.548	39.6831
962.441	30.0451
965.333	25.8751
968.226	10.3032
971.119	11.6485
974.011	3.86205
976.904	2.7814
979.797	12.7419
982.69	8.59886
985.582	24.4602
988.475	34.1133
991.368	33.442
994.26	58.279
997.153	77.6756
1000.05	75.6636
1002.94	65.5262
1005.83	52.2133
1008.72	37.1563
1011.62	26.7424
1014.51	22.4783
1017.4	15.3656
1020.29	7.01914
1023.19	8.95911
1026.08	1.20973
1028.97	10.5836
1031.87	5.04101
1034.76	9.19753
1037.65	11.9397
1040.54	0.086639
1043.44	0.765411
1046.33	3.39777
1049.22	15.1467
1052.12	5.72801
1055.01	6.35249
1057.9	14.6979
1060.79	15.4159
1063.68	7.48684
1066.58	8.88058
1069.47	7.07073
1072.36	11.9676
1075.26	19.2843
1078.15	11.637
1081.04	11.424
1083.93	9.80227
1086.83	3.97433
1089.72	11.8884
1092.61	8.20064
1095.51	12.9951
1098.4	8.8061
1101.29	8.81776
1104.18	10.8869
1107.08	4.77266
1109.97	8.92922
1112.86	11.9419
1115.75	6.65314
1118.65	18.8563
1121.54	12.4252
1124.43	15.3773
1127.33	15.1542
1130.22	9.87477
1133.11	12.7605
1136	8.18341
1138.89	16.0535
1141.79	8.565
1144.68	9.05033
1147.57	9.55926
1150.47	8.60268
1153.36	2.25554
1156.25	12.2528
1159.14	4.30952
1162.04	6.50166
1164.93	3.75146
1167.82	1.59983
1170.71	5.63803
1173.61	3.02613
1176.5	13.0061
1179.39	6.14443
1182.29	9.17493
1185.18	8.0827
1188.07	16.7549
1190.96	9.21448
1193.86	13.0742
1196.75	11.8788
1199.64	14.5515
1202.54	26.4297
1205.43	22.42
1208.32	41.8675
1211.21	38.5147
1214.11	20.1969
1217	18.917
1219.89	28.7726
1222.78	38.111
1225.68	31.0787
1228.57	43.2585
1231.46	29.7924
1234.35	27.9206
1237.25	21.6349
1240.14	29.8523
1243.03	46.5672
1245.92	24.0192
1248.82	20.9122
1251.71	21.0128
1254.6	11.672
1257.5	9.84918
1260.39	0.591858
1263.28	8.95471
1266.17	6.45718
