Measurement: Raman, 532 nm, unoriented, Raman Data Processed
Mineral: Akrochordite
Rruff sample: R100028
Ideal chemistry: Mn^2+^_5_(As^5+^O_4_)_2_(OH)_4_4H_2_O
Locality: Langban, Filipstad, Varmland, Sweden
Source: William W. Pinch
Description: Radiating groups of pale pink prismatic crystals associated with pale green co-type (Flink 32/22) eveite, R100048
Raman shift (cm-1)	intensity
130.508	0
133.883	0.462694
137.257	11.91
140.632	3.60226
144.007	4.40335
147.382	10.0789
150.757	16.03
154.132	25.738
157.506	19.2627
160.881	25.7023
164.256	36.1525
167.631	34.8316
171.006	28.2042
174.381	29.9316
177.755	29.6079
181.13	33.6503
184.505	29.0999
187.88	45.9311
191.255	40.1185
194.629	37.2456
198.004	42.5659
201.379	33.8494
204.754	27.4539
208.129	17.7245
211.504	17.5165
214.878	18.8825
218.253	11.9263
221.628	5.04554
225.003	3.04458
228.377	2.6443
231.752	2.45286
235.127	4.64748
238.502	3.22674
241.877	0.135826
245.252	2.81387
248.626	7.79415
252.001	13.2773
255.376	12.5744
258.751	19.1315
262.126	19.106
265.5	12.904
268.875	5.99701
272.25	9.18899
275.625	4.11833
279	6.63942
282.375	7.79037
285.75	5.579
289.124	4.25217
292.499	4.99291
295.874	2.8932
299.249	1.25882
302.623	2.26777
305.998	3.93323
309.373	5.38195
312.748	4.04192
316.123	9.65088
319.498	9.97247
322.872	4.82479
326.247	10.4113
329.622	8.17554
332.997	12.1296
336.372	10.874
339.747	21.7033
343.121	23.9756
346.496	39.8934
349.871	48.9713
353.246	45.5852
356.621	42.1168
359.995	37.6376
363.37	27.7212
366.745	21.3015
370.12	13.3949
373.495	7.62039
376.87	4.14961
380.244	4.15612
383.619	6.87936
386.994	10.0581
390.369	3.65654
393.744	12.0135
397.118	22.4395
400.493	33.3344
403.868	29.4702
407.243	35.0867
410.618	34.5065
413.993	41.0652
417.367	53.5552
420.742	56.3093
424.117	49.0778
427.492	41.9737
430.866	35.1126
434.241	37.1878
437.616	38.7321
440.991	37.569
444.366	27.5529
447.741	40.6603
451.115	47.0971
454.49	42.7721
457.865	37.4339
461.24	22.0175
464.615	11.7643
467.99	6.77109
471.364	3.09482
474.739	2.59519
478.114	0.423782
481.489	1.65688
484.864	1.25744
488.238	0.131638
491.613	5.11629
494.988	3.36497
498.363	0.235886
501.738	2.35033
505.113	7.97501
508.487	1.2297
511.862	2.16367
515.237	7.52036
518.612	5.59504
521.987	0.535103
525.361	6.14028
528.736	2.98244
532.111	6.47485
535.486	0.085632
538.861	4.67582
542.236	8.17245
545.61	6.15569
548.985	8.35323
552.36	2.1659
555.735	5.27522
559.11	6.45358
562.484	9.96882
565.859	7.77678
569.234	3.33535
572.609	5.38464
575.984	2.20829
579.359	1.96206
582.733	2.43218
586.108	1.99066
589.483	2.79217
592.858	4.38117
596.232	5.00312
599.607	3.44784
602.982	6.95149
606.357	2.76222
609.732	2.34645
613.107	5.82055
616.481	2.79195
619.856	4.40448
623.231	1.84958
626.606	6.7296
629.981	4.67484
633.356	7.79726
636.73	5.56861
640.105	8.42474
643.48	7.04729
646.855	4.8806
650.23	5.58356
653.604	8.15195
656.979	8.83971
660.354	7.67706
663.729	8.75451
667.104	6.4396
670.479	5.27049
673.853	9.71603
677.228	8.76979
680.603	7.24995
683.978	3.99944
687.353	7.15111
690.727	4.9406
694.102	9.58525
697.477	2.3978
700.852	5.64055
704.227	5.97086
707.601	1.39117
710.976	4.48867
714.351	5.30006
717.726	2.75829
721.101	1.50553
724.476	1.78628
727.85	0.582253
731.225	2.91855
734.6	1.15064
737.975	3.07922
741.35	0.692413
744.725	2.85386
748.099	0.958794
751.474	0.01889
754.849	0.332146
758.224	4.53404
761.599	4.32881
764.973	4.01589
768.348	8.96857
771.723	11.6189
775.098	10.3214
778.473	19.7313
781.847	28.8947
785.222	35.5308
788.597	45.2716
791.972	64.558
795.347	78.1304
798.722	113.507
802.096	158.359
805.471	219.971
808.846	289.728
812.221	393.686
815.596	474.803
818.971	439.08
822.345	354.752
825.72	321.913
829.095	321.375
832.47	311.433
835.845	279.371
839.219	248.92
842.594	232.366
845.969	214.615
849.344	192.521
852.719	156.092
856.093	112.742
859.468	76.4734
862.843	51.5001
866.218	34.8242
869.593	24.0434
872.967	15.9344
876.342	12.3061
879.717	5.59098
883.092	0.785713
886.467	1.69041
889.842	2.14681
893.216	2.90481
896.591	2.78395
899.966	3.11561
903.341	4.20561
906.716	0.757286
910.091	1.53082
913.465	2.86623
916.84	1.20477
920.215	0.776741
923.59	0.563988
926.965	2.80812
930.339	1.40931
933.714	1.58096
937.089	0.614868
940.464	5.65668
943.839	5.03625
947.213	2.40206
950.588	3.1835
953.963	3.14051
957.338	5.3541
960.713	4.40605
964.088	6.9498
967.462	6.0184
970.837	3.01001
974.212	6.91641
977.587	5.39595
980.962	8.4903
984.337	9.73021
987.711	5.30902
991.086	6.52639
994.461	4.65106
997.836	6.60072
1001.21	4.0169
1004.59	5.6665
1007.96	9.79938
1011.34	4.5314
1014.71	6.59367
1018.09	5.45005
1021.46	6.56664
1024.83	7.37165
1028.21	0.785858
1031.58	4.35026
1034.96	3.61058
1038.33	1.34917
1041.71	3.11446
1045.08	3.34689
1048.46	4.90076
1051.83	3.21535
1055.21	1.78463
1058.58	3.03513
1061.96	0.608025
1065.33	4.82884
1068.71	2.37054
1072.08	5.58591
1075.46	2.41338
1078.83	0.184296
1082.21	4.15817
1085.58	0.590569
1088.96	5.05479
1092.33	5.10661
1095.7	5.45582
1099.08	6.8614
1102.45	3.83311
1105.83	0.334518
1109.2	0.772934
1112.58	3.78731
1115.95	5.3962
1119.33	5.10801
1122.7	2.83164
1126.08	2.20718
1129.45	2.59676
1132.83	5.74233
1136.2	4.56759
1139.58	4.27023
1142.95	4.87944
1146.33	6.74835
1149.7	0.429482
1153.08	1.63177
1156.45	2.06196
1159.83	4.42617
1163.2	1.16309
1166.58	6.52449
1169.95	4.63293
1173.33	4.46017
1176.7	5.27868
1180.08	8.61593
1183.45	2.60889
1186.83	11.1476
1190.2	4.74429
1193.58	4.26947
1196.95	4.5931
1200.33	3.65067
1203.7	5.15455
1207.07	2.31628
1210.45	5.91592
1213.82	3.77251
1217.2	6.45402
1220.57	2.95696
1223.95	4.068
1227.32	3.18351
1230.7	5.82626
1234.07	3.55048
1237.45	4.17847
1240.82	1.31253
1244.2	6.54783
1247.57	4.16724
1250.95	0.741783
1254.32	3.08445
1257.7	3.04868
1261.07	2.57584
1264.45	5.42305
1267.82	3.73717
1271.2	3.45042
1274.57	1.64439
1277.95	2.64073
1281.32	0.92804
1284.69	5.57555
1288.07	5.6116
1291.44	3.39311
1294.82	2.67216
1298.19	4.60346
1301.57	1.42284
