Measurement: Raman, 532 nm, unoriented, Raman Data Processed
Mineral: Alabandite
Rruff sample: R070174
Ideal chemistry: Mn^2+^S
Locality: Mina Preciosa, Sangue de Cristo, Puebla, Mexico
Source: Michael Scott
Description: Dull dark gray semi-metallic coarse crystals associated with pyrite and calcite
Measured chemistry: Mn^2+^_1.00_S_1.00_
Raman shift (cm-1)	intensity
199.451	0
202.343	0.074608
205.236	0.666214
208.129	3.06925
211.021	3.55674
213.914	7.02921
216.807	5.84192
219.699	6.12861
222.592	6.89557
225.485	6.71619
228.377	6.68986
231.27	5.42017
234.163	2.96348
237.056	2.30293
239.948	0.099068
242.841	1.47463
245.734	0.934563
248.626	0.553856
251.519	0.521782
254.412	3.55129
257.305	4.33757
260.197	5.3406
263.09	7.55879
265.983	14.0008
268.875	19.0016
271.768	26.7292
274.661	34.4998
277.553	40.1575
280.446	47.6758
283.339	53.4092
286.232	57.2422
289.124	61.2964
292.017	63.3571
294.91	61.9031
297.802	60.6185
300.695	58.0531
303.588	55.661
306.481	52.1299
309.373	45.8143
312.266	38.8257
315.159	34.3163
318.051	29.9859
320.944	24.967
323.837	20.422
326.729	16.6239
329.622	14.7416
332.515	11.5006
335.408	10.3794
338.3	10.7806
341.193	8.92116
344.086	8.81616
346.978	8.47218
349.871	8.50465
352.764	9.16073
355.656	9.42039
358.549	8.7543
361.442	8.49776
364.334	7.05122
367.227	7.58511
370.12	7.87623
373.012	8.91984
375.905	9.56412
378.798	10.2966
381.691	9.12734
384.583	8.02274
387.476	3.994
390.369	3.30474
393.261	1.31731
396.154	0.762932
399.047	0.771893
401.94	0.544476
404.832	1.01928
407.725	0.491405
410.618	0.345314
413.51	0.104977
416.403	0.214104
419.296	1.08235
422.188	0.02813
425.081	0.139164
427.974	0.792416
430.866	0.405579
433.759	0.743214
436.652	0.90477
439.545	1.11976
442.437	1.05085
445.33	1.06351
448.223	1.77932
451.115	2.23046
454.008	2.31048
456.901	2.90585
459.793	3.4285
462.686	3.30283
465.579	3.65013
468.472	3.352
471.364	3.30751
474.257	3.85625
477.15	3.08649
480.042	3.05471
482.935	1.70334
485.828	2.73413
488.721	1.86298
491.613	1.17247
494.506	1.30214
497.399	0.392349
500.291	0.192432
503.184	0.001835
506.077	0.436829
508.969	0.902458
511.862	0.078396
514.755	1.06076
517.648	0.314655
520.54	2.32561
523.433	3.29296
526.326	4.22132
529.218	5.89426
532.111	7.16422
535.004	9.60478
537.896	11.1357
540.789	12.4662
543.682	14.861
546.575	15.3504
549.467	16.7497
552.36	18.2952
555.253	19.8391
558.145	21.1125
561.038	22.1249
563.931	23.1222
566.823	23.9406
569.716	24.6724
572.609	25.2741
575.502	25.4664
578.394	26.6005
581.287	25.3063
584.18	26.6224
587.072	25.7127
589.965	25.5644
592.858	24.6829
595.75	23.7428
598.643	23.8339
601.536	22.5974
604.428	21.7078
607.321	20.538
610.214	19.8457
613.107	18.963
615.999	17.737
618.892	16.4147
621.785	15.6854
624.677	14.7769
627.57	13.3308
630.463	12.5465
633.356	11.0229
636.248	10.2651
639.141	9.3741
642.034	7.94472
644.926	7.15831
647.819	6.21231
650.712	4.5963
653.604	3.35107
656.497	2.70471
659.39	1.89027
662.283	1.3692
665.175	0.488779
668.068	0.762627
670.961	0.355124
673.853	0.163639
676.746	0.58567
679.639	0.337946
682.531	0.977535
685.424	0.25033
688.317	0.711613
691.21	0.15519
694.102	0.066776
696.995	0.771736
699.888	0.209818
702.78	0.406748
705.673	0.106016
708.566	0.427383
711.458	1.15909
714.351	1.4968
717.244	1.20262
720.136	1.31454
723.029	1.64418
725.922	1.30587
728.815	2.00758
731.707	2.01481
734.6	1.28006
737.493	1.85838
740.385	1.54286
743.278	1.74493
746.171	1.22263
749.063	1.56131
751.956	1.21239
754.849	1.59481
757.742	1.52735
760.634	0.621923
763.527	1.10905
766.42	1.11593
769.312	1.40467
772.205	1.01715
775.098	1.12537
777.99	0.979803
780.883	0.578676
783.776	1.03788
786.669	0.6556
789.561	0.703506
792.454	0.527124
795.347	1.03356
798.239	0.58473
801.132	0.395559
804.025	0.47538
806.918	0.779219
809.81	0.377964
812.703	0.675156
815.596	0.472221
818.488	0.776861
821.381	0.487209
824.274	0.356955
827.166	0.65361
830.059	0.301315
832.952	0.424179
835.845	0.315105
838.737	0.319698
841.63	0.647432
844.523	0.355776
847.415	0.273764
850.308	0.532763
853.201	0.338547
856.093	0.559668
858.986	0.410727
861.879	0.391665
864.771	0.713764
867.664	0.010782
870.557	0.713987
873.45	0.601711
876.342	0.617556
879.235	0.432186
882.128	0.451509
885.02	0.654585
887.913	0.493452
890.806	0.188965
893.698	0.518501
896.591	0.362032
899.484	0.275635
902.377	0.105628
905.269	0.47134
908.162	0.66758
911.055	0.713511
913.947	0.525802
916.84	0.230716
919.733	0.194905
922.625	0.351842
925.518	0.167728
928.411	0.047757
931.304	0.117414
934.196	0.002128
937.089	0.171159
939.982	0.077629
942.875	0.025107
945.767	0.419699
948.66	0.020405
951.553	0.141077
954.445	0.181846
957.338	0.064631
960.231	0.42926
963.123	0.048812
966.016	0.451254
968.909	0.466504
971.802	0.321657
974.694	0.877316
977.587	0.250573
980.48	0.691408
983.372	0.166563
986.265	0.467793
989.158	0.347032
992.05	0.329288
994.943	0.539599
997.836	0.165457
1000.73	0.274003
1003.62	0.090762
1006.51	0.335024
1009.41	0.067924
1012.3	0.043483
1015.19	0.429049
1018.09	0.270764
1020.98	0.472545
1023.87	0.321426
1026.76	0.570044
1029.66	0.602969
1032.55	0.024062
1035.44	0.248787
1038.33	0.608834
1041.23	0.303748
1044.12	0.547819
1047.01	0.651808
1049.9	0.428452
1052.8	0.436862
1055.69	0.370583
1058.58	0.317804
1061.47	0.719712
1064.37	0.690779
1067.26	0.163165
1070.15	0.267039
1073.05	0.292932
1075.94	0.661312
1078.83	0.212954
1081.72	0.599974
1084.62	0.322662
1087.51	0.342148
1090.4	0.504018
1093.3	0.688251
1096.19	0.459329
1099.08	0.702374
1101.97	0.475416
1104.87	0.230875
1107.76	0.103498
1110.65	0.706922
1113.54	0.891546
1116.44	0.301038
1119.33	0.594218
1122.22	0.579157
1125.12	0.340659
1128.01	0.534579
1130.9	0.567445
1133.79	0.385648
1136.68	0.377757
1139.58	0.498346
1142.47	0.461596
1145.36	0.092092
1148.26	0.344343
1151.15	0.365371
1154.04	0.603814
1156.93	0.104539
1159.83	0.350286
1162.72	0.572477
1165.61	0.435225
1168.51	0.047241
1171.4	0.284998
1174.29	0.301704
1177.18	0.149985
1180.08	0.358144
1182.97	0.349369
1185.86	0.376432
1188.75	0.683158
1191.65	0.93292
1194.54	0.384797
1197.43	0.050665
1200.33	0.486402
1203.22	0.330168
1206.11	0.565053
1209	1.07319
1211.9	0.81067
1214.79	0.493529
1217.68	0.017148
1220.57	0.221219
1223.47	0.647428
1226.36	0.392364
1229.25	0.185388
1232.14	0.303051
1235.04	0.321682
1237.93	0.53614
1240.82	0.537063
1243.71	0.49862
1246.61	1.05818
1249.5	0.675243
1252.39	0.142069
1255.29	0.935145
1258.18	0.556624
1261.07	0.45642
1263.96	0.139969
1266.86	0.602294
1269.75	0.514766
1272.64	0.144655
1275.54	0.505686
1278.43	0.899504
1281.32	0.162376
1284.21	0.772204
1287.11	0.120213
1290	0.675703
1292.89	0.317919
1295.78	0.560159
1298.68	0.422459
1301.57	0.206375
