Measurement: Raman, 780 nm, unoriented, Raman Data Processed
Mineral: Alabandite
Rruff sample: R070174
Ideal chemistry: Mn^2+^S
Locality: Mina Preciosa, Sangue de Cristo, Puebla, Mexico
Source: Michael Scott
Description: Dull dark gray semi-metallic coarse crystals associated with pyrite and calcite
Measured chemistry: Mn^2+^_1.00_S_1.00_
Raman shift (cm-1)	intensity
118.602	0
121.977	0.733154
125.352	5.88971
128.726	14.6001
132.101	17.0713
135.476	17.2445
138.851	13.6991
142.226	12.7275
145.601	6.62528
148.975	4.81867
152.35	5.4661
155.725	12.0452
159.1	14.7885
162.475	12.704
165.85	16.9386
169.224	17.3989
172.599	12.3823
175.974	6.09006
179.349	4.89246
182.724	1.53958
186.098	2.09467
189.473	3.6763
192.848	6.95914
196.223	6.54102
199.598	8.52673
202.972	13.6897
206.347	21.3576
209.722	25.6679
213.097	30.3946
216.472	32.0837
219.847	38.2924
223.221	35.3399
226.596	35.9793
229.971	27.6551
233.346	17.0821
236.721	3.56998
240.095	5.22907
243.47	10.7635
246.845	8.88858
250.22	6.70883
253.595	1.04297
256.969	7.01508
260.344	19.5962
263.719	30.2559
267.094	48.2753
270.469	67.4376
273.844	84.2229
277.218	108.083
280.593	131.355
283.968	156.088
287.343	180.891
290.718	207.017
294.092	224.472
297.467	239.09
300.842	243.907
304.217	244.668
307.592	245.986
310.967	238.987
314.341	228.319
317.716	220.787
321.091	204.882
324.466	191.036
327.841	177.215
331.216	163.239
334.59	150.33
337.965	143.934
341.34	145.049
344.715	151.975
348.09	160.943
351.464	175.185
354.839	187.624
358.214	190.699
361.589	184.625
364.964	170.492
368.339	169.178
371.713	178.994
375.088	199.493
378.463	207.53
381.838	187.422
385.213	141.911
388.587	96.9308
391.962	66.3474
395.337	42.3862
398.712	26.8097
402.087	19.5036
405.462	15.1905
408.836	7.86743
412.211	5.51282
415.586	0.534012
418.961	3.19936
422.336	2.56079
425.71	4.5258
429.085	4.94495
432.46	2.15681
435.835	3.55
439.21	0.553116
442.584	1.16293
445.959	3.07315
449.334	4.29333
452.709	6.07703
456.084	6.63402
459.459	9.10988
462.833	9.97459
466.208	12.6548
469.583	15.0854
472.958	16.7963
476.333	17.107
479.707	14.6869
483.082	14.2051
486.457	11.2617
489.832	10.4839
493.207	6.15865
496.582	4.77808
499.956	1.11948
503.331	1.03136
506.706	1.43689
510.081	2.74654
513.456	2.38176
516.83	1.64691
520.205	6.07469
523.58	11.9343
526.955	24.9028
530.33	36.6419
533.705	50.0776
537.079	61.6686
540.454	72.9029
543.829	82.6289
547.204	94.4745
550.579	102.736
553.953	109.977
557.328	116.552
560.703	123.011
564.078	124.798
567.453	126.952
570.827	128.269
574.202	129.411
577.577	126.283
580.952	128.463
584.327	124.528
587.702	120.779
591.076	113.479
594.451	109.699
597.826	105.58
601.201	98.5344
604.576	94.2868
607.951	88.1371
611.325	82.0025
614.7	73.5905
618.075	66.2049
621.45	60.4079
624.825	54.7578
628.199	50.1378
631.574	43.1948
634.949	38.463
638.324	35.1733
641.699	29.906
645.073	24.8591
648.448	22.2372
651.823	17.5886
655.198	11.8288
658.573	9.47183
661.948	5.77344
665.322	3.3915
668.697	0.818436
672.072	0.743401
675.447	2.07829
678.822	1.50355
682.197	1.42084
685.571	1.63894
688.946	0.853058
692.321	0.705688
695.696	0.708435
699.071	0.776733
702.445	0.785896
705.82	2.04288
709.195	2.26185
712.57	3.30209
715.945	4.41536
719.319	5.81672
722.694	5.30575
726.069	6.3387
729.444	7.08455
732.819	7.14117
736.193	7.82458
739.568	6.7751
742.943	6.56089
746.318	5.1236
749.693	6.53508
753.068	4.97204
756.442	5.09682
759.817	5.18419
763.192	4.57785
766.567	4.39698
769.942	3.88358
773.317	4.13185
776.691	2.65101
780.066	2.32729
783.441	3.25543
786.816	2.87465
790.191	2.65919
793.565	3.01128
796.94	2.20498
800.315	3.02927
803.69	2.72184
807.065	3.10086
810.439	2.34783
813.814	0.999832
817.189	1.4791
820.564	1.42555
823.939	0.950073
827.314	1.42028
830.688	1.20903
834.063	1.36125
837.438	1.15323
840.813	0.543774
844.188	2.05657
847.562	0.363811
850.937	0.830887
854.312	0.823341
857.687	0.013622
861.062	0.95882
864.437	0.354168
867.811	1.26065
871.186	1.12617
874.561	0.476887
877.936	0.304569
881.311	0.374805
884.686	0.741161
888.06	1.81515
891.435	0.380302
894.81	0.607906
898.185	0.753014
901.56	0.710831
904.934	0.987778
908.309	0.412254
911.684	0.653355
915.059	0.713387
918.434	0.175259
921.808	1.82093
925.183	0.591072
928.558	1.08995
931.933	0.138817
935.308	1.2785
938.683	0.856113
942.057	0.788338
945.432	0.066669
948.807	0.63768
952.182	0.700905
955.557	0.615051
958.932	0.385742
962.306	1.18118
965.681	0.77037
969.056	0.459728
972.431	0.541805
975.806	0.157494
979.18	0.407249
982.555	1.51205
985.93	0.186695
989.305	0.146523
992.68	0.901527
996.054	0.977638
999.429	0.991016
1002.8	0.188129
1006.18	1.11467
1009.55	1.06342
1012.93	1.67843
1016.3	5.84448
1019.68	1.01107
1023.05	0.8424
1026.43	0.369118
1029.8	0.199135
1033.18	0.201256
1036.55	0.974205
1039.93	1.07106
1043.3	0.22821
1046.68	0.841503
1050.05	0.827549
1053.43	1.53415
1056.8	0.041073
1060.18	1.15039
1063.55	0.129959
1066.93	0.781948
1070.3	1.49067
1073.67	0.605675
1077.05	0.429478
1080.42	1.15603
1083.8	1.07915
1087.17	1.16241
1090.55	1.02218
1093.92	2.20854
1097.3	0.037117
1100.67	0.504433
1104.05	1.4726
1107.42	0.605034
1110.8	1.08329
1114.17	0.386127
1117.55	0.307598
1120.92	0.470428
1124.3	0.835438
1127.67	0.967335
1131.05	0.142677
1134.42	0.924023
1137.8	0.563683
1141.17	0.736603
1144.55	0.783852
1147.92	0.673141
1151.3	1.41523
1154.67	0.767857
1158.05	1.11355
1161.42	1.519
1164.8	0.995415
1168.17	1.25351
1171.55	1.24184
1174.92	1.10102
1178.3	0.114861
1181.67	0.298225
1185.04	1.01239
1188.42	6.34206
1191.79	0.970921
1195.17	1.35917
1198.54	1.18161
1201.92	0.961067
1205.29	0.887939
1208.67	1.22573
1212.04	0.748001
1215.42	0.978096
1218.79	0.965828
1222.17	1.24839
1225.54	2.79372
1228.92	1.00812
1232.29	0.383183
1235.67	0.059967
1239.04	1.2419
1242.42	0.439434
1245.79	1.22668
1249.17	1.1442
1252.54	0.706619
1255.91	0.112625
1259.29	1.27424
1262.66	1.00297
1266.04	1.3928
1269.41	1.15644
1272.79	0.028492
1276.16	0.607605
1279.54	0.101891
1282.91	0.815235
