Measurement: Raman, 780 nm, unoriented, Raman Data Processed
Mineral: Alacranite
Rruff sample: R150030
Ideal chemistry: As_8_S_9_
Locality: Solfatara di Pozzuoli, Napoli, Italy
Source: Renato and Adriana Pagano
Description: Yellow fine-grained aggregate, associated with red realgar, 2-fold twin around [-1 -1 1].
Raman shift (cm-1)	intensity
107.47	0
110.845	13.7617
114.219	35.7656
117.594	42.9844
120.969	7.17383
124.344	49.1758
127.719	85.4473
131.094	221.76
134.468	379.732
137.843	377.379
141.218	366.889
144.593	488.6
147.968	401.082
151.342	352.602
154.717	354.293
158.092	255.99
161.467	236.283
164.842	392.949
168.216	537.496
171.591	583.785
174.966	591.856
178.341	589.189
181.716	790.504
185.09	978.875
188.465	866.074
191.84	981.902
195.215	857.717
198.59	605.451
201.965	623.084
205.339	565.906
208.714	577.906
212.089	689.795
215.464	875.697
218.839	1136.84
222.214	1335.55
225.588	1104.69
228.963	1136.44
232.338	1164.17
235.713	872.336
239.088	491.826
242.462	172.568
245.837	21.0957
249.212	19.0801
252.587	31.6758
255.962	66.7676
259.336	53.5371
262.711	28.6465
266.086	10.4414
269.461	53.0449
272.836	146.861
276.211	139.336
279.585	88.6484
282.96	129.572
286.335	172.367
289.71	338.418
293.085	482.758
296.459	708.982
299.834	991.01
303.209	1302.4
306.584	1585.89
309.959	1850.59
313.334	2094.19
316.708	2319.61
320.083	2561.12
323.458	2806.44
326.833	3071.41
330.207	3224.12
333.582	3346.53
336.957	3536.75
340.332	3728.38
343.707	3765.72
347.082	3497.78
350.456	3185.81
353.831	3120.74
357.206	2916.36
360.581	2640.36
363.956	2393.43
367.33	2158.3
370.705	1961.44
374.08	1765.13
377.455	1556.15
380.83	1412.69
384.205	1242.07
387.579	1062.73
390.954	868.713
394.329	729.566
397.704	520.144
401.079	329.162
404.453	209.201
407.828	53.2812
411.203	18.1816
414.578	67.6348
417.953	89.3906
421.327	20.9746
424.702	15.4414
428.077	31.3633
431.452	56.5938
434.827	53.2969
438.202	79.0586
441.576	122.297
444.951	121.168
448.326	230.727
451.701	266.594
455.076	313.422
458.45	351.582
461.825	363.256
465.2	348.018
468.575	427.188
471.95	420.166
475.325	355.445
478.699	286.168
482.074	324.518
485.449	285.795
488.824	357.918
492.199	318.531
495.573	334.469
498.948	271.797
502.323	161.824
505.698	127.34
509.073	124.197
512.447	61.5215
515.822	81.9707
519.197	63.4688
522.572	59.1465
525.947	39.1797
529.322	8.83789
532.696	5.30273
536.071	15.709
539.446	3.44141
542.821	17.4316
546.196	20.2754
549.57	10.168
552.945	1.86719
556.32	9.3418
559.695	3.56445
563.07	13.6211
566.444	12.9707
569.819	40.2832
573.194	26.1113
576.569	67.3242
579.944	46.7461
583.319	31.25
586.693	10.9805
590.068	35.4941
593.443	15.7344
596.818	74.9785
600.193	58.2812
603.567	98.8828
606.942	80.8106
610.317	115.471
613.692	93.8555
617.067	101.602
620.442	92.7324
623.816	82.4082
627.191	96.2676
630.566	69.8809
633.941	73.4668
637.316	73.4238
640.69	72.1875
644.065	44.293
647.44	41.9141
650.815	21.5586
654.19	11.5781
657.564	59.4746
660.939	28.6719
664.314	30.209
667.689	58.6875
671.064	38.4629
674.439	38.7266
677.813	9.92188
681.188	28.2207
684.563	8.32031
687.938	31.6465
691.313	37.9043
694.688	23.3301
698.062	0.117188
701.437	41.8477
704.812	11.582
708.187	69.3281
711.562	91.1973
714.936	112.773
718.311	69.0859
721.686	37.2324
725.061	25.9727
728.436	8.13086
731.81	53.1719
735.185	68.9883
738.56	36.4434
741.935	24.1719
745.31	1.09375
748.684	3.05664
752.059	33.7871
755.434	36.9824
758.809	13.0332
762.184	7.10352
765.559	26.6074
768.933	18.082
772.308	14.0508
775.683	39.6152
779.058	40.0703
782.433	21.5039
785.808	25.9785
789.182	20.7129
792.557	25.2754
795.932	56.5332
799.307	50.9531
802.682	28.709
806.056	124.881
809.431	91.4707
812.806	57.4473
816.181	105.691
819.556	116.635
822.93	111.275
826.305	88.4629
829.68	80.5176
833.055	58.5508
836.43	75.293
839.804	66.7754
843.179	42.9609
846.554	106.627
849.929	127.234
853.304	73.9922
856.679	61.3242
860.053	92.7891
863.428	79.6621
866.803	44.8066
870.178	47.9629
873.553	36.9355
876.927	26.6348
880.302	30.0332
883.677	74.4102
887.052	59
890.427	1.93359
893.802	68.5469
897.176	2.37305
900.551	1.11523
903.926	12.5645
907.301	30.1426
910.676	17.9277
914.05	20.0254
917.425	25.5879
920.8	49.3262
924.175	15.7988
927.55	10.0586
930.924	5.39648
934.299	3.54492
937.674	52.6426
941.049	20.7949
944.424	16.0801
947.799	5.83008
951.173	14.3027
954.548	27.3281
957.923	24.0664
961.298	45.1523
964.673	62.7832
968.047	100.773
971.422	200.443
974.797	375.621
978.172	312.992
981.547	100.022
984.922	33.1504
988.296	10.4512
991.671	11.127
995.046	31.666
998.421	34.7188
1001.8	37.9746
1005.17	28.041
1008.54	57.8965
1011.92	29.2578
1015.29	26.2676
1018.67	42.3379
1022.04	24.4453
1025.42	49.0469
1028.79	14.6992
1032.17	36.8867
1035.54	73.7344
1038.92	103.772
1042.29	55.8203
1045.67	69.6387
1049.04	51.3867
1052.42	50.4727
1055.79	69.2363
1059.17	68.7402
1062.54	101.25
1065.92	83.4141
1069.29	98.7012
1072.67	73.3047
1076.04	95.0801
1079.42	58.1895
1082.79	64.7305
1086.17	64.3613
1089.54	63.748
1092.92	41.7539
1096.29	3.26562
1099.66	24.4883
1103.04	34.8594
1106.41	44.6699
1109.79	66.1484
1113.16	8.77148
1116.54	7.23047
1119.91	5.50391
1123.29	26.7539
1126.66	15.3516
1130.04	24.4062
1133.41	63.9004
1136.79	52.0137
1140.16	89.9805
1143.54	81.207
1146.91	85.4492
1150.29	107.406
1153.66	82.0527
1157.04	87.2109
1160.41	85.9492
1163.79	94.5098
1167.16	119.533
1170.54	116.332
1173.91	149.641
1177.29	140.85
1180.66	147.816
1184.04	105.301
1187.41	97.3301
1190.79	146.234
1194.16	125.894
1197.54	138.719
1200.91	145.773
1204.28	105.691
1207.66	122.533
1211.03	105.764
1214.41	75.5293
1217.78	49.1484
1221.16	19.4961
1224.53	32.8945
1227.91	62.6152
1231.28	46.791
1234.66	75.0898
1238.03	16.5996
1241.41	21.5586
1244.78	2.03711
1248.16	20.7598
1251.53	42.1504
1254.91	56.1289
1258.28	59.5156
1261.66	50.2148
1265.03	43.4355
1268.41	65.4629
1271.78	67.0957
1275.16	6.86914
1278.53	16.9258
1281.9	50.0625
