Measurement: Raman, 532 nm, unoriented, Raman Data Processed
Mineral: Alacranite
Rruff sample: R140323
Ideal chemistry: As_8_S_9_
Locality: Solfatara di Pozzuoli, Napoli, Italy
Source: Renato and Adriana Pagano
Description: Yellow crystals with red realgar. 2-fold twin around [1 1 0].
Raman shift (cm-1)	intensity
129.799	41.0541
133.174	39.4684
136.548	38.6813
139.923	34.7513
143.298	39.026
146.673	38.1533
150.048	32.4149
153.423	36.9293
156.797	36.0703
160.172	36.9816
163.547	45.5731
166.922	47.7633
170.297	46.2643
173.672	54.5474
177.046	57.5909
180.421	57.0915
183.796	63.3624
187.171	57.4381
190.546	51.3577
193.92	26.2756
197.295	33.6001
200.67	20.4709
204.045	33.6857
207.42	55.0275
210.794	78.8263
214.169	102.515
217.544	126.685
220.919	147.793
224.294	170.307
227.669	186.709
231.043	179.936
234.418	173.997
237.793	148.279
241.168	118.266
244.543	79.6215
247.917	44.8031
251.292	12.6106
254.667	8.87988
258.042	24.4391
261.417	35.8159
264.792	34.4375
268.166	20.8732
271.541	6.94348
274.916	39.0128
278.291	74.7629
281.666	131.793
285.041	205.121
288.415	309.935
291.79	439.899
295.165	563.73
298.54	713.248
301.915	857.766
305.289	997.935
308.664	1129.38
312.039	1234.87
315.414	1314.08
318.789	1379.52
322.163	1439.97
325.538	1500.13
328.913	1549.67
332.288	1585.54
335.663	1623.13
339.038	1638.57
342.412	1619.63
345.787	1582.17
349.162	1537.4
352.537	1485.14
355.912	1428.16
359.286	1367.09
362.661	1300.44
366.036	1224.2
369.411	1141.69
372.786	1061.82
376.161	995.483
379.535	918.527
382.91	837.641
386.285	738.97
389.66	632.184
393.035	510.807
396.409	402.559
399.784	297.785
403.159	191.626
406.534	101.605
409.909	25.7438
413.284	7.94556
416.658	9.63232
420.033	13.2307
423.408	12.3044
426.783	11.7504
430.158	10.8612
433.532	12.3691
436.907	5.64075
440.282	2.88794
443.657	10.1714
447.032	17.5864
450.406	31.3604
453.781	43.4253
457.156	60.6495
460.531	66.6571
463.906	77.27
467.281	93.2353
470.655	111.858
474.03	126.331
477.405	137.07
480.78	148.423
484.155	165.92
487.529	171.976
490.904	169.021
494.279	146.783
497.654	125.324
501.029	95.293
504.404	75.464
507.778	58.2772
511.153	47.3047
514.528	47.8023
517.903	33.181
521.278	27.3477
524.653	21.5486
528.027	17.1464
531.402	16.6948
534.777	14.7269
538.152	13.9073
541.527	9.10571
544.901	5.75476
548.276	6.73022
551.651	6.41528
555.026	2.1897
558.401	6.06287
561.775	3.82385
565.15	2.354
568.525	6.18237
571.9	0.062256
575.275	0.483887
578.649	1.97351
582.024	1.61645
585.399	0.088989
588.774	3.02185
592.149	3.16113
595.524	1.16003
598.898	1.42151
602.273	2.29492
605.648	3.54211
609.023	10.397
612.398	14.6456
615.773	6.88904
619.147	2.38025
622.522	8.27295
625.897	9.90784
629.272	9.84937
632.647	12.2645
636.021	8.60486
639.396	14.1268
642.771	16.2786
646.146	14.6172
649.521	18.8739
652.895	21.241
656.27	18.8551
659.645	19.4747
663.02	27.8199
666.395	30.4159
669.77	32.4044
673.144	26.9307
676.519	32.1165
679.894	28.8428
683.269	25.739
686.644	26.4602
690.019	32.7578
693.393	30.6257
696.768	25.7336
700.143	29.5321
703.518	25.4067
706.893	28.4296
710.267	25.0277
713.642	27.2078
717.017	18.9387
720.392	21.2806
723.767	24.7679
727.141	26.8948
730.516	22.9334
733.891	10.2892
737.266	11.0785
740.641	10.4011
744.016	15.3507
747.39	16.7172
750.765	19.3159
754.14	7.34277
757.515	25.17
760.89	3.89465
764.264	8.00317
767.639	1.23987
771.014	1.48889
774.389	5.75708
777.764	1.03662
781.139	0.536499
784.513	3.06555
787.888	15.2072
791.263	0.077026
794.638	3.5719
798.013	2.05225
801.388	1.1477
804.762	4.52759
808.137	5.84631
811.512	10.4274
814.887	3.59473
818.261	13.1293
821.636	8.4917
825.011	4.04163
828.386	3.05737
831.761	7.04309
835.136	7.37622
838.51	2.83862
841.885	20.8072
845.26	19.2496
848.635	13.5466
852.01	5.67261
855.385	10.2438
858.759	13.0572
862.134	12.0389
865.509	8.04077
868.884	13.9546
872.259	8.17395
875.633	8.01196
879.008	14.3265
882.383	10.0991
885.758	0.080933
889.133	4.84644
892.508	9.73206
895.882	6.19495
899.257	9.42554
902.632	2.47644
906.007	7.25122
909.382	11.8857
912.756	7.21362
916.131	2.99475
919.506	2.21948
922.881	1.3031
926.256	3.55835
929.63	0.336426
933.005	3.99963
936.38	1.14636
939.755	7.91748
943.13	5.15649
946.505	11.4094
949.879	7.99963
953.254	9.07715
956.629	6.5603
960.004	8.63794
963.379	10.9304
966.754	13.9932
970.128	20.556
973.503	21.314
976.878	17.5817
980.253	16.9713
983.628	14.6274
987.002	18.63
990.377	6.83191
993.752	12.2424
997.127	2.64258
1000.5	6.02258
1003.88	7.20654
1007.25	5.8197
1010.63	2.75525
1014	8.96582
1017.38	7.74048
1020.75	8.36694
1024.12	12.4324
1027.5	7.19409
1030.88	0.664063
1034.25	11.4334
1037.62	5.32983
1041	4.22705
1044.37	8.72974
1047.75	12.469
1051.12	3.21899
1054.5	8.38501
1057.87	0.026123
1061.25	2.59644
1064.62	4.73291
1068	2.7688
1071.37	5.89844
1074.75	6.03369
1078.12	3.76465
1081.5	6.20606
1084.87	7.79712
1088.25	6.43384
1091.62	9.66773
1095	2.26856
1098.37	7.70386
1101.75	10.0188
1105.12	0.124512
1108.5	8.95508
1111.87	1.14356
1115.24	10.9045
1118.62	6.18042
1121.99	12.3042
1125.37	1.56372
1128.74	5.15698
1132.12	1.46582
1135.49	6.1897
1138.87	10.2026
1142.24	12.1802
1145.62	13.3481
1148.99	9.17407
1152.37	14.2844
1155.74	20.2786
1159.12	14.0549
1162.49	13.0664
1165.87	11.9651
1169.24	10.3213
1172.62	10.279
1175.99	17.523
1179.37	11.4771
1182.74	9.00586
1186.12	14.4248
1189.49	9.78711
1192.87	11.7861
1196.24	17.3919
1199.62	11.3594
1202.99	1.96191
1206.37	11.2312
1209.74	10.1333
1213.12	8.69775
1216.49	12.4336
1219.87	14.3911
1223.24	6.2146
1226.61	4.99439
1229.99	5.08569
1233.36	2.09204
1236.74	6.53613
1240.11	11.429
1243.49	5.51904
1246.86	12.2517
1250.24	12.6768
1253.61	18.3281
1256.99	21.9126
1260.36	23.123
1263.74	8.37866
1267.11	11.1101
1270.49	14.8315
1273.86	9.04297
1277.24	7.9585
1280.61	11.6914
1283.99	5.32983
1287.36	10.2729
1290.74	9.00952
1294.11	13.2588
1297.49	15.0286
1300.86	2.06274
