Measurement: Raman, 532 nm, unoriented, Raman Data Processed
Mineral: Alacranite
Rruff sample: R150030
Ideal chemistry: As_8_S_9_
Locality: Solfatara di Pozzuoli, Napoli, Italy
Source: Renato and Adriana Pagano
Description: Yellow fine-grained aggregate, associated with red realgar, 2-fold twin around [-1 -1 1].
Raman shift (cm-1)	intensity
106.657	0
110.032	49.4898
113.407	168.454
116.782	230.183
120.157	244.363
123.531	247.218
126.906	273.831
130.281	260.857
133.656	278.882
137.031	286.479
140.405	323.771
143.78	343.899
147.155	367.42
150.53	375.829
153.905	390.872
157.28	407.939
160.654	410.968
164.029	439.606
167.404	446.534
170.779	466.006
174.154	470.321
177.528	480.786
180.903	444.502
184.278	448.666
187.653	455.913
191.028	492.004
194.403	526.966
197.777	569.32
201.152	559.492
204.527	570.217
207.902	531.177
211.277	510.549
214.651	475.679
218.026	442.524
221.401	408.981
224.776	348.707
228.151	314.038
231.525	259.227
234.9	191.793
238.275	83.8389
241.65	0.801758
245.025	44.4883
248.4	89.7427
251.774	94.5644
255.149	89.1904
258.524	84.0024
261.899	63.6719
265.274	15.1631
268.649	56.7363
272.023	168.904
275.398	318.339
278.773	523.383
282.148	813.029
285.523	1198.44
288.897	1672.04
292.272	2243.64
295.647	2885.49
299.022	3567.3
302.397	4248.48
305.772	4875.49
309.146	5433.71
312.521	5928.59
315.896	6305.19
319.271	6667.23
322.646	6998.56
326.02	7317.46
329.395	7562.1
332.77	7692.68
336.145	7785.06
339.52	7776.53
342.894	7676.02
346.269	7463.7
349.644	7186.77
353.019	6877.56
356.394	6560.23
359.769	6239.83
363.143	5860.16
366.518	5453.31
369.893	5016.74
373.268	4608.84
376.643	4219.71
380.017	3838.25
383.392	3444.25
386.767	2997.35
390.142	2494.12
393.517	1976.93
396.892	1480.59
400.266	993.941
403.641	547.171
407.016	183.183
410.391	30.2105
413.766	99.6982
417.14	109.376
420.515	86.1558
423.89	73.6982
427.265	40.1758
430.64	1.78906
434.014	51.6899
437.389	117.711
440.764	225.983
444.139	341.022
447.514	480.276
450.889	598.838
454.263	688.728
457.638	739.545
461.013	809.893
464.388	876.417
467.763	960.01
471.137	1021.72
474.512	1010.48
477.887	979.249
481.262	970.728
484.637	975.695
488.012	975.91
491.386	932.757
494.761	799.683
498.136	654.968
501.511	469.276
504.886	337.112
508.26	210.282
511.635	147.929
515.01	101.211
518.385	58.7192
521.76	42.5669
525.135	36.6494
528.509	9.00488
531.884	14.7896
535.259	8.79688
538.634	2.1001
542.009	2.49414
545.384	1.46728
548.758	3.06494
552.133	2.6499
555.508	20.2803
558.883	9.4209
562.258	1.49853
565.632	0.90332
569.007	1.24707
572.382	2.7251
575.757	8.28565
579.132	13.3643
582.506	18.5498
585.881	29.7144
589.256	33.395
592.631	29.2017
596.006	32.2241
599.381	50.1045
602.755	65.6865
606.13	102.382
609.505	158.415
612.88	211.462
616.255	215.522
619.63	185.084
623.004	150.29
626.379	128.07
629.754	109.721
633.129	111.11
636.504	118.606
639.878	109.152
643.253	121.903
646.628	126.12
650.003	133.43
653.378	159.243
656.752	126.221
660.127	128.442
663.502	149.724
666.877	139.025
670.252	145.648
673.626	136.419
677.001	142.477
680.376	141.89
683.751	129.946
687.126	136.116
690.501	134.725
693.875	109.393
697.25	108.666
700.625	104.099
704	90.4204
707.375	88.3442
710.75	81.3066
714.124	81.1201
717.499	65.2769
720.874	43.9033
724.249	55.4106
727.624	44.6348
730.998	18.8325
734.373	18.9434
737.748	18.7632
741.123	13.1533
744.498	16.0225
747.872	25.0083
751.247	32.7769
754.622	7.45264
757.997	1.25537
761.372	13.1768
764.747	10.542
768.121	2.87988
771.496	11.7515
774.871	11.6655
778.246	6.64795
781.621	2.17041
784.995	9.77002
788.37	4.17432
791.745	3.86572
795.12	0.757813
798.495	6.22607
801.87	10.5874
805.244	25.1631
808.619	47.8301
811.994	35.1567
815.369	48.5371
818.744	59.1265
822.119	61.9014
825.493	59.398
828.868	44.419
832.243	39.189
835.618	44.6455
838.993	54.5308
842.367	59.1401
845.742	55.7642
849.117	37.645
852.492	34.6128
855.867	28.7334
859.241	29.5913
862.616	39.3252
865.991	9.55322
869.366	16.227
872.741	19.5894
876.115	7.87891
879.49	0.36377
882.865	1.33154
886.24	2.50391
889.615	16.7324
892.99	16.564
896.364	26.4277
899.739	16.1279
903.114	11.8096
906.489	17.1387
909.864	8.9624
913.239	13.1216
916.613	12.8852
919.988	12.2383
923.363	11.4717
926.738	17.3061
930.113	23.0488
933.487	23.7891
936.862	4.43896
940.237	19.7866
943.612	29.7139
946.987	38.7744
950.361	58.332
953.736	81.2173
957.111	86.8755
960.486	148.773
963.861	302.547
967.236	495.372
970.61	858.729
973.985	1386.83
977.36	1068.64
980.735	393.34
984.11	188.574
987.485	110.359
990.859	85.8486
994.234	47.6562
997.609	42.4624
1000.98	35.2568
1004.36	22.0395
1007.73	2.40039
1011.11	10.4194
1014.48	10.6055
1017.86	10.9536
1021.23	2.01807
1024.61	6.32519
1027.98	18.4082
1031.36	0.415039
1034.73	14.9692
1038.11	3.92676
1041.48	13.0078
1044.86	10.8926
1048.23	5.79883
1051.61	5.06055
1054.98	29.5205
1058.36	8.67383
1061.73	8.83203
1065.11	7.01465
1068.48	19.46
1071.86	24.7085
1075.23	17.0127
1078.6	21.0117
1081.98	36.0054
1085.35	17.6108
1088.73	21.1514
1092.1	14.8975
1095.48	3.39746
1098.85	32.1645
1102.23	27.8784
1105.6	27.5791
1108.98	16.6074
1112.35	26.7671
1115.73	22.9023
1119.1	23.0381
1122.48	24.5879
1125.85	14.1665
1129.23	7.59277
1132.6	3.53467
1135.98	8.729
1139.35	19.4282
1142.73	22.647
1146.1	28.477
1149.48	21.5718
1152.85	20.5205
1156.22	37.8057
1159.6	24.7588
1162.97	19.647
1166.35	17.9575
1169.72	22.9023
1173.1	24.3096
1176.47	28.852
1179.85	22.0938
1183.22	29.9448
1186.6	35.8496
1189.97	22.9849
1193.35	28.6206
1196.72	27.4849
1200.1	22.3198
1203.47	18.3608
1206.85	19.313
1210.22	17.0107
1213.6	10.9346
1216.97	13.4229
1220.35	21.25
1223.72	10.437
1227.1	0.809082
1230.47	3.54883
1233.85	6.07031
1237.22	20.2319
1240.6	6.66894
1243.97	22.0601
1247.35	41.5957
1250.72	44.7353
1254.1	57.5884
1257.47	64.7866
1260.85	50.1728
1264.22	35.917
1267.59	19.5635
1270.97	20.8574
1274.34	38.0254
1277.72	29.3574
1281.09	36.2583
1284.47	27.5938
1287.84	30.5864
1291.22	20.0347
1294.59	22.0693
1297.97	15.9341
1301.34	2.91357
