Measurement: Raman, 532 nm, unoriented, Raman Data Processed
Mineral: Alacranite
Rruff sample: R061028
Ideal chemistry: As_8_S_9_
Locality: Radvanice, Bohemia
Source: Michael Scott
Description: Red flattened prismatic crystals
Raman shift (cm-1)	intensity
143.7	0
146.592	80.0928
149.485	50.4155
152.378	44.1221
155.27	38.1929
158.163	138.25
161.056	272.59
163.948	375.512
166.841	360.445
169.734	329.687
172.626	383.347
175.519	448.752
178.412	492.161
181.305	517.443
184.197	517.662
187.09	439.019
189.983	329.521
192.875	247.427
195.768	87.2222
198.661	26.936
201.554	24.6826
204.446	20.9849
207.339	26.6401
210.232	160.185
213.124	219.084
216.017	312.165
218.91	508.802
221.802	654.523
224.695	749.416
227.588	780.631
230.481	793.242
233.373	766.271
236.266	627.104
239.159	481.649
242.051	428.685
244.944	315.845
247.837	267.813
250.729	224.693
253.622	209.854
256.515	99.5366
259.407	2.57617
262.3	30.1895
265.193	108.978
268.086	156.938
270.978	173.205
273.871	1.27588
276.764	82.2026
279.656	326.912
282.549	608.044
285.442	983.938
288.334	1430.48
291.227	1957.35
294.12	2567.01
297.012	3067.21
299.905	3670.25
302.798	4235.38
305.691	4703.72
308.583	5044.07
311.476	5325.1
314.369	5631.15
317.261	5885.67
320.154	6099.16
323.047	6460.31
325.94	6752.47
328.832	6881.31
331.725	7090.83
334.618	7162.21
337.51	7057.73
340.403	7017.83
343.296	6840.91
346.188	6720.42
349.081	6802.98
351.974	6328.57
354.866	6111.17
357.759	5775.01
360.652	5559.44
363.545	5182.54
366.437	4951.31
369.33	4595.51
372.223	4411.7
375.115	4223.7
378.008	3898.84
380.901	3531.06
383.793	3174.74
386.686	2804.48
389.579	2429.55
392.472	1972.21
395.364	1554.92
398.257	1133.16
401.15	680.323
404.042	449.998
406.935	190.079
409.828	24.4268
412.721	35.1406
415.613	61.0547
418.506	61.6382
421.399	15.3296
424.291	40.9082
427.184	88.7798
430.077	31.5723
432.969	32.9424
435.862	29.373
438.755	32.1133
441.647	61.1553
444.54	89.6636
447.433	121.574
450.326	152.242
453.218	158.645
456.111	196.282
459.004	234.476
461.896	292.111
464.789	291.015
467.682	355.316
470.575	373.764
473.467	378.854
476.36	404.351
479.253	392.417
482.145	457.831
485.038	479.023
487.931	399.197
490.823	302.9
493.716	325.371
496.609	196.683
499.501	157.723
502.394	129.293
505.287	119.84
508.18	109.294
511.072	68.6602
513.965	74.3677
516.858	47.7256
519.75	71.6865
522.643	73.0767
525.536	75.1812
528.428	57.1011
531.321	38.0933
534.214	40.1128
537.106	20.3149
539.999	16.7256
542.892	30.9829
545.785	15.9458
548.677	17.8242
551.57	3.98096
554.463	12.1299
557.355	22.229
560.248	17.4351
563.141	34.3423
566.034	21.27
568.926	12.1807
571.819	8.80322
574.712	70.9253
577.604	25.0352
580.497	47.1592
583.39	97.7964
586.282	125.764
589.175	156.678
592.068	69.5908
594.961	153.519
597.853	173.087
600.746	222.625
603.639	269.812
606.531	218.814
609.424	306.228
612.317	300.229
615.209	338
618.102	334.45
620.995	335.84
623.888	376.335
626.78	387.789
629.673	368.435
632.566	342.019
635.458	369.964
638.351	309.377
641.244	336.985
644.136	310.649
647.029	307.373
649.922	342.196
652.814	276.455
655.707	306.498
658.6	253.402
661.493	263.525
664.385	193.175
667.278	204.116
670.171	221.291
673.063	151.756
675.956	176.422
678.849	133.805
681.741	138.021
684.634	151.19
687.527	154.113
690.42	182.265
693.312	129.564
696.205	110.306
699.098	79.0259
701.99	93.0127
704.883	114.249
707.776	48.7446
710.668	40.043
713.561	77.9248
716.454	113.066
719.347	80.1133
722.239	91.1621
725.132	63.6562
728.025	91.3052
730.917	1.80029
733.81	54.377
736.703	59.3652
739.596	32.6777
742.488	32.6489
745.381	45.1148
748.274	41.9507
751.166	18.1421
754.059	41.1416
756.952	14.853
759.844	16.2998
762.737	2.45312
765.63	18.8467
768.522	38.7119
771.415	52.3047
774.308	1.06348
777.201	14.4775
780.093	45.1206
782.986	70.2847
785.879	65.9849
788.771	127.147
791.664	148.912
794.557	137.621
797.449	156.748
800.342	152.416
803.235	177.918
806.128	126.301
809.02	181.215
811.913	188.51
814.806	187.975
817.698	208.359
820.591	251.125
823.484	218.422
826.376	230.872
829.269	229.767
832.162	179.513
835.054	163.653
837.947	147.3
840.84	190.523
843.733	111.427
846.625	92.7046
849.518	148.911
852.411	61.0688
855.303	31.0244
858.196	99.6587
861.089	38.5083
863.981	7.95068
866.874	29.0679
869.767	15.0967
872.66	38.6426
875.552	53.7617
878.445	119.536
881.338	56.061
884.23	32.769
887.123	69.7222
890.016	127.894
892.908	61.6865
895.801	53.1377
898.694	38.4941
901.587	22.6846
904.479	23.6763
907.372	10.6636
910.265	26.0332
913.157	5.71045
916.05	43.3823
918.943	9.40527
921.835	33.8735
924.728	87.1538
927.621	77.5405
930.514	88.1162
933.406	55.1362
936.299	57.8438
939.192	30.8657
942.084	15.167
944.977	17.7026
947.87	46.5957
950.763	25.3286
953.655	58.9551
956.548	46.771
959.441	78.3628
962.333	44.5727
965.226	85.3828
968.119	13.919
971.011	22.3315
973.904	37.21
976.797	49.0317
979.689	64.9844
982.582	77.876
985.475	81.9741
988.368	39.8877
991.26	12.1826
994.153	85.7236
997.046	32.7983
999.938	99.3252
1002.83	71.4204
1005.72	14.6304
1008.62	7.39746
1011.51	30.7617
1014.4	30.5479
1017.29	13.2026
1020.19	32.3184
1023.08	75.2212
1025.97	30.6567
1028.87	19.4092
1031.76	37.9053
1034.65	6.28955
1037.54	80.1035
1040.44	14.0176
1043.33	46.5962
1046.22	42.4019
1049.11	2.61328
1052.01	73.1265
1054.9	79.5391
1057.79	13.2886
1060.68	85.1382
1063.58	34.4297
1066.47	41.3467
1069.36	32.2388
1072.26	16.2598
1075.15	146.7
1078.04	10.0879
1080.93	54.3291
1083.83	39.3272
1086.72	15.8789
1089.61	2.7085
1092.51	70.8369
1095.4	32.207
1098.29	88.9893
1101.18	8.41553
1104.08	23.4521
1106.97	88.6841
1109.86	47.5693
1112.75	10.335
1115.65	57.3062
1118.54	55.3662
1121.43	16.2134
1124.32	56.0596
1127.22	62.6069
1130.11	112.485
1133	37.3501
1135.89	58.7222
1138.79	33.3057
1141.68	65.8682
1144.57	51.8799
1147.47	3.7876
1150.36	9.51318
1153.25	104.26
1156.14	6.64209
1159.04	63.21
1161.93	0.357422
1164.82	15.8872
1167.71	12.2886
1170.61	64.3398
1173.5	47.6665
1176.39	101.465
1179.29	88.8984
1182.18	96.3135
1185.07	44.7676
1187.96	82.0059
1190.86	71.1397
1193.75	3.85986
1196.64	99.4048
1199.54	25.4033
1202.43	32.5601
1205.32	87.3936
1208.21	49.9414
1211.11	90.1641
1214	74.9316
1216.89	75.7891
1219.78	51.231
1222.68	59.4746
1225.57	38.2441
1228.46	52.2046
1231.35	15.4912
1234.25	71.0083
1237.14	115.348
1240.03	86.6504
1242.92	59.3247
1245.82	69.1079
1248.71	123.137
1251.6	83.6748
1254.5	32.6338
1257.39	38.1836
1260.28	33.4102
1263.17	22.3398
1266.07	36.2915
1268.96	103.13
1271.85	41.5435
1274.74	69.8218
1277.64	15.6646
1280.53	60.1865
1283.42	57.6011
1286.32	10.7315
1289.21	23.0703
1292.1	10.5278
