Measurement: Raman, 780 nm, unoriented, Raman Data Processed
Mineral: Alamosite
Rruff sample: R060067
Ideal chemistry: PbSiO_3_
Locality: Alamos, Sonora, Mexico
Source: University of Arizona Mineral Museum
Description: Aggregate of transparent parallel acicular crystals
Measured chemistry: Pb_1.00_Si_1.00_O_3_
Raman shift (cm-1)	intensity
130.611	0
133.986	16.4211
137.361	147.63
140.735	319.579
144.11	287.196
147.485	63.3016
150.86	2.53961
154.235	93.2094
157.609	280.867
160.984	374.498
164.359	424.747
167.734	594.489
171.109	460.244
174.483	217.001
177.858	197.487
181.233	220.341
184.608	139.306
187.983	36.1465
191.358	45.7311
194.732	103.814
198.107	130.921
201.482	171.415
204.857	259.025
208.232	394.296
211.607	560.797
214.981	611.635
218.356	442.055
221.731	258.137
225.106	141.111
228.481	64.4744
231.855	18.2664
235.23	3.96994
238.605	17.5963
241.98	14.781
245.355	1.9696
248.729	21.6148
252.104	48.2004
255.479	84.5606
258.854	131.302
262.229	207.207
265.603	297.649
268.978	329.029
272.353	246.302
275.728	165.451
279.103	89.883
282.478	43.9445
285.852	29.867
289.227	30.1728
292.602	42.1578
295.977	57.6795
299.352	72.3543
302.726	57.5988
306.101	40.7888
309.476	36.3258
312.851	57.6966
316.226	71.0896
319.601	79.6173
322.975	19.4541
326.35	9.24029
329.725	17.9932
333.1	71.3865
336.475	133.51
339.849	220.911
343.224	322.865
346.599	457.733
349.974	530.876
353.349	432.55
356.724	230.954
360.098	107.419
363.473	66.4461
366.848	68.3457
370.223	60.2328
373.598	47.0648
376.972	58.2203
380.347	87.7819
383.722	103.414
387.097	80.368
390.472	38.1999
393.846	20.4033
397.221	19.8921
400.596	16.6345
403.971	29.908
407.346	37.0468
410.721	35.9102
414.095	20.5929
417.47	2.50458
420.845	9.14771
424.22	12.246
427.595	6.94644
430.969	29.7643
434.344	53.4902
437.719	93.6922
441.094	156.315
444.469	204.691
447.844	135.257
451.218	57.4267
454.593	37.3673
457.968	52.3189
461.343	93.9198
464.718	144.919
468.092	104.418
471.467	47.6315
474.842	42.5146
478.217	52.074
481.592	72.3482
484.966	114.779
488.341	175.757
491.716	201.512
495.091	151.817
498.466	75.6253
501.841	39.6547
505.215	21.6447
508.59	8.74344
511.965	0.216049
515.34	2.32671
518.715	2.24092
522.09	2.46939
525.464	7.15218
528.839	13.9213
532.214	7.58334
535.589	0.056427
538.964	2.34444
542.338	0.034531
545.713	3.57222
549.088	4.44798
552.463	6.55664
555.838	7.90141
559.212	6.48927
562.587	10.2641
565.962	18.4894
569.337	26.6836
572.712	34.1038
576.087	46.2751
579.461	70.833
582.836	101.814
586.211	104.88
589.586	57.592
592.961	25.8428
596.335	15.1354
599.71	6.65536
603.085	3.53157
606.46	2.74648
609.835	0.535614
613.21	6.41022
616.584	7.50514
619.959	15.0803
623.334	23.3613
626.709	30.5164
630.084	48.4678
633.458	74.7954
636.833	102.593
640.208	69.4024
643.583	29.777
646.958	15.2668
650.332	5.38052
653.707	1.07808
657.082	0.506058
660.457	2.54916
663.832	2.05511
667.207	0.513077
670.581	8.50707
673.956	11.3889
677.331	12.8133
680.706	8.27595
684.081	2.80165
687.455	1.34279
690.83	0.606216
694.205	0.520645
697.58	0.748245
700.955	0.460815
704.33	0.74678
707.704	4.44835
711.079	4.76306
714.454	5.97516
717.829	11.1463
721.204	16.1997
724.578	20.5165
727.953	24.7584
731.328	15.2078
734.703	6.39246
738.078	3.09981
741.452	4.15634
744.827	4.61165
748.202	3.80595
751.577	4.55478
754.952	5.25786
758.327	7.21817
761.701	12.6662
765.076	15.4887
768.451	22.6128
771.826	34.3095
775.201	50.7129
778.575	37.6483
781.95	20.7721
785.325	13.7573
788.7	12.0062
792.075	10.4356
795.449	9.91861
798.824	9.24944
802.199	7.59912
805.574	8.70993
808.949	4.28496
812.324	5.73498
815.698	2.87058
819.073	2.16684
822.448	3.60281
825.823	1.12946
829.198	1.22389
832.572	0.879456
835.947	2.4478
839.322	3.17638
842.697	1.79077
846.072	3.25066
849.447	1.42299
852.821	0.889862
856.196	6.54321
859.571	10.5889
862.946	17.4983
866.321	9.84869
869.696	2.55713
873.07	4.66826
876.445	10.0378
879.82	27.3072
883.195	54.8947
886.569	91.4736
889.944	126.125
893.319	108.866
896.694	64.3701
900.069	43.252
903.444	43.5161
906.818	55.5724
910.193	87.9874
913.568	151.275
916.943	232.246
920.318	245.748
923.692	167.801
927.067	128.24
930.442	135.054
933.817	176.605
937.192	252.165
940.567	305.714
943.941	253.851
947.316	162.685
950.691	112.869
954.066	79.2907
957.441	47.3949
960.816	32.8946
964.19	40.2072
967.565	64.806
970.94	101.205
974.315	144.853
977.69	204.867
981.064	280.416
984.439	270.855
987.814	166.838
991.189	99.1937
994.564	79.7692
997.938	81.2036
1001.31	60.177
1004.69	28.0848
1008.06	11.4988
1011.44	1.32082
1014.81	2.52013
1018.19	5.4519
1021.56	5.09221
1024.94	2.82243
1028.31	1.9798
1031.69	3.54338
1035.06	2.39609
1038.44	7.41139
1041.81	11.9402
1045.19	14.9139
1048.56	22.4099
1051.94	22.1862
1055.31	15.6592
1058.68	14.4131
1062.06	10.3453
1065.43	10.8087
1068.81	8.42859
1072.18	7.78041
1075.56	5.53983
1078.93	3.76791
1082.31	1.31264
1085.68	3.09746
1089.06	0.661545
1092.43	0.694336
1095.81	0.305222
1099.18	0.977783
1102.56	4.59122
1105.93	0.918823
1109.31	3.70499
1112.68	2.50256
1116.06	1.4696
1119.43	2.40674
1122.81	4.02644
1126.18	5.81026
1129.56	0.595642
1132.93	2.3933
1136.31	3.1864
1139.68	1.84099
1143.06	4.43037
1146.43	5.5739
1149.81	3.54215
1153.18	5.84705
1156.56	4.33139
1159.93	3.04086
1163.3	7.85573
1166.68	5.32667
1170.05	6.06513
1173.43	1.96106
1176.8	1.99887
1180.18	3.28244
1183.55	1.34672
1186.93	0.92337
1190.3	2.21783
1193.68	0.444794
1197.05	1.648
1200.43	0.361694
1203.8	0.791611
1207.18	3.39976
1210.55	0.228378
1213.93	4.48074
1217.3	6.62974
1220.68	5.13666
1224.05	6.79913
1227.43	5.89134
1230.8	6.04099
1234.18	6.52364
1237.55	8.38197
1240.92	7.26566
1244.3	5.58943
1247.67	4.13379
1251.05	2.62538
1254.42	5.09395
1257.8	1.63116
1261.17	1.8085
1264.55	0.009903
1267.92	3.99333
1271.3	2.86342
1274.67	0.254456
1278.05	2.72423
1281.42	2.76184
1284.8	0.198669
