Measurement: Raman, 532 nm, unoriented, Raman Data Processed
Mineral: Alamosite
Rruff sample: R060067
Ideal chemistry: PbSiO_3_
Locality: Alamos, Sonora, Mexico
Source: University of Arizona Mineral Museum
Description: Aggregate of transparent parallel acicular crystals
Measured chemistry: Pb_1.00_Si_1.00_O_3_
Raman shift (cm-1)	intensity
125.534	0
128.909	26.5442
132.284	88.9005
135.659	199.961
139.034	389.531
142.409	577.525
145.783	357.589
149.158	63.7894
152.533	10.6898
155.908	103.421
159.283	211.393
162.657	235.586
166.032	360.612
169.407	462.771
172.782	248.463
176.157	128.757
179.532	186.447
182.906	258.639
186.281	120.288
189.656	15.0991
193.031	37.925
196.406	122.242
199.78	197.247
203.155	288.539
206.53	422.948
209.905	624.018
213.28	824.568
216.655	780.392
220.029	507.632
223.404	273.953
226.779	138.512
230.154	58.8367
233.529	13.5373
236.904	8.92224
240.278	18.6447
243.653	14.4419
247.028	0.81488
250.403	33.6996
253.778	77.995
257.152	126.953
260.527	195.128
263.902	296.548
267.277	400.367
270.652	373.446
274.026	238.157
277.401	133.672
280.776	56.3336
284.151	24.6195
287.526	16.0631
290.901	18.8951
294.275	31.3484
297.65	41.2243
301.025	52.7595
304.4	40.6726
307.775	30.4045
311.149	42.6855
314.524	62.9105
317.899	88.7688
321.274	78.2775
324.649	3.16437
328.024	7.29108
331.398	32.0492
334.773	98.9533
338.148	178.74
341.523	277.764
344.898	399.141
348.272	534.696
351.647	568.263
355.022	407.343
358.397	211.477
361.772	116.835
365.147	105.057
368.521	112.596
371.896	102.975
375.271	95.7829
378.646	119.919
382.021	158.666
385.395	162.481
388.77	107.55
392.145	58.0992
395.52	36.2351
398.895	24.2546
402.269	37.1454
405.644	43.9176
409.019	35.3776
412.394	19.7223
415.769	0.108002
419.144	10.319
422.518	9.85956
425.893	10.888
429.268	57.8531
432.643	97.0911
436.018	123.789
439.392	174.313
442.767	260.266
446.142	272.135
449.517	147.672
452.892	71.7257
456.267	54.3125
459.641	77.7222
463.016	131.984
466.391	163.053
469.766	94.0687
473.141	47.688
476.515	50.054
479.89	72.647
483.265	110.392
486.64	176.648
490.015	254.294
493.389	267.179
496.764	167.874
500.139	78.49
503.514	42.1274
506.889	21.7027
510.264	5.21246
513.638	1.82105
517.013	2.60431
520.388	2.29298
523.763	2.55631
527.138	8.78606
530.513	11.6441
533.887	3.02159
537.262	0.201111
540.637	0.834946
544.012	0.842163
547.386	3.53272
550.761	4.98006
554.136	4.78929
557.511	3.68928
560.886	6.77176
564.261	8.82602
567.635	12.2628
571.01	20.3449
574.385	27.1272
577.76	35.7826
581.135	51.4889
584.51	72.2511
587.884	64.0694
591.259	31.0787
594.634	14.1601
598.009	8.45427
601.384	5.64342
604.758	2.72144
608.133	2.53087
611.508	3.9357
614.883	2.64874
618.258	4.9731
621.633	10.4316
625.007	18.7815
628.382	28.2938
631.757	44.5693
635.132	63.9843
638.507	73.4475
641.881	43.9894
645.256	16.4313
648.631	7.50382
652.006	1.15463
655.381	0.31044
658.755	0.613098
662.13	1.39804
665.505	2.2533
668.88	4.43957
672.255	8.4994
675.63	12.4688
679.004	13.3523
682.379	7.85321
685.754	3.75949
689.129	0.769196
692.504	0.41449
695.879	0.206192
699.253	0.228973
702.628	0.918259
706.003	0.03624
709.378	1.09007
712.753	3.09743
716.127	5.32402
719.502	7.76091
722.877	11.6588
726.252	18.2811
729.627	17.9627
733.001	9.82848
736.376	4.64613
739.751	4.03198
743.126	3.68042
746.501	2.7621
749.875	2.37885
753.25	4.47478
756.625	5.22414
760	8.62885
763.375	15.9368
766.75	22.2742
770.124	31.6175
773.499	47.1667
776.874	54.9435
780.249	37.1026
783.624	21.7946
786.999	17.7008
790.373	14.4565
793.748	13.7953
797.123	11.9066
800.498	11.7287
803.873	10.7234
807.247	9.08795
810.622	7.35129
813.997	4.77959
817.372	5.64462
820.747	3.82899
824.121	5.71126
827.496	2.32056
830.871	1.21373
834.246	0.043442
837.621	1.53078
840.995	3.96263
844.37	4.78151
847.745	2.04553
851.12	3.4317
854.495	0.683899
857.87	7.09582
861.244	14.2515
864.619	16.1034
867.994	10.9615
871.369	2.87746
874.744	3.10693
878.119	16.3759
881.493	40.2151
884.868	74.5428
888.243	119.613
891.618	152.095
894.993	113.18
898.367	67.1845
901.742	50.3717
905.117	59.2692
908.492	94.1981
911.867	155.572
915.241	256.61
918.616	357.873
921.991	313.219
925.366	193.786
928.741	148.595
932.116	164.933
935.49	223.387
938.865	318.819
942.24	358.848
945.615	273.068
948.99	188.162
952.365	143.841
955.739	96.8893
959.114	55.323
962.489	43.7643
965.864	51.2882
969.239	86.1585
972.613	140.245
975.988	211.11
979.363	305.94
982.738	387.861
986.113	320.619
989.487	186.192
992.862	120.982
996.237	105.421
999.612	101.761
1002.99	64.1496
1006.36	25.4734
1009.74	8.20131
1013.11	0.141769
1016.49	2.60635
1019.86	6.24133
1023.24	5.69853
1026.61	2.9268
1029.98	0.742996
1033.36	3.70787
1036.73	8.07104
1040.11	12.073
1043.48	14.1073
1046.86	14.456
1050.23	16.3576
1053.61	13.975
1056.98	11.945
1060.36	10.7352
1063.73	12.6699
1067.11	12.2862
1070.48	11.0823
1073.86	11.4449
1077.23	7.65068
1080.61	5.57956
1083.98	1.86195
1087.36	1.07027
1090.73	0.080154
1094.11	0.892136
1097.48	0.933411
1100.86	2.19232
1104.23	1.97623
1107.61	2.67107
1110.98	3.05186
1114.36	4.45314
1117.73	3.03671
1121.11	2.02303
1124.48	3.69444
1127.86	4.77458
1131.23	4.40053
1134.6	5.18126
1137.98	4.69913
1141.35	5.55428
1144.73	6.59079
1148.1	5.73502
1151.48	7.95801
1154.85	7.97539
1158.23	6.97391
1161.6	8.62077
1164.98	8.39394
1168.35	8.37883
1171.73	6.63278
1175.1	5.36525
1178.48	3.23929
1181.85	2.73196
1185.23	1.97673
1188.6	1.07893
1191.98	0.819153
1195.35	1.30513
1198.73	0.4375
1202.1	0.522293
1205.48	0.760284
1208.85	0.824768
1212.22	0.573181
1215.6	0.066559
1218.97	1.68376
1222.35	1.34491
1225.72	1.76027
1229.1	0.243179
1232.47	4.46762
1235.85	5.24443
1239.22	0.664429
1242.6	1.90213
1245.97	2.15314
1249.35	2.36612
1252.72	1.72957
1256.1	1.9187
1259.47	1.31833
1262.85	1.00084
1266.22	1.3889
1269.6	0.755295
1272.97	1.01311
1276.35	1.15689
1279.72	0.151535
1283.1	1.62546
1286.47	1.17012
1289.85	0.48735
1293.22	1.52124
1296.6	0.772507
1299.97	0.704468
1303.35	0.335297
