Measurement: Raman, 780 nm, unoriented, Raman Data Processed
Mineral: Albite
Rruff sample: R060054
Ideal chemistry: NaAlSi_3_O_8_
Locality: Mt. Erebus, Antarctica
Source: Marcus Origlieri
Description: Dark gray bladed crystal
Measured chemistry: (Na_0.67_K_0.18_Ca_0.15_)_Σ=1_Al_1.00_(Si_2.85_Al_0.15_)_Σ=3_O_8_
Raman shift (cm-1)	intensity
123.027	0
125.92	0.216248
128.812	4.21722
131.705	12.2636
134.598	17.7367
137.49	39.2633
140.383	69.352
143.276	103.353
146.168	147.722
149.061	199.787
151.954	256.539
154.847	322.946
157.739	392.523
160.632	459.389
163.525	501.505
166.417	510.438
169.31	493.825
172.203	462.226
175.095	405.484
177.988	359.595
180.881	320.356
183.774	281.053
186.666	250.039
189.559	225.966
192.452	198.788
195.344	174.469
198.237	147.784
201.13	122.754
204.022	92.4369
206.915	67.3655
209.808	48.267
212.701	32.1101
215.593	17.3957
218.486	6.9754
221.379	6.91986
224.271	5.01239
227.164	14.9546
230.057	13.9504
232.949	12.1534
235.842	11.7041
238.735	4.43237
241.627	0.499512
244.52	15.623
247.413	28.2642
250.306	44.6743
253.198	61.8971
256.091	83.7864
258.984	109.934
261.876	133.932
264.769	164.194
267.662	193.6
270.555	218.284
273.447	249.598
276.34	273.447
279.233	296.331
282.125	300.371
285.018	293.143
287.911	257.238
290.803	227.759
293.696	203.622
296.589	179.727
299.481	165.651
302.374	167.352
305.267	170.105
308.16	181.197
311.052	200.863
313.945	216.404
316.838	234.852
319.73	254.356
322.623	269.255
325.516	279.169
328.409	282.543
331.301	287.84
334.194	291.28
337.087	287.133
339.979	276.586
342.872	257.819
345.765	250.166
348.657	226.102
351.55	206.775
354.443	188.607
357.335	165.177
360.228	145.491
363.121	132.493
366.014	113.568
368.906	97.618
371.799	97.2289
374.692	88.4393
377.584	76.1897
380.477	64.5665
383.37	63.0026
386.262	47.7985
389.155	42.4838
392.048	39.4915
394.94	36.6504
397.833	50.3995
400.726	54.1555
403.619	54.0388
406.511	54.0429
409.404	41.9834
412.297	16.2059
415.189	6.40808
418.082	4.78271
420.975	14.8231
423.868	11.3565
426.76	17.0964
429.653	14.0846
432.546	12.7775
435.438	5.20911
438.331	1.1488
441.224	16.7675
444.116	32.6238
447.009	51.9307
449.902	81.0112
452.795	127.106
455.687	166.778
458.58	223.213
461.473	294.401
464.365	357.927
467.258	430.886
470.151	497.541
473.043	540.028
475.936	534.259
478.829	482.672
481.721	413.058
484.614	353.33
487.507	328.609
490.4	344.685
493.292	391.712
496.185	481.091
499.078	588.998
501.97	728.838
504.863	894.928
507.756	1064.36
510.649	1123.77
513.541	1024.44
516.434	792.522
519.327	547.773
522.219	361.337
525.112	236.24
528.005	156.279
530.897	106.538
533.79	76.2571
536.683	50.8793
539.575	38.9919
542.468	31.9865
545.361	20.9932
548.254	20.6192
551.146	23.1391
554.039	25.4449
556.932	31.2477
559.824	33.9935
562.717	38.7002
565.61	45.2655
568.502	41.9304
571.395	36.7762
574.288	31.1844
577.181	18.2229
580.073	13.3845
582.966	2.69049
585.859	1.37909
588.751	3.90179
591.644	1.98804
594.537	0.477966
597.429	4.59546
600.322	2.55633
603.215	0.943726
606.107	2.79346
609	0.460938
611.893	3.49139
614.786	1.414
617.678	1.4353
620.571	2.49304
623.464	5.26416
626.356	6.40668
629.249	7.58191
632.142	5.81036
635.034	10.9349
637.927	10.6133
640.82	10.7305
643.713	7.87244
646.605	10.3616
649.498	6.62726
652.391	9.23907
655.283	6.56824
658.176	4.96539
661.069	8.47461
663.962	6.48999
666.854	3.90942
669.747	7.30048
672.64	2.64435
675.532	0.606384
678.425	0.312256
681.318	1.05872
684.21	2.39185
687.103	5.61139
689.996	3.9173
692.888	4.15826
695.781	8.09112
698.674	9.74017
701.567	8.46411
704.459	14.2342
707.352	13.4352
710.245	16.7234
713.137	16.2148
716.03	14.877
718.923	17.7831
721.815	18.5202
724.708	17.9033
727.601	16.6592
730.494	17.1272
733.386	16.9352
736.279	20.4675
739.172	15.0059
742.064	19.1802
744.957	17.6595
747.85	23.7178
750.742	25.4006
753.635	25.6092
756.528	26.6901
759.42	30.5192
762.313	29.2635
765.206	31.2287
768.099	31.6384
770.991	30.5521
773.884	27.1301
776.777	26.8506
779.669	26.6274
782.562	21.9443
785.455	20.6455
788.347	20.6068
791.24	14.8444
794.133	12.7194
797.026	9.92383
799.918	8.62299
802.811	6.62927
805.704	6.76569
808.596	6.04309
811.489	1.9682
814.382	0.409729
817.274	0.896057
820.167	0.45752
823.06	0.398376
825.953	1.59222
828.845	0.487854
831.738	0.976257
834.631	0.149231
837.523	2.02844
840.416	0.73645
843.309	3.0705
846.202	5.82642
849.094	5.93811
851.987	3.8028
854.88	5.54559
857.772	5.09131
860.665	5.55609
863.558	8.20917
866.45	8.24554
869.343	12.1063
872.236	7.68957
875.128	5.32928
878.021	6.41132
880.914	2.22363
883.807	2.94751
886.699	4.71466
889.592	3.20905
892.485	1.54266
895.377	2.79913
898.27	3.40637
901.163	3.02283
904.055	0.099121
906.948	1.05176
909.841	0.021942
912.734	1.77179
915.626	1.38519
918.519	3.79425
921.412	1.36023
924.304	2.62085
927.197	4.17224
930.09	1.25546
932.982	1.31595
935.875	3.92401
938.768	1.05456
941.66	1.63519
944.553	0.176819
947.446	0.183594
950.339	6.69122
953.231	1.83984
956.124	1.44626
959.017	3.21213
961.909	0.10791
964.802	2.33462
967.695	1.85763
970.587	2.15256
973.48	4.47574
976.373	4.80844
979.266	9.34393
982.158	8.49948
985.051	8.65027
987.944	11.1069
990.836	11.678
993.729	12.891
996.622	12.2624
999.514	12.8967
1002.41	17.6587
1005.3	16.9346
1008.19	18.2227
1011.09	15.8734
1013.98	18.0608
1016.87	20.0451
1019.76	23.9194
1022.66	22.6197
1025.55	25.2833
1028.44	24.8089
1031.33	26.9932
1034.23	26.2146
1037.12	24.2331
1040.01	25.4202
1042.9	23.8766
1045.8	20.3079
1048.69	21.0576
1051.58	16.7458
1054.48	12.4613
1057.37	12.0284
1060.26	8.56604
1063.15	7.38306
1066.05	7.58215
1068.94	8.88336
1071.83	6.34668
1074.72	3.12048
1077.62	6.11865
1080.51	4.22693
1083.4	4.27924
1086.3	0.042297
1089.19	1.48554
1092.08	7.81885
1094.97	18.3904
1097.87	20.1206
1100.76	18.7667
1103.65	24.7303
1106.54	27.8035
1109.44	27.056
1112.33	19.6608
1115.22	12.5347
1118.12	17.6913
1121.01	15.7175
1123.9	15.3707
1126.79	15.6532
1129.69	8.12817
1132.58	3.49414
1135.47	6.8894
1138.36	4.98853
