Measurement: Raman, 785 nm, unoriented, Raman Data Processed
Mineral: Albite
Rruff sample: R040129
Ideal chemistry: NaAlSi_3_O_8_
Locality: LaChance Quarry, Brunswick, Cumberland County, Maine, USA
Source: Bob Downs
Description: Colorless fragment of a tabular single crystal
Measured chemistry: (Na_0.99_K_0.01_)Al_1.00_Si_3.00_O_8_
Raman shift (cm-1)	intensity
121.501	0
124.394	0.635834
127.287	29.4589
130.18	119.599
133.072	300.507
135.965	554.778
138.858	646.479
141.75	608.658
144.643	807.462
147.536	1229.35
150.429	1760.37
153.321	1477.32
156.214	872.913
159.107	664.697
161.999	686.634
164.892	776.815
167.785	950.443
170.677	1185.32
173.57	1162.06
176.463	1208.47
179.356	1427.09
182.248	1733.43
185.141	1923.94
188.034	1718.52
190.926	1247.41
193.819	974.87
196.712	849.017
199.604	897.277
202.497	1054.14
205.39	1386.79
208.282	1794.96
211.175	1488.78
214.068	695.911
216.961	281.251
219.853	114.188
222.746	45.0414
225.639	1.51559
228.531	35.4038
231.424	30.1216
234.317	36.857
237.209	6.15012
240.102	40.9162
242.995	84.5953
245.888	160.134
248.78	325.537
251.673	498.065
254.566	380.345
257.458	265.887
260.351	297.885
263.244	435.405
266.137	686.175
269.029	900.809
271.922	750.893
274.815	506.336
277.707	467.238
280.6	566.868
283.493	765.407
286.385	1174.94
289.278	1711.67
292.171	1678.24
295.063	932.302
297.956	416.649
300.849	195.381
303.742	86.7482
306.634	54.7382
309.527	36.7088
312.42	49.0277
315.312	61.4663
318.205	102.644
321.098	155.453
323.99	306.157
326.883	504.122
329.776	571.158
332.669	282.224
335.561	100.349
338.454	67.5204
341.347	49.8333
344.239	51.191
347.132	44.6519
350.025	34.6624
352.918	13.7736
355.81	7.47177
358.703	11.8769
361.596	7.79864
364.488	5.53995
367.381	6.41733
370.274	12.5211
373.166	0.572601
376.059	0.053558
378.952	25.8748
381.844	24.9404
384.737	40.8581
387.63	65.6217
390.523	92.405
393.415	156.086
396.308	273.484
399.201	371.35
402.093	364.533
404.986	459.111
407.879	605.603
410.772	530.702
413.664	575.721
416.557	774.469
419.45	420.65
422.342	116.303
425.235	28.2073
428.128	8.14151
431.02	24.0136
433.913	12.0764
436.806	4.54236
439.699	71.1776
442.591	160.554
445.484	333.979
448.377	537.974
451.269	850.64
454.162	1316.64
457.055	1504.32
459.947	1053.65
462.84	711.464
465.733	854.179
468.625	1233.85
471.518	1844.66
474.411	2861.05
477.304	4167.9
480.196	4184.44
483.089	2352.64
485.982	1146.94
488.874	752.988
491.767	810.893
494.66	1226.76
497.553	1865.95
500.445	2824.24
503.338	4401.3
506.231	6171.08
509.123	5563.77
512.016	2934.23
514.909	1403.31
517.802	732.989
520.694	451.09
523.587	302.006
526.48	185.097
529.372	132.252
532.265	84.3026
535.158	52.9151
538.05	36.1789
540.943	21.454
543.836	6.50067
546.729	4.93143
549.621	0.820068
552.514	9.53149
555.407	10.5367
558.299	12.0656
561.192	4.67258
564.085	5.45132
566.977	19.4769
569.87	53.2035
572.763	104.36
575.655	167.123
578.548	205.58
581.441	194.278
584.333	94.2504
587.226	29.869
590.119	11.7545
593.012	5.98309
595.904	3.54474
598.797	0.77121
601.69	5.4158
604.582	0.134521
607.475	7.75043
610.368	17.2148
613.26	7.48795
616.153	4.9794
619.046	0.778412
621.939	25.9723
624.831	40.823
627.724	47.3443
630.617	83.2624
633.509	97.4419
636.402	99.2108
639.295	103.27
642.188	124.232
645.08	166.645
647.973	156.583
650.866	115.345
653.758	77.0308
656.651	49.7317
659.544	39.9211
662.436	37.3945
665.329	29.7307
668.222	19.9495
671.115	14.555
674.007	13.5006
676.9	5.83337
679.793	2.99643
682.685	11.0824
685.578	2.45731
688.471	7.15494
691.363	4.83521
694.256	7.66553
697.149	2.52679
700.042	1.22693
702.934	2.01123
705.827	5.25723
708.72	12.9096
711.612	6.1235
714.505	23.5432
717.398	18.573
720.29	34.0789
723.183	17.7526
726.076	18.5116
728.968	5.8829
731.861	29.4947
734.754	17.8289
737.647	15.8711
740.539	43.9413
743.432	68.6809
746.325	102.345
749.217	200.46
752.11	353.704
755.003	618.385
757.895	988.647
760.788	1492.91
763.681	1713.95
766.574	1176.06
769.466	574.866
772.359	322.952
775.252	179.41
778.144	123.375
781.037	66.1275
783.93	38.0092
786.822	37.6271
789.715	36.0066
792.608	57.7877
795.501	69.0782
798.393	116.588
801.286	190.074
804.179	363.317
807.071	642.368
809.964	1067.78
812.857	1540.13
815.75	1596.79
818.642	1057.55
821.535	526.472
824.428	264.26
827.32	147.108
830.213	102.971
833.106	71.1225
835.998	51.5172
838.891	32.0965
841.784	19.8881
844.677	12.6961
847.569	14.7987
850.462	4.46768
853.355	5.32312
856.247	9.38452
859.14	12.7541
862.033	1.0979
864.925	4.11035
867.818	4.74623
870.711	4.44952
873.604	9.90486
876.496	4.16493
879.389	2.9267
882.282	1.35854
885.174	6.18794
888.067	9.19749
890.96	5.46983
893.852	2.21049
896.745	9.95064
899.638	7.44905
902.53	2.55968
905.423	25.1776
908.316	20.4566
911.209	25.4095
914.101	9.52754
916.994	13.7026
919.887	6.59552
922.779	2.30336
925.672	7.94235
928.565	10.1072
931.457	0.296036
934.35	2.00626
937.243	2.64214
940.136	7.74812
943.028	5.13265
945.921	12.3065
948.814	0.888718
951.706	13.899
954.599	3.64587
957.492	19.9202
960.385	43.7816
963.277	35.9044
966.17	57.0473
969.063	115.729
971.955	159.97
974.848	242.41
977.741	317.324
980.633	238.704
983.526	160.442
986.419	70.0823
989.312	55.4682
992.204	52.6795
995.097	53.2063
997.99	79.3593
1000.88	118.427
1003.77	143.542
1006.67	170.188
1009.56	153.446
1012.45	127.33
1015.35	114.409
1018.24	71.9278
1021.13	49.606
1024.02	32.5478
1026.92	30.8895
1029.81	56.9223
1032.7	53.4143
1035.6	50.0735
1038.49	44.5559
1041.38	44.5685
1044.27	58.6678
1047.17	54.0623
1050.06	37.6104
1052.95	35.2991
1055.84	4.12285
1058.74	0.654297
1061.63	1.37778
1064.52	2.5097
1067.41	11.6943
1070.31	6.13486
1073.2	12.5622
1076.09	16.6462
1078.98	24.8677
1081.88	27.4479
1084.77	78.8922
1087.66	119.779
1090.56	205.748
1093.45	310.519
1096.34	426.062
1099.23	461.685
1102.13	383.24
1105.02	240.52
1107.91	153.534
1110.81	100.276
1113.7	81.4097
1116.59	57.4986
1119.48	42.1208
1122.38	33.843
1125.27	13.304
1128.16	13.1276
1131.05	2.82958
1133.95	13.2071
1136.84	15.5319
1139.73	16.2001
1142.62	16.3229
1145.52	34.9686
1148.41	31.7909
1151.3	56.1209
1154.19	62.3685
1157.09	39.5503
1159.98	20.9941
1162.87	21.7275
1165.77	9.60287
1168.66	9.88895
1171.55	8.47386
1174.44	12.7769
1177.34	14.0931
1180.23	0.142181
1183.12	10.3577
1186.02	2.19778
1188.91	14.1433
1191.8	17.3704
1194.69	2.76076
1197.59	27.617
1200.48	19.3696
1203.37	29.0005
1206.26	14.7442
1209.16	11.9125
1212.05	20.5132
1214.94	18.7929
1217.84	15.9368
1220.73	10.5783
1223.62	13.6076
1226.51	9.58435
1229.41	10.0074
1232.3	10.1178
1235.19	4.28882
