Measurement: Raman, 514 nm, unoriented, Raman Data Processed
Mineral: Albite
Rruff sample: R040129
Ideal chemistry: NaAlSi_3_O_8_
Locality: LaChance Quarry, Brunswick, Cumberland County, Maine, USA
Source: Bob Downs
Description: Colorless fragment of a tabular single crystal
Measured chemistry: (Na_0.99_K_0.01_)Al_1.00_Si_3.00_O_8_
Raman shift (cm-1)	intensity
125.369	0
129.534	69.879
133.696	692.469
137.857	2456.01
142.016	4612.32
146.172	4890.05
150.327	4098.37
154.48	7976.97
158.63	12668.8
162.779	12638.6
166.926	9512.46
171.07	9702.66
175.213	11917.3
179.354	16707.7
183.493	19852.9
187.63	15929.7
191.765	9285.92
195.898	6178.58
200.029	6500.88
204.158	10325.8
208.285	11794.8
212.41	6371.33
216.533	1883.31
220.654	602.178
224.773	81.945
228.891	241.525
233.006	219.367
237.119	145.805
241.231	205.821
245.34	1452.65
249.448	2924.8
253.553	2589.77
257.657	1036.86
261.758	775.879
265.858	1278.27
269.956	1835.41
274.052	2643.74
278.146	5350.6
282.237	13953.7
286.327	30626.6
290.416	36121.4
294.502	19014.6
298.586	7037.24
302.668	3127.97
306.749	1894.76
310.827	1314.64
314.903	1079.14
318.978	1507.71
323.051	4836.83
327.121	8211.56
331.19	5676.96
335.257	1842.07
339.322	852.93
343.385	794.746
347.446	834.128
351.505	474.031
355.563	276.95
359.618	33.841
363.672	35.45
367.723	116.98
371.773	39.812
375.821	82.803
379.866	86.802
383.91	206.014
387.952	63.884
391.992	342.611
396.031	794.161
400.067	969.188
404.101	781.285
408.134	507.97
412.165	204.964
416.193	134.059
420.22	5.252
424.245	65.07
428.268	15.374
432.289	42.856
436.309	13.331
440.326	233.795
444.342	184.055
448.355	511.223
452.367	1014.88
456.377	1264.4
460.385	1363.79
464.391	1975.97
468.395	3888.89
472.398	10037.5
476.398	19737.9
480.397	18559.9
484.394	8290.6
488.389	4686.01
492.382	4594.12
496.373	7626.92
500.362	18720.4
504.349	42015.6
508.335	44174.8
512.319	19361.9
516.3	8351.02
520.28	4587.44
524.259	2765.76
528.235	1887.55
532.209	1557.17
536.182	1136.87
540.152	874.04
544.121	681.02
548.088	569.037
552.053	694.264
556.017	363.381
559.978	463.968
563.938	582.294
567.895	598.183
571.851	853.549
575.805	1651.98
579.758	1633.98
583.708	668.108
587.657	378.187
591.603	302.79
595.548	160.341
599.491	102.893
603.432	64.073
607.372	471.384
611.309	383.486
615.245	275.38
619.179	588.066
623.111	510.547
627.041	1386.82
630.97	1699.9
634.896	1890.78
638.821	1674.46
642.744	1777.95
646.665	2085.26
650.584	1399.37
654.502	758.309
658.418	247.067
662.331	120.651
666.244	125.06
670.154	40.291
674.062	30.672
677.969	175.089
681.874	34.152
685.777	151.501
689.678	86.954
693.577	97.372
697.475	94.217
701.371	110.913
705.265	147.7
709.157	6.634
713.047	109.793
716.936	139.658
720.823	283.014
724.708	121.717
728.591	314.397
732.472	247.61
736.352	184.969
740.23	145.339
744.106	124.223
747.98	206.066
751.853	337.566
755.723	637.979
759.592	1558.97
763.459	2294.52
767.325	1202.88
771.188	1131.27
775.05	1146.57
778.91	609.801
782.768	488.953
786.625	321.039
790.479	473.77
794.332	525.016
798.183	464.914
802.033	542.762
805.88	1109.56
809.726	2219.32
813.57	4201.03
817.413	3720.51
821.253	1675.97
825.092	931.879
828.929	621.508
832.764	668.418
836.598	264.145
840.429	307.771
844.259	413.174
848.088	61.062
851.914	142.383
855.739	14.342
859.562	119.424
863.383	212.078
867.203	53.301
871.02	19.346
874.836	81.838
878.65	87.609
882.463	156.432
886.274	120.154
890.083	16.896
893.89	60.686
897.695	162.004
901.499	226
905.301	196.859
909.102	242.855
912.9	215.023
916.697	402.332
920.492	281.756
924.285	147.127
928.077	202.922
931.867	90.918
935.655	103.027
939.442	366.242
943.226	270.564
947.009	136.002
950.791	137.555
954.57	209.219
958.348	297.01
962.124	154.939
965.899	313.006
969.671	513.24
973.442	642.615
977.211	1596.13
980.979	1126.87
984.745	989.775
988.509	556.713
992.271	289.521
996.032	212.396
999.791	421.135
1003.55	247.701
1007.3	424.055
1011.06	493.703
1014.81	714.418
1018.56	641.547
1022.31	901.227
1026.06	1749.37
1029.8	3014.51
1033.55	3737.57
1037.29	2266.49
1041.03	1342.15
1044.77	841.389
1048.5	523.156
1052.24	301.92
1055.97	306.777
1059.7	360.969
1063.43	261.211
1067.16	322.672
1070.89	74.191
1074.61	378.363
1078.34	496.752
1082.06	515.191
1085.78	1089.44
1089.5	1053.39
1093.21	2011.94
1096.93	3860.02
1100.64	4684.37
1104.35	3760.24
1108.06	2575.06
1111.77	2618.47
1115.48	2513.77
1119.18	2047.72
1122.89	1316.36
1126.59	780.191
1130.29	284.285
1133.99	335.994
1137.68	538.309
1141.38	265.73
1145.07	79.635
1148.76	48.197
1152.45	238.812
1156.14	155.842
1159.83	144.176
1163.51	239.262
1167.19	159.318
1170.88	71.189
1174.56	8.76
1178.23	47.195
1181.91	41.365
1185.59	153.811
1189.26	236.021
1192.93	208.547
1196.6	121.111
1200.27	138.809
1203.94	409.023
1207.6	129.812
1211.27	150.883
1214.93	121.818
1218.59	55.908
1222.25	74.48
1225.9	197.205
1229.56	140.32
1233.21	307.006
1236.86	208.096
1240.51	160.754
1244.16	59.947
1247.81	300.641
1251.45	134.422
1255.1	163.244
1258.74	23.098
1262.38	8.762
1266.02	140.688
1269.66	7.131
1273.29	214.721
1276.93	87.619
1280.56	133.705
1284.19	20.744
1287.82	46.455
1291.45	33.023
1295.07	114.484
1298.7	97.68
1302.32	135.137
1305.94	251.922
1309.56	319.766
1313.18	196.688
1316.8	371.85
1320.41	119.092
1324.02	91.178
1327.63	472.076
1331.24	177.848
1334.85	165.5
1338.46	216.006
1342.06	380.488
1345.67	422.99
1349.27	388.697
1352.87	575.057
1356.47	528.916
1360.07	773.77
1363.66	526.668
1367.25	429.377
1370.85	597.652
1374.44	543.135
1378.03	565.453
1381.61	539.592
1385.2	498.551
1388.78	476.693
1392.37	640.227
1395.95	553.75
1399.53	575.459
1403.1	727.799
1406.68	433.006
1410.26	650.684
1413.83	718.645
1417.4	846.252
1420.97	664.266
1424.54	559.646
1428.1	652.414
1431.67	573.463
1435.23	809.523
1438.8	737.871
1442.36	812.254
1445.91	745.826
1449.47	747.135
1453.03	949.547
1456.58	815.799
1460.13	738.32
1463.68	502.801
1467.23	443.949
1470.78	550.6
1474.33	456.738
1477.87	358.773
1481.42	339.17
1484.96	610.016
1488.5	379.559
1492.04	356.465
1495.57	371.43
1499.11	259.514
1502.64	11.117
1506.17	176.545
1509.71	163.637
1513.23	323.324
1516.76	5.873
1520.29	85.691
