Measurement: Raman, 785 nm, unoriented, Raman Data Processed
Mineral: Albite
Rruff sample: R040068
Ideal chemistry: NaAlSi_3_O_8_
Locality: Harding Pegmatite, Dixon, New Mexico, USA
Source: University of Arizona Mineral Museum
Description: Tan colored crystal fragment
Measured chemistry: (Na_0.99_Ca_0.01_)Al_1.00_(Si_0.99_Al_0.01_)_3_O_8_
Raman shift (cm-1)	intensity
122.975	0
125.867	13.7914
128.76	65.8526
131.653	149.002
134.545	105.872
137.438	5.76398
140.331	29.4944
143.223	184.421
146.116	383.49
149.009	541.551
151.901	567.01
154.794	590.709
157.687	717.101
160.58	900.823
163.472	875.699
166.365	611.526
169.258	516.846
172.15	449.157
175.043	415.26
177.936	438.511
180.828	489.947
183.721	519.868
186.614	479.641
189.507	405.767
192.399	288.861
195.292	242.593
198.185	223.898
201.077	262.808
203.97	304.797
206.863	405.859
209.756	342.502
212.648	200.597
215.541	101.135
218.434	57.5752
221.326	29.9097
224.219	31.0608
227.112	8.54761
230.004	3.02167
232.897	5.42938
235.79	2.32532
238.683	5.07336
241.575	21.2256
244.468	62.5411
247.361	135.154
250.253	200.755
253.146	162.08
256.039	72.0256
258.931	59.1918
261.824	98.0666
264.717	179.916
267.61	275.418
270.502	248.03
273.395	164.233
276.288	144.208
279.18	184.49
282.073	374.962
284.966	650.93
287.858	971.033
290.751	1045.9
293.644	637.268
296.536	294.25
299.429	137.449
302.322	116.255
305.215	87.9165
308.107	95.1608
311	57.3253
313.893	23.662
316.785	40.8855
319.678	10.8407
322.571	68.6444
325.464	140.258
328.356	155.651
331.249	83.2794
334.142	35.1425
337.034	17.6108
339.927	9.76532
342.82	6.37183
345.712	0.109436
348.605	0.452759
351.498	4.3338
354.39	1.36054
357.283	11.2365
360.176	7.20483
363.069	0.816711
365.961	18.3094
368.854	11.069
371.747	2.66827
374.639	1.00561
377.532	9.41608
380.425	4.36316
383.317	10.0967
386.21	10.7592
389.103	11.2294
391.996	28.1601
394.888	73.238
397.781	82.6235
400.674	126.243
403.566	190.691
406.459	270.441
409.352	258.582
412.245	159.459
415.137	156.709
418.03	118.495
420.923	41.5868
423.815	7.3728
426.708	6.92865
429.601	1.88733
432.493	3.45013
435.386	5.27435
438.279	5.54907
441.171	11.0164
444.064	19.7365
446.957	4.724
449.85	13.3856
452.742	30.9706
455.635	51.4228
458.528	65.9938
461.42	93.3521
464.313	161.993
467.206	257.973
470.098	506.744
472.991	946.292
475.884	1513.66
478.777	1870.65
481.669	1198.41
484.562	562.6
487.455	313.498
490.347	255.452
493.24	235.744
496.133	389.477
499.026	712.27
501.918	1243.58
504.811	1937.97
507.704	2147.7
510.596	1262.11
513.489	635.785
516.382	323.776
519.274	217.675
522.167	129.144
525.06	102.89
527.952	81.2576
530.845	43.8655
533.738	22.306
536.631	25.5516
539.523	38.9413
542.416	23.1886
545.309	7.8064
548.201	11.6798
551.094	1.76623
553.987	4.88672
556.88	4.56891
559.772	14.2985
562.665	1.46509
565.558	0.424133
568.45	16.4912
571.343	10.6713
574.236	35.4424
577.128	45.5363
580.021	45.6398
582.914	7.75238
585.807	36.3852
588.699	15.2498
591.592	15.6827
594.485	7.09509
597.377	9.95569
600.27	10.6969
603.163	10.124
606.055	17.5709
608.948	15.4034
611.841	13.6552
614.734	27.0701
617.626	30.4606
620.519	20.0503
623.412	46.9579
626.304	28.8601
629.197	54.4232
632.09	58.5398
634.982	51.3564
637.875	47.5325
640.768	32.835
643.66	43.3262
646.553	47.7236
649.446	48.6398
652.339	36.1746
655.231	18.2242
658.124	28.2133
661.017	15.7335
663.909	8.81854
666.802	6.26739
669.695	2.11233
672.587	8.48932
675.48	11.0265
678.373	1.75598
681.266	14.7396
684.158	3.17969
687.051	13.5432
689.944	9.72153
692.836	4.62991
695.729	4.06506
698.622	19.5306
701.514	0.589233
704.407	1.73877
707.3	2.85086
710.193	13.9473
713.085	20.8864
715.978	11.6366
718.871	26.1313
721.763	16.5352
724.656	6.289
727.549	8.03204
730.442	12.9663
733.334	11.84
736.227	10.5515
739.12	21.9334
742.012	10.7543
744.905	9.30453
747.798	7.49075
750.69	25.9615
753.583	42.414
756.476	77.6219
759.369	118.596
762.261	180.534
765.154	152.484
768.047	83.8478
770.939	81.562
773.832	65.4902
776.725	54.8186
779.617	37.3271
782.51	29.5742
785.403	18.2857
788.295	14.339
791.188	19.8256
794.081	4.34582
796.974	0.690155
799.866	5.19507
802.759	2.16949
805.652	21.4731
808.544	29.2587
811.437	56.9672
814.33	60.3851
817.222	58.1367
820.115	33.9062
823.008	22.3438
825.901	4.59079
828.793	11.8202
831.686	10.348
834.579	13.488
837.471	1.49292
840.364	0.165344
843.257	22.4297
846.149	8.61496
849.042	25.2403
851.935	9.15137
854.827	0.980194
857.72	14.8288
860.613	22.4926
863.506	0.053894
866.398	6.11545
869.291	19.2929
872.184	14.7455
875.076	5.84992
877.969	22.1001
880.862	26.4023
883.755	13.6461
886.647	13.6546
889.54	23.7918
892.433	18.2651
895.325	27.37
898.218	27.756
901.111	12.2688
904.003	18.6554
906.896	3.86221
909.789	21.9994
912.682	5.51221
915.574	21.7032
918.467	8.35403
921.36	17.2327
924.252	21.3825
927.145	15.1366
930.038	8.3345
932.93	2.89389
935.823	21.0464
938.716	20.1319
941.609	27.2494
944.501	5.12662
947.394	18.189
950.287	1.64859
953.179	15.1229
956.072	24.7487
958.965	13.614
961.857	22.7326
964.75	25.9833
967.643	13.056
970.535	24.8248
973.428	30.2899
976.321	41.8518
979.214	37.8976
982.106	15.1441
984.999	28.6439
987.892	28.9383
990.784	4.55414
993.677	5.58713
996.57	31.1375
999.462	22.921
1002.36	36.6088
1005.25	50.5108
1008.14	40.8939
1011.03	62.2066
1013.93	70.1151
1016.82	50.6727
1019.71	20.2344
1022.6	21.4991
1025.5	23.0053
1028.39	51.2492
1031.28	72.0225
1034.17	74.9699
1037.07	34.2472
1039.96	18.8701
1042.85	43.4316
1045.75	26.9833
1048.64	26.6721
1051.53	19.9211
1054.42	1.43707
1057.32	7.37079
1060.21	7.70703
1063.1	0.71637
1065.99	0.394287
1068.89	14.6481
1071.78	12.1531
1074.67	6.06821
1077.57	22.5078
1080.46	29.1468
1083.35	29.0078
1086.24	65.7986
1089.14	87.4575
1092.03	155.273
1094.92	249.233
1097.81	318.77
1100.71	278.899
1103.6	220.493
1106.49	176.321
1109.38	150.701
1112.28	150.862
1115.17	137.835
1118.06	123.599
1120.96	69.9449
1123.85	57.0348
1126.74	34.2309
1129.63	19.3612
1132.53	14.7165
1135.42	8.73868
1138.31	9.87805
1141.2	11.2723
1144.1	13.1187
1146.99	4.00623
1149.88	24.1197
1152.78	27.5684
1155.67	22.245
1158.56	21.1898
1161.45	12.3236
1164.35	1.31601
1167.24	14.6208
1170.13	3.62631
1173.03	11.7139
1175.92	8.62479
1178.81	3.07947
1181.7	5.25775
1184.6	1.5813
1187.49	1.16348
1190.38	17.368
1193.27	3.89056
1196.17	16.8584
1199.06	19.305
1201.95	4.79089
1204.84	0.125946
1207.74	15.3888
1210.63	13.552
1213.52	22.1456
1216.41	19.4256
1219.31	14.4261
1222.2	22.0182
1225.09	19.1314
1227.99	17.7848
1230.88	7.05505
1233.77	10.8367
1236.66	2.47116
1239.56	2.42639
1242.45	30.8301
1245.34	32.7052
1248.23	13.1321
1251.13	4.46133
1254.02	17.03
1256.91	12.8088
1259.81	7.05676
1262.7	0.156494
