Measurement: Raman, 532 nm, unoriented, Raman Data Processed
Mineral: Albite
Rruff sample: R040129
Ideal chemistry: NaAlSi_3_O_8_
Locality: LaChance Quarry, Brunswick, Cumberland County, Maine, USA
Source: Bob Downs
Description: Colorless fragment of a tabular single crystal
Measured chemistry: (Na_0.99_K_0.01_)Al_1.00_Si_3.00_O_8_
Raman shift (cm-1)	intensity
130.377	0
133.752	16.7345
137.127	257.575
140.502	878.643
143.876	1862.09
147.251	2709.37
150.626	3336.43
154.001	3272.45
157.376	4382.33
160.75	5805.01
164.125	5110.57
167.5	4177.08
170.875	5006.67
174.25	5072.22
177.625	6181.9
180.999	7884.6
184.374	8808.82
187.749	7191.98
191.124	4446.06
194.499	3242.3
197.874	3078.79
201.248	3658.5
204.623	5161.92
207.998	6489.93
211.373	4409.44
214.748	1573.07
218.122	532.813
221.497	130.709
224.872	59.3164
228.247	88.5974
231.622	137.811
234.996	112.828
238.371	20.2825
241.746	235.125
245.121	576.826
248.496	1151.77
251.871	1459.95
255.245	788.292
258.62	653.7
261.995	986.028
265.37	1491.83
268.745	2066.64
272.12	2093.2
275.494	2666.33
278.869	4237.25
282.244	7022.82
285.619	10933.8
288.994	14646.2
292.368	11648.9
295.743	4843.94
299.118	2095.28
302.493	1061.36
305.868	676.267
309.243	558.302
312.617	547.541
315.992	661.286
319.367	1040.42
322.742	1796.54
326.117	2808.11
329.491	3034.11
332.866	1188.28
336.241	469.204
339.616	306.532
342.991	291.475
346.365	307.717
349.74	250.77
353.115	90.9908
356.49	21.7404
359.865	9.68335
363.24	30.5991
366.614	25.5304
369.989	58.7384
373.364	5.25098
376.739	13.3107
380.114	19.062
383.488	61.5332
386.863	162.342
390.238	278.031
393.613	668.24
396.988	906.266
400.363	1105.02
403.737	1182.49
407.112	1615.26
410.487	1149.7
413.862	1040.94
417.237	1029.39
420.611	289.792
423.986	45.2338
427.361	37.1908
430.736	54.426
434.111	38.818
437.486	20.7097
440.86	156.084
444.235	531.208
447.61	1156.28
450.985	1909.59
454.36	2635.46
457.735	2685.48
461.109	1977.3
464.484	2640.94
467.859	4900.55
471.234	8300.6
474.609	12198.9
477.983	15760.2
481.358	10557.1
484.733	4736.36
488.108	3140.81
491.483	3763.7
494.858	6653.63
498.232	11939.3
501.607	18470.3
504.982	25631.7
508.357	23772.3
511.732	11043
515.106	4943.5
518.481	2611.11
521.856	1565.76
525.231	1009.16
528.606	670.173
531.981	421.048
535.355	260.009
538.73	124.985
542.105	67.0166
545.48	41.7566
548.855	5.17236
552.229	11.3626
555.604	3.13354
558.979	29.6309
562.354	9.42212
565.729	102.614
569.104	288.001
572.478	527.38
575.853	738.239
579.228	841.331
582.603	443.961
585.978	161.726
589.352	50.3785
592.727	21.4967
596.102	107.921
599.477	5.06482
602.852	29.467
606.227	3.52539
609.601	45.9962
612.976	61.4496
616.351	129.252
619.726	211.829
623.101	361.709
626.476	503.255
629.85	691.945
633.225	777.743
636.6	754.033
639.975	780.724
643.35	904.188
646.724	914.083
650.099	636.339
653.474	349.351
656.849	214.68
660.224	160.31
663.598	99.3554
666.973	82.0303
670.348	50.5562
673.723	23.5178
677.098	24.201
680.472	3.62952
683.847	7.04932
687.222	4.50256
690.597	14.8438
693.972	24.0242
697.347	16.5002
700.721	9.31812
704.096	2.33862
707.471	20.2017
710.846	35.8573
714.221	90.9612
717.596	91.7341
720.97	109.109
724.345	17.6025
727.72	80.9327
731.095	43.5095
734.47	96.8238
737.844	94.0847
741.219	162.925
744.594	277.941
747.969	512.25
751.344	1098.81
754.719	1986.16
758.093	3016.87
761.468	4024.4
764.843	3451.49
768.218	1767.52
771.593	1039.85
774.967	732.144
778.342	471.134
781.717	235.759
785.092	137.342
788.467	127.614
791.842	148.649
795.216	246.227
798.591	434.258
801.966	995.566
805.341	1946.67
808.716	3291.57
812.091	4621.2
815.465	4678.77
818.84	2577.11
822.215	1145.8
825.59	578.941
828.965	398.386
832.339	287.185
835.714	169.342
839.089	137.279
842.464	85.9099
845.839	48.9126
849.213	20.9614
852.588	23.8557
855.963	2.302
859.338	14.4546
862.713	13.6792
866.087	25.7224
869.462	27.7739
872.837	0.010254
876.212	6.37134
879.587	21.0308
882.962	21.5029
886.337	12.3125
889.711	16.0041
893.086	8.40771
896.461	8.68945
899.836	50.5737
903.211	28.8591
906.585	39.7661
909.96	62.8223
913.335	52.4624
916.71	53.8091
920.085	2.92871
923.46	22.5068
926.834	13.4021
930.209	24.062
933.584	3.1936
936.959	5.53247
940.334	31.4206
943.708	18.2183
947.083	30.283
950.458	62.0637
953.833	67.5691
957.208	106.165
960.582	202.909
963.957	281.567
967.332	572.31
970.707	1000.93
974.082	1442.49
977.457	1593.48
980.831	1072.9
984.206	537.518
987.581	270.283
990.956	196.46
994.331	189.004
997.705	316.184
1001.08	471.195
1004.46	649.81
1007.83	663.282
1011.21	635.907
1014.58	578.121
1017.95	438.805
1021.33	534.267
1024.7	695.67
1028.08	1051.06
1031.45	1198.64
1034.83	927.725
1038.2	525.855
1041.58	296.694
1044.95	234.315
1048.33	138.752
1051.7	42.053
1055.08	3.96509
1058.45	20.7449
1061.83	9.26465
1065.2	27.6536
1068.58	8.85742
1071.95	109.163
1075.33	113.257
1078.7	260.833
1082.08	418.545
1085.45	737.786
1088.83	1359.86
1092.2	2262.2
1095.58	3116.56
1098.95	3355.55
1102.33	2647.97
1105.7	1864.41
1109.07	1515.88
1112.45	1297.71
1115.82	1119.09
1119.2	808.139
1122.57	472.485
1125.95	268.379
1129.32	175.361
1132.7	113.76
1136.07	42.293
1139.45	69.2161
1142.82	71.0159
1146.2	173.049
1149.57	237.469
1152.95	227.558
1156.32	124.951
1159.7	49.0168
1163.07	32.6528
1166.45	4.24268
1169.82	26.407
1173.2	16.1724
1176.57	11.2734
1179.95	6.3269
1183.32	30.0903
1186.69	14.8713
1190.07	18.2918
1193.44	4.5481
1196.82	14.1316
1200.19	11.2915
1203.57	2.93457
1206.94	44.4641
1210.32	12.0339
1213.69	31.3452
1217.07	52.8491
1220.44	22.2944
1223.82	34.5142
1227.19	12.6086
1230.57	47.3618
1233.94	8.9209
1237.32	35.7183
1240.69	28.626
1244.07	66.3689
1247.44	53.5159
1250.82	40.3159
1254.19	30.1113
1257.57	33.95
1260.94	11.8911
1264.32	36.7073
1267.69	19.3672
1271.07	24.313
1274.44	36.6252
1277.82	41.499
1281.19	29.0554
1284.57	37.1626
1287.94	4.07666
1291.32	24.0601
1294.69	19.8467
1298.06	19.5012
