Measurement: Raman, 780 nm, unoriented, Raman Data Processed
Mineral: Albite
Rruff sample: R100169
Ideal chemistry: NaAlSi_3_O_8_
Locality: Rutherford#2 Mine, Amelia, Amelia county, Virginia, USA
Source: Mineralogical Museum, Harvard University
Description: White to colorless tabular crystals
Raman shift (cm-1)	intensity
90.6055	0
93.9803	28.2799
97.3551	16.6851
100.73	2.75555
104.105	20.1588
107.48	113.316
110.854	206.804
114.229	138.738
117.604	20.5958
120.979	9.99597
124.354	4.11209
127.728	17.8449
131.103	37.7459
134.478	78.7897
137.853	158.94
141.228	332.833
144.602	544.087
147.977	425.873
151.352	433.166
154.727	511.828
158.102	767.229
161.477	966.4
164.851	754.974
168.226	733.877
171.601	774.705
174.976	809.879
178.351	980.706
181.726	1215.3
185.1	1265.83
188.475	943.264
191.85	616.877
195.225	448.244
198.6	401.234
201.974	468.001
205.349	678
208.724	747.945
212.099	358.287
215.474	117.159
218.848	27.9111
222.223	4.74313
225.598	20.6681
228.973	15.6247
232.348	5.5274
235.722	21.9714
239.097	48.8751
242.472	105.212
245.847	220.812
249.222	468.111
252.597	464.669
255.971	177.701
259.346	99.4443
262.721	127.801
266.096	236.22
269.471	367.143
272.846	416.183
276.22	484.254
279.595	679.726
282.97	1094.92
286.345	1921.72
289.719	2541.63
293.094	1568.86
296.469	634.209
299.844	271.46
303.219	136.3
306.594	94.4568
309.968	95.7601
313.343	90.8803
316.718	104.704
320.093	163.711
323.468	341.101
326.842	673.21
330.217	510.518
333.592	173.843
336.967	66.3839
340.342	33.893
343.717	27.732
347.091	33.8169
350.466	20.3081
353.841	5.19267
357.216	1.7318
360.591	3.60277
363.965	6.50413
367.34	7.85907
370.715	4.12628
374.09	4.59349
377.465	2.26753
380.839	8.129
384.214	12.4222
387.589	29.0194
390.964	48.9788
394.339	88.3817
397.714	145.081
401.088	128.468
404.463	151.788
407.838	181.978
411.213	103
414.588	112.104
417.962	83.8734
421.337	26.0455
424.712	6.31282
428.087	0.818619
431.462	1.25583
434.837	2.09891
438.211	0.449753
441.586	3.95506
444.961	13.7341
448.336	24.4127
451.711	51.3674
455.085	90.7271
458.46	115.334
461.835	165.237
465.21	233.565
468.585	351.378
471.959	607.908
475.334	1125.57
478.709	1383.12
482.084	779.725
485.459	427.803
488.834	393.016
492.208	495.476
495.583	661.668
498.958	1045.06
502.333	1920.58
505.708	2983.68
509.082	2238.78
512.457	963.594
515.832	450.634
519.207	250.935
522.582	148.294
525.957	94.7588
529.331	64.6422
532.706	39.4199
536.081	25.3788
539.456	15.5621
542.831	8.87155
546.205	4.29777
549.58	3.83417
552.955	0.472107
556.33	1.08853
559.705	0.349091
563.08	1.66545
566.454	7.56845
569.829	18.3436
573.204	37.4481
576.579	61.7878
579.954	53.803
583.328	23.4397
586.703	7.70894
590.078	1.43472
593.453	1.5307
596.828	2.10849
600.202	0.170486
603.577	0.210114
606.952	2.46336
610.327	7.70895
613.702	11.2493
617.077	16.9589
620.451	29.5741
623.826	45.5104
627.201	73.2249
630.576	105.521
633.951	102.831
637.325	85.9026
640.7	88.3843
644.075	107.36
647.45	101.506
650.825	58.2549
654.199	31.6658
657.574	19.4684
660.949	11.694
664.324	7.98228
667.699	6.95676
671.073	3.26051
674.448	1.99069
677.823	3.86674
681.198	1.23802
684.573	2.10435
687.948	1.48164
691.322	0.344521
694.697	1.3218
698.072	0.899155
701.447	0.317001
704.822	0.373238
708.197	0.385155
711.571	0.667435
714.946	3.80622
718.321	7.11294
721.696	7.19756
725.071	4.95375
728.445	2.01548
731.82	2.25468
735.195	3.92164
738.57	4.25622
741.945	7.03647
745.319	14.2383
748.694	26.7679
752.069	41.4411
755.444	64.4693
758.819	115.02
762.193	168.844
765.568	123.941
768.943	66.1403
772.318	51.0909
775.693	43.9333
779.068	23.3195
782.442	14.3578
785.817	8.09277
789.192	7.38974
792.567	10.7681
795.942	11.5131
799.317	21.471
802.691	35.1952
806.066	56.7247
809.441	100.555
812.816	160.528
816.191	144.073
819.565	66.8824
822.94	28.6101
826.315	17.6848
829.69	10.6463
833.065	9.2868
836.439	6.35124
839.814	5.62069
843.189	5.86478
846.564	5.30535
849.939	2.24413
853.313	1.55357
856.688	1.626
860.063	1.86275
863.438	1.09423
866.813	1.26814
870.188	0.620399
873.562	1.09602
876.937	1.42475
880.312	0.262581
883.687	1.57146
887.062	0.366417
890.437	2.31438
893.811	2.85601
897.186	1.8207
900.561	1.75009
903.936	1.82812
907.311	1.10092
910.685	3.34638
914.06	2.7171
917.435	2.87914
920.81	0.640358
924.185	2.26787
927.559	0.662315
930.934	1.76759
934.309	2.09257
937.684	1.37137
941.059	2.35562
944.433	3.17239
947.808	1.88915
951.183	3.0344
954.558	5.06259
957.933	6.64037
961.308	8.62769
964.682	12.8916
968.057	17.1144
971.432	25.6356
974.807	37.018
978.182	44.4501
981.557	28.6228
984.931	14.2275
988.306	8.4888
991.681	5.43691
995.056	7.19343
998.431	12.1108
1001.8	20.0315
1005.18	36.3306
1008.55	43.3592
1011.93	50.2703
1015.3	50.3401
1018.68	42.5756
1022.05	47.7029
1025.43	69.973
1028.8	101.172
1032.18	122.567
1035.55	87.4117
1038.93	44.3029
1042.3	28.5549
1045.68	17.0599
1049.05	10.0587
1052.43	3.40751
1055.8	0.118835
1059.18	2.05929
1062.55	2.42236
1065.93	1.67752
1069.3	0.294327
1072.68	7.00751
1076.05	9.47461
1079.43	15.62
1082.8	26.5201
1086.18	47.516
1089.55	78.734
1092.92	128.851
1096.3	191.985
1099.67	208.384
1103.05	162.194
1106.42	123.718
1109.8	107.612
1113.17	101.671
1116.55	94.2398
1119.92	62.8053
1123.3	38.9054
1126.67	25.9425
1130.05	19.1706
1133.42	15.1101
1136.8	12.0657
1140.17	13.2693
1143.55	12.348
1146.92	16.3388
1150.3	19.5092
1153.67	17.348
1157.05	11.6017
1160.42	10.0835
1163.8	7.03096
1167.17	8.43469
1170.55	4.10016
1173.92	4.91658
1177.3	4.51791
1180.67	3.14768
1184.05	1.87035
1187.42	0.916046
1190.8	2.89456
1194.17	1.02476
1197.55	2.4059
1200.92	0.592316
1204.29	0.943344
1207.67	1.80774
1211.04	0.446899
1214.42	3.45721
1217.79	0.721405
1221.17	1.53239
1224.54	2.73352
1227.92	4.14511
1231.29	5.77791
1234.67	9.64948
1238.04	10.3159
1241.42	11.6978
1244.79	15.6066
1248.17	12.739
1251.54	12.4123
1254.92	11.5689
1258.29	13.476
1261.67	10.0271
1265.04	5.92171
1268.42	5.34999
1271.79	2.55562
1275.16	2.91911
1278.54	2.21738
1281.91	4.03818
