Measurement: Raman, 780 nm, unoriented, Raman Data Processed
Mineral: Albite
Rruff sample: R050402
Ideal chemistry: NaAlSi_3_O_8_
Locality: Urbano mine, Golconda District, Brazil
Source: Bob Downs
Description: Colorless tabular single crystals associated with fluorapatite R050401
Measured chemistry: Na_1.00_Al_1.00_Si_3.00_O_8_
Raman shift (cm-1)	intensity
128.682	0
131.575	1.01709
134.468	3.46848
137.36	21.9723
140.253	63.0502
143.146	136.586
146.038	215.106
148.931	214.976
151.824	229.636
154.716	268.518
157.609	348.423
160.502	499.556
163.395	606.113
166.287	440.963
169.18	300.971
172.073	279.064
174.965	275.437
177.858	320.194
180.751	392.022
183.643	453.81
186.536	469.892
189.429	383.027
192.322	254.659
195.214	177.22
198.107	143.969
201	142.87
203.892	165.772
206.785	213.249
209.678	249.742
212.571	169.604
215.463	62.4552
218.356	15.1732
221.249	1.51122
224.141	9.75062
227.034	12.0597
229.927	9.68649
232.819	0.619087
235.712	10.9511
238.605	21.6655
241.498	40.709
244.39	71.0961
247.283	123.368
250.176	202.323
253.068	258.161
255.961	147.674
258.854	68.0437
261.746	58.2028
264.639	79.8478
267.532	120.045
270.425	172.882
273.317	190.431
276.21	198.811
279.103	238.934
281.995	332.044
284.888	482.489
287.781	710.04
290.673	920.828
293.566	772.324
296.459	385.835
299.351	176.598
302.244	91.4441
305.137	59.4267
308.03	51.9949
310.922	56.027
313.815	55.4792
316.708	54.1091
319.6	66.6051
322.493	97.075
325.386	158.073
328.279	242.602
331.171	232.087
334.064	98.5722
336.957	39.5437
339.849	18.5947
342.742	11.6713
345.635	11.09
348.527	12.1158
351.42	8.71884
354.313	2.9653
357.205	0.369419
360.098	1.77926
362.991	2.04441
365.884	2.5375
368.776	1.5796
371.669	1.99454
374.562	1.07085
377.454	0.871174
380.347	1.82217
383.24	5.49899
386.132	8.74497
389.025	15.0007
391.918	25.7214
394.81	38.8309
397.703	60.2221
400.596	74.5556
403.489	72.0173
406.381	96.0396
409.274	130.946
412.167	79.4939
415.059	58.9038
417.952	61.7067
420.845	31.0345
423.738	10.4528
426.63	3.54659
429.523	1.74509
432.416	1.63848
435.308	1.81917
438.201	1.12975
441.094	0.788525
443.986	1.25667
446.879	3.06112
449.772	7.92065
452.665	13.224
455.557	24.7721
458.45	34.3175
461.343	43.7848
464.235	62.5303
467.128	86.7771
470.021	128.942
472.913	197.304
475.806	311.768
478.699	443.539
481.592	413.127
484.484	229.46
487.377	143.968
490.27	136.562
493.162	171.5
496.055	225.2
498.948	321.349
501.841	493.921
504.733	766.999
507.626	1020.47
510.519	827.69
513.411	406.224
516.304	197.541
519.197	111.208
522.089	69.2285
524.982	45.0107
527.875	30.7315
530.768	20.8078
533.66	13.786
536.553	10.3695
539.446	7.18004
542.338	3.69912
545.231	2.66434
548.124	1.47435
551.016	0.080795
553.909	0.566162
556.802	0.624123
559.694	0.220718
562.587	0.794983
565.48	1.51282
568.373	2.06593
571.265	6.05868
574.158	9.76247
577.051	16.1021
579.943	21.2715
582.836	16.0394
585.729	6.28739
588.621	2.72157
591.514	0.294167
594.407	0.749302
597.299	0.813366
600.192	0.017136
603.085	0.43671
605.978	1.0204
608.87	1.15812
611.763	1.60778
614.656	3.48398
617.548	6.05175
620.441	9.70046
623.334	13.1234
626.226	19.4025
629.119	28.6615
632.012	38.164
634.905	39.8476
637.797	34.8017
640.69	31.8817
643.583	36.028
646.475	39.8982
649.368	35.8676
652.261	22.985
655.154	11.7504
658.046	7.81036
660.939	5.18991
663.832	3.3237
666.724	2.18373
669.617	1.95135
672.51	1.68457
675.402	0.828201
678.295	0.838026
681.188	0.329252
684.081	0.012342
686.973	0.214426
689.866	1.75446
692.759	0.009855
695.651	0.426825
698.544	0.051058
701.437	0.013107
704.329	0.223307
707.222	0.217951
710.115	0.562443
713.008	0.21102
715.9	1.19245
718.793	0.842722
721.686	2.32055
724.578	2.25257
727.471	0.629641
730.364	0.496452
733.256	1.33828
736.149	0.796333
739.042	0.935358
741.934	1.81371
744.827	3.01072
747.72	4.88388
750.613	8.42173
753.505	13.0441
756.398	20.3787
759.291	30.5666
762.183	48.6901
765.076	53.8788
767.969	34.0354
770.861	19.6253
773.754	15.7922
776.647	13.7736
779.54	8.5094
782.432	4.80019
785.325	2.82419
788.218	1.49636
791.11	1.91243
794.003	1.78714
796.896	2.84698
799.788	5.13803
802.681	7.77274
805.574	13.5846
808.467	22.3509
811.359	34.423
814.252	48.4918
817.145	51.2045
820.037	29.79
822.93	14.9546
825.823	7.81442
828.716	4.97728
831.608	4.08673
834.501	3.46378
837.394	4.29696
840.286	2.48453
843.179	1.7127
846.072	0.001474
848.964	0.732517
851.857	0.632818
854.75	0.305067
857.643	0.124397
860.535	0.193905
863.428	0.33032
866.321	0.834724
869.213	0.097206
872.106	0.081839
874.999	0.328035
877.891	0.101582
880.784	4.25798
883.677	0.025507
886.569	1.03172
889.462	0.05616
892.355	0.17622
895.248	0.028992
898.14	0.070583
901.033	0.342028
903.926	1.08038
906.818	0.710743
909.711	0.151413
912.604	0.790504
915.496	1.12542
918.389	1.07104
921.282	0.00066
924.175	0.060287
927.067	0.060417
929.96	0.666824
932.853	0.670118
935.745	0.947401
938.638	0.677647
941.531	0.392067
944.423	0.426037
947.316	0.736082
950.209	0.700447
953.102	0.867342
955.994	1.23354
958.887	1.6615
961.78	2.335
964.672	3.1126
967.565	4.18361
970.458	6.13942
973.351	9.57016
976.243	12.5722
979.136	13.6174
982.029	10.4989
984.921	6.02448
987.814	2.51988
990.707	1.44095
993.599	0.508024
996.492	2.79686
999.385	3.59974
1002.28	6.16957
1005.17	10.3141
1008.06	14.038
1010.96	16.4623
1013.85	18.8932
1016.74	18.2873
1019.63	16.2847
1022.53	17.4518
1025.42	22.2238
1028.31	31.3302
1031.2	44.1066
1034.1	45.8841
1036.99	33.0329
1039.88	19.026
1042.78	11.1972
1045.67	6.47846
1048.56	3.97358
1051.45	2.28559
1054.35	1.32169
1057.24	0.043724
1060.13	0.520599
1063.02	0.055468
1065.92	0.759087
1068.81	0.199081
1071.7	1.33897
1074.6	2.08277
1077.49	2.64123
1080.38	4.58031
1083.27	6.61948
1086.17	10.9069
1089.06	17.9602
1091.95	25.9984
1094.84	40.8556
1097.74	55.8925
1100.63	61.8414
1103.52	53.0675
1106.41	40.4527
1109.31	32.9078
1112.2	30.7125
1115.09	28.786
1117.98	25.9858
1120.88	19.7283
1123.77	12.0949
1126.66	7.33638
1129.56	4.5164
1132.45	3.32625
1135.34	2.36657
1138.23	1.67158
1141.13	1.05277
1144.02	1.72947
1146.91	1.76483
1149.81	3.31202
1152.7	3.70182
1155.59	2.62483
1158.48	2.24975
1161.38	0.39493
1164.27	0.02799
1167.16	1.09164
1170.05	0.139093
1172.95	0.183914
1175.84	0.12406
1178.73	0.340044
1181.62	0.413671
1184.52	0.119431
1187.41	0.522791
1190.3	0.093035
1193.2	0.067492
1196.09	0.560898
1198.98	0.780077
1201.87	0.761209
1204.77	0.340914
1207.66	0.334429
1210.55	0.79434
1213.44	0.460184
1216.34	0.742451
1219.23	0.794323
1222.12	0.468124
1225.02	0.979765
1227.91	0.315617
1230.8	0.904507
1233.69	0.665462
1236.59	0.317196
1239.48	1.00187
1242.37	1.06928
1245.26	1.08409
1248.16	0.800373
1251.05	0.427591
1253.94	0.764008
1256.84	0.448853
1259.73	1.19901
1262.62	1.23587
1265.51	0.549662
1268.41	0.459652
1271.3	0.258039
1274.19	0.408821
1277.08	0.964668
1279.98	0.019432
