Measurement: Raman, 532 nm, unoriented, Raman Data Processed
Mineral: Albite
Rruff sample: R050402
Ideal chemistry: NaAlSi_3_O_8_
Locality: Urbano mine, Golconda District, Brazil
Source: Bob Downs
Description: Colorless tabular single crystals associated with fluorapatite R050401
Measured chemistry: Na_1.00_Al_1.00_Si_3.00_O_8_
Raman shift (cm-1)	intensity
128.03	0
130.923	2.12408
133.816	9.6266
136.708	43.4997
139.601	116.995
142.494	255.858
145.386	460.619
148.279	534.644
151.172	614.265
154.065	714.392
156.957	876.242
159.85	1235.75
162.743	1523.3
165.635	1106.64
168.528	687.819
171.421	608.575
174.313	557.653
177.206	597.416
180.099	718.66
182.992	841.157
185.884	896.232
188.777	755.245
191.67	518.161
194.562	370.16
197.455	297.957
200.348	282
203.24	314.894
206.133	420.97
209.026	535.028
211.918	400.638
214.811	156.272
217.704	43.8366
220.596	0.12294
223.489	21.1534
226.382	25.5032
229.275	22.5113
232.167	6.94913
235.06	20.454
237.953	50.1048
240.845	78.4324
243.738	126.364
246.631	212.093
249.524	371.019
252.416	509.141
255.309	319.617
258.202	168.659
261.094	156.526
263.987	214.258
266.88	328.587
269.772	455.765
272.665	483.281
275.558	496.949
278.451	563.751
281.343	702.239
284.236	958.234
287.129	1435.17
290.021	1958.41
292.914	1753.2
295.807	903.664
298.7	431.962
301.592	239.76
304.485	171.192
307.378	156.55
310.27	164.354
313.163	158.137
316.056	141
318.948	141.644
321.841	174.64
324.734	267.096
327.627	423.089
330.519	438.694
333.412	186.148
336.305	72.6937
339.197	33.2917
342.09	21.2408
344.983	17.4598
347.875	19.5641
350.768	15.8747
353.661	5.16173
356.553	0.793839
359.446	3.79131
362.339	5.17299
365.231	5.42406
368.124	4.05217
371.017	3.89805
373.91	3.27635
376.802	1.05248
379.695	6.0558
382.588	15.3737
385.48	23.4982
388.373	37.5377
391.266	68.2103
394.159	105.721
397.051	149.443
399.944	194.027
402.837	228.978
405.729	332.964
408.622	441.49
411.515	257.824
414.407	188.459
417.3	201.028
420.193	97.3804
423.086	32.3938
425.978	12.1741
428.871	2.60826
431.764	1.58867
434.656	4.8139
437.549	4.1991
440.442	0.863159
443.334	7.83989
446.227	14.5805
449.12	28.3335
452.012	50.9602
454.905	83.995
457.798	122.43
460.691	174.998
463.583	288.667
466.476	429.124
469.369	595.104
472.261	881.42
475.154	1371.1
478.047	1899.41
480.94	1812.96
483.832	966.269
486.725	543.688
489.618	460.633
492.51	570.358
495.403	751.44
498.296	1020.12
501.188	1506.92
504.081	2294.76
506.974	3032.29
509.866	2528.34
512.759	1255.02
515.652	619.419
518.545	349.154
521.437	221.856
524.33	147.915
527.223	99.1169
530.115	70.6392
533.008	47.6862
535.901	31.0368
538.794	23.5101
541.686	14.5824
544.579	10.1043
547.472	5.00356
550.364	0.03772
553.257	0.259277
556.15	1.90022
559.043	3.2319
561.935	1.13481
564.828	3.50397
567.721	7.17584
570.613	15.5694
573.506	26.9459
576.399	44.3648
579.291	53.7044
582.184	42.049
585.077	17.299
587.969	5.21564
590.862	1.07343
593.755	1.70336
596.648	1.21669
599.54	1.4744
602.433	1.18203
605.326	1.01523
608.218	2.84336
611.111	5.5356
614.004	9.27194
616.896	14.3333
619.789	20.4911
622.682	33.9911
625.574	42.2029
628.467	61.6725
631.36	80.4334
634.253	86.3058
637.145	77.2845
640.038	73.7344
642.931	82.5731
645.823	91.3813
648.716	83.047
651.609	52.9304
654.501	31.1564
657.394	18.7675
660.287	11.9184
663.18	9.79665
666.072	5.2942
668.965	3.91339
671.858	3.11703
674.75	3.24097
677.643	2.10389
680.536	1.24346
683.428	0.66259
686.321	1.18609
689.214	0.704834
692.107	0.547073
694.999	0.117271
697.892	0.454536
700.785	0.092148
703.677	0.258018
706.57	0.873055
709.463	2.01011
712.356	4.04704
715.248	7.47607
718.141	12.5155
721.034	13.8774
723.926	10.7634
726.819	5.01646
729.712	4.78501
732.604	2.15958
735.497	3.7255
738.39	6.04831
741.283	7.62876
744.175	13.1801
747.068	22.5123
749.961	39.2394
752.853	62.3744
755.746	93.8411
758.639	144.67
761.531	219.904
764.424	250.107
767.317	167.459
770.21	103.796
773.102	85.2832
775.995	80.6477
778.888	55.2649
781.78	29.0812
784.673	15.9301
787.566	11.2515
790.458	7.07607
793.351	6.62605
796.244	8.02067
799.136	13.4306
802.029	23.3953
804.922	35.7835
807.815	55.5299
810.707	83.4364
813.6	118.406
816.493	122.586
819.385	73.7962
822.278	37.0072
825.171	21.5057
828.063	14.5876
830.956	14.5321
833.849	10.9563
836.742	8.23955
839.634	6.12666
842.527	4.42384
845.42	2.04788
848.312	0.060692
851.205	0.764763
854.098	0.074684
856.99	0.266037
859.883	1.50015
862.776	1.08898
865.669	0.339508
868.561	0.868881
871.454	0.600609
874.347	1.10992
877.239	0.738525
880.132	0.966377
883.025	1.55381
885.918	1.60133
888.81	3.64313
891.703	3.80587
894.596	3.98522
897.488	4.43359
900.381	3.92109
903.274	5.92403
906.166	4.54343
909.059	4.36649
911.952	4.78007
914.845	5.46098
917.737	3.00102
920.63	0.955154
923.523	2.31263
926.415	1.17696
929.308	1.16228
932.201	0.241127
935.093	0.97496
937.986	0.450035
940.879	0.222908
943.771	1.21963
946.664	0.259964
949.557	0.388847
952.45	2.16053
955.342	2.91025
958.235	2.99657
961.128	5.60071
964.02	7.93214
966.913	14.6662
969.806	19.0655
972.698	30.7824
975.591	42.8759
978.484	50.8451
981.377	38.3962
984.269	20.2618
987.162	9.84985
990.055	4.91463
992.947	4.85374
995.84	8.55222
998.733	16.3313
1001.63	27.9316
1004.52	47.9249
1007.41	64.4826
1010.3	67.8709
1013.2	78.494
1016.09	72.819
1018.98	57.9158
1021.87	55.6121
1024.77	67.8869
1027.66	92.8582
1030.55	128.318
1033.44	139.382
1036.34	104.501
1039.23	58.5577
1042.12	35.2224
1045.02	26.0794
1047.91	20.1724
1050.8	11.8622
1053.69	3.22884
1056.59	1.60638
1059.48	0.646797
1062.37	2.72724
1065.27	0.576828
1068.16	1.96167
1071.05	5.01511
1073.94	11.6563
1076.84	21.8716
1079.73	34.4853
1082.62	54.861
1085.51	86.4083
1088.41	136.723
1091.3	207.44
1094.19	306.463
1097.09	421.841
1099.98	478.726
1102.87	419.55
1105.76	318.354
1108.65	258.481
1111.55	234.164
1114.44	226.157
1117.33	207.033
1120.23	156.266
1123.12	102.633
1126.01	65.944
1128.9	40.618
1131.8	28.237
1134.69	19.3459
1137.58	13.9188
1140.47	11.4779
1143.37	9.51238
1146.26	10.2665
1149.15	12.3034
1152.05	15.3434
1154.94	12.3717
1157.83	6.87783
1160.72	4.15288
1163.62	2.78912
1166.51	1.10966
1169.4	0.221069
1172.3	0.013504
1175.19	0.272293
1178.08	2.10166
1180.97	0.78537
1183.87	0.920914
1186.76	0.154556
1189.65	3.51095
1192.54	0.908295
1195.44	1.148
1198.33	1.19918
1201.22	0.349625
1204.12	0.220367
1207.01	2.03217
1209.9	0.256538
1212.79	1.73904
1215.68	1.284
1218.58	0.023811
1221.47	2.61965
1224.36	2.5954
1227.26	2.50345
1230.15	3.04178
1233.04	3.14882
1235.93	2.95512
1238.83	3.20244
1241.72	1.18321
1244.61	2.71921
1247.51	1.04866
1250.4	3.00915
1253.29	2.62437
1256.18	3.2665
1259.08	2.45853
1261.97	1.43249
1264.86	1.62673
1267.75	1.06285
1270.65	1.89122
1273.54	0.12709
1276.43	0.408386
