Measurement: Raman, 532 nm, unoriented, Raman Data Processed
Mineral: Albite
Rruff sample: R100169
Ideal chemistry: NaAlSi_3_O_8_
Locality: Rutherford#2 Mine, Amelia, Amelia county, Virginia, USA
Source: Mineralogical Museum, Harvard University
Description: White to colorless tabular crystals
Raman shift (cm-1)	intensity
137.8	0
141.175	9.13541
144.55	133.467
147.925	238.333
151.3	400.317
154.675	679.606
158.049	1033.1
161.424	1412.05
164.799	1254.37
168.174	846.128
171.549	721.889
174.924	626.507
178.298	625.714
181.673	684.909
185.048	752.624
188.423	658.531
191.798	457.787
195.173	328.78
198.547	277.091
201.922	291.05
205.297	367.651
208.672	458.614
212.047	338.502
215.421	114.706
218.796	30.1551
222.171	5.63043
225.546	23.4401
228.921	27.5287
232.296	14.5206
235.67	4.89218
239.045	35.7279
242.42	78.148
245.795	135.177
249.17	243.648
252.544	339.014
255.919	190.22
259.294	127.455
262.669	173.198
266.044	272.396
269.418	395.012
272.793	393.783
276.168	377.266
279.543	461.61
282.918	647.188
286.293	977.955
289.667	1389.97
293.042	1250.18
296.417	593.607
299.792	270.396
303.167	160.024
306.541	136.396
309.916	133.163
313.291	113.854
316.666	86.2
320.041	83.9659
323.416	112.878
326.791	184.062
330.165	217.378
333.54	88.2845
336.915	26.6436
340.29	10.3531
343.665	4.12152
347.039	3.12683
350.414	7.5636
353.789	3.16058
357.164	1.18628
360.539	1.87012
363.913	2.57141
367.288	4.46661
370.663	4.60446
374.038	0.909607
377.413	4.37894
380.788	8.81372
384.162	14.9658
387.537	29.5642
390.912	53.7161
394.287	91.264
397.662	141.058
401.036	188.657
404.411	268.838
407.786	385.016
411.161	281.875
414.536	185.639
417.911	186.138
421.285	62.1725
424.66	16.3155
428.035	1.24036
431.41	2.40784
434.785	5.71857
438.159	3.46008
441.534	3.22479
444.909	12.3976
448.284	25.5437
451.659	48.7926
455.034	87.2605
458.409	137.525
461.783	223.68
465.158	406.663
468.533	650.305
471.908	1031.61
475.283	1673.56
478.657	2347.42
482.032	1784.05
485.407	799.185
488.782	479.269
492.157	516.061
495.531	724.625
498.906	1074.02
502.281	1687.49
505.656	2580.26
509.031	2719.95
512.406	1401.22
515.78	619.429
519.155	324.322
522.53	194.629
525.905	122.307
529.28	80.3878
532.654	51.3581
536.029	34.7085
539.404	19.6694
542.779	12.0437
546.154	7.28699
549.529	1.56775
552.903	0.488739
556.278	0.320282
559.653	5.87369
563.028	3.35504
566.403	5.60373
569.778	11.513
573.152	21.6686
576.527	34.6203
579.902	40.3416
583.277	23.1234
586.652	6.47339
590.027	1.59491
593.401	1.11685
596.776	2.07605
600.151	0.879517
603.526	1.87518
606.901	0.431641
610.275	2.46835
613.65	4.83954
617.025	5.5051
620.4	11.4174
623.775	20.218
627.149	31.4902
630.524	40.7358
633.899	47.7519
637.274	43.4144
640.649	50.7636
644.024	60.925
647.398	58.083
650.773	39.908
654.148	23.3388
657.523	13.0207
660.898	9.09137
664.273	4.93796
667.647	3.19183
671.022	1.89505
674.397	3.80841
677.772	0.836884
681.147	1.75226
684.521	0.972382
687.896	0.707062
691.271	1.20322
694.646	0.15976
698.021	0.858246
701.396	1.10117
704.77	1.87317
708.145	4.02966
711.52	3.71036
714.895	8.004
718.27	16.4202
721.644	16.4073
725.019	7.96289
728.394	6.53311
731.769	2.27011
735.144	0.007843
738.519	8.56766
741.893	12.2782
745.268	14.2776
748.643	33.9214
752.018	61.7734
755.393	99.3144
758.768	167.676
762.142	254.491
765.517	247.433
768.892	143.104
772.267	102.322
775.642	95.8686
779.016	64.0951
782.391	33.5939
785.766	19.9597
789.141	10.0169
792.516	7.15558
795.89	6.64783
799.265	10.1086
802.64	19.1383
806.015	30.3134
809.39	46.9774
812.765	69.9916
816.139	79.8855
819.514	47.5273
822.889	22.4074
826.264	7.34412
829.639	7.64072
833.014	12.3611
836.388	7.39771
839.763	4.62872
843.138	1.25668
846.513	1.67944
849.888	1.35806
853.263	2.97885
856.637	0.647552
860.012	2.57092
863.387	2.00757
866.762	1.44412
870.136	1.84616
873.511	0.80484
876.886	0.535858
880.261	2.57651
883.636	4.04065
887.011	2.00778
890.385	3.22412
893.76	7.13861
897.135	5.01834
900.51	4.65503
903.885	6.67883
907.26	8.80026
910.634	6.5076
914.009	8.18298
917.384	5.01697
920.759	4.83389
924.134	3.71835
927.509	2.50263
930.883	1.5311
934.258	2.45422
937.633	3.05939
941.008	0.047974
944.383	1.00839
947.757	1.96655
951.132	2.23715
954.507	3.82748
957.882	5.59659
961.257	8.94119
964.631	10.2104
968.006	16.861
971.381	28.6216
974.756	40.7862
978.131	48.6024
981.506	36.4969
984.88	17.0421
988.255	7.54285
991.63	5.61905
995.005	9.91669
998.38	17.5908
1001.75	33.8906
1005.13	56.23
1008.5	70.3677
1011.88	71.4983
1015.25	75.9902
1018.63	53.6902
1022	45.2462
1025.38	54.7596
1028.75	75.5499
1032.13	96.9334
1035.5	83.8547
1038.88	46.7418
1042.25	27.9713
1045.63	27.4889
1049	16.1417
1052.38	7.45612
1055.75	0.882599
1059.13	4.4863
1062.5	2.38962
1065.88	1.18445
1069.25	3.27652
1072.63	14.5388
1076	27.3248
1079.38	44.5826
1082.75	73.7371
1086.12	128.185
1089.5	215.591
1092.88	336.391
1096.25	504.771
1099.62	588.836
1103	502.903
1106.37	379.047
1109.75	320.601
1113.12	294.357
1116.5	269.449
1119.87	199.917
1123.25	126.343
1126.62	75.6198
1130	47.9838
1133.37	27.1126
1136.75	15.0236
1140.12	11.0511
1143.5	11.8679
1146.87	14.6431
1150.25	16.36
1153.62	14.2867
1157	6.05756
1160.37	2.01685
1163.75	1.32404
1167.12	1.13727
1170.5	3.0126
1173.87	0.482574
1177.24	1.08939
1180.62	0.71524
1183.99	1.42013
1187.37	4.34967
1190.74	1.83502
1194.12	0.848297
1197.49	3.43967
1200.87	0.504089
1204.24	1.67868
1207.62	2.77826
1210.99	1.763
1214.37	2.45755
1217.74	6.05585
1221.12	2.67828
1224.49	8.94907
1227.87	2.38162
1231.24	5.06735
1234.62	1.81421
1237.99	0.257904
1241.37	6.8624
1244.74	4.9791
1248.12	5.22809
1251.49	2.81631
1254.87	6.51947
1258.24	5.47577
1261.62	4.05402
1264.99	3.80243
1268.37	2.37271
1271.74	3.42349
1275.12	2.33246
1278.49	4.2721
1281.87	4.82956
1285.24	3.31766
1288.61	0.936127
1291.99	3.07046
1295.36	4.79919
1298.74	2.46204
1302.11	0.019806
