Measurement: Raman, 780 nm, unoriented, Raman Data Processed
Mineral: Albite
Rruff sample: R050253
Ideal chemistry: NaAlSi_3_O_8_
Locality: Madawaska/Faraday mine, Bancroft, Ontario, Canada
Source: Marcus Origlieri
Description: Colorless to brown prismatic single crystals
Measured chemistry: (Na_0.99_Ca_0.01_)Al_1.00_(Si_0.99_Al_0.01_)_3_O_8_
Raman shift (cm-1)	intensity
147.967	0
150.859	46.2235
153.752	208.679
156.645	499.87
159.538	918.472
162.43	1042.13
165.323	660.378
168.216	545.22
171.108	644.727
174.001	647.774
176.894	762.117
179.786	955.419
182.679	1127.95
185.572	1169.42
188.465	928.645
191.357	620.162
194.25	442.091
197.143	384.464
200.035	416.706
202.928	520.676
205.821	709.687
208.714	807.175
211.606	452.428
214.499	132.952
217.392	2.63257
220.284	35.5061
223.177	42.2118
226.07	34.306
228.962	21.163
231.855	7.47192
234.748	31.1242
237.641	61.3989
240.533	100.082
243.426	140.676
246.319	196.592
249.211	276.729
252.104	313.155
254.997	257.757
257.889	228.046
260.782	257.888
263.675	332.759
266.567	455.91
269.46	639.424
272.353	818.474
275.246	954.065
278.138	1132.57
281.031	1395.79
283.924	1776.16
286.816	2284.72
289.709	2649.11
292.602	1992.39
295.495	1027.96
298.387	543.635
301.28	322.43
304.173	226.143
307.065	200.273
309.958	214.446
312.851	206.434
315.743	198.71
318.636	224.103
321.529	267.638
324.421	349.092
327.314	462.682
330.207	372.369
333.1	181.796
335.992	94.1882
338.885	66.5372
341.778	49.7631
344.67	42.9969
347.563	47.4717
350.456	32.7581
353.349	11.4373
356.241	4.46075
359.134	0.117981
362.027	3.4118
364.919	5.09027
367.812	5.29474
370.705	2.35687
373.597	4.68133
376.49	2.92029
379.383	2.11273
382.276	8.80463
385.168	9.6723
388.061	20.1064
390.954	37.4513
393.846	62.1241
396.739	89.5026
399.632	106.575
402.524	98.0762
405.417	119.73
408.31	121.336
411.202	59.0515
414.095	34.9545
416.988	23.7961
419.881	4.12628
422.773	2.48999
425.666	1.73444
428.559	5.64337
431.451	2.99109
434.344	0.648926
437.237	3.69965
440.13	21.4901
443.022	30.0541
445.915	46.8514
448.808	66.9755
451.7	106.173
454.593	161.617
457.486	203.948
460.378	272.522
463.271	367.931
466.164	462.197
469.057	621.659
471.949	849.109
474.842	1202.74
477.735	1529.99
480.627	1245.36
483.52	713.505
486.413	524.778
489.305	596.486
492.198	762.596
495.091	940.654
497.983	1238.85
500.876	1704.94
503.769	2381.62
506.662	2855.26
509.554	2070.57
512.447	1064.06
515.34	556.582
518.232	329.585
521.125	207.265
524.018	139.789
526.91	94.3698
529.803	62.1184
532.696	41.929
535.589	31.7315
538.481	16.5282
541.374	13.3605
544.267	5.34863
547.159	2.07184
550.052	5.77795
552.945	2.80719
555.837	3.88293
558.73	0.242004
561.623	6.57367
564.516	13.8719
567.408	21.7205
570.301	35.102
573.194	48.2719
576.086	65.2694
578.979	61.6891
581.872	42.1788
584.764	15.369
587.657	1.5755
590.55	0.199951
593.443	4.28095
596.335	3.57318
599.228	1.04907
602.121	1.41547
605.013	1.44952
607.906	5.85223
610.799	16.3957
613.692	17.7437
616.584	25.8138
619.477	33.5356
622.37	45.4174
625.262	60.282
628.155	80.182
631.048	97.2617
633.94	96.8686
636.833	89.9857
639.726	84.2001
642.619	94.6097
645.511	102.249
648.404	83.003
651.297	61.2073
654.189	39.932
657.082	27.9174
659.975	22.0543
662.867	18.9722
665.76	19.6991
668.653	18.1309
671.545	15.9443
674.438	14.8328
677.331	8.7207
680.224	10.7673
683.116	10.818
686.009	3.11469
688.902	1.95508
691.794	2.5202
694.687	2.46332
697.58	0.526184
700.472	3.71899
703.365	0.831604
706.258	0.358215
709.151	0.166382
712.043	5.77118
714.936	6.10114
717.829	3.20966
720.721	6.83447
723.614	5.92065
726.507	0.801086
729.399	10.4357
732.292	5.28204
735.185	4.3382
738.078	5.72675
740.97	10.1598
743.863	11.6605
746.756	24.5848
749.648	35.233
752.541	51.6608
755.434	69.0396
758.327	96.3494
761.219	125.003
764.112	120.513
767.005	77.0543
769.897	56.3007
772.79	53.7426
775.683	42.6718
778.575	27.7413
781.468	13.3014
784.361	8.81574
787.254	9.65002
790.146	8.86865
793.039	13.6331
795.932	20.917
798.824	32.7008
801.717	55.1816
804.61	78.6912
807.502	117.594
810.395	162.805
813.288	205.888
816.181	185.224
819.073	98.2709
821.966	46.0303
824.859	25.6291
827.751	15.0226
830.644	12.2695
833.537	6.78686
836.429	9.36328
839.322	5.02484
842.215	5.68994
845.107	1.58447
848	4.43396
850.893	0.19165
853.786	0.919312
856.678	1.91742
859.571	0.967163
862.464	2.22748
865.356	0.349548
868.249	2.32159
871.142	1.05994
874.034	0.966125
876.927	2.18005
879.82	0.061768
882.713	0.640564
885.605	0.416199
888.498	4.13239
891.391	1.87079
894.283	2.40912
897.176	0.634888
900.069	0.285461
902.962	1.9516
905.854	0.797607
908.747	4.39593
911.64	0.587891
914.532	3.43402
917.425	1.94727
920.318	1.19977
923.21	1.31799
926.103	0.955383
928.996	0.803772
931.888	2.849
934.781	0.28241
937.674	0.94519
940.567	3.49011
943.459	3.98981
946.352	6.50488
949.245	10.8328
952.137	13.934
955.03	16.1527
957.923	21.1949
960.815	22.2101
963.708	29.6592
966.601	43.9489
969.494	56.7659
972.386	67.9186
975.279	85.4656
978.172	83.8201
981.064	59.8216
983.957	30.856
986.85	18.1119
989.742	16.198
992.635	13.9609
995.528	14.2633
998.42	15.0276
1001.31	21.3239
1004.21	27.8713
1007.1	26.731
1009.99	30.3901
1012.88	36.4361
1015.78	39.3149
1018.67	40.5095
1021.56	49.7828
1024.45	63.5516
1027.35	88.4898
1030.24	104.937
1033.13	99.7349
1036.03	68.2254
1038.92	35.1794
1041.81	19.8157
1044.7	6.98541
1047.6	4.38647
1050.49	0.887085
1053.38	1.09546
1056.28	0.782166
1059.17	0.982239
1062.06	0.826355
1064.95	2.88623
1067.85	2.30084
1070.74	9.11157
1073.63	8.80652
1076.52	16.1322
1079.42	22.7605
1082.31	42.2037
1085.2	63.9842
1088.09	91.3809
1090.99	131.074
1093.88	174.7
1096.77	213.189
1099.66	215.265
1102.56	181.26
1105.45	145.054
1108.34	118.829
1111.24	116.816
1114.13	105.903
1117.02	87.5035
1119.91	62.1699
1122.81	40.1056
1125.7	20.9317
1128.59	12.5112
1131.48	11.3625
1134.38	7.25122
1137.27	3.16119
1140.16	4.30615
1143.06	5.65558
1145.95	9.93671
1148.84	8.7962
1151.73	9.56421
1154.63	8.19287
1157.52	5.29645
1160.41	1.17822
1163.3	1.4519
1166.2	4.38947
1169.09	1.89636
1171.98	1.14661
1174.88	0.937561
1177.77	0.235779
1180.66	0.692932
1183.55	0.726868
1186.45	1.88348
1189.34	1.77655
1192.23	0.812256
1195.12	4.2854
1198.02	2.77338
1200.91	1.18463
1203.8	4.12427
1206.69	4.49719
1209.59	1.97919
1212.48	0.514648
1215.37	2.31976
1218.27	0.547241
1221.16	3.92749
1224.05	0.694153
1226.94	3.05572
1229.84	6.12958
1232.73	6.2406
1235.62	4.79272
1238.52	2.60742
1241.41	5.30518
1244.3	2.5451
1247.19	4.61939
1250.09	6.2149
1252.98	3.31464
1255.87	2.52527
1258.76	4.77356
1261.66	2.88074
1264.55	4.35419
1267.44	4.59204
1270.33	5.31085
1273.23	0.538818
1276.12	0.825256
1279.01	1.88275
1281.9	4.19403
1284.8	3.08942
