Measurement: Raman, 514 nm, unoriented, Raman Data Processed
Mineral: Albite
Rruff sample: R040068
Ideal chemistry: NaAlSi_3_O_8_
Locality: Harding Pegmatite, Dixon, New Mexico, USA
Source: University of Arizona Mineral Museum
Description: Tan colored crystal fragment
Measured chemistry: (Na_0.99_Ca_0.01_)Al_1.00_(Si_0.99_Al_0.01_)_3_O_8_
Raman shift (cm-1)	intensity
119.813	0
123.981	10.977
128.146	2.701
132.309	221.213
136.47	634.52
140.63	2204.74
144.787	2548.05
148.942	2560.84
153.096	2331.3
157.247	3441.93
161.396	3990.61
165.544	4356.14
169.689	3992.25
173.833	4979.2
177.974	6597.84
182.114	8374.59
186.251	7843.45
190.387	5374.53
194.52	3595.34
198.652	3110.92
202.782	4275.38
206.909	4967.44
211.035	3482.22
215.159	1408.01
219.281	528.873
223.4	19.16
227.518	25.092
231.634	139.936
235.748	105.742
239.86	152.494
243.97	1418.32
248.079	3162.61
252.185	2869.24
256.289	1546.97
260.391	955.951
264.492	1342.89
268.59	1748.04
272.687	1943.31
276.781	2393.92
280.874	5389.22
284.964	13534
289.053	17154.3
293.14	12779.7
297.225	5330.54
301.308	2217.31
305.389	1072.65
309.468	730.949
313.545	424.443
317.62	804.592
321.693	2347.82
325.765	4546.12
329.834	3940.46
333.902	2017.83
337.967	778.088
342.031	460.812
346.093	555.43
350.153	233.133
354.21	311.014
358.267	140.936
362.321	74.104
366.373	52.285
370.423	156.482
374.471	157.926
378.518	72.6
382.563	13.516
386.605	31.463
390.646	28.484
394.685	638.479
398.722	1180.95
402.757	927.42
406.79	702.066
410.821	641.039
414.851	326.508
418.878	299.691
422.904	267.777
426.927	275.838
430.949	91.832
434.969	367.551
438.987	33.164
443.003	61.113
447.018	184.201
451.03	316.014
455.041	833.188
459.049	555.857
463.056	885.678
467.061	1482.61
471.064	3225.17
475.065	8112.58
479.064	9117.84
483.062	5417.96
487.057	2737.91
491.051	2372.52
495.043	3631.32
499.032	7713.77
503.02	19089
507.007	23486.4
510.991	13553.7
514.973	5636.84
518.954	3154.19
522.933	2012.47
526.91	1088.38
530.885	875.455
534.858	418.549
538.829	559.693
542.799	298.791
546.766	440.025
550.732	387.189
554.696	347.725
558.658	505.174
562.618	110.711
566.576	339.473
570.533	662.623
574.488	687.064
578.44	943.904
582.391	1464.87
586.341	535.896
590.288	593.002
594.233	157.527
598.177	585.766
602.119	230.936
606.059	238.363
609.997	172.896
613.933	454.145
617.868	325.109
621.801	527.227
625.731	613.645
629.66	1490.82
633.588	1864.73
637.513	781.668
641.437	1119.06
645.358	1601.16
649.278	915.191
653.196	453.152
657.113	578.445
661.027	837.305
664.94	145.684
668.851	322.574
672.76	214.855
676.667	198.668
680.572	247.137
684.476	300.781
688.378	11.637
692.278	48.375
696.176	466.25
700.072	168.98
703.967	28.613
707.86	373.699
711.751	765.328
715.64	148.145
719.527	96.188
723.413	218.699
727.297	264.035
731.179	408.031
735.059	212.293
738.937	207.098
742.814	84.047
746.689	651.078
750.562	305.441
754.433	463.207
758.303	954.762
762.17	1821.5
766.036	1565.62
769.901	488.156
773.763	686.18
777.624	453.531
781.482	429.348
785.339	403.254
789.195	273.727
793.048	572.434
796.9	545.926
800.75	265.219
804.598	213.309
808.445	1087.2
812.289	1943.89
816.132	2106.43
819.973	968.691
823.813	636.211
827.65	476.355
831.486	612.348
835.32	300.316
839.152	222.484
842.983	653.93
846.812	767.047
850.639	193.434
854.464	155.664
858.288	637.52
862.11	120.449
865.93	462.262
869.748	563.996
873.564	261.73
877.379	204.777
881.192	165.27
885.004	284.484
888.813	133.082
892.621	130.766
896.427	203.098
900.232	72.809
904.034	243.77
907.835	332.234
911.634	91.129
915.432	203.988
919.227	127.066
923.021	316.598
926.813	404.344
930.604	268.027
934.393	2.305
938.18	103.742
941.965	352.504
945.749	614.305
949.53	418.996
953.311	530.957
957.089	502.625
960.866	240.621
964.641	632.586
968.414	722.715
972.185	694.918
975.955	873.18
979.723	933.605
983.49	748.02
987.254	604.84
991.017	1124.86
994.779	608.613
998.538	437.645
1002.3	1250.52
1006.05	744.961
1009.81	1060.5
1013.56	1098.42
1017.31	896.211
1021.06	788.473
1024.81	1151.22
1028.55	2037.15
1032.3	2641.56
1036.04	2366.65
1039.78	1689.96
1043.52	872.844
1047.26	870.66
1050.99	1337.11
1054.73	936.801
1058.46	1086.89
1062.19	843.254
1065.92	632.477
1069.65	821.906
1073.37	794.969
1077.1	825.309
1080.82	1068.16
1084.54	548.477
1088.26	665.883
1091.97	1186.16
1095.69	1592.96
1099.4	2167.61
1103.12	2148.73
1106.83	1461.61
1110.54	694.762
1114.24	1015.91
1117.95	1061.18
1121.65	616.535
1125.35	808.574
1129.06	227.32
1132.75	524.094
1136.45	75.273
1140.15	427.371
1143.84	137.992
1147.53	334.895
1151.22	288.25
1154.91	592.172
1158.6	280.836
1162.28	598.887
1165.97	1472.03
1169.65	488.375
1173.33	137.273
1177.01	600.945
1180.69	441.379
1184.36	599.152
1188.04	557.461
1191.71	322.406
1195.38	437.926
1199.05	469.516
1202.71	572.07
1206.38	757.492
1210.04	119.359
1213.71	671.391
1217.37	737.906
1221.03	267.609
1224.68	106.02
1228.34	464.883
1231.99	750.109
1235.65	720.25
1239.3	798.613
1242.95	827.539
1246.59	327.035
1250.24	133.875
1253.88	282.898
1257.53	38.102
1261.17	81.469
1264.81	288.113
1268.45	363.578
1272.08	62.773
1275.72	240.598
1279.35	91.191
1282.98	269.648
1286.61	180.539
1290.24	455.266
1293.87	378.902
1297.49	183.352
1301.11	681.402
1304.73	236.863
1308.36	500.914
1311.97	659.34
1315.59	151.242
1319.2	495.293
1322.82	124.469
1326.43	138.844
1330.04	0.949
1333.65	683.785
1337.26	448.492
1340.86	653.078
1344.47	1099.43
1348.07	862.57
1351.67	555.145
1355.27	1044.06
1358.87	814.004
1362.46	623.828
1366.06	793.027
1369.65	819.059
1373.24	776.941
1376.83	464.82
1380.42	228.781
1384	288.141
1387.59	408.824
1391.17	17.969
1394.75	14.176
1398.33	978.836
1401.91	90.133
1405.49	67.789
