Measurement: Raman, 532 nm, unoriented, Raman Data Processed
Mineral: Albite
Rruff sample: R050253
Ideal chemistry: NaAlSi_3_O_8_
Locality: Madawaska/Faraday mine, Bancroft, Ontario, Canada
Source: Marcus Origlieri
Description: Colorless to brown prismatic single crystals
Measured chemistry: (Na_0.99_Ca_0.01_)Al_1.00_(Si_0.99_Al_0.01_)_3_O_8_
Raman shift (cm-1)	intensity
156.763	0
159.655	124.404
162.548	355.245
165.441	183.182
168.333	127.806
171.226	309.323
174.119	306.604
177.012	431.005
179.904	706.429
182.797	1020.94
185.69	1179.49
188.582	981.937
191.475	684.532
194.368	515.681
197.261	445.305
200.153	479.434
203.046	610.505
205.939	914.25
208.831	1232.97
211.724	899.045
214.617	331.25
217.509	75.108
220.402	14.6874
223.295	45.4026
226.188	38.5883
229.08	26.5209
231.973	0.847961
234.866	36.5388
237.758	82.7211
240.651	130.262
243.544	191.797
246.436	291.501
249.329	444.861
252.222	586.636
255.114	472.945
258.007	369.849
260.9	385.493
263.793	468.616
266.685	621.287
269.578	774.352
272.471	805.545
275.363	827.014
278.256	919.434
281.149	1099.55
284.041	1427.75
286.934	2006.55
289.827	2625.81
292.72	2372.91
295.612	1326.75
298.505	675.145
301.398	387.303
304.29	258.839
307.183	209.194
310.076	189.401
312.969	195.333
315.861	199.311
318.754	222.609
321.647	277.228
324.539	404.478
327.432	606.901
330.325	628.638
333.217	323.599
336.11	158.97
339.003	93.7234
341.896	72.7114
344.788	60.9934
347.681	62.8036
350.574	52.895
353.466	27.5366
356.359	9.91022
359.252	3.33588
362.144	3.06848
365.037	9.0686
367.93	5.26459
370.822	6.28925
373.715	7.19421
376.608	0.945923
379.501	1.67432
382.393	9.36633
385.286	16.6371
388.179	35.6677
391.071	59.3343
393.964	102.878
396.857	171.252
399.75	235.894
402.642	227.941
405.535	253.018
408.428	309.654
411.32	251.315
414.213	264.359
417.106	317.707
419.998	141.498
422.891	31.6612
425.784	3.54639
428.676	13.33
431.569	10.6166
434.462	9.94525
437.355	3.8576
440.247	35.9371
443.14	77.2963
446.033	138.64
448.925	217.783
451.818	359.752
454.711	533.595
457.603	610.569
460.496	487.67
463.389	499.457
466.282	646.277
469.174	887.338
472.067	1302.8
474.96	2010.59
477.852	2762.02
480.745	2661.59
483.638	1499.49
486.531	840.053
489.423	688.218
492.316	845.105
495.209	1152.27
498.101	1613.08
500.994	2433.09
503.887	3712.65
506.779	4910.26
509.672	4237.78
512.565	2243.13
515.457	1141.46
518.35	639.869
521.243	383.968
524.136	247.315
527.028	163.552
529.921	108.167
532.814	68.7444
535.706	43.574
538.599	28.7187
541.492	11.97
544.385	7.21912
547.277	2.77087
550.17	1.81335
553.063	3.06354
555.955	3.25513
558.848	2.99615
561.741	6.17523
564.633	18.9885
567.526	34.4162
570.419	61.0262
573.312	96.7733
576.204	137.434
579.097	154.083
581.99	112.909
584.882	53.923
587.775	17.4969
590.668	5.67468
593.56	0.854248
596.453	1.7041
599.346	7.83612
602.239	2.76623
605.131	1.99652
608.024	1.26318
610.917	7.25299
613.809	14.0365
616.702	15.0878
619.595	30.7734
622.487	39.6288
625.38	61.2433
628.273	83.5584
631.165	110.944
634.058	121.41
636.951	112.277
639.844	111.057
642.736	125.706
645.629	146.956
648.522	128.841
651.414	96.0504
654.307	65.4968
657.2	50.1135
660.092	34.5253
662.985	27.8293
665.878	21.475
668.771	18.0132
671.663	16.4117
674.556	15.2715
677.449	11.1473
680.341	14.8456
683.234	8.70807
686.127	9.00146
689.019	5.36578
691.912	1.82599
694.805	2.91772
697.698	3.37909
700.59	5.05939
703.483	3.33905
706.376	3.89899
709.268	2.37573
712.161	3.96661
715.054	7.18927
717.946	14.5627
720.839	18.5549
723.732	14.6047
726.625	9.98852
729.517	7.72253
732.41	10.9393
735.303	13.3721
738.195	19.0249
741.088	31.7983
743.981	52.0971
746.873	87.3728
749.766	145.282
752.659	225.537
755.552	326.611
758.444	515.029
761.337	720.718
764.23	799.827
767.122	524.516
770.015	276.865
772.908	167.816
775.8	125.262
778.693	81.2503
781.586	48.5164
784.479	39.4959
787.371	30.5938
790.264	31.2968
793.157	40.3005
796.049	57.3473
798.942	90.8022
801.835	152.387
804.727	245.502
807.62	376.806
810.513	582.022
813.405	802.028
816.298	842.225
819.191	522.876
822.084	249.053
824.976	133.911
827.869	78.9513
830.762	51.6511
833.654	43.4946
836.547	32.4041
839.44	22.0886
842.332	15.0996
845.225	14.9371
848.118	10.6207
851.011	5.8324
853.903	0.391968
856.796	2.66229
859.689	0.584473
862.581	2.9071
865.474	0.942566
868.367	0.037964
871.26	1.91864
874.152	2.62152
877.045	3.01679
879.938	1.22229
882.83	0.147766
885.723	2.27301
888.616	1.3905
891.508	1.72613
894.401	0.943787
897.294	3.98047
900.187	2.37231
903.079	5.12732
905.972	5.4447
908.865	2.62854
911.757	3.26556
914.65	4.49115
917.543	0.945251
920.435	1.04327
923.328	0.445251
926.221	1.38861
929.114	0.652954
932.006	1.1712
934.899	2.92828
937.792	1.8952
940.684	8.72186
943.577	16.1708
946.47	22.7886
949.362	32.244
952.255	32.1165
955.148	39.6904
958.04	49.2021
960.933	48.3314
963.826	64.363
966.719	93.393
969.611	132.845
972.504	191.942
975.397	259.833
978.289	298.688
981.182	247.251
984.075	142.084
986.967	71.9578
989.86	55.9404
992.753	45.6487
995.646	41.365
998.538	49.6194
1001.43	66.7428
1004.32	91.2269
1007.22	108.34
1010.11	100.221
1013	101.231
1015.89	100.143
1018.79	83.441
1021.68	63.8755
1024.57	76.289
1027.46	101.546
1030.36	131.42
1033.25	154.696
1036.14	117.254
1039.04	73.054
1041.93	46.7469
1044.82	39.2398
1047.71	32.9653
1050.61	20.4634
1053.5	5.17151
1056.39	0.434509
1059.29	4.5813
1062.18	4.67792
1065.07	2.12561
1067.96	0.627014
1070.86	0.861267
1073.75	7.43341
1076.64	21.3707
1079.53	34.1118
1082.43	59.0972
1085.32	96.5994
1088.21	146.666
1091.11	202.398
1094	278.606
1096.89	371.009
1099.78	409.046
1102.67	340.919
1105.57	253.901
1108.46	189.599
1111.35	158.945
1114.25	145.461
1117.14	124.717
1120.03	92.8372
1122.92	63.3719
1125.82	34.946
1128.71	24.3101
1131.6	14.6187
1134.49	3.9306
1137.39	7.13739
1140.28	5.64618
1143.17	7.32001
1146.07	16.3059
1148.96	26.2757
1151.85	32.9781
1154.74	32.5617
1157.64	20.6351
1160.53	7.04132
1163.42	4.18585
1166.32	4.4729
1169.21	0.123779
1172.1	2.09369
1174.99	5.73309
1177.89	3.44269
1180.78	1.12183
1183.67	0.959839
1186.56	0.195251
1189.46	0.861084
1192.35	0.678772
1195.24	2.5824
1198.13	3.22003
1201.03	1.32312
1203.92	0.386292
1206.81	1.42468
1209.7	4.77136
1212.6	1.56165
1215.49	5.14154
1218.38	6.75842
1221.28	3.80908
1224.17	7.94592
1227.06	3.40802
1229.95	2.43347
1232.85	5.9563
1235.74	4.26562
1238.63	2.49957
1241.53	6.96674
1244.42	9.72321
1247.31	5.51538
1250.2	8.49963
1253.1	8.17761
1255.99	5.50714
1258.88	6.24628
1261.77	2.44824
1264.67	7.35602
1267.56	0.841736
1270.45	3.9151
1273.35	3.5321
1276.24	2.95929
1279.13	6.79285
1282.02	5.20508
1284.92	6.98877
1287.81	2.53729
1290.7	1.00738
1293.59	6.0921
1296.49	3.63037
1299.38	4.84821
1302.27	0.397217
1305.16	0
