Measurement: Raman, 514 nm, unoriented, Raman Data Processed
Mineral: Albite
Rruff sample: R050253
Ideal chemistry: NaAlSi_3_O_8_
Locality: Madawaska/Faraday mine, Bancroft, Ontario, Canada
Source: Marcus Origlieri
Description: Colorless to brown prismatic single crystals
Measured chemistry: (Na_0.99_Ca_0.01_)Al_1.00_(Si_0.99_Al_0.01_)_3_O_8_
Raman shift (cm-1)	intensity
52.866	0
57.065	36.415
61.262	15.13
65.458	3.355
69.651	44.161
73.842	101.598
78.031	483.559
82.218	1999.13
86.404	2912.21
90.587	1356.29
94.768	496.328
98.947	396.923
103.124	491.223
107.3	1132.46
111.473	1466.23
115.644	1250.18
119.813	485.01
123.981	330.501
128.146	444.464
132.309	635.76
136.47	1433.07
140.63	3160.96
144.787	4944.11
148.942	4782.25
153.096	5591.58
157.247	9297.22
161.396	12939.5
165.544	11973.6
169.689	10328.1
173.833	10453.9
177.974	12470.1
182.114	16296.7
186.251	17180.7
190.387	12787
194.52	8127.66
198.652	6099.64
202.782	7326.93
206.909	10304.5
211.035	9329.33
215.159	4671.09
219.281	1970.95
223.4	975.892
227.518	604.373
231.634	372.65
235.748	316.577
239.86	454.717
243.97	1048.87
248.079	2456.89
252.185	3352.65
256.289	2061.07
260.391	1145.42
264.492	1282.01
268.59	1859.5
272.687	2361.09
276.781	3580.99
280.874	7371.04
284.964	17351.4
289.053	29984
293.14	26624.9
297.225	12910
301.308	5261.32
305.389	2599.8
309.468	1695.42
313.545	1311.19
317.62	1253.1
321.693	2508.15
325.765	5757.34
329.834	6971.65
333.902	3437.07
337.967	1378.59
342.031	803.217
346.093	743.938
350.153	628.749
354.21	363.644
358.267	135.617
362.321	73.663
366.373	1.773
370.423	58.092
374.471	113.032
378.518	137.308
382.563	129.216
386.605	93.43
390.646	22.248
394.685	388.111
398.722	888.213
402.757	788.507
406.79	767.927
410.821	496.455
414.851	257.082
418.878	96.796
422.904	2.415
426.927	20.663
430.949	25.054
434.969	30.462
438.987	91.998
443.003	155.967
447.018	298.184
451.03	639.825
455.041	1130.49
459.049	1318.18
463.056	1504.89
467.061	2359.61
471.064	5040.35
475.065	12059.1
479.064	18726.8
483.062	12288.6
487.057	6180.36
491.051	4227.11
495.043	5207.87
499.032	10426.6
503.02	25749.4
507.007	40981.1
510.991	28326.8
514.973	12737.5
518.954	5929.2
522.933	3476.87
526.91	2261.66
530.885	1676.3
534.858	1242.18
538.829	1000.21
542.799	804.36
546.766	647.586
550.732	526.555
554.696	481.205
558.658	437.892
562.618	432.78
566.576	484.348
570.533	656.633
574.488	1125.61
578.44	1478.57
582.391	1177.02
586.341	658.493
590.288	349.261
594.233	235.14
598.177	204.696
602.119	163.256
606.059	174.788
609.997	204.29
613.933	271.761
617.868	334.2
621.801	470.604
625.731	758.974
629.66	1256.31
633.588	1604.61
637.513	1333.87
641.437	1298.09
645.358	1601.27
649.278	1428.41
653.196	850.507
657.113	423.565
661.027	213.579
664.94	158.551
668.851	119.479
672.76	98.362
676.667	107.2
680.572	101.993
684.476	47.749
688.378	31.508
692.278	21.655
696.176	32.784
700.072	24.892
703.967	46.003
707.86	34.24
711.751	10.673
715.64	0.69
719.527	54.219
723.413	20.746
727.297	30.796
731.179	43.18
735.059	21.278
738.937	76.988
742.814	89.139
746.689	169.947
750.562	237.916
754.433	487.596
758.303	977.362
762.17	1856.07
766.036	1748.71
769.901	1059.3
773.763	910.819
777.624	795.284
781.482	426.691
785.339	277.039
789.195	250.329
793.048	221.563
796.9	257.739
800.75	343.86
804.598	592.924
808.445	1290.93
812.289	2881.89
816.132	3794.79
819.973	2058.64
823.813	933.434
827.65	484.177
831.486	376.87
835.32	294.511
839.152	207.062
842.983	182.118
846.812	133.919
850.639	119.971
854.464	107.603
858.288	81.355
862.11	49.737
865.93	9.415
869.748	18.249
873.564	33.931
877.379	1.834
881.192	22.733
885.004	6.12
888.813	13.904
892.621	1.405
896.427	2.788
900.232	1.228
904.034	32.292
907.835	46.777
911.634	37.233
915.432	48.688
919.227	29.131
923.021	37.577
926.813	26.028
930.604	61.482
934.393	28.938
938.18	74.387
941.965	110.826
945.749	102.271
949.53	123.71
953.311	153.273
957.089	198.58
960.866	252.014
964.641	307.454
968.414	481.895
972.185	712.336
975.955	1178.78
979.723	1313.21
983.49	845.676
987.254	488.166
991.017	337.735
994.779	318.2
998.538	347.798
1002.3	371.536
1006.05	474.399
1009.81	507.403
1013.56	626.555
1017.31	653.707
1021.06	768.053
1024.81	1120.93
1028.55	2010.97
1032.3	3132.06
1036.04	2652.12
1039.78	1434.81
1043.52	832.299
1047.26	549.463
1050.99	383.171
1054.73	315.918
1058.46	243.636
1062.19	260.971
1065.92	247.363
1069.65	276.429
1073.37	302.575
1077.1	383.414
1080.82	525.336
1084.54	774.771
1088.26	1123.48
1091.97	1659.33
1095.69	3010.36
1099.4	4275.64
1103.12	3856.52
1106.83	2805.56
1110.54	2298.48
1114.24	2251.43
1117.95	2075.84
1121.65	1546.66
1125.35	975.713
1129.06	565.049
1132.75	407.76
1136.45	275.512
1140.15	228.58
1143.84	227.036
1147.53	256.259
1151.22	324.691
1154.91	347.302
1158.6	205.759
1162.28	119.617
1165.97	91.57
1169.65	59.567
1173.33	63.516
1177.01	25.656
1180.69	35.482
1184.36	2.656
1188.04	21.27
1191.71	19.286
1195.38	7.935
1199.05	1.717
1202.71	25.529
1206.38	12.444
1210.04	13.396
1213.71	0.325
1217.37	10.219
1221.03	7.872
1224.68	10.514
1228.34	10.301
1231.99	22.749
1235.65	96.23
1239.3	1.32
1242.95	0.099
1246.59	23.413
1250.24	17.75
1253.88	37.205
1257.53	8.464
1261.17	3.414
1264.81	30.546
1268.45	8.438
1272.08	33.284
1275.72	18.097
1279.35	5.227
1282.98	18.379
1286.61	17.061
1290.24	47.431
1293.87	10.132
1297.49	2.74
1301.11	6.555
1304.73	2.789
1308.36	18.928
1311.97	16.001
1315.59	19.339
1319.2	4.966
1322.82	39.849
1326.43	49.678
1330.04	26.365
1333.65	12.087
1337.26	31.754
1340.86	33.348
1344.47	11.815
1348.07	47.208
1351.67	12.66
1355.27	53.571
1358.87	8.804
1362.46	33.017
1366.06	27.81
1369.65	29.918
1373.24	10.89
1376.83	16.375
1380.42	28.18
1384	31.349
1387.59	18.814
1391.17	17.36
1394.75	8.458
1398.33	31.031
1401.91	16.765
1405.49	34.037
1409.06	40.017
1412.64	51.286
1416.21	10.874
1419.78	49.299
1423.35	56.397
1426.91	68.082
1430.48	37.371
1434.05	70.452
1437.61	84.007
1441.17	69.654
1444.73	80.422
1448.29	51.374
1451.84	76.829
1455.4	94.293
1458.95	67.682
1462.5	52.338
1466.05	44.809
1469.6	24.553
1473.15	32.276
1476.69	53.086
1480.24	33.813
1483.78	23.421
1487.32	12.373
1490.86	35.079
1494.39	41.156
1497.93	38.371
1501.46	64.69
1505	18.909
1508.53	36.156
1512.06	61.681
1515.59	0.396
1519.11	15.956
1522.64	0
