Measurement: Raman, 532 nm, unoriented, Raman Data Processed
Mineral: Albite
Rruff sample: R040068
Ideal chemistry: NaAlSi_3_O_8_
Locality: Harding Pegmatite, Dixon, New Mexico, USA
Source: University of Arizona Mineral Museum
Description: Tan colored crystal fragment
Measured chemistry: (Na_0.99_Ca_0.01_)Al_1.00_(Si_0.99_Al_0.01_)_3_O_8_
Raman shift (cm-1)	intensity
131.647	0
134.539	9.99438
137.432	74.1854
140.325	259.14
143.217	500.738
146.11	784.559
149.003	958.378
151.895	1329.79
154.788	1760.53
157.681	2301.06
160.573	2978.82
163.466	2743.53
166.359	1704.89
169.252	1267.3
172.144	1220.69
175.037	1307.81
177.93	1577.2
180.822	1891.69
183.715	2080.9
186.608	1916.65
189.5	1401.27
192.393	918.195
195.286	679.862
198.179	673.936
201.071	788.954
203.964	1001.2
206.857	1181.43
209.749	1159.07
212.642	570.921
215.535	234.787
218.428	96.3621
221.32	22.0521
224.213	25.0482
227.106	39.2101
229.998	60.7508
232.891	60.0181
235.784	17.776
238.676	63.4496
241.569	182.228
244.462	416.119
247.355	549.711
250.247	797.616
253.14	637.393
256.033	302.94
258.925	238.854
261.818	349.704
264.711	503.949
267.603	624.949
270.496	671.475
273.389	591.381
276.281	738.128
279.174	1213.56
282.067	2095.96
284.96	2955.34
287.852	3893.94
290.745	4136.44
293.638	2596.7
296.53	1201.08
299.423	635.046
302.316	418.46
305.209	307.31
308.101	295.787
310.994	260.516
313.887	214.683
316.779	184.31
319.672	313.51
322.565	516.001
325.457	752.084
328.35	940.014
331.243	628.102
334.135	253.922
337.028	124.194
339.921	61.4302
342.813	50.7771
345.706	39.0723
348.599	66.7854
351.492	36.6318
354.384	8.02344
357.277	27.47
360.17	16.1538
363.062	9.61328
365.955	8.5647
368.848	15.2905
371.74	20.0789
374.633	10.5752
377.526	3.86987
380.419	17.5395
383.311	30.0002
386.204	32.5332
389.097	136.165
391.989	166.327
394.882	221.589
397.775	379.482
400.668	549.961
403.56	615.859
406.453	886.702
409.346	836.359
412.238	453.86
415.131	415.294
418.024	319.287
420.916	113.897
423.809	58.9531
426.702	1.57324
429.594	16.2297
432.487	28.7178
435.38	16.2939
438.273	8.05396
441.165	1.20483
444.058	28.6621
446.951	31.4927
449.843	126.89
452.736	172.08
455.629	228.329
458.522	267.62
461.414	333.557
464.307	603.071
467.2	1066.16
470.092	1700.95
472.985	2538.26
475.878	3410.47
478.77	3944.6
481.663	2766.45
484.556	1422.97
487.448	922.83
490.341	866.433
493.234	1286.77
496.127	1967.41
499.019	3020.03
501.912	4387.9
504.805	5973.72
507.697	6458.09
510.59	3906.33
513.483	1881.1
516.375	1002.53
519.268	624.84
522.161	403.134
525.053	271.164
527.946	182.604
530.839	135.024
533.732	63.6956
536.624	65.0088
539.517	12.5718
542.41	74.7617
545.302	4.10767
548.195	25.4587
551.088	14.5066
553.981	23.1113
556.873	10.7449
559.766	0.200195
562.659	23.342
565.551	6.48731
568.444	69.7422
571.337	95.1738
574.229	126.799
577.122	176.468
580.015	156.544
582.908	120.646
585.8	65.5088
588.693	67.9404
591.586	81.5642
594.478	83.7307
597.371	57.9045
600.264	99.364
603.156	98.9797
606.049	136.817
608.942	148.241
611.835	149.164
614.727	189.444
617.62	228.841
620.513	264.325
623.405	287.125
626.298	305.636
629.191	407.264
632.083	426.002
634.976	349.373
637.869	302.173
640.761	251.267
643.654	229.597
646.547	252.194
649.439	171.304
652.332	127.359
655.225	23.1929
658.118	30.3184
661.01	0.534912
663.903	22.5591
666.796	27.1987
669.688	12.7004
672.581	0.174805
675.474	10.168
678.366	4.64526
681.259	12.4131
684.152	19.2927
687.045	49.3594
689.937	31.4004
692.83	10.3896
695.723	46.8879
698.615	52.4519
701.508	27.6482
704.401	1.37915
707.293	8.5105
710.186	10.4043
713.079	58.831
715.972	19.7773
718.864	39.365
721.757	71.292
724.65	12.0339
727.542	31.6345
730.435	43.4417
733.328	34.9851
736.221	35.5247
739.113	19.9285
742.006	37.9314
744.899	40.675
747.791	65.3054
750.684	40.5793
753.577	117.418
756.469	229.38
759.362	316.036
762.255	439.976
765.148	367.931
768.04	213.886
770.933	169.809
773.826	182.296
776.718	124.964
779.611	56.9531
782.504	25.2141
785.396	6.19092
788.289	17.3098
791.182	6.56445
794.074	35.8962
796.967	20.0449
799.86	44.4788
802.753	84.0195
805.645	104.221
808.538	233.224
811.431	339.397
814.323	448.072
817.216	450.171
820.109	345.303
823.001	288.099
825.894	222.953
828.787	221.283
831.679	204.292
834.572	171.951
837.465	204.869
840.358	175.266
843.25	134.908
846.143	122.009
849.036	61.6487
851.928	44.6426
854.821	43.0613
857.714	56.5115
860.606	35.4373
863.499	43.3994
866.392	45.6057
869.284	12.9324
872.177	8.63721
875.07	10.8306
877.963	36.3789
880.855	32.5471
883.748	55.9285
886.641	27.7368
889.533	28.1016
892.426	52.9207
895.319	53.2776
898.212	49.8469
901.104	33.5215
903.997	38.6982
906.89	12.8577
909.782	4.9939
912.675	36.5723
915.568	6.4436
918.46	20.2224
921.353	42.8933
924.246	42.8906
927.139	36.1731
930.031	39.2771
932.924	27.6084
935.817	16.3408
938.709	1.26978
941.602	0.791992
944.495	4.91772
947.388	11.5715
950.28	4.66992
953.173	19.5718
956.066	2.90942
958.958	10.7644
961.851	28.571
964.744	34.1929
967.636	81.4634
970.529	96.3084
973.422	128.95
976.314	141.351
979.207	124.911
982.1	109.148
984.992	53.533
987.885	20.7065
990.778	19.5535
993.671	22.6875
996.563	51.9995
999.456	65.3147
1002.35	143.939
1005.24	149.629
1008.13	206.601
1011.03	217.183
1013.92	222.449
1016.81	210.633
1019.71	188.994
1022.6	174.06
1025.49	251.609
1028.38	382.152
1031.28	423.334
1034.17	367.2
1037.06	248.593
1039.95	149.699
1042.85	118.844
1045.74	52.4646
1048.63	68.9031
1051.53	48.7334
1054.42	29.8591
1057.31	10.2493
1060.2	0.236084
1063.1	25.1387
1065.99	3.63599
1068.88	10.8242
1071.77	28.6782
1074.67	52.4856
1077.56	95.7268
1080.45	141.177
1083.34	215.86
1086.24	359.647
1089.13	470.022
1092.02	661.036
1094.91	925.706
1097.81	1118.72
1100.7	1046.09
1103.59	828.027
1106.49	659.269
1109.38	567.102
1112.27	523.388
1115.16	530.834
1118.06	449.229
1120.95	289.704
1123.84	186.507
1126.73	107.11
1129.63	74.2185
1132.52	58.8025
1135.41	66.5393
1138.31	57.7844
1141.2	13.6301
1144.09	36.5583
1146.98	19.9246
1149.88	65.9868
1152.77	24.3445
1155.66	6.39014
1158.55	11.2859
1161.45	9.7981
1164.34	13.5335
1167.23	18.8332
1170.12	14.3259
1173.02	55.0442
1175.91	67.5806
1178.8	7.40332
1181.7	78.9778
1184.59	24.8325
1187.48	41.9585
1190.37	31.0376
1193.27	15.7979
1196.16	16.741
1199.05	25.3027
1201.94	5.70898
1204.84	8.53247
1207.73	12.0552
1210.62	35.5261
1213.52	29.1172
1216.41	43.0286
1219.3	4.76733
1222.19	13.335
1225.09	10.2261
1227.98	4.04688
1230.87	56.3782
1233.77	20.2402
1236.66	79.4321
1239.55	43.7581
1242.44	58.5889
1245.34	52.3062
1248.23	32.5544
1251.12	55.9148
1254.01	32.9163
1256.91	70.804
1259.8	10.7429
1262.69	2.61646
1265.58	6.77026
1268.48	78.0483
1271.37	57.0046
1274.26	70.6365
1277.15	7.50854
1280.05	17.5757
1282.94	38.154
1285.83	43.9204
