Measurement: Raman, 514 nm, unoriented, Raman Data Processed
Mineral: Albite
Rruff sample: R050402
Ideal chemistry: NaAlSi_3_O_8_
Locality: Urbano mine, Golconda District, Brazil
Source: Bob Downs
Description: Colorless tabular single crystals associated with fluorapatite R050401
Measured chemistry: Na_1.00_Al_1.00_Si_3.00_O_8_
Raman shift (cm-1)	intensity
87.798	0
91.981	99.222
96.161	106.671
100.34	478.174
104.516	1263.72
108.691	3139.51
112.864	4733.85
117.034	3911.74
121.203	1425.46
125.369	832.939
129.534	829.845
133.696	919.057
137.857	1869.63
142.016	2912.44
146.172	3623.65
150.327	3404.62
154.48	4016.87
158.63	5737.37
162.779	7264.48
166.926	7680.34
171.07	8931.48
175.213	8944.98
179.354	9216.48
183.493	11140.9
187.63	10713.5
191.765	7835.87
195.898	5639.99
200.029	5338.9
204.158	7660.62
208.285	11066.1
212.41	9447.4
216.533	4137.41
220.654	1787.11
224.773	905.015
228.891	560.083
233.006	461.749
237.119	518.659
241.231	655.434
245.34	1028.94
249.448	1840.31
253.553	2732.13
257.657	1743.78
261.758	916.812
265.858	1007.42
269.956	1542.06
274.052	1902.64
278.146	2865.61
282.237	5962.1
286.327	13524.4
290.416	22043.8
294.502	17863.1
298.586	7887.34
302.668	3362.3
306.749	1723.92
310.827	1030.29
314.903	768.865
318.978	867.092
323.051	2614.75
327.121	5460.78
331.19	6723.09
335.257	2856.64
339.322	1151.42
343.385	595.455
347.446	383.723
351.505	230.242
355.563	185.016
359.618	5.111
363.672	75.533
367.723	22.879
371.773	83.188
375.821	48.432
379.866	98.559
383.91	33.557
387.952	7.568
391.992	21.596
396.031	180.936
400.067	301.041
404.101	632.682
408.134	806.316
412.165	791.035
416.193	379.029
420.22	287.084
424.245	79.814
428.268	33.566
432.289	37.209
436.309	33.744
440.326	40.246
444.342	131.039
448.355	219.559
452.367	474.088
456.377	724.818
460.385	865.211
464.391	1295.58
468.395	2080.92
472.398	4594.22
476.398	10374.5
480.397	14764.6
484.394	8045.76
488.389	3684.79
492.382	2805.72
496.373	3980.56
500.362	8795.28
504.349	21319.1
508.335	32579.5
512.319	20465.6
516.3	8843.47
520.28	4340.02
524.259	2527.7
528.235	1372
532.209	1118.88
536.182	796.809
540.152	700.773
544.121	828.432
548.088	566.293
552.053	367.85
556.017	163.41
559.978	443.49
563.938	496.664
567.895	521.057
571.851	758.816
575.805	1285.05
579.758	1506.14
583.708	1148.93
587.657	577.807
591.603	525.211
595.548	206.893
599.491	130.598
603.432	271.404
607.372	313.947
611.309	324.225
615.245	256.238
619.179	432.988
623.111	232.473
627.041	836.691
630.97	949.623
634.896	1198.63
638.821	1164.66
642.744	1486.28
646.665	1863.15
650.584	1498.77
654.502	1101.2
658.418	177.35
662.331	449.221
666.244	302.795
670.154	130.975
674.062	76.234
677.969	41.873
681.874	185.49
685.777	109.73
689.678	67.301
693.577	2.701
697.475	210.311
701.371	246.361
705.265	136.451
709.157	186.307
713.047	43.375
716.936	543.969
720.823	419.014
724.708	283.014
728.591	374.168
732.472	337.756
736.352	133.039
740.23	362.957
744.106	316.67
747.98	350.023
751.853	317.439
755.723	660.441
759.592	1607.58
763.459	2160.37
767.325	1712.59
771.188	1045.76
775.05	1056.05
778.91	650.154
782.768	450.012
786.625	407.652
790.479	454.236
794.332	510.436
798.183	515.42
802.033	559.318
805.88	1228.74
809.726	1746.47
813.57	4170.8
817.413	5022.82
821.253	2559.69
825.092	1243
828.929	790.115
832.764	637.355
836.598	576.945
840.429	463.857
844.259	300.383
848.088	78.484
851.914	381.662
855.739	279.848
859.562	130.385
863.383	195.836
867.203	28.135
871.02	236.391
874.836	321.902
878.65	70.002
882.463	256.582
886.274	114.639
890.083	443.973
893.89	325.654
897.695	128.357
901.499	128.871
905.301	198.82
909.102	181.191
912.9	199.441
916.697	432.012
920.492	321.543
924.285	415.258
928.077	122.715
931.867	331.164
935.655	323.508
939.442	586.828
943.226	342.762
947.009	489.363
950.791	335.051
954.57	196.191
958.348	312.137
962.124	396.953
965.899	323.848
969.671	158.766
973.442	284.66
977.211	263.594
980.979	536.734
984.745	561.789
988.509	476.137
992.271	491.582
996.032	283.254
999.791	676.434
1003.55	127.684
1007.3	521.215
1011.06	625.574
1014.81	1176.92
1018.56	1021.24
1022.31	1020.56
1026.06	1118.63
1029.8	1210.17
1033.55	1806.91
1037.29	1367.73
1041.03	892.652
1044.77	822.785
1048.5	469.754
1052.24	407
1055.97	374.949
1059.7	647.789
1063.43	585.273
1067.16	510.59
1070.89	227.887
1074.61	412.141
1078.34	285.273
1082.06	417.789
1085.78	902.398
1089.5	884.746
1093.21	1088.79
1096.93	1949.25
1100.64	2430.52
1104.35	2256.91
1108.06	1322.94
1111.77	1403.28
1115.48	1459.43
1119.18	1295.85
1122.89	947.648
1126.59	658.332
1130.29	44.035
1133.99	250.621
1137.68	605
1141.38	64.52
1145.07	158.539
1148.76	125.125
1152.45	117.242
1156.14	100.883
1159.83	94.176
1163.51	39.297
1167.19	393.469
1170.88	197.871
1174.56	146.578
1178.23	442.5
1181.91	71.121
1185.59	603.68
1189.26	453.348
1192.93	491.121
1196.6	297.457
1200.27	237.879
1203.94	846.789
1207.6	646.238
1211.27	404.621
1214.93	516.473
1218.59	304.082
1222.25	528.066
1225.9	407.254
1229.56	795.523
1233.21	356.754
1236.86	501.625
1240.51	136.582
1244.16	607.504
1247.81	589.48
1251.45	506.613
1255.1	351.004
1258.74	163.539
1262.38	94.68
1266.02	401.961
1269.66	225.375
1273.29	407.199
1276.93	234.707
1280.56	467.098
1284.19	258.871
1287.82	210.398
1291.45	38.242
1295.07	146.43
1298.7	244.711
1302.32	200.207
1305.94	131.578
1309.56	344.371
1313.18	205.992
1316.8	171.223
1320.41	90.41
1324.02	369.406
1327.63	362.414
1331.24	24.223
1334.85	141.387
1338.46	24.199
1342.06	535.34
1345.67	185.188
1349.27	602.184
1352.87	476.062
1356.47	642.828
1360.07	711.934
1363.66	393.148
1367.25	373.492
1370.85	850.949
1374.44	672.301
1378.03	330.309
1381.61	870.824
1385.2	929.309
1388.78	699.68
1392.37	900.09
1395.95	1055.76
1399.53	558.43
1403.1	826.484
1406.68	608.656
1410.26	611.016
1413.83	1115.28
1417.4	700.852
1420.97	1091.43
1424.54	524.402
1428.1	854.027
1431.67	933.316
1435.23	961.777
1438.8	1246.1
1442.36	858.293
1445.91	1277.28
1449.47	915.957
1453.03	1379.95
1456.58	1408.05
1460.13	1042.19
1463.68	1016.05
1467.23	450.125
1470.78	906.672
1474.33	1098.53
1477.87	650.945
1481.42	549.824
1484.96	892.422
1488.5	591.738
1492.04	638.262
1495.57	700.941
1499.11	174.879
1502.64	859.629
1506.17	317.32
1509.71	254.918
