Measurement: Raman, 785 nm, unoriented, Raman Data Processed
Mineral: Albite
Rruff sample: R070268
Ideal chemistry: NaAlSi_3_O_8_
Locality: Kitty Hawk, North Carolina, USA
Source: Michael Scott
Description: White cleavage fragment showing polysynthetic twinning, associated with smoky quartz. Variety oligoclase.
Measured chemistry: Na_0.77_Ca_0.22_Al_1.22_Si_2.78_O_8_
Raman shift (cm-1)	intensity
155.732	0
158.625	23.2029
161.517	39.6637
164.41	66.8999
167.303	81.3029
170.195	127.362
173.088	162.348
175.981	165.401
178.873	185.249
181.766	232.057
184.659	227.253
187.552	251.68
190.444	255.693
193.337	275.725
196.23	297.892
199.122	308.89
202.015	326.09
204.908	322.915
207.8	288.442
210.693	191.894
213.586	72.499
216.478	2.57056
219.371	9.58618
222.264	14.5962
225.157	2.86597
228.049	17.6754
230.942	34.3732
233.835	78.3212
236.727	118.93
239.62	188.552
242.513	223.387
245.405	270.776
248.298	289.86
251.191	344.271
254.084	362.16
256.976	405.63
259.869	398.807
262.762	458.64
265.654	438.158
268.547	476.628
271.44	450.43
274.332	516.102
277.225	495.549
280.118	528.003
283.011	543.627
285.903	549.621
288.796	534.698
291.689	495.405
294.581	343.04
297.474	259.243
300.367	188.304
303.26	146.216
306.152	75.5638
309.045	57.0637
311.938	37.8386
314.83	0.192017
317.723	10.8556
320.616	0.388672
323.508	6.50452
326.401	14.4861
329.294	82.3274
332.187	80.3466
335.079	55.4668
337.972	64.4258
340.865	42.8698
343.757	36.6354
346.65	31.3844
349.543	23.4869
352.435	14.669
355.328	9.69324
358.221	8.87903
361.113	4.63879
364.006	0.429077
366.899	8.39526
369.792	4.76062
372.684	28.7889
375.577	20.547
378.47	34.9368
381.362	34.4171
384.255	51.9871
387.148	49.0244
390.041	63.1044
392.933	85.6027
395.826	79.814
398.719	132.674
401.611	163.06
404.504	231.832
407.397	243.45
410.289	257.316
413.182	260.102
416.075	191.215
418.967	104.666
421.86	42.9928
424.753	16.9406
427.646	24.051
430.538	16.3013
433.431	8.20422
436.324	2.17737
439.216	38.0027
442.109	83.864
445.002	107.622
447.894	173.303
450.787	219.621
453.68	331.126
456.573	353.626
459.465	367.591
462.358	403.616
465.251	453.891
468.143	572.92
471.036	740.95
473.929	1082.11
476.822	1218.81
479.714	1376.09
482.607	1224.32
485.5	960.048
488.392	767.199
491.285	690.952
494.178	779.598
497.07	989.381
499.963	1334.08
502.856	1873.16
505.748	2387.89
508.641	2514.45
511.534	2095.64
514.427	1410.53
517.319	871.749
520.212	541.9
523.105	345.079
525.997	212.083
528.89	131.569
531.783	71.1257
534.676	51.8712
537.568	19.1145
540.461	2.55005
543.354	14.0502
546.246	9.35046
549.139	1.53967
552.032	10.8675
554.924	25.8
557.817	24.3646
560.71	54.7202
563.602	94.7174
566.495	142.71
569.388	159.416
572.281	184.118
575.173	153.571
578.066	104.207
580.959	63.9456
583.851	31.8577
586.744	24.1959
589.637	11.6286
592.529	7.50665
595.422	17.9577
598.315	10.5629
601.208	3.37842
604.1	2.08435
606.993	9.36261
609.886	20.5092
612.778	29.4315
615.671	17.5277
618.564	28.3391
621.457	45.7683
624.349	30.9406
627.242	32.2256
630.135	55.3567
633.027	42.4017
635.92	14.5155
638.813	49.073
641.705	25.1713
644.598	59.2326
647.491	52.8693
650.384	34.7563
653.276	35.8603
656.169	37.4545
659.062	47.6691
661.954	18.068
664.847	16.8556
667.74	25.5055
670.632	14.5412
673.525	3.52832
676.418	2.80182
679.311	13.0218
682.203	7.86231
685.096	4.28363
687.989	17.1691
690.881	18.011
693.774	19.098
696.667	6.56793
699.559	13.309
702.452	0.529907
705.345	2.87909
708.237	25.3483
711.13	20.3937
714.023	32.9864
716.916	36.3031
719.808	37.3889
722.701	51.8589
725.594	30.7597
728.486	4.7923
731.379	32.5754
734.272	18.0885
737.164	41.6956
740.057	42.1539
742.95	69.7694
745.843	83.3269
748.735	88.8257
751.628	133.281
754.521	156.507
757.413	202.767
760.306	244.457
763.199	238.278
766.091	210.484
768.984	206.771
771.877	155.682
774.77	134.916
777.662	115.593
780.555	112.579
783.448	109.955
786.34	146.288
789.233	170.586
792.126	198.82
795.019	276.936
797.911	301.966
800.804	303.026
803.697	276.887
806.589	273.659
809.482	266.429
812.375	294.416
815.267	249.714
818.16	183.504
821.053	88.9253
823.946	33.9359
826.838	4.56946
829.731	7.24695
832.624	0.690063
835.516	3.73633
838.409	15.7924
841.302	9.06494
844.194	1.21301
847.087	10.5903
849.98	14.0884
852.872	2.84949
855.765	9.49524
858.658	23.4653
861.551	6.83106
864.443	6.74072
867.336	9.10571
870.229	14.9741
873.121	26.1543
876.014	16.7181
878.907	22.5938
881.799	2.52747
884.692	19.5424
887.585	19.5405
890.478	20.2009
893.37	30.634
896.263	34.0054
899.156	20.4734
902.048	31.5597
904.941	19.967
907.834	45.2964
910.726	38.8525
913.619	6.53015
916.512	36.8265
919.405	23.6709
922.297	39.28
925.19	25.6112
928.083	37.5809
930.975	13.656
933.868	22.5018
936.761	45.7336
939.654	28.0182
942.546	48.9729
945.439	38.0293
948.332	44.7134
951.224	33.832
954.117	44.9618
957.01	38.2116
959.902	69.5306
962.795	31.4043
965.688	57.6043
968.581	76.1603
971.473	33.7794
974.366	27.8307
977.259	46.1636
980.151	51.3683
983.044	38.7032
985.937	2.78272
988.829	33.1647
991.722	5.49426
994.615	17.4764
997.508	24.5342
1000.4	21.6025
1003.29	15.2543
1006.19	33.5596
1009.08	29.2567
1011.97	12.7136
1014.86	2.28687
1017.76	16.8994
1020.65	19.6822
1023.54	35.1083
1026.43	65.4235
1029.33	122.865
1032.22	145.428
1035.11	141.478
1038.01	203.997
1040.9	217.299
1043.79	245.4
1046.68	288.522
1049.58	277.554
1052.47	336.033
1055.36	340.86
1058.25	380.225
1061.15	420.2
1064.04	521.825
1066.93	517.38
1069.83	567.381
1072.72	591.503
1075.61	632.153
1078.5	627.158
1081.4	706.547
1084.29	673.818
1087.18	659.473
1090.07	644.072
1092.97	659.848
1095.86	601.552
1098.75	546.06
1101.64	523.394
1104.54	459.615
1107.43	414.59
1110.32	352.295
1113.21	286.535
1116.11	260.119
1119	211.418
1121.89	127.05
1124.79	49.4695
1127.68	28.0623
1130.57	12.4959
1133.46	6.63867
1136.36	34.416
1139.25	0
