Measurement: Raman, 532 nm, unoriented, Raman Data Processed
Mineral: Alforsite
Rruff sample: R070356
Ideal chemistry: Ba_5_(PO_4_)_3_Cl
Locality: Madrelena Mine, Tres Pozos, Baja California Norte, Mexico
Source: Michael Scott
Description: Colorless fragment
Raman shift (cm-1)	intensity
166.054	0
168.946	199.471
171.839	461.373
174.732	190.217
177.625	352.004
180.517	184.244
183.41	262.188
186.303	465.205
189.195	698.293
192.088	975.811
194.981	1358.27
197.874	1721.87
200.766	2033.34
203.659	1948.71
206.552	1726.05
209.444	1346.76
212.337	1107.27
215.23	1058.8
218.122	1216.32
221.015	1034.32
223.908	831.092
226.8	727.641
229.693	505.871
232.586	288.283
235.479	147.935
238.371	177.822
241.264	272.801
244.157	87.5977
247.049	198.518
249.942	124.74
252.835	169.383
255.727	69.7305
258.62	161.846
261.513	81.0606
264.406	48.6191
267.298	51.8613
270.191	91.9453
273.084	33.0039
275.976	58.7715
278.869	32.0332
281.762	230.809
284.655	0.011719
287.547	39.5273
290.44	117.438
293.333	133.277
296.225	86.7324
299.118	50.957
302.011	141.594
304.904	63.0273
307.796	3.95312
310.689	3.16016
313.582	16.0312
316.474	97.2461
319.367	17.7695
322.26	21.8438
325.152	109.348
328.045	67.3008
330.938	30.7617
333.83	94.2656
336.723	20.3086
339.616	64.3359
342.509	59.0469
345.401	6.15625
348.294	50.7773
351.187	89.0312
354.079	92.793
356.972	99.1484
359.865	63.0938
362.757	46.9258
365.65	128.723
368.543	144.359
371.436	90.7305
374.328	123.922
377.221	224.727
380.114	292.269
383.006	277.562
385.899	366.062
388.792	318.16
391.685	613.312
394.577	1029.65
397.47	1613.65
400.363	2383.73
403.255	3553.42
406.148	4997.99
409.041	5995.83
411.933	6103.03
414.826	5466.6
417.719	5311.59
420.611	6240.01
423.504	7465.93
426.397	7693.22
429.29	6173.5
432.182	3923.87
435.075	2494.65
437.968	1572.31
440.86	1027.26
443.753	770.184
446.646	432.66
449.538	367.168
452.431	228.906
455.324	297.754
458.217	35.4102
461.109	107.902
464.002	2.8125
466.895	67.9844
469.787	82.1758
472.68	62.0938
475.573	83.7266
478.466	25.0117
481.358	140.707
484.251	130.074
487.144	70.0156
490.036	74.2852
492.929	185.285
495.822	18.5625
498.714	136.859
501.607	41.3906
504.5	82.7773
507.393	71.25
510.285	37.8125
513.178	89.1367
516.071	77.8125
518.963	65.8125
521.856	179.633
524.749	47.0938
527.641	65.1562
530.534	29.875
533.427	60.9102
536.32	128.871
539.212	166.488
542.105	351.219
544.998	315.074
547.89	830.238
550.783	1137.99
553.676	1568.48
556.568	2224.72
559.461	3011.23
562.354	4345.22
565.247	3513.06
568.139	2475.48
571.032	2508.98
573.925	2565.3
576.817	1531.64
579.71	1202.85
582.603	1229.54
585.495	1723.06
588.388	1792.09
591.281	1621.88
594.174	788.082
597.066	347.195
599.959	143.492
602.852	142.578
605.744	122.375
608.637	226.461
611.53	128.027
614.423	73.1758
617.315	182.356
620.208	262.848
623.101	256.918
625.993	97.3125
628.886	89.7969
631.779	80.6953
634.671	295.234
637.564	212.438
640.457	402.285
643.35	393.289
646.242	276.816
649.135	286.887
652.028	335.301
654.92	126.207
657.813	237.519
660.706	497.453
663.598	328.543
666.491	249.137
669.384	191.969
672.277	225.129
675.169	81.9492
678.062	162.34
680.955	104.004
683.847	133.117
686.74	104.25
689.633	73.8633
692.525	215.305
695.418	135.148
698.311	64.4922
701.204	152.031
704.096	28.9531
706.989	145.559
709.882	89.457
712.774	220.965
715.667	24.9805
718.56	90.6875
721.452	46.8516
724.345	11.7188
727.238	151.746
730.131	65.4844
733.023	134.668
735.916	6.55469
738.809	46.5117
741.701	166.184
744.594	40.1641
747.487	204.281
750.38	231.481
753.272	150.031
756.165	7.63672
759.058	91.4531
761.95	110.961
764.843	180.59
767.736	150.277
770.628	145.551
773.521	237.43
776.414	229.672
779.307	167.047
782.199	189.961
785.092	20.0195
787.985	27.0703
790.877	81.5781
793.77	54.0117
796.663	247.887
799.555	112.953
802.448	154.242
805.341	34.8047
808.234	247.094
811.126	202.051
814.019	139.898
816.912	267.332
819.804	78.5117
822.697	237.375
825.59	159.512
828.482	190.508
831.375	152.328
834.268	243.102
837.16	203.301
840.053	173.578
842.946	310.719
845.839	243.688
848.731	94.3281
851.624	160.141
854.517	88.1523
857.409	246.223
860.302	29.0898
863.195	27.6445
866.087	130.883
868.98	6.31641
871.873	85.1562
874.766	83.5469
877.658	125.781
880.551	46.4805
883.444	45.3867
886.337	30.9727
889.229	116.195
892.122	97.6094
895.015	128.191
897.907	4.21875
900.8	130.84
903.693	59.0781
906.585	187.305
909.478	42.6992
912.371	430.246
915.264	319.129
918.156	742.547
921.049	1307.75
923.942	2840.5
926.834	6136.2
929.727	13014.1
932.62	22775.7
935.512	32728.8
938.405	35192.1
941.298	23136.5
944.191	9683.66
947.083	3603.54
949.976	1577.67
952.869	792.426
955.761	703.281
958.654	501.609
961.547	227.574
964.439	241.707
967.332	333.332
970.225	180.055
973.117	128.527
976.01	259.383
978.903	253.516
981.796	125.492
984.688	612.723
987.581	373.625
990.474	869.918
993.366	1085.86
996.259	1346.93
999.152	1402.45
1002.04	1387.86
1004.94	1654.91
1007.83	1713.79
1010.72	1729.58
1013.62	2040.6
1016.51	2293.18
1019.4	2426.72
1022.29	2248.58
1025.19	2024.18
1028.08	1837.57
1030.97	1606.43
1033.86	1246.18
1036.76	1368.09
1039.65	978.898
1042.54	781.859
1045.43	484.848
1048.33	440.211
1051.22	212.391
1054.11	197.719
1057.01	90.1172
1059.9	6.71094
1062.79	148.805
1065.68	64.0312
1068.58	171.758
1071.47	123.609
1074.36	125.828
1077.26	22.6562
1080.15	14.4609
1083.04	60.1016
1085.93	139.469
1088.83	79.5859
1091.72	157.141
1094.61	53.7266
1097.5	108.781
1100.4	40.7344
1103.29	106.219
1106.18	74.4766
1109.07	202.391
1111.97	318.164
1114.86	320.867
1117.75	13.1328
1120.64	280.789
1123.54	425.633
1126.43	409.867
1129.32	355.211
1132.22	536.461
1135.11	237.43
1138	375.961
1140.89	378.719
1143.79	379.141
1146.68	342.625
1149.57	475.844
1152.46	131.422
1155.36	354.461
1158.25	626.086
1161.14	512.797
1164.04	233.602
1166.93	281.031
1169.82	567.758
1172.71	369.477
1175.61	427.734
1178.5	292.469
1181.39	269.773
1184.29	393.914
1187.18	356.727
1190.07	50.0703
1192.96	327.781
1195.86	156.648
1198.75	128.875
1201.64	21.6797
1204.53	181.977
1207.43	17.75
1210.32	176.305
1213.21	37.3438
1216.1	195.82
1219	70.8984
1221.89	381.391
1224.78	28.5938
1227.67	6.52344
1230.57	228.008
1233.46	286.062
1236.35	160.156
1239.25	37.4219
1242.14	70.3359
1245.03	49.8672
1247.92	455.961
1250.82	233.117
1253.71	75.2188
1256.6	136.164
1259.49	19.0156
1262.39	166.836
1265.28	452.031
1268.17	217.664
1271.07	159.328
1273.96	189.188
1276.85	266.227
1279.74	154.156
1282.64	388.094
1285.53	382.617
1288.42	65.25
1291.32	55.1562
1294.21	249.945
1297.1	471.914
1299.99	220.945
1302.88	298.32
1305.78	8.20312
