Measurement: Raman, 785 nm, unoriented, Raman Data Processed
Mineral: Allactite
Rruff sample: R070175
Ideal chemistry: Mn^2+^_7_(As^5+^O_4_)_2_(OH)_8_
Locality: Langban, Filipstad, Varmland, Sweden
Source: Michael Scott
Description: Brownish red vitreous massive
Measured chemistry: cryptic zoned from: (Mn_6.85_Mg_0.10_Ca_0.05_)_Σ=7_(As_1.00_O_4_)_2_(OH)_8_ to (Mn_6.75_Mg_0.19_Ca_0.16_)_Σ=7_(As_1.00_O_4_)_2_(OH)_8_
Raman shift (cm-1)	intensity
103.471	0
106.364	4.99413
109.257	2.96721
112.15	3.55081
115.042	3.45196
117.935	1.24356
120.828	15.4352
123.72	40.0354
126.613	139.063
129.506	254.995
132.398	326.035
135.291	423.256
138.184	622.155
141.077	1034.05
143.969	1746.3
146.862	1914.25
149.755	2019.6
152.647	2517.96
155.54	3147.8
158.433	3507.62
161.325	2640.32
164.218	1511.76
167.111	1045.76
170.004	805.013
172.896	711.548
175.789	692.191
178.682	709.014
181.574	722.158
184.467	699.42
187.36	723.847
190.252	742.441
193.145	731.225
196.038	763.97
198.93	598.607
201.823	456.948
204.716	390.572
207.609	317.949
210.501	209.19
213.394	82.472
216.287	20.873
219.179	18.9547
222.072	14.3318
224.965	35.6191
227.857	28.6271
230.75	27.592
233.643	23.3962
236.536	11.3519
239.428	58.1393
242.321	111.861
245.214	190.322
248.106	221.385
250.999	252.351
253.892	346.878
256.784	521.463
259.677	702.353
262.57	907.041
265.463	1009.93
268.355	1069.17
271.248	1128.95
274.141	960.943
277.033	749.842
279.926	802.987
282.819	1014.08
285.712	1315.8
288.604	1590.41
291.497	1785.6
294.39	1986.38
297.282	1851.47
300.175	1536.56
303.068	1026.83
305.96	441.309
308.853	32.8245
311.746	12.4614
314.639	53.9592
317.531	309.105
320.424	699.328
323.317	1057.89
326.209	1141.56
329.102	1132.69
331.995	896.052
334.887	391.127
337.78	125.199
340.673	185.098
343.565	533.11
346.458	1156.23
349.351	1892.91
352.244	2745.47
355.136	3469.94
358.029	4011.67
360.922	3812.09
363.814	2577.39
366.707	1614.25
369.6	974.533
372.493	681.86
375.385	570.851
378.278	472.492
381.171	357.177
384.063	321.21
386.956	358.544
389.849	436.991
392.741	561.525
395.634	492.596
398.527	237.495
401.419	50.4905
404.312	109.426
407.205	107.112
410.098	33.3455
412.99	220.929
415.883	551.633
418.776	926.979
421.668	1222.27
424.561	1171.14
427.454	1064.04
430.346	1037.9
433.239	1271.55
436.132	1494.64
439.024	1631.81
441.917	1791.29
444.81	2044.62
447.703	2331.22
450.595	2648.66
453.488	2703.89
456.381	2360.53
459.273	1899.94
462.166	1640.31
465.059	1607.67
467.952	1561.29
470.844	1387.61
473.737	1028.34
476.63	664.375
479.522	402.357
482.415	236.525
485.308	122.318
488.2	72.3136
491.093	32.4675
493.986	3.04608
496.878	3.16492
499.771	5.99536
502.664	34.3829
505.557	16.1376
508.449	17.4112
511.342	9.79663
514.235	6.8996
517.127	1.97168
520.02	22.1946
522.913	9.08801
525.806	33.934
528.698	40.9467
531.591	59.1124
534.484	74.6939
537.376	84.897
540.269	99.35
543.162	108.919
546.054	100.104
548.947	106.189
551.84	116.558
554.732	102.471
557.625	72.8705
560.518	61.1451
563.411	63.2429
566.303	39.4949
569.196	30.9164
572.089	19.3527
574.981	18.2722
577.874	25.0492
580.767	24.033
583.659	26.3882
586.552	17.4573
589.445	24.8908
592.338	16.6976
595.23	21.0208
598.123	9.08868
601.016	34.5406
603.908	33.6797
606.801	54.1082
609.694	51.189
612.587	85.7924
615.479	88.3321
618.372	135.415
621.265	169.43
624.157	220.551
627.05	241.696
629.943	280.805
632.835	289.366
635.728	280.019
638.621	259.723
641.514	238.291
644.406	189.044
647.299	148.623
650.192	151.071
653.084	131.224
655.977	124.446
658.87	130.15
661.762	145.983
664.655	174.006
667.548	170
670.441	151.179
673.333	113.465
676.226	153.541
679.119	99.3222
682.011	73.7836
684.904	78.0698
687.797	53.0188
690.689	49.8976
693.582	31.9715
696.475	101.565
699.367	53.7207
702.26	92.5958
705.153	139.584
708.046	125.605
710.938	101.804
713.831	74.0635
716.724	44.6243
719.616	20.5283
722.509	49.8424
725.402	41.0277
728.294	62.8358
731.187	88.2502
734.08	150.743
736.973	191.135
739.865	163.706
742.758	187.288
745.651	166.22
748.543	87.0714
751.436	66.192
754.329	138.473
757.221	225.338
760.114	259.248
763.007	152.607
765.899	254.411
768.792	943.513
771.685	2133.25
774.578	3748.88
777.47	5063.72
780.363	4464.47
783.256	2714.82
786.148	1390.82
789.041	703.761
791.934	366.692
794.827	340.413
797.719	544.909
800.612	1020.78
803.505	1709.77
806.397	2759.56
809.29	3744.79
812.183	5134.17
815.075	7896.19
817.968	12860.8
820.861	20173.9
823.754	30711.9
826.646	40164.1
829.539	36417.4
832.432	26022.5
835.324	18972.7
838.217	14068.9
841.11	10734.4
844.002	9118.92
846.895	9266.38
849.788	11225.5
852.681	14885.4
855.573	20420.5
858.466	23801.2
861.359	18350.9
864.251	10206.1
867.144	5631.68
870.037	3729.34
872.929	3087.98
875.822	3216.54
878.715	3826.73
881.607	4400.52
884.5	4257.13
887.393	3130.68
890.286	1904.76
893.178	1112.07
896.071	663.688
898.964	392.752
901.856	281.846
904.749	219.394
907.642	218.29
910.534	178.821
913.427	107.954
916.32	76.1189
919.213	11.7699
922.105	85.5328
924.998	81.0066
927.891	116.226
930.783	94.3885
933.676	91.2882
936.569	60.5269
939.462	50.636
942.354	10.0702
945.247	2.59985
948.14	65.1527
951.032	82.1691
953.925	128.34
956.818	161.335
959.71	177.937
962.603	223.963
965.496	244.993
968.389	270.39
971.281	307.856
974.174	360.525
977.067	376.041
979.959	409.469
982.852	430.279
985.745	408.995
988.637	402.778
991.53	397.376
994.423	387.429
997.316	404.258
1000.21	400.024
1003.1	398.147
1005.99	400.752
1008.89	393.87
1011.78	388.047
1014.67	364.17
1017.56	328.198
1020.46	297.755
1023.35	275.012
1026.24	241.732
1029.13	200.704
1032.03	187.687
1034.92	179.456
1037.81	148.419
1040.71	141.402
1043.6	119.661
1046.49	116.622
1049.38	100.037
1052.28	94.0247
1055.17	90.3089
1058.06	97.5144
1060.95	78.3145
1063.85	71.4316
1066.74	64.4813
1069.63	64.0971
1072.53	41.0483
1075.42	52.0375
1078.31	41.7277
1081.2	26.5339
1084.1	38.0459
1086.99	43.4669
1089.88	37.1175
1092.78	41.4261
1095.67	19.9203
1098.56	28.2536
1101.45	13.3134
1104.35	4.66327
1107.24	10.1092
1110.13	7.15643
1113.02	1.56387
1115.92	2.59497
1118.81	30.0013
1121.7	16.6776
1124.59	2.29239
1127.49	4.53534
1130.38	12.1429
1133.27	3.63519
1136.16	15.3716
1139.06	7.37091
1141.95	3.61585
1144.84	2.67776
1147.74	18.5092
1150.63	1.01941
1153.52	9.02872
1156.41	1.21225
1159.31	8.73761
1162.2	2.0683
1165.09	4.70035
1167.98	1.15668
1170.88	5.56189
1173.77	50.8965
1176.66	19.3356
1179.56	17.9521
1182.45	24.6808
1185.34	2.79211
1188.23	10.6393
1191.13	19.6264
1194.02	14.2973
1196.91	12.6733
1199.8	14.4731
1202.7	23.7194
1205.59	11.7548
1208.48	18.8874
1211.38	19.667
1214.27	6.8703
1217.16	19.7682
1220.05	7.21243
1222.95	9.48477
1225.84	16.969
1228.73	28.6999
1231.62	15.2563
1234.52	25.2435
1237.41	23.4638
1240.3	10.5401
