Measurement: Raman, 780 nm, unoriented, Raman Data Processed
Mineral: Allactite
Rruff sample: R150120
Ideal chemistry: Mn^2+^_7_(As^5+^O_4_)_2_(OH)_8_
Locality: Sterling Mine, 1200' Level, Ogdensburg, New Jersey, USA
Source: Steven Kuitems
Description: Brown elongated tabular crystals, associated with yellow euhedral barite and massive alleghanyite
Raman shift (cm-1)	intensity
103.131	0
106.505	6.51584
109.88	34.1963
113.255	59.4618
116.63	43.8446
120.005	30.6918
123.38	24.3545
126.754	14.5607
130.129	15.6822
133.504	0.345703
136.879	0.726257
140.254	25.3528
143.629	72.6495
147.003	70.4869
150.378	43.3573
153.753	66.4437
157.128	120.41
160.503	138.39
163.877	73.9815
167.252	31.3206
170.627	11.83
174.002	6.37253
177.377	7.99284
180.751	11.2101
184.126	10.8388
187.501	11.5662
190.876	10.6466
194.251	8.94208
197.625	11.5122
201	7.84212
204.375	7.69342
207.75	6.99588
211.125	0.983658
214.5	0.110153
217.874	1.57999
221.249	0.136185
224.624	1.06892
227.999	0.843369
231.374	3.03658
234.749	2.1675
238.123	4.1608
241.498	6.55716
244.873	8.7749
248.248	11.0329
251.623	10.9179
254.997	15.7694
258.372	20.9896
261.747	28.8657
265.122	37.0992
268.497	47.1843
271.872	53.5599
275.246	48.428
278.621	33.1531
281.996	28.4607
285.371	30.3111
288.745	28.683
292.12	25.4729
295.495	22.9602
298.87	19.6446
302.245	12.7162
305.62	6.3257
308.994	1.74672
312.369	3.19095
315.744	0.320663
319.119	9.50768
322.494	22.7427
325.868	25.8337
329.243	19.8598
332.618	17.097
335.993	16.2024
339.368	23.5141
342.743	48.9078
346.117	84.1612
349.492	125.485
352.867	156.412
356.242	177.886
359.617	188.591
362.991	163.465
366.366	110.595
369.741	67.0274
373.116	41.3851
376.491	28.8085
379.865	19.6061
383.24	12.2908
386.615	8.30899
389.99	7.02254
393.365	8.10146
396.74	7.71652
400.114	3.74188
403.489	0.408936
406.864	0.675354
410.239	0.954147
413.614	5.05467
416.988	14.0339
420.363	27.5315
423.738	33.0595
427.113	24.0623
430.488	11.4391
433.863	4.3389
437.237	4.37607
440.612	6.28814
443.987	8.92744
447.362	14.3461
450.737	19.2072
454.111	21.6206
457.486	20.7569
460.861	16.4943
464.236	15.5341
467.611	18.5084
470.986	17.5562
474.36	13.8506
477.735	7.92902
481.11	4.05756
484.485	1.35322
487.86	0.359154
491.234	0.585861
494.609	1.23788
497.984	0.300163
501.359	1.28221
504.734	0.309303
508.108	0.092865
511.483	0.301003
514.858	0.01825
518.233	0.201157
521.608	0.246368
524.982	0.118752
528.357	0.136993
531.732	0.453751
535.107	0.482933
538.482	1.86333
541.857	1.58121
545.231	2.64348
548.606	3.08686
551.981	4.56928
555.356	4.13387
558.731	3.56808
562.106	4.18054
565.48	4.70531
568.855	5.84405
572.23	4.84378
575.605	6.91536
578.98	7.26648
582.354	7.47167
585.729	7.324
589.104	7.05792
592.479	7.13836
595.854	5.91735
599.229	7.11314
602.603	8.10958
605.978	9.4715
609.353	10.4876
612.728	11.4962
616.102	12.6208
619.477	14.54
622.852	16.1021
626.227	17.249
629.602	18.434
632.977	17.5129
636.351	16.6157
639.726	15.7223
643.101	13.0861
646.476	10.3531
649.851	8.9917
653.226	7.22482
656.6	5.94002
659.975	6.85399
663.35	5.43936
666.725	5.94257
670.1	5.5403
673.474	5.16188
676.849	5.33606
680.224	4.08279
683.599	2.95564
686.974	2.34997
690.348	2.22545
693.723	2.33088
697.098	2.29883
700.473	2.89502
703.848	3.06838
707.222	3.71448
710.597	2.69868
713.972	1.76207
717.347	1.68643
720.722	0.900444
724.097	0.698959
727.471	0.677864
730.846	0.016693
734.221	1.65001
737.596	1.04364
740.971	1.22422
744.346	0.309769
747.72	0.868332
751.095	1.84957
754.47	3.57703
757.845	4.41095
761.22	4.5793
764.594	2.6591
767.969	7.96674
771.344	29.4028
774.719	76.931
778.094	140.504
781.468	153.749
784.843	112.586
788.218	78.0953
791.593	64.642
794.968	66.9503
798.342	88.7007
801.717	133.125
805.092	206.886
808.467	289.968
811.842	351.007
815.217	392.92
818.591	469.664
821.966	668.751
825.341	1079.84
828.716	1488.28
832.091	1342.66
835.466	1015.02
838.84	754.922
842.215	539.221
845.59	381.831
848.965	289.676
852.34	251.527
855.714	259.964
859.089	268.955
862.464	194.666
865.839	111.702
869.214	67.3333
872.588	51.0038
875.963	50.4618
879.338	60.0316
882.713	68.5871
886.088	58.9537
889.462	36.429
892.837	20.0113
896.212	10.3806
899.587	3.54637
902.962	0.401031
906.337	0.753471
909.711	1.27628
913.086	1.86123
916.461	2.31347
919.836	2.38088
923.211	1.60314
926.585	1.59136
929.96	1.30829
933.335	0.612255
936.71	0.568363
940.085	0.982609
943.46	1.99904
946.834	2.93367
950.209	4.00636
953.584	5.05218
956.959	6.09046
960.334	7.37757
963.708	8.47075
967.083	8.75186
970.458	9.39533
973.833	9.43603
977.208	9.49373
980.582	9.85164
983.957	10.0178
987.332	9.44052
990.707	10.0563
994.082	8.76542
997.457	9.58252
1000.83	9.89715
1004.21	9.6576
1007.58	9.66204
1010.96	8.85968
1014.33	8.16319
1017.71	7.64931
1021.08	7.26023
1024.45	6.15779
1027.83	6.34274
1031.2	5.26136
1034.58	4.27793
1037.95	3.48792
1041.33	3.55622
1044.7	3.02423
1048.08	3.41277
1051.45	2.98196
1054.83	2.98351
1058.2	2.45762
1061.58	2.64807
1064.95	1.7533
1068.33	1.81719
1071.7	1.89989
1075.08	1.41396
1078.45	1.6808
1081.83	1.10335
1085.2	0.266846
1088.58	1.04485
1091.95	0.730747
1095.33	0.548988
1098.7	0.380363
1102.08	0.31913
1105.45	0.369282
1108.83	0.20607
1112.2	0.626606
1115.58	0.250927
1118.95	0.197079
1122.33	0.072376
1125.7	0.123726
1129.07	0.198952
1132.45	0.289265
1135.82	0.196846
1139.2	0.561108
1142.57	0.147232
1145.95	0.077431
1149.32	0.149143
1152.7	0.092213
1156.07	0.027096
1159.45	0.427441
1162.82	0.435837
1166.2	0.158703
1169.57	0.117954
1172.95	0.102917
1176.32	0.306618
1179.7	0.56369
1183.07	0.55769
1186.45	0.757984
1189.82	0.810452
1193.2	1.003
1196.57	0.72913
1199.94	0.961437
1203.32	0.737514
1206.69	0.515965
1210.07	0.974735
1213.44	0.262863
1216.82	0.423939
1220.19	0.285622
1223.57	0.576012
1226.94	0.968937
1230.32	0.912468
1233.69	0.781063
1237.07	0.518963
1240.44	0.517307
1243.82	0.625633
1247.19	1.14482
1250.57	0.619534
1253.94	0.908379
1257.32	0.401577
1260.69	0.190331
1264.07	0.670631
1267.44	0.270115
1270.82	0.520874
1274.19	0.239388
1277.57	0.623241
1280.94	0.708443
1284.32	0.041904
