Measurement: Raman, 532 nm, unoriented, Raman Data Processed
Mineral: Allactite
Rruff sample: R150120
Ideal chemistry: Mn^2+^_7_(As^5+^O_4_)_2_(OH)_8_
Locality: Sterling Mine, 1200' Level, Ogdensburg, New Jersey, USA
Source: Steven Kuitems
Description: Brown elongated tabular crystals, associated with yellow euhedral barite and massive alleghanyite
Raman shift (cm-1)	intensity
89.7832	0
93.158	20.0818
96.5328	9.87003
99.9077	0.393784
103.282	0.80806
106.657	15.464
110.032	46.3422
113.407	68.9977
116.782	60.6717
120.157	46.8822
123.531	44.0753
126.906	41.591
130.281	46.6869
133.656	31.9416
137.031	33.9735
140.405	62.9259
143.78	101.324
147.155	80.1648
150.53	58.9619
153.905	78.2674
157.28	110.99
160.654	108.759
164.029	58.6425
167.404	29.7643
170.779	19.9015
174.154	16.0315
177.528	17.2849
180.903	17.0942
184.278	16.0201
187.653	16.932
191.028	15.7481
194.403	15.1004
197.777	13.6509
201.152	9.00655
204.527	8.78222
207.902	5.53114
211.277	1.16827
214.651	0.121819
218.026	0.418571
221.401	0.810768
224.776	1.14895
228.151	0.748283
231.525	0.665031
234.9	0.287895
238.275	1.85483
241.65	4.18964
245.025	6.68389
248.4	7.82387
251.774	10.0662
255.149	16.2669
258.524	23.464
261.899	32.7003
265.274	46.0525
268.649	62.8287
272.023	76.8047
275.398	69.3677
278.773	46.2618
282.148	39.4233
285.523	42.8755
288.897	39.6157
292.272	38.7556
295.647	33.5748
299.022	25.8408
302.397	14.2521
305.772	4.62442
309.146	1.34299
312.521	2.24087
315.896	1.34817
319.271	11.9099
322.646	24.1561
326.02	30.6187
329.395	33.3338
332.77	32.1768
336.145	30.808
339.52	47.8342
342.894	78.7469
346.269	123.216
349.644	171.698
353.019	201.168
356.394	222.042
359.769	231.682
363.143	198.407
366.518	142.344
369.893	94.9561
373.268	67.0734
376.643	51.5613
380.017	39.2032
383.392	27.4346
386.767	17.9155
390.142	12.5505
393.517	7.83077
396.892	4.32124
400.266	1.40793
403.641	1.50908
407.016	1.66603
410.391	4.51816
413.766	14.5729
417.14	29.5447
420.515	49.2445
423.89	50.797
427.265	34.6668
430.64	21.047
434.014	14.6777
437.389	15.4144
440.764	16.6162
444.139	18.0299
447.514	17.4258
450.889	19.6205
454.263	19.9828
457.638	17.5929
461.013	15.6908
464.388	17.247
467.763	21.2248
471.137	18.7032
474.512	13.7235
477.887	7.61565
481.262	3.15707
484.637	1.62424
488.012	0.685272
491.386	0.086853
494.761	0.010399
498.136	0.228546
501.511	0.063972
504.886	1.15993
508.26	1.8389
511.635	2.12301
515.01	0.705124
518.385	0.796455
521.76	1.42537
525.135	1.84421
528.509	3.38967
531.884	1.04217
535.259	0.106682
538.634	1.00248
542.009	2.27076
545.384	3.19624
548.758	4.36922
552.133	4.20268
555.508	5.85709
558.883	7.01934
562.258	9.27043
565.632	10.9692
569.007	13.9426
572.382	15.9586
575.757	17.7604
579.132	19.1412
582.506	20.347
585.881	19.3482
589.256	18.8712
592.631	16.4618
596.006	16.3322
599.381	16.5435
602.755	17.3338
606.13	18.9835
609.505	19.13
612.88	19.4149
616.255	21.5814
619.63	21.5222
623.004	20.5731
626.379	21.1698
629.754	21.7262
633.129	20.87
636.504	19.2567
639.878	18.6946
643.253	15.867
646.628	13.3986
650.003	12.6631
653.378	11.0889
656.752	10.7511
660.127	10.4968
663.502	10.377
666.877	10.7924
670.252	10.9269
673.626	10.9364
677.001	10.1619
680.376	11.1022
683.751	9.07124
687.126	7.62669
690.501	7.30803
693.875	6.64651
697.25	6.54494
700.625	5.75938
704	6.23184
707.375	5.68546
710.75	3.4912
714.124	1.94015
717.499	1.63119
720.874	0.441002
724.249	0.008255
727.624	0.273651
730.998	1.30371
734.373	0.452011
737.748	1.57988
741.123	0.512573
744.498	0.771927
747.872	1.2892
751.247	2.78419
754.622	5.44977
757.997	6.8091
761.372	6.14227
764.747	2.30127
768.121	20.5016
771.496	59.4072
774.871	128.525
778.246	201.812
781.621	190.315
784.995	134.686
788.37	97.2349
791.745	88.0731
795.12	101.67
798.495	147.83
801.87	221.779
805.244	335.018
808.619	446.999
811.994	525.922
815.369	614.557
818.744	791.062
822.119	1169.98
825.493	1811.8
828.868	2202.76
832.243	1798.88
835.618	1322.01
838.993	961.246
842.367	678.101
845.742	487.251
849.117	376.76
852.492	336.607
855.867	350.02
859.241	340.668
862.616	228.587
865.991	133.702
869.366	90.6972
872.741	79.4332
876.115	89.4261
879.49	106.137
882.865	114.95
886.24	93.5717
889.615	57.1026
892.99	28.4114
896.364	13.5348
899.739	4.6639
903.114	0.412766
906.489	1.79256
909.864	2.60587
913.239	2.85368
916.613	3.81874
919.988	2.90149
923.363	1.91808
926.738	0.737236
930.113	0.707001
933.487	0.187897
936.862	0.540878
940.237	1.91457
943.612	4.2525
946.987	7.06236
950.361	11.7209
953.736	8.24872
957.111	10.0692
960.486	11.2934
963.861	12.009
967.236	12.9657
970.61	13.9938
973.985	14.7834
977.36	14.4476
980.735	13.9511
984.11	14.8651
987.485	15.3938
990.859	15.6176
994.234	14.7877
997.609	15.5204
1000.98	16.0255
1004.36	16.3555
1007.73	16.6358
1011.11	16.0164
1014.48	13.9172
1017.86	12.6293
1021.23	10.5991
1024.61	8.28332
1027.98	8.11371
1031.36	8.04546
1034.73	5.90189
1038.11	5.0708
1041.48	4.60233
1044.86	3.95888
1048.23	3.94753
1051.61	3.73676
1054.98	3.37416
1058.36	3.04047
1061.73	2.11456
1065.11	2.3924
1068.48	5.23875
1071.86	2.97234
1075.23	1.08108
1078.6	1.24394
1081.98	1.54862
1085.35	0.765724
1088.73	0.914825
1092.1	0.354744
1095.48	0.473686
1098.85	0.604279
1102.23	1.01384
1105.6	0.290504
1108.98	0.711006
1112.35	1.08149
1115.73	0.372192
1119.1	0.473396
1122.48	0.456947
1125.85	0.10923
1129.23	0.982582
1132.6	0.252434
1135.98	0.196075
1139.35	0.208031
1142.73	0.747383
1146.1	1.12856
1149.48	0.4375
1152.85	0.673019
1156.22	0.419693
1159.6	0.242638
1162.97	0.322395
1166.35	0.514496
1169.72	0.527138
1173.1	1.15153
1176.47	1.1884
1179.85	0.780037
1183.22	1.01165
1186.6	1.32106
1189.97	0.839859
1193.35	1.03973
1196.72	1.48732
1200.1	0.825836
1203.47	0.762794
1206.85	0.440773
1210.22	0.927574
1213.6	0.920578
1216.97	0.304199
1220.35	1.03603
1223.72	0.997559
1227.1	1.35894
1230.47	0.855133
1233.85	0.004028
1237.22	0.299828
1240.6	1.33273
1243.97	0.595619
1247.35	0.745827
1250.72	1.55133
1254.1	1.28413
1257.47	1.43271
1260.85	0.433029
1264.22	0.111214
1267.59	0.493698
1270.97	1.02316
1274.34	1.00432
1277.72	0.936958
1281.09	0.718552
1284.47	0.384048
1287.84	0.863464
1291.22	1.09091
1294.59	0.781235
1297.97	0.841232
1301.34	0.552895
