Measurement: Raman, 532 nm, unoriented, Raman Data Processed
Mineral: Allanpringite
Rruff sample: R080147
Ideal chemistry: Fe^3+^_3_(PO_4_)_2_(OH)_3_5H_2_O
Locality: Mark mine, Essershausen, Weilburg, Wetzlar, Hesse, Germany
Source: Steffan Jahn
Description: Bundles of acicular yellow crystals on matrix.
Raman shift (cm-1)	intensity
117.524	0
120.899	3.34097
124.274	42.6767
127.649	86.1879
131.024	133.756
134.398	122.832
137.773	149.118
141.148	199.118
144.523	255.977
147.898	350.585
151.272	461.067
154.647	602.748
158.022	687.14
161.397	694.369
164.772	654.817
168.147	594.129
171.521	521.049
174.896	446.208
178.271	359.041
181.646	286.66
185.021	269.834
188.395	293.53
191.77	348.858
195.145	409.355
198.52	466.007
201.895	502.703
205.269	528.821
208.644	520.649
212.019	508.322
215.394	536.383
218.769	586.668
222.143	611.365
225.518	526.404
228.893	369.14
232.268	201.322
235.643	86.9597
239.018	17.9865
242.392	10.9586
245.767	27.0488
249.142	23.3956
252.517	9.74849
255.892	33.6357
259.267	84.7262
262.641	146.105
266.016	275.896
269.391	436.813
272.766	645.128
276.141	905.734
279.515	1189.43
282.89	1461.19
286.265	1664.28
289.64	1696.38
293.015	1534.79
296.389	1230.32
299.764	930.523
303.139	658.614
306.514	442.562
309.889	271.724
313.264	157.799
316.638	76.7474
320.013	16.9556
323.388	10.0819
326.763	10.171
330.138	5.07007
333.512	15.5453
336.887	39.5301
340.262	82.317
343.637	125.357
347.012	174.713
350.387	239.687
353.761	287.987
357.136	312.696
360.511	337.422
363.886	317.386
367.261	265.249
370.635	197.751
374.01	128.528
377.385	95.5176
380.76	84.5125
384.135	108.841
387.51	128.914
390.884	174.717
394.259	222.403
397.634	261.606
401.009	285.098
404.384	310.432
407.759	314.497
411.133	317.672
414.508	302.975
417.883	265.124
421.258	223.453
424.632	160.879
428.007	97.4982
431.382	51.1547
434.757	14.7437
438.132	8.1427
441.507	20.764
444.881	10.5354
448.256	3.97504
451.631	13.5505
455.006	53.6465
458.381	93.1131
461.755	146.28
465.13	193.369
468.505	223.445
471.88	248.812
475.255	271.454
478.63	293.401
482.004	326.957
485.379	367.197
488.754	398.347
492.129	417.456
495.504	403.692
498.878	363.012
502.253	301.927
505.628	239.063
509.003	180.715
512.378	131.584
515.753	100.708
519.127	69.4636
522.502	47.2186
525.877	28.5348
529.252	15.1752
532.627	1.49542
536.001	0.151123
539.376	12.8145
542.751	28.4825
546.126	39.113
549.501	59.0549
552.876	62.6906
556.25	77.4958
559.625	69.2606
563	61.2818
566.375	61.6879
569.75	70.9853
573.125	86.9112
576.499	128.474
579.874	168.237
583.249	224.915
586.624	266.262
589.999	301.786
593.373	307.911
596.748	319.597
600.123	329.321
603.498	321.312
606.873	317.665
610.247	292.87
613.622	254.267
616.997	211.329
620.372	157.182
623.747	114.105
627.121	72.6088
630.496	55.4116
633.871	31.8903
637.246	20.7256
640.621	9.09625
643.996	6.34882
647.37	4.45889
650.745	3.16632
654.12	4.19611
657.495	2.67926
660.87	2.24362
664.245	5.5434
667.619	0.989716
670.994	5.97971
674.369	6.19739
677.744	7.84375
681.119	10.1702
684.493	12.8773
687.868	21.0526
691.243	17.99
694.618	23.303
697.993	36.1912
701.367	27.9874
704.742	32.8224
708.117	29.2304
711.492	29.4744
714.867	20.3706
718.242	22.6384
721.616	18.5161
724.991	16.4295
728.366	13.3599
731.741	11.7335
735.116	9.67682
738.49	7.84381
741.865	10.5589
745.24	8.99078
748.615	9.9592
751.99	7.90591
755.365	1.33862
758.739	4.07163
762.114	4.7684
765.489	4.40396
768.864	1.90186
772.239	2.02283
775.614	4.82318
778.988	4.88849
782.363	3.10236
785.738	4.02533
789.113	0.63266
792.487	4.86389
795.862	8.32217
799.237	2.35165
802.612	0.46814
805.987	8.00497
809.362	4.53735
812.736	1.99039
816.111	2.01309
819.486	6.98181
822.861	8.63602
826.236	5.29294
829.611	4.27545
832.985	7.52567
836.36	13.6898
839.735	13.8327
843.11	9.84897
846.485	15.2602
849.859	17.323
853.234	19.2814
856.609	20.3377
859.984	21.1149
863.359	25.5978
866.734	22.8092
870.108	24.0552
873.483	29.0853
876.858	37.2251
880.233	32.8689
883.608	43.908
886.982	47.7712
890.357	53.1558
893.732	51.5817
897.107	54.5382
900.482	50.171
903.856	44.0376
907.231	41.8665
910.606	38.6496
913.981	33.8839
917.356	24.0185
920.731	21.7367
924.105	13.8146
927.48	5.63782
930.855	0.59613
934.23	7.51404
937.605	9.1405
940.98	16.8158
944.354	12.2615
947.729	17.1795
951.104	14.6927
954.479	0.871277
957.854	4.05316
961.228	31.1726
964.603	50.9449
967.978	92.86
971.353	149.202
974.728	241.209
978.102	362.722
981.477	501.171
984.852	623.225
988.227	686.097
991.602	665.172
994.977	628.379
998.351	620.683
1001.73	682.584
1005.1	755.697
1008.48	802.973
1011.85	748.614
1015.23	631.066
1018.6	541.039
1021.98	463.469
1025.35	398.264
1028.72	344.32
1032.1	314.627
1035.47	345.839
1038.85	408.124
1042.22	488.526
1045.6	558.77
1048.97	600.867
1052.35	644.954
1055.72	654.326
1059.1	654.07
1062.47	629.666
1065.85	580.253
1069.22	496.733
1072.6	395.836
1075.97	305.671
1079.35	235.262
1082.72	179.815
1086.1	147.65
1089.47	129.373
1092.85	119.663
1096.22	123.992
1099.6	129.552
1102.97	123.53
1106.35	102.717
1109.72	74.6315
1113.1	45.1698
1116.47	20.7242
1119.85	5.08862
1123.22	4.41144
1126.59	12.5075
1129.97	12.545
1133.34	17.2366
1136.72	11.6291
1140.09	7.35126
1143.47	5.85818
1146.84	0.378143
1150.22	11.305
1153.59	9.07764
1156.97	18.712
1160.34	25.8084
1163.72	30.6973
1167.09	32.9934
1170.47	37.2617
1173.84	34.8828
1177.22	47.1084
1180.59	55.1968
1183.97	46.2521
1187.34	48.3285
1190.72	43.4126
1194.09	44.7269
1197.47	37.526
1200.84	40.5977
1204.21	35.2873
1207.59	34.5466
1210.96	31.5782
1214.34	27.2365
1217.71	31.9994
1221.09	33.7766
1224.46	30.1791
1227.84	27.6871
1231.21	23.62
1234.59	26.2894
1237.96	21.4801
1241.34	28.7001
1244.71	22.6713
1248.09	18.738
1251.46	20.5707
1254.84	20.9392
1258.21	14.1762
1261.59	10.9242
1264.96	6.49521
1268.34	11.0865
1271.71	12.5849
1275.09	13.5943
1278.46	4.25452
1281.84	2.76392
1285.21	11.4885
1288.59	14.5505
1291.96	10.1826
1295.34	3.94424
1298.71	2.2222
1302.09	0.002228
