Measurement: Raman, 532 nm, unoriented, Raman Data Processed
Mineral: Allactite
Rruff sample: R070175
Ideal chemistry: Mn^2+^_7_(As^5+^O_4_)_2_(OH)_8_
Locality: Langban, Filipstad, Varmland, Sweden
Source: Michael Scott
Description: Brownish red vitreous massive
Measured chemistry: cryptic zoned from: (Mn_6.85_Mg_0.10_Ca_0.05_)_Σ=7_(As_1.00_O_4_)_2_(OH)_8_ to (Mn_6.75_Mg_0.19_Ca_0.16_)_Σ=7_(As_1.00_O_4_)_2_(OH)_8_
Raman shift (cm-1)	intensity
103.898	0
107.273	29.0379
110.648	3.09212
114.023	2.1374
117.398	24.9218
120.772	93.9263
124.147	227.959
127.522	431.212
130.897	551.772
134.272	724.889
137.647	1028
141.021	1576.78
144.396	2016.48
147.771	1718.41
151.146	2100.31
154.521	2855.42
157.895	3257.8
161.27	2074.21
164.645	1104.1
168.02	767.492
171.395	645.878
174.769	606.906
178.144	621.95
181.519	574.021
184.894	573.678
188.269	573.489
191.644	587.365
195.018	583.505
198.393	418.453
201.768	274.492
205.143	220.418
208.518	181.05
211.893	98.6656
215.267	41.1211
218.642	0.969727
222.017	6.84595
225.392	40.2513
228.767	11.1246
232.141	16.0037
235.516	43.5131
238.891	32.5857
242.266	120.405
245.641	137.479
249.015	153.169
252.39	241.514
255.765	389.565
259.14	565.695
262.515	741.731
265.889	978.786
269.264	1103.14
272.639	1044.65
276.014	777.603
279.389	679.882
282.764	821.229
286.138	945.674
289.513	988.225
292.888	1044.63
296.263	896.869
299.638	699.566
303.012	345.347
306.387	6.56079
309.762	59.8101
313.137	19.2703
316.512	293.665
319.887	653.242
323.261	909.471
326.636	833.764
330.011	788.607
333.386	533.743
336.761	440.899
340.135	710.743
343.51	1361.63
346.885	2323.64
350.26	3299.9
353.635	4061.67
357.01	4542.27
360.384	4215
363.759	2896.07
367.134	1786.07
370.509	1202.32
373.884	887.02
377.258	744.591
380.633	559.468
384.008	368.074
387.383	280.177
390.758	241.874
394.132	235.057
397.507	108.714
400.882	8.59106
404.257	79.1426
407.632	29.5325
411.007	256.062
414.381	499.17
417.756	906.829
421.131	1166.05
424.506	1023.65
427.881	823.61
431.255	788.622
434.63	915.704
438.005	1034.95
441.38	1138.15
444.755	1291.64
448.13	1523.8
451.504	1619.68
454.879	1509.15
458.254	1202.34
461.629	1089.61
465.003	1138.09
468.378	1098.01
471.753	865.322
475.128	517.966
478.503	315.163
481.878	142.98
485.252	37.0604
488.627	17.1262
492.002	3.52917
495.377	19.5034
498.752	15.0627
502.127	5.03198
505.501	27.8511
508.876	13.2778
512.251	0.176025
515.626	6.13208
519	97.2755
522.375	0.156494
525.75	44.8514
529.125	18.7772
532.5	35.6718
535.875	60.2006
539.249	67.5669
542.624	67.8251
545.999	71.7602
549.374	71.4364
552.749	57.8241
556.124	47.4554
559.498	40.9486
562.873	42.9725
566.248	26.7885
569.623	20.7532
572.998	28.6787
576.372	37.318
579.747	15.3992
583.122	57.9418
586.497	32.0808
589.872	45.3865
593.246	79.1492
596.621	62.6757
599.996	82.0704
603.371	83.915
606.746	124.164
610.12	132.245
613.495	123.073
616.87	161.996
620.245	215.748
623.62	211.283
626.995	223.96
630.369	250.028
633.744	271.443
637.119	267.582
640.494	219.536
643.869	208.617
647.244	202.874
650.618	183.088
653.993	170.199
657.368	165.435
660.743	166.603
664.117	200.129
667.492	179.515
670.867	172.526
674.242	158.657
677.617	138.532
680.992	117.159
684.366	101.52
687.741	81.1486
691.116	55.5627
694.491	31.8524
697.866	45.084
701.24	107.311
704.615	92.2665
707.99	106.26
711.365	71.9258
714.74	40.4913
718.115	27.1396
721.489	18.9211
724.864	38.046
728.239	9.94141
731.614	71.0712
734.989	129.246
738.363	140.807
741.738	167.946
745.113	153.894
748.488	88.4697
751.863	55.2402
755.237	184.383
758.612	263.995
761.987	183.995
765.362	178.872
768.737	1014.93
772.112	2403.18
775.486	4226.96
778.861	4881.04
782.236	3165.47
785.611	1595.42
788.986	930.448
792.361	782.103
795.735	1161.93
799.11	2127.93
802.485	3704.17
805.86	5587.24
809.235	7185.21
812.609	8639.9
815.984	12481.2
819.359	19934.9
822.734	31365.2
826.109	43615.8
829.483	41631.1
832.858	29411.9
836.233	21005.7
839.608	14741.6
842.983	10475.1
846.357	8698.06
849.732	9089.76
853.107	11431.3
856.482	14540.6
859.857	14115.7
863.231	7863.76
866.606	3940.32
869.981	2672.58
873.356	2613.99
876.731	3234.01
880.106	4045.35
883.48	4153.44
886.855	2990.41
890.23	1608.44
893.605	754.38
896.98	295.196
900.355	130.292
903.729	63.4131
907.104	19.4273
910.479	6.63965
913.854	8.55615
917.229	68.1389
920.603	30.2847
923.978	101.668
927.353	75.8637
930.728	64.1013
934.103	71.9756
937.477	0.925415
940.852	21.095
944.227	63.7299
947.602	117.673
950.977	156.316
954.351	159.085
957.726	220.365
961.101	255.725
964.476	312.73
967.851	320.499
971.226	354.035
974.6	417.132
977.975	409.781
981.35	438.37
984.725	436.794
988.1	459.438
991.475	411.503
994.849	435.535
998.224	421.617
1001.6	468.152
1004.97	476.672
1008.35	471.888
1011.72	442.489
1015.1	397.145
1018.47	372.722
1021.85	303.98
1025.22	280.697
1028.6	222.886
1031.97	216.866
1035.35	158.846
1038.72	170.015
1042.1	149.463
1045.47	136.195
1048.85	131.624
1052.22	134.991
1055.6	91.4128
1058.97	67.0786
1062.35	81.1294
1065.72	89.4542
1069.1	97.218
1072.47	77.5808
1075.85	75.901
1079.22	31.7357
1082.59	46.1249
1085.97	50.4257
1089.34	53.1357
1092.72	3.55664
1096.09	36.3613
1099.47	36.42
1102.84	30.1564
1106.22	28.7382
1109.59	14.0035
1112.97	11.4122
1116.34	18.8766
1119.72	19.0945
1123.09	4.97339
1126.47	15.6905
1129.84	19.4661
1133.22	11.7268
1136.59	0.657471
1139.97	9.81384
1143.34	13.1105
1146.72	16.509
1150.09	0.875366
1153.47	11.0158
1156.84	7.73889
1160.21	9.64587
1163.59	14.756
1166.96	10.4622
1170.34	10.82
1173.71	29.401
1177.09	4.54333
1180.46	41.3701
1183.84	12.7007
1187.21	23.6946
1190.59	37.2379
1193.96	19.7935
1197.34	6.229
1200.71	24.8481
1204.09	7.36707
1207.46	27.7383
1210.84	24.8729
1214.21	13.1396
1217.59	20.4778
1220.96	18.6063
1224.34	2.20874
1227.71	28.6466
1231.09	0.979736
1234.46	18.0095
1237.84	10.8223
1241.21	9.20984
1244.59	4.26843
1247.96	2.5199
1251.34	18.3766
1254.71	34.3058
1258.09	19.3535
1261.46	23.8456
1264.83	28.5189
1268.21	19.0879
1271.58	18.2411
1274.96	21.4302
1278.33	13.6709
1281.71	38.496
1285.08	26.5942
1288.46	18.7656
1291.83	13.3876
1295.21	23.5797
1298.58	27.334
1301.96	6.68909
1305.33	14.2886
1308.71	16.4489
1312.08	1.32849
