Measurement: Raman, 532 nm, unoriented, Raman Data Processed
Mineral: Allanite-(Ce)
Rruff sample: R080092
Ideal chemistry: CaCeAl_2_Fe^2+^(Si_2_O_7_)(SiO_4_)O(OH)
Locality: Arendal, Norway
Source: University of Arizona Mineral Museum
Description: Dark brown fragment from metamict sample R050043, after heating at T = 1000 C for 18 hours
Raman shift (cm-1)	intensity
157.439	0
160.332	0.447853
163.225	1.79663
166.117	0.665421
169.01	1.31613
171.903	2.99636
174.796	0.956161
177.688	0.386925
180.581	1.00077
183.474	0.825485
186.366	0.124771
189.259	0.170815
192.152	0.322891
195.044	3.22561
197.937	5.17269
200.83	10.0212
203.722	17.3971
206.615	26.3843
209.508	37.3991
212.401	49.9203
215.293	64.398
218.186	86.0121
221.079	101.33
223.971	107.1
226.864	91.4731
229.757	67.1041
232.649	47.6869
235.542	35.9363
238.435	29.9733
241.328	25.4249
244.22	23.1443
247.113	19.2221
250.006	15.5475
252.898	14.3392
255.791	16.0565
258.684	18.7611
261.577	24.17
264.469	30.2015
267.362	40.2543
270.255	53.8175
273.147	67.5979
276.04	81.5171
278.933	99.6381
281.825	115.701
284.718	132.19
287.611	140.145
290.503	138.19
293.396	125.653
296.289	108.113
299.182	87.5394
302.074	68.7387
304.967	52.73
307.86	40.2606
310.752	27.4531
313.645	19.9197
316.538	13.5294
319.43	9.87131
322.323	6.244
325.216	4.1413
328.109	2.84525
331.001	1.10413
333.894	0.270851
336.787	0.151962
339.679	1.42304
342.572	1.26846
345.465	1.34508
348.358	1.11835
351.25	1.10568
354.143	0.500336
357.036	1.55072
359.928	1.36476
362.821	2.69095
365.714	5.21136
368.606	7.76888
371.499	10.0156
374.392	12.9663
377.284	16.1048
380.177	22.5614
383.07	25.9053
385.963	32.4886
388.855	38.794
391.748	46.5916
394.641	54.5611
397.533	61.506
400.426	66.6316
403.319	68.6024
406.212	64.4162
409.104	55.7046
411.997	44.4897
414.89	37.0998
417.782	28.3067
420.675	21.7924
423.568	17.025
426.46	11.4092
429.353	8.24884
432.246	4.92718
435.139	3.90372
438.031	2.86498
440.924	1.96882
443.817	2.77819
446.709	2.36281
449.602	2.07222
452.495	3.73711
455.387	3.27504
458.28	3.55592
461.173	2.97115
464.065	2.34429
466.958	2.14479
469.851	1.62915
472.744	2.14963
475.636	3.60606
478.529	5.03292
481.422	8.22002
484.314	10.7141
487.207	12.5624
490.1	14.6502
492.993	16.1462
495.885	16.9887
498.778	18.0842
501.671	17.7046
504.563	14.8411
507.456	12.5074
510.349	10.2424
513.241	7.60509
516.134	5.7066
519.027	4.26244
521.919	3.00851
524.812	1.89479
527.705	0.85009
530.598	0.366043
533.49	0.047585
536.383	0.333374
539.276	0.347488
542.168	0.357193
545.061	0.713287
547.954	0.690399
550.846	0.690994
553.739	0.666969
556.632	0.988258
559.525	0.992516
562.417	0.271751
565.31	0.081772
568.203	0.867767
571.095	2.37602
573.988	3.54794
576.881	5.76753
579.774	9.30939
582.666	12.2748
585.559	16.1937
588.452	21.2123
591.344	26.5327
594.237	30.3536
597.13	36.2198
600.022	39.7085
602.915	41.0503
605.808	40.8194
608.7	38.4306
611.593	35.2234
614.486	31.1207
617.379	28.6776
620.271	27.2853
623.164	26.6274
626.057	27.2701
628.949	28.6217
631.842	32.5271
634.735	35.3955
637.627	40.4913
640.52	44.3093
643.413	49.0273
646.306	52.3709
649.198	57.3047
652.091	58.9926
654.984	61.091
657.876	59.5956
660.769	58.3317
663.662	56.0562
666.554	51.6716
669.447	46.7971
672.34	41.3915
675.232	37.4677
678.125	32.6211
681.018	28.4876
683.911	24.0807
686.803	21.0196
689.696	17.3674
692.589	14.3866
695.481	12.1109
698.374	10.1475
701.267	7.86891
704.159	6.72588
707.052	4.81683
709.945	2.79385
712.838	2.94362
715.73	1.52666
718.623	0.443436
721.516	0.200569
724.408	0.1586
727.301	0.156593
730.194	0.401794
733.087	1.11135
735.979	0.961571
738.872	0.823639
741.765	0.660858
744.657	0.344551
747.55	0.304253
750.443	0.118156
753.335	0.30864
756.228	0.778152
759.121	0.938324
762.014	1.4741
764.906	1.68708
767.799	1.58599
770.692	2.24834
773.584	3.01218
776.477	2.85542
779.37	2.89291
782.263	3.4743
785.155	4.4686
788.048	4.03687
790.941	4.17321
793.833	4.4055
796.726	4.46918
799.619	4.141
802.511	4.43266
805.404	3.80749
808.297	4.37828
811.189	4.57908
814.082	3.82542
816.975	4.11414
819.868	4.46471
822.76	3.95032
825.653	3.63688
828.546	3.20115
831.438	3.74419
834.331	3.1441
837.224	3.0817
840.116	3.54666
843.009	3.15719
845.902	2.17882
848.795	1.69743
851.687	1.76523
854.58	2.34766
857.473	1.44522
860.365	2.0592
863.258	1.85038
866.151	1.01145
869.043	1.00069
871.936	1.20038
874.829	1.01308
877.722	0.862709
880.614	0.674896
883.507	1.41595
886.4	0.847023
889.292	0.54953
892.185	0.584984
895.078	0.864677
897.971	0.240425
900.863	0.19725
903.756	0.370056
906.649	0.077751
909.541	0.136314
912.434	0.772163
915.327	0.208672
918.219	0.190491
921.112	1.09172
924.005	0.668533
926.898	1.13713
929.79	1.58018
932.683	1.61854
935.576	1.28441
938.468	1.76763
941.361	0.857918
944.254	0.898064
947.146	1.15254
950.039	1.06956
952.932	0.141876
955.824	1.02479
958.717	0.339531
961.61	0.498383
964.503	0.464615
967.395	0.378929
970.288	0.021149
973.181	0.236092
976.073	0.205063
978.966	0.072662
981.859	0.001587
984.751	0.047066
987.644	0.111435
990.537	0.603828
993.43	0.282166
996.322	0.383308
999.215	0.430603
1002.11	0.899567
1005	1.148
1007.89	1.39764
1010.79	2.13503
1013.68	2.87326
1016.57	3.00036
1019.46	3.31911
1022.36	3.94907
1025.25	4.614
1028.14	4.85281
1031.04	5.71021
1033.93	6.10539
1036.82	6.92059
1039.71	6.45869
1042.61	6.63366
1045.5	6.23082
1048.39	6.34925
1051.28	6.63547
1054.18	6.46594
1057.07	6.40592
1059.96	6.26268
1062.85	6.31344
1065.75	6.05082
1068.64	5.90134
1071.53	5.52226
1074.42	5.32004
1077.32	4.73509
1080.21	5.05044
1083.1	5.48846
1086	4.47171
1088.89	3.9197
1091.78	3.28727
1094.67	3.22494
1097.57	3.04339
1100.46	3.44801
1103.35	2.42201
1106.24	2.70182
1109.14	2.08976
1112.03	1.34071
1114.92	0.969269
1117.82	1.15826
1120.71	0.970573
1123.6	1.18773
1126.49	0.020134
1129.39	1.10399
1132.28	0.586731
1135.17	0.590126
1138.07	0.495094
1140.96	0.15416
1143.85	0.701927
1146.74	0.218834
1149.63	0.041969
1152.53	0.081154
1155.42	0.116966
1158.31	0.015671
1161.21	0.50415
1164.1	0.424835
1166.99	1.57397
1169.88	1.67558
1172.78	2.00724
1175.67	2.4688
1178.56	2.25971
1181.45	2.04675
1184.35	3.04118
1187.24	3.95224
1190.13	3.68864
1193.03	3.15889
1195.92	2.41171
1198.81	2.47523
1201.7	3.34788
1204.6	2.19681
1207.49	2.78101
1210.38	1.96507
1213.28	1.68626
1216.17	1.89059
1219.06	1.45827
1221.95	1.4117
1224.85	0.818504
1227.74	0.595413
1230.63	0.59185
1233.52	0.033676
1236.42	0.38517
1239.31	0.290146
1242.2	0.174324
1245.09	0.087486
1247.99	0.177536
1250.88	0.581558
1253.77	1.32101
1256.66	1.8075
1259.56	2.88998
1262.45	3.42625
1265.34	3.50894
1268.24	3.98595
1271.13	4.77979
1274.02	4.25604
1276.91	3.63872
1279.81	3.76978
1282.7	3.01779
1285.59	3.38698
1288.48	2.80864
1291.38	2.91567
1294.27	2.12524
1297.16	1.8853
1300.06	2.44665
1302.95	0.127792
