Measurement: Raman, 532 nm, unoriented, Raman Data Processed
Mineral: Alleghanyite
Rruff sample: R060904
Ideal chemistry: Mn^2+^_5_(SiO_4_)_2_(OH)_2_
Locality: Near Bald Knob, Alleghany County, North Carolina, USA
Source: Michael Scott
Description: Pinkish-brown sub-rounded irregular grains
Measured chemistry: (Mn^2+^_4.91_Mg_0.09_)_Σ=5.00_(Si_1.00_O_4_)_2_((OH)_1.57_F_0.43_)_Σ=2_ ; OH not measured but estimated by difference and stoichiometry
Raman shift (cm-1)	intensity
125.862	0
129.237	43.2831
132.612	60.014
135.987	58.6972
139.361	137.406
142.736	60.1687
146.111	12.0316
149.486	57.3471
152.861	218.568
156.235	260.796
159.61	324.385
162.985	329.516
166.36	284.195
169.735	246.555
173.109	148.645
176.484	83.6814
179.859	65.1781
183.234	3.24823
186.609	21.4477
189.983	1.74231
193.358	23.9872
196.733	48.6497
200.108	33.6479
203.483	2.89252
206.858	8.39075
210.232	20.0325
213.607	7.72388
216.982	23.4248
220.357	26.605
223.732	40.9924
227.107	35.9777
230.481	27.884
233.856	50.313
237.231	53.5509
240.606	87.3264
243.981	143.759
247.355	195.286
250.73	269.166
254.105	323.468
257.48	328.409
260.855	376.245
264.229	380.73
267.604	370.404
270.979	327.566
274.354	284.967
277.729	255.481
281.103	248.476
284.478	218.276
287.853	196.996
291.228	232.717
294.603	243.762
297.978	260.482
301.352	314.288
304.727	307.304
308.102	318.291
311.477	264.715
314.852	212.21
318.226	125.483
321.601	73.8529
324.976	39.6163
328.351	49.1882
331.726	24.5437
335.101	28.1718
338.475	17.374
341.85	1.53656
345.225	15.6634
348.6	1.73486
351.975	6.90698
355.349	9.25403
358.724	7.6684
362.099	2.92822
365.474	9.24841
368.849	57.6356
372.224	80.4249
375.598	109.211
378.973	232.399
382.348	329.474
385.723	424.65
389.098	459.411
392.472	426.538
395.847	349.696
399.222	285.752
402.597	221.049
405.972	180.854
409.346	151.743
412.721	150.386
416.096	140.089
419.471	138.33
422.846	139.486
426.221	159.681
429.595	134.466
432.97	145.39
436.345	153.191
439.72	160.672
443.094	134.316
446.469	100.253
449.844	61.3029
453.219	66.6104
456.594	59.4391
459.969	36.2533
463.343	34.2467
466.718	23.2335
470.093	26.2737
473.468	6.73248
476.843	8.06805
480.217	16.6568
483.592	1.49127
486.967	6.75684
490.342	11.092
493.717	22.1377
497.092	41.3385
500.466	73.6148
503.841	109.191
507.216	199.83
510.591	272.226
513.966	287.838
517.341	229.72
520.715	133.631
524.09	124.053
527.465	124.913
530.84	169.865
534.215	194.084
537.589	236.195
540.964	302.103
544.339	233.331
547.714	134.39
551.089	125.831
554.463	130.684
557.838	173.634
561.213	194.746
564.588	226.821
567.963	182.013
571.337	135.685
574.712	96.5419
578.087	56.152
581.462	20.2749
584.837	4.64374
588.212	3.59345
591.586	9.30719
594.961	1.73114
598.336	20.5987
601.711	22.0983
605.086	43.2452
608.46	30.1425
611.835	55.7259
615.21	35.1807
618.585	5.54712
621.96	42.2922
625.335	19.2038
628.709	37.9597
632.084	14.7542
635.459	58.3574
638.834	110.73
642.209	130.552
645.583	146.978
648.958	127.94
652.333	142.683
655.708	102.798
659.083	73.5717
662.457	74.9943
665.832	64.8545
669.207	97.2994
672.582	93.3145
675.957	88.766
679.332	60.3512
682.706	107.116
686.081	82.8809
689.456	131.291
692.831	78.6115
696.206	51.0928
699.58	13.1008
702.955	24.0837
706.33	23.1644
709.705	31.9128
713.08	6.18213
716.455	19.3579
719.829	40.1381
723.204	78.7292
726.579	114.572
729.954	176.283
733.328	320.033
736.703	527.89
740.078	829.808
743.453	1084.19
746.828	1062.99
750.203	711.403
753.577	237.155
756.952	187.283
760.327	72.2003
763.702	58.4131
767.077	9.65564
770.452	4.96387
773.826	25.2834
777.201	8.79102
780.576	26.5319
783.951	18.5175
787.326	20.8344
790.7	55.2377
794.075	67.4401
797.45	200.789
800.825	351.111
804.2	507.089
807.574	939.167
810.949	1733.3
814.324	3196.81
817.699	5848.7
821.074	10628.4
824.448	16153.2
827.823	15066.8
831.198	9354.42
834.573	5628.66
837.948	3955.02
841.323	3305.13
844.697	2895.56
848.072	2244.1
851.447	1420.47
854.822	874.083
858.197	547.899
861.571	317.992
864.946	191.094
868.321	120.79
871.696	46.7144
875.071	34.5038
878.446	1.01062
881.82	4.48108
885.195	9.66309
888.57	58.6708
891.945	120.682
895.32	209
898.694	446.867
902.069	663.789
905.444	830.444
908.819	740.153
912.194	471.771
915.568	260.243
918.943	207.328
922.318	159.976
925.693	217.645
929.068	317.016
932.442	543.237
935.817	456.075
939.192	194.538
942.567	81.8401
945.942	7.5332
949.317	3.0802
952.691	5.66919
956.066	35.5247
959.441	34.3931
962.816	29.4336
966.191	5.89563
969.566	3.09851
972.94	42.093
976.315	53.4514
979.69	56.0338
983.065	47.3782
986.439	30.7653
989.814	69.2356
993.189	80.0211
996.564	87.2423
999.939	106.245
1003.31	106.874
1006.69	92.6814
1010.06	87.3064
1013.44	76.7435
1016.81	58.2734
1020.19	26.334
1023.56	37.0059
1026.94	38.8518
1030.31	12.7927
1033.69	25.6788
1037.06	24.5342
1040.44	12.7465
1043.81	33.7555
1047.19	12.6157
1050.56	19.0997
1053.94	22.4367
1057.31	49.3153
1060.68	1.25427
1064.06	10.7668
1067.43	32.0431
1070.81	25.5088
1074.18	17.0438
1077.56	26.0912
1080.93	65.246
1084.31	66.5196
1087.68	58.2339
1091.06	14.3175
1094.43	33.9028
1097.81	18.9402
1101.18	6.92212
1104.56	3.83972
1107.93	22.14
1111.31	5.82397
1114.68	35.6998
1118.06	24.347
1121.43	7.04346
1124.81	37.9164
1128.18	47.0505
1131.56	51.4214
1134.93	40.5317
1138.31	99.6726
1141.68	69.0338
1145.06	82.063
1148.43	64.5216
1151.81	89.3474
1155.18	76.1471
1158.56	92.7948
1161.93	70.0983
1165.31	52.721
1168.68	83.2353
1172.05	51.5348
1175.43	54.5147
1178.8	10.8535
1182.18	25.1471
1185.55	8.82849
1188.93	33.9592
1192.3	6.08936
1195.68	7.23547
1199.05	11.1999
1202.43	19.3276
1205.8	18.8364
1209.18	51.4979
1212.55	30.2761
1215.93	35.4476
1219.3	35.3378
1222.68	40.2992
1226.05	13.8513
1229.43	14.2214
1232.8	16.8248
1236.18	44.9175
1239.55	31.2277
1242.92	42.8508
1246.3	59.545
1249.67	59.306
1253.05	32.7483
1256.42	13.7717
1259.8	43.7936
1263.17	13.8301
1266.55	10.7909
1269.92	29.7784
1273.3	13.6516
1276.67	44.729
1280.05	22.7236
1283.42	40.582
1286.8	24.5781
1290.17	25.9067
1293.55	4.4939
