Measurement: Raman, 532 nm, unoriented, Raman Data Processed
Mineral: Alleghanyite
Rruff sample: R070378
Ideal chemistry: Mn^2+^_5_(SiO_4_)_2_(OH)_2_
Locality: Franklin, Sussex County, New Jersey, USA
Source: William W. Pinch
Description: Pinkish-brown massive, exposed by etching
Measured chemistry: (Mn^2+^_4.43_Mg_0.57_)_Î£=5_(Si_1.00_O_4_)_2_(OH)_2_; OH estimated by difference and charge balance
Raman shift (cm-1)	intensity
164.607	0
167.5	4.18579
170.393	41.6875
173.286	54.2881
176.178	76.8796
179.071	78.2971
181.964	27.9885
184.856	25.7344
187.749	51.4853
190.642	32.7444
193.535	29.3648
196.427	35.1895
199.32	35.4082
202.213	31.2749
205.105	60.8367
207.998	36.1621
210.891	9.53613
213.783	2.64429
216.676	9.62305
219.569	31.8706
222.462	18.031
225.354	9.77368
228.247	28.8745
231.14	6.5415
234.032	67.6548
236.925	46.0645
239.818	46.0327
242.71	53.1853
245.603	56.6377
248.496	56.7732
251.388	54.4038
254.281	56.8704
257.174	52.9795
260.067	80.6977
262.959	73.3052
265.852	58.2878
268.745	28.4851
271.637	64.1995
274.53	69.8516
277.423	39.1816
280.315	5.44092
283.208	38.1084
286.101	58.0774
288.994	55.0371
291.886	44.1523
294.779	82.0164
297.672	116.427
300.564	113.973
303.457	97.1128
306.35	119.474
309.243	100.101
312.135	67.9165
315.028	127.881
317.921	68.3884
320.813	16.9995
323.706	9.47144
326.599	6.5564
329.491	5.88013
332.384	7.64819
335.277	8.50854
338.17	14.4446
341.062	9.5581
343.955	12.4627
346.848	36.6968
349.74	42.6409
352.633	38.1418
355.526	39.3481
358.418	14.3093
361.311	0.328613
364.204	11.3694
367.097	47.2566
369.989	52.3918
372.882	59.0784
375.775	96.2771
378.667	129.136
381.56	138.579
384.453	132.165
387.346	166.211
390.238	176.941
393.131	116.717
396.024	81.2014
398.916	71.2874
401.809	67.0942
404.702	22.5142
407.594	72.8804
410.487	50.3674
413.38	47.887
416.272	55.3635
419.165	69.4158
422.058	81.0727
424.951	57.2922
427.843	72.6125
430.736	92.5408
433.629	58.8875
436.521	134.813
439.414	163.445
442.307	47.5164
445.2	35.8613
448.092	66.988
450.985	6.59692
453.878	38.4395
456.77	19.5227
459.663	46.0989
462.556	19.1045
465.448	49.0207
468.341	1.96118
471.234	0.395508
474.127	51.5413
477.019	21.926
479.912	13.4421
482.805	0.302002
485.697	6.60864
488.59	24.2822
491.483	28.8064
494.375	90.9048
497.268	72.2139
500.161	82.334
503.053	92.6621
505.946	101.672
508.839	116.745
511.732	156.2
514.624	76.7607
517.517	27.1731
520.41	34.2344
523.302	27.7656
526.195	2.0896
529.088	3.20068
531.981	20.8923
534.873	72.4275
537.766	66.4023
540.659	31.7341
543.551	57.4102
546.444	84.2856
549.337	113.906
552.229	86.4121
555.122	127.075
558.015	204.552
560.908	194.319
563.8	245.786
566.693	203.403
569.586	171.096
572.478	129.167
575.371	130.774
578.264	78.6929
581.156	7.35376
584.049	26.7754
586.942	60.7461
589.835	32.4109
592.727	40.2615
595.62	33.4453
598.513	46.7048
601.405	39.3501
604.298	58.2498
607.191	44.272
610.083	63.1897
612.976	31.759
615.869	24.4558
618.762	26.1946
621.654	12.6763
624.547	3.80273
627.44	7.79883
630.332	37.207
633.225	56.6304
636.118	61.4094
639.01	80.5271
641.903	103.29
644.796	115.95
647.689	84.7195
650.581	109.722
653.474	94.8987
656.367	108.008
659.259	80.9138
662.152	48.8415
665.045	66.657
667.938	19.9673
670.83	53.2681
673.723	84.8694
676.616	34.1321
679.508	29.1768
682.401	13.5557
685.294	0.581543
688.186	4.16064
691.079	7.0542
693.972	36.7312
696.865	2.01587
699.757	44.2161
702.65	47.969
705.543	40.5664
708.435	20.3899
711.328	5.17285
714.221	23.73
717.113	65.4368
720.006	68.7925
722.899	20.9158
725.792	24.5249
728.684	64.5388
731.577	20.6182
734.47	16.8206
737.362	1.02539
740.255	26.2703
743.148	3.12695
746.04	0.891113
748.933	51.168
751.826	4.93506
754.719	17.3594
757.611	27.6196
760.504	16.644
763.397	32.0259
766.289	30.4209
769.182	15.0435
772.075	24.4902
774.967	14
777.86	73.5352
780.753	57.563
783.646	47.9458
786.538	80.4448
789.431	90.7583
792.324	130.325
795.216	120.092
798.109	216.433
801.002	423.041
803.894	517.877
806.787	792.895
809.68	1312.07
812.573	2211.01
815.465	3510.53
818.358	5107.81
821.251	6514.06
824.143	7165.75
827.036	6045.74
829.929	4262.97
832.822	2937.45
835.714	2083.1
838.607	1604.47
841.5	1259.96
844.392	910.119
847.285	726.349
850.178	537.938
853.07	400.7
855.963	316.667
858.856	263.469
861.749	184.488
864.641	130.099
867.534	102.633
870.427	20.4477
873.319	15.7129
876.212	37.0752
879.105	10.7617
881.997	14.5771
884.89	26.4419
887.783	36.8931
890.676	58.3535
893.568	120.018
896.461	163.104
899.354	250.116
902.246	263.372
905.139	313.877
908.032	250.381
910.924	212.07
913.817	103.897
916.71	73.7217
919.602	124.052
922.495	148.078
925.388	184.082
928.281	352.728
931.173	415.97
934.066	438.693
936.959	327.002
939.851	161.918
942.744	65.7842
945.637	73.9082
948.529	21.0117
951.422	8.83887
954.315	31.5
957.208	54.8926
960.1	16.6997
962.993	38
965.886	42.9204
968.778	19.0029
971.671	24.0811
974.564	31.0801
977.457	9.03516
980.349	1.44141
983.242	3.24121
986.135	51.269
989.027	37.8013
991.92	21.0386
994.813	23.1484
997.705	86.9502
1000.6	37.9004
1003.49	64.3086
1006.38	71.0312
1009.28	102.596
1012.17	62.9141
1015.06	121.376
1017.95	68.3413
1020.85	42.3921
1023.74	90.1138
1026.63	79.1074
1029.53	85.1099
1032.42	92.3203
1035.31	18.6406
1038.2	52.5962
1041.1	66.2886
1043.99	3.39502
1046.88	36.0278
1049.77	18.7773
1052.67	52.2075
1055.56	77.1304
1058.45	41.9351
1061.35	12.6675
1064.24	21.2197
1067.13	7.59961
1070.02	9.17529
1072.92	80.4746
1075.81	9.96924
1078.7	36.7017
1081.59	20.4966
1084.49	43.1626
1087.38	72.9277
1090.27	84.001
1093.16	44.2666
1096.06	91.6714
1098.95	48.3852
1101.84	128.47
1104.73	123.239
1107.63	147.585
1110.52	123.508
1113.41	139.321
1116.31	8.88672
1119.2	104.95
1122.09	59.4087
1124.98	37.2295
1127.88	42.9194
1130.77	85.8555
1133.66	41.7202
1136.56	91.2954
1139.45	36.1714
1142.34	93.0181
1145.23	66.5161
1148.13	43.7954
1151.02	86.2104
1153.91	39.6621
1156.8	97.6543
1159.7	38.2764
1162.59	63.6216
1165.48	100.198
1168.38	59.2422
1171.27	46.8584
1174.16	67.3735
1177.05	5.6084
1179.95	2.48047
1182.84	23.6274
1185.73	39.3779
1188.62	30.3867
1191.52	54.0366
1194.41	21.398
1197.3	36.4097
1200.19	32.6982
1203.09	27.3267
1205.98	6.3833
1208.87	47.0132
1211.77	1.64404
1214.66	34.7437
1217.55	29.7856
1220.44	23.9038
1223.34	35.0293
1226.23	28.7261
1229.12	16.0894
1232.01	51.1489
1234.91	59.648
1237.8	90.187
1240.69	15.8262
1243.59	31.7251
1246.48	98.6221
1249.37	87.458
1252.26	61.5527
1255.16	36.5835
1258.05	69.0127
1260.94	120.189
1263.83	93.4023
1266.73	77.7935
1269.62	40.2637
1272.51	95.7334
1275.4	41.3232
1278.3	70.6382
1281.19	75.3408
1284.08	36.2393
1286.98	3.37744
1289.87	58.7315
