Measurement: Raman, 785 nm, unoriented, Raman Data Processed
Mineral: Alleghanyite
Rruff sample: R060904
Ideal chemistry: Mn^2+^_5_(SiO_4_)_2_(OH)_2_
Locality: Near Bald Knob, Alleghany County, North Carolina, USA
Source: Michael Scott
Description: Pinkish-brown sub-rounded irregular grains
Measured chemistry: (Mn^2+^_4.91_Mg_0.09_)_Σ=5.00_(Si_1.00_O_4_)_2_((OH)_1.57_F_0.43_)_Σ=2_ ; OH not measured but estimated by difference and stoichiometry
Raman shift (cm-1)	intensity
92.6004	0
95.9752	13.147
99.35	22.5905
102.725	57.2188
106.1	30.4105
109.475	33.6734
112.849	5.9516
116.224	20.524
119.599	8.67639
122.974	19.6705
126.349	110.327
129.723	345.987
133.098	634.659
136.473	620.946
139.848	423.917
143.223	406.009
146.597	610.724
149.972	980.998
153.347	1172.07
156.722	988.8
160.097	772.244
163.472	678.598
166.846	692.376
170.221	671.187
173.596	530.918
176.971	399.978
180.346	281.962
183.72	207.211
187.095	184.457
190.47	198.003
193.845	209.136
197.22	179.674
200.595	140.293
203.969	85.119
207.344	59.2561
210.719	17.7837
214.094	0.576233
217.469	7.56677
220.844	8.83221
224.218	19.1028
227.593	13.1409
230.968	8.52905
234.343	3.98682
237.718	9.06763
241.092	34.6309
244.467	89.8526
247.842	164.97
251.217	255.749
254.592	358.308
257.966	382.942
261.341	401.424
264.716	430.623
268.091	431.692
271.466	395.548
274.841	439.654
278.215	373.716
281.59	350.582
284.965	303.067
288.34	225.973
291.715	234.903
295.089	279.182
298.464	322.723
301.839	374.705
305.214	404.684
308.589	382.052
311.964	348.848
315.338	267.723
318.713	193.976
322.088	122.845
325.463	68.5856
328.838	59.0114
332.212	29.8124
335.587	34.8527
338.962	9.18799
342.337	12.1094
345.712	2.63983
349.087	13.6779
352.461	0.774353
355.836	0.096436
359.211	8.73889
362.586	10.5457
365.961	4.09363
369.335	14.8062
372.71	65.8079
376.085	102.806
379.46	185.644
382.835	314.067
386.209	389.01
389.584	450.295
392.959	426.173
396.334	341.897
399.709	273.112
403.084	214.523
406.458	194.879
409.833	165.17
413.208	176.931
416.583	223.573
419.958	260.881
423.332	293.112
426.707	329.893
430.082	377.864
433.457	394.456
436.832	389.787
440.207	376.05
443.581	326.934
446.956	253.273
450.331	203.362
453.706	176.241
457.081	110.89
460.455	87.1501
463.83	73.2321
467.205	35.2421
470.58	48.342
473.955	5.95831
477.33	1.27582
480.704	3.83868
484.079	10.7758
487.454	7.1131
490.829	24.4775
494.204	24.6425
497.579	38.3801
500.953	52.1201
504.328	57.217
507.703	115.35
511.078	164.244
514.453	162.035
517.827	133.491
521.202	56.9983
524.577	46.982
527.952	43.1406
531.327	43.0747
534.702	88.4666
538.076	132.639
541.451	198.971
544.826	176.186
548.201	120.679
551.576	91.691
554.95	122.222
558.325	189.665
561.7	277.681
565.075	305.445
568.45	235.333
571.824	170.798
575.199	96.4207
578.574	60.9427
581.949	33.354
585.324	40.029
588.698	10.0448
592.073	6.1221
595.448	1.42059
598.823	2.26047
602.198	3.30713
605.573	2.16489
608.947	10.3596
612.322	4.66263
615.697	16.9449
619.072	17.5648
622.447	16.1161
625.822	9.99506
629.196	31.1423
632.571	47.2203
635.946	92.9425
639.321	132.066
642.696	171.623
646.07	205.391
649.445	200.601
652.82	157.099
656.195	148.406
659.57	133.236
662.944	134.076
666.319	138.184
669.694	144.843
673.069	138.683
676.444	136.81
679.819	138.474
683.193	135.058
686.568	139.166
689.943	136.002
693.318	106.733
696.693	56.9277
700.067	29.1032
703.442	41.3881
706.817	28.4965
710.192	10.2286
713.567	1.86243
716.942	7.34055
720.316	4.89801
723.691	20.2837
727.066	44.4379
730.441	81.3777
733.816	206.863
737.191	383.313
740.565	689.349
743.94	1023.12
747.315	966.928
750.69	617.46
754.065	309.927
757.439	167.185
760.814	68.9103
764.189	27.9465
767.564	9.73145
770.939	1.65179
774.313	8.70252
777.688	1.39569
781.063	12.4988
784.438	21.5977
787.813	20.0867
791.188	50.0898
794.562	94.1448
797.937	170.767
801.312	241.092
804.687	452.798
808.062	778.536
811.437	1359.19
814.811	2409.63
818.186	4723.34
821.561	10321.8
824.936	17606.7
828.311	15796.5
831.685	10005.8
835.06	6471.92
838.435	5471.04
841.81	5538.18
845.185	5519.81
848.559	4303.1
851.934	2681.69
855.309	1531.52
858.684	942.171
862.059	601.528
865.434	368.118
868.808	258.85
872.183	139.625
875.558	77.3674
878.933	37.6552
882.308	20.7861
885.683	3.62085
889.057	12.5908
892.432	0.5224
895.807	52.1522
899.182	150.398
902.557	302.579
905.931	387.34
909.306	374.757
912.681	238.234
916.056	153.881
919.431	126.338
922.806	153.598
926.18	290.636
929.555	594.654
932.93	1034.1
936.305	781.27
939.68	293.549
943.054	125.452
946.429	43.7837
949.804	11.7264
953.179	15.3179
956.554	10.1873
959.928	13.5897
963.303	5.78372
966.678	1.58774
970.053	11.5184
973.428	2.47086
976.803	38.5474
980.177	24.8631
983.552	28.1645
986.927	28.3525
990.302	48.9613
993.677	41.449
997.052	69.7978
1000.43	91.5736
1003.8	79.543
1007.18	101.62
1010.55	80.861
1013.93	60.5391
1017.3	57.3692
1020.67	33.1378
1024.05	30.6613
1027.42	22.7676
1030.8	34.8348
1034.17	15.5029
1037.55	23.5694
1040.92	17.1977
1044.3	26.264
1047.67	34.8093
1051.05	19.6019
1054.42	7.53583
1057.8	15.0459
1061.17	9.65314
1064.55	21.241
1067.92	25.5557
1071.3	10.1154
1074.67	12.3806
1078.05	13.993
1081.42	13.5799
1084.8	5.87021
1088.17	10.0481
1091.55	15.3026
1094.92	13.0698
1098.3	0.824554
1101.67	12.2245
1105.05	8.97485
1108.42	38.6401
1111.8	30.6508
1115.17	28.2836
1118.55	32.6662
1121.92	19.0056
1125.3	28.3304
1128.67	37.8143
1132.04	46.5171
1135.42	63.3645
1138.79	42.9566
1142.17	51.5934
1145.54	55.4017
1148.92	59.0642
1152.29	65.3612
1155.67	67.9998
1159.04	62.2551
1162.42	56.9253
1165.79	35.856
1169.17	45.2685
1172.54	33.9247
1175.92	26.3094
1179.29	28.7151
1182.67	49.3821
1186.04	41.9061
1189.42	52.6732
1192.79	25.2057
1196.17	33.6054
1199.54	16.149
1202.91	16.3569
1206.29	3.48865
1209.66	9.3761
1213.04	13.4003
1216.41	3.30115
1219.79	43.3859
1223.16	38.873
1226.54	39.5194
1229.91	23.2366
1233.29	52.9617
1236.66	32.4117
1240.04	5.54828
1243.41	25.6406
1246.79	37.5313
1250.16	10.7089
1253.54	21.3817
1256.91	12.289
1260.29	8.83191
1263.66	12.4116
1267.04	17.2244
