Measurement: Raman, 785 nm, unoriented, Raman Data Processed
Mineral: Alleghanyite
Rruff sample: R070378
Ideal chemistry: Mn^2+^_5_(SiO_4_)_2_(OH)_2_
Locality: Franklin, Sussex County, New Jersey, USA
Source: William W. Pinch
Description: Pinkish-brown massive, exposed by etching
Measured chemistry: (Mn^2+^_4.43_Mg_0.57_)_Î£=5_(Si_1.00_O_4_)_2_(OH)_2_; OH estimated by difference and charge balance
Raman shift (cm-1)	intensity
148.018	0
150.911	73.5544
153.803	42.364
156.696	12.4758
159.589	58.1309
162.481	169.04
165.374	292.213
168.267	416.21
171.16	467.472
174.052	439.365
176.945	430.629
179.838	423.691
182.73	364.975
185.623	360.338
188.516	359.667
191.408	300.894
194.301	258.517
197.194	265.794
200.087	267.552
202.979	246.569
205.872	213.807
208.765	138.208
211.657	81.324
214.55	114.376
217.443	88.1856
220.335	75.3672
223.228	65.8689
226.121	84.2886
229.013	85.0007
231.906	75.6243
234.799	74.9819
237.692	80.8875
240.584	69.8599
243.477	63.0137
246.37	37.0369
249.262	48.2937
252.155	44.4307
255.048	24.6121
257.941	56.2571
260.833	61.8337
263.726	60.8579
266.619	16.852
269.511	15.4827
272.404	24.2827
275.297	24.0879
278.19	44.2275
281.082	5.78198
283.975	31.792
286.868	24.0869
289.76	12.3101
292.653	112.328
295.546	88.8542
298.438	136.895
301.331	193.728
304.224	203.235
307.116	263.318
310.009	261.133
312.902	200.295
315.795	188.67
318.687	112.605
321.58	116.732
324.473	54.3818
327.365	67.1084
330.258	91.0347
333.151	33.2773
336.043	65.4604
338.936	93.5801
341.829	80.02
344.721	108.25
347.614	148.382
350.507	229.127
353.4	185.273
356.292	270.349
359.185	249.088
362.078	178.883
364.97	193.529
367.863	113.675
370.756	122.978
373.649	214.819
376.541	180.362
379.434	216.261
382.327	263.187
385.219	259.328
388.112	269.401
391.005	283.786
393.897	253.906
396.79	210.708
399.683	169.666
402.575	68.8916
405.468	103.719
408.361	7.92627
411.254	52.4341
414.146	92.0781
417.039	45.6924
419.932	117.252
422.824	148.518
425.717	160.216
428.61	203.074
431.502	205.211
434.395	211.728
437.288	169.852
440.181	144.927
443.073	168.26
445.966	130.145
448.859	132.821
451.751	126.824
454.644	87.6377
457.537	68.6265
460.43	58.9431
463.322	40.2249
466.215	17.325
469.108	27.2895
472	42.9514
474.893	16.9551
477.786	38.98
480.678	27.5657
483.571	6.90283
486.464	47.9424
489.356	55.2097
492.249	62.6233
495.142	88.0017
498.035	117.79
500.927	128.277
503.82	192.123
506.713	222.467
509.605	191.249
512.498	194.719
515.391	193.084
518.284	79.146
521.176	51.7371
524.069	39.7122
526.962	31.822
529.854	33.9109
532.747	36.6577
535.64	51.8672
538.533	87.7361
541.425	147.623
544.318	122.755
547.211	131.229
550.103	120.044
552.996	185.497
555.889	242.447
558.781	314.086
561.674	392.149
564.567	509.47
567.459	472.579
570.352	452.233
573.245	349.391
576.138	229.915
579.03	185.614
581.923	208.731
584.816	138.57
587.708	86.2188
590.601	66.4085
593.494	39.6982
596.386	79.3242
599.279	66.9746
602.172	89.7097
605.064	59.5747
607.957	90.1816
610.85	25.1909
613.743	50.3477
616.635	17.678
619.528	10.7322
622.421	30.231
625.313	2.01611
628.206	0.902832
631.099	16.9929
633.991	74.4568
636.884	43.0847
639.777	110.102
642.67	162.321
645.562	158.697
648.455	229.306
651.348	183.065
654.24	139.126
657.133	103.332
660.026	98.8916
662.918	72.7083
665.811	38.7671
668.704	29.1838
671.597	19.8535
674.489	67.7581
677.382	55.769
680.275	27.1457
683.167	5.25269
686.06	4.32568
688.953	16.4678
691.846	12.3113
694.738	19.4739
697.631	41.896
700.524	75.3272
703.416	49.9216
706.309	27.6855
709.202	42.7551
712.094	8.82227
714.987	22.3787
717.88	62.3332
720.773	40.9043
723.665	60.2651
726.558	4.57519
729.451	27.9673
732.343	7.54468
735.236	55.7666
738.129	5.40332
741.021	34.7991
743.914	24.7678
746.807	4.42993
749.699	4.28149
752.592	5.36841
755.485	3.75366
758.378	21.2742
761.27	21.603
764.163	17.3916
767.056	10.1479
769.948	37.6299
772.841	53.458
775.734	23.072
778.626	11.8799
781.519	30.2092
784.412	46.3184
787.305	88.2481
790.197	96.0991
793.09	130.386
795.983	235.318
798.875	252.751
801.768	351.424
804.661	574.954
807.553	833.195
810.446	1384.61
813.339	2309.64
816.232	3810.75
819.124	5787.62
822.017	8419.93
824.91	10784.5
827.802	11020.8
830.695	8516.34
833.588	5781.35
836.481	4007.13
839.373	2889.09
842.266	2172.36
845.159	1686.72
848.051	1310.85
850.944	977.606
853.837	779.957
856.729	629.889
859.622	502.426
862.515	354.322
865.408	217.762
868.3	171.512
871.193	123.136
874.086	36.5642
876.978	87.8467
879.871	26.9748
882.764	25.8752
885.656	36.3623
888.549	1.68091
891.442	23.6545
894.335	43.3408
897.227	145.644
900.12	179.296
903.013	265.178
905.905	400.714
908.798	415.7
911.691	344.87
914.583	266.138
917.476	170.919
920.369	122.148
923.261	170.141
926.154	211.965
929.047	346.46
931.94	545.76
934.832	573.081
937.725	550.554
940.618	404.066
943.51	229.971
946.403	98.7649
949.296	55.7327
952.188	46.8096
955.081	56.7563
957.974	46.0964
960.867	19.178
963.759	64.386
966.652	38.5637
969.545	51.6277
972.437	27.9661
975.33	16.6235
978.223	12.7595
981.115	33.9783
984.008	12.6777
986.901	23.1081
989.794	77.8787
992.686	19.6916
995.579	45.042
998.472	49.5869
1001.36	76.0854
1004.26	99.8347
1007.15	78.0559
1010.04	102.689
1012.93	63.6487
1015.83	99.4563
1018.72	123.491
1021.61	60.6792
1024.51	85.3833
1027.4	94.7295
1030.29	89.9187
1033.18	55.312
1036.08	69.1963
1038.97	79.8269
1041.86	42.645
1044.76	30.0691
1047.65	4.43945
1050.54	28.71
1053.43	62.6538
1056.33	30.7566
1059.22	36.1392
1062.11	14.9346
1065	44.6938
1067.9	27.8154
1070.79	6.36621
1073.68	46.4067
1076.58	92.0361
1079.47	6.5625
1082.36	103.324
1085.25	92.9331
1088.14	85.2168
1091.04	104.38
1093.93	111.58
1096.82	89.8804
1099.72	129.207
1102.61	92.4907
1105.5	160.522
1108.39	187.188
1111.29	189.482
1114.18	169.477
1117.07	192.454
1119.96	187.954
1122.86	134.585
1125.75	48.9522
1128.64	96.1909
1131.54	7.1626
1134.43	38.4629
1137.32	18.977
1140.21	29.2764
1143.11	2.46289
1146	87.0083
1148.89	35.2256
1151.79	59.6426
1154.68	13.3667
1157.57	101.029
1160.46	117.729
1163.36	65.3852
1166.25	20.8589
1169.14	61.2022
1172.03	49.29
1174.93	84.8677
1177.82	57.0049
1180.71	93.5606
1183.6	44.1089
1186.5	9.92627
1189.39	40.5483
1192.28	57.9038
1195.17	44.3843
1198.07	68.2222
1200.96	107.668
1203.85	91.7744
1206.75	45.9795
1209.64	6.05908
1212.53	81.0435
1215.42	16.3389
1218.32	13.5967
1221.21	32.167
1224.1	16.4307
