Measurement: Raman, 780 nm, unoriented, Raman Data Processed
Mineral: Alloriite
Rruff sample: R070560
Ideal chemistry: (Na,K,Ca)_24_(Na,Ca)_4_Ca_4_(Si,Al)_48_O_96_(SO_4_)_4_(SO_3_,CO_3_)_2_(OH,Cl)_2_4(H_2_O,OH)
Locality: Monte Cavalluccio, near Campagnano di Roma, Rome, Latium, Italy
Source: Michael Scott
Description: Colorless prisms in vug
Raman shift (cm-1)	intensity
91.5332	0
94.4259	64.8982
97.3186	72.3666
100.211	31.953
103.104	6.92395
105.997	8.08582
108.889	7.18054
111.782	3.26965
114.675	4.61951
117.567	4.81995
120.46	2.02734
123.353	1.65002
126.246	3.26758
129.138	15.2109
132.031	22.4403
134.924	29.0239
137.816	54.3385
140.709	62.3594
143.602	63.512
146.494	40.144
149.387	23.2601
152.28	20.5366
155.173	20.7266
158.065	19.8909
160.958	21.3722
163.851	22.5153
166.743	30.2895
169.636	25.0962
172.529	28.4951
175.422	31.1867
178.314	29.7893
181.207	26.1902
184.1	20.7199
186.992	23.0167
189.885	12.9752
192.778	15.9641
195.67	2.28803
198.563	11.5729
201.456	2.09961
204.349	7.09772
207.241	6.10095
210.134	8.7525
213.027	2.07849
215.919	4.73346
218.812	3.9447
221.705	5.19421
224.597	3.61401
227.49	5.32031
230.383	3.17981
233.275	7.53485
236.168	11.2426
239.061	16.8668
241.954	12.9637
244.846	16.1704
247.739	11.7818
250.632	10.8219
253.524	8.35962
256.417	0.47229
259.31	1.63946
262.202	1.0918
265.095	0.139099
267.988	1.31384
270.881	2.09296
273.773	0.2948
276.666	6.68805
279.559	7.50476
282.451	13.3902
285.344	14.6461
288.237	22.7939
291.13	31.3175
294.022	32.2877
296.915	47.2915
299.808	52.2325
302.7	49.9682
305.593	56.9389
308.486	55.2618
311.378	56.2601
314.271	54.6428
317.164	59.6072
320.057	54.6144
322.949	60.7186
325.842	59.8133
328.735	51.8987
331.627	48.4098
334.52	43.2459
337.413	42.1702
340.305	39.1773
343.198	32.4016
346.091	34.4645
348.984	26.0482
351.876	21.1511
354.769	19.8712
357.662	16.5425
360.554	14.4358
363.447	12.8023
366.34	7.28192
369.233	7.92914
372.125	6.96783
375.018	6.72028
377.911	3.79358
380.803	2.26917
383.696	1.51288
386.589	0.281311
389.481	7.87653
392.374	7.37329
395.267	0.360718
398.159	2.76569
401.052	5.82373
403.945	0.160217
406.838	11.0048
409.73	10.4812
412.623	15.4067
415.516	22.1633
418.408	36.495
421.301	57.1153
424.194	72.4748
427.087	85.4302
429.979	86.7615
432.872	89.0919
435.765	84.7008
438.657	84.2177
441.55	97.3432
444.443	126.466
447.335	167.395
450.228	190.257
453.121	219.774
456.014	240.494
458.906	252.107
461.799	244.987
464.692	215.16
467.584	177.48
470.477	142.424
473.37	107.294
476.262	83.7928
479.155	66.7087
482.048	51.392
484.94	43.0919
487.833	36.3273
490.726	25.5856
493.619	18.6071
496.511	13.4072
499.404	8.56866
502.297	10.8369
505.189	9.05695
508.082	10.0832
510.975	6.68329
513.867	5.45087
516.76	10.9951
519.653	0.085938
522.545	0.227722
525.438	1.38196
528.331	2.09155
531.224	2.52161
534.116	1.95892
537.009	1.85187
539.902	1.97577
542.794	0.275391
545.687	0.763367
548.58	2.75324
551.472	1.27795
554.365	1.75983
557.258	1.90826
560.151	1.4552
563.043	3.34186
565.936	4.43512
568.829	0.306824
571.721	0.866821
574.614	9.69733
577.507	3.87976
580.399	9.0188
583.292	6.15918
586.185	7.77173
589.078	14.0305
591.97	12.9359
594.863	14.7016
597.756	23.8718
600.649	23.6644
603.541	36.0775
606.434	43.2562
609.327	57.1388
612.219	67.7536
615.112	73.6879
618.005	85.8934
620.897	94.5013
623.79	91.5582
626.683	77.6431
629.576	64.642
632.468	53.7191
635.361	48.9047
638.254	49.1644
641.146	51.2296
644.039	51.4108
646.932	45.5488
649.824	39.1256
652.717	29.9481
655.61	19.7333
658.503	16.9792
661.395	15.0842
664.288	15.9718
667.181	17.7462
670.073	17.3461
672.966	17.3575
675.859	14.0175
678.751	14.9676
681.644	8.28137
684.537	7.99439
687.429	6.41186
690.322	1.91156
693.215	2.22986
696.108	1.51446
699	1.99628
701.893	0.307251
704.786	1.49377
707.678	3.10278
710.571	4.2663
713.464	7.06348
716.356	6.36945
719.249	5.75092
722.142	5.41144
725.035	6.77881
727.927	4.42383
730.82	2.80627
733.713	2.46783
736.605	2.76361
739.498	2.91321
742.391	7.81616
745.284	3.77344
748.176	5.48944
751.069	8.02832
753.962	3.82318
756.854	7.34302
759.747	2.19501
762.64	3.3009
765.532	3.38013
768.425	0.157837
771.318	1.35095
774.211	5.00317
777.103	4.43189
779.996	0.247742
782.889	2.45715
785.781	2.06348
788.674	5.17041
791.567	2.03333
794.459	6.44183
797.352	1.17493
800.245	2.86469
803.138	2.68103
806.03	9.33343
808.923	3.16852
811.816	4.28189
814.708	3.75598
817.601	5.40018
820.494	5.25931
823.386	4.84579
826.279	7.87665
829.172	6.00098
832.064	3.51703
834.957	5.69525
837.85	5.89346
840.743	7.05954
843.635	4.81857
846.528	6.96905
849.421	5.50824
852.313	9.36468
855.206	5.6962
858.099	2.5878
860.991	8.13876
863.884	2.1777
866.777	3.7471
869.67	8.48422
872.562	7.55823
875.455	7.27365
878.348	1.99469
881.24	7.04834
884.133	6.01022
887.026	12.447
889.918	3.47494
892.811	1.16171
895.704	4.53986
898.597	5.453
901.489	3.86047
904.382	1.42935
907.275	6.70575
910.167	0.903076
913.06	0.7276
915.953	0.372498
918.846	3.22943
921.738	4.35815
924.631	4.78159
927.524	1.05804
930.416	3.11136
933.309	0.62619
936.202	2.40808
939.094	0.520294
941.987	0.256348
944.88	0.618866
947.773	1.06689
950.665	1.39038
953.558	1.46857
956.451	4.38046
959.343	6.95938
962.236	5.89316
965.129	12.3112
968.021	23.6752
970.914	45.0586
973.807	81.9877
976.699	137.307
979.592	211.857
982.485	297.794
985.378	375.865
988.27	454.846
991.163	539.421
994.056	585.526
996.948	487.474
999.841	341.291
1002.73	231.924
1005.63	139.107
1008.52	71.668
1011.41	33.6499
1014.3	21.2387
1017.2	11.0117
1020.09	8.41977
1022.98	6.03931
1025.88	5.62726
1028.77	12.5998
1031.66	12.5258
1034.55	20.3487
1037.45	30.9922
1040.34	42.2448
1043.23	43.6284
1046.12	42.2513
1049.02	39.9186
1051.91	29.0228
1054.8	24.478
1057.69	18.8363
1060.59	10.7343
1063.48	10.2135
1066.37	5.64169
1069.27	0.998413
1072.16	2.13535
1075.05	1.45099
1077.94	2.45346
1080.84	1.78095
1083.73	1.56451
1086.62	3.74756
1089.52	1.67895
1092.41	3.70758
1095.3	1.59222
1098.19	3.56555
1101.09	0.089294
1103.98	2.02722
1106.87	1.52264
1109.76	5.18842
1112.66	1.09558
1115.55	0.054688
1118.44	5.96069
1121.34	2.87506
1124.23	5.80426
1127.12	2.909
1130.01	3.84973
1132.9	4.09564
1135.8	1.75677
