Measurement: Raman, 532 nm, unoriented, Raman Data Processed
Mineral: Alloriite
Rruff sample: R070560
Ideal chemistry: (Na,K,Ca)_24_(Na,Ca)_4_Ca_4_(Si,Al)_48_O_96_(SO_4_)_4_(SO_3_,CO_3_)_2_(OH,Cl)_2_4(H_2_O,OH)
Locality: Monte Cavalluccio, near Campagnano di Roma, Rome, Latium, Italy
Source: Michael Scott
Description: Colorless prisms in vug
Raman shift (cm-1)	intensity
169.559	0
172.452	33.0779
175.345	33.3543
178.237	26.3613
181.13	16.2588
184.023	25.0439
186.916	33.8871
189.808	35.9943
192.701	46.7128
195.594	34.4429
198.486	15.3521
201.379	17.7485
204.272	13.1453
207.164	6.75122
210.057	2.41431
212.95	8.07141
215.843	0.576416
218.735	0.921997
221.628	3.9729
224.521	2.19171
227.413	7.11548
230.306	4.68774
233.199	17.5356
236.091	11.3325
238.984	21.9625
241.877	20.701
244.769	30.7916
247.662	31.2885
250.555	30.2885
253.448	32.7936
256.34	36.762
259.233	30.0081
262.126	15.2766
265.018	12.3893
267.911	11.106
270.804	3.24878
273.697	0.889893
276.589	0.920044
279.482	8.06165
282.375	9.12006
285.267	6.64172
288.16	18.6314
291.053	24.2248
293.945	10.2694
296.838	18.4617
299.731	26.709
302.623	18.891
305.516	20.9702
308.409	17.6648
311.302	20.3787
314.194	26.0718
317.087	37.2864
319.98	34.3415
322.872	48.4403
325.765	42.3745
328.658	41.375
331.55	37.5791
334.443	31.5657
337.336	28.2313
340.229	38.51
343.121	25.6532
346.014	18.3091
348.907	8.34338
351.799	5.86646
354.692	0.594238
357.585	7.55676
360.478	1.72327
363.37	1.06604
366.263	4.72388
369.156	8.64221
372.048	2.32153
374.941	3.51367
377.834	0.573711
380.726	6.93604
383.619	14.1036
386.512	22.5949
389.404	41.0745
392.297	38.4185
395.19	34.6195
398.083	29.8581
400.975	38.6755
403.868	44.6796
406.761	48.4131
409.653	61.0957
412.546	69.3406
415.439	84.8949
418.332	97.5842
421.224	125.314
424.117	160.034
427.01	174.677
429.902	179.303
432.795	186.631
435.688	175.096
438.58	179.157
441.473	206.116
444.366	237.133
447.259	311.703
450.151	373.857
453.044	425.739
455.937	474.896
458.829	508.784
461.722	488.374
464.615	453.604
467.507	380.163
470.4	299.784
473.293	228.215
476.185	184.051
479.078	144.259
481.971	112.987
484.864	92.9397
487.756	72.7656
490.649	57.0957
493.542	36.2705
496.434	21.0039
499.327	26.698
502.22	25.0125
505.113	20.1604
508.005	16.572
510.898	7.5376
513.791	12.8918
516.683	12.7275
519.576	9.21704
522.469	4.70654
525.361	3.44995
528.254	0.868175
531.147	4.63555
534.04	2.09326
536.932	2.72339
539.825	1.23291
542.718	7.97314
545.61	2.77588
548.503	6.021
551.396	12.7859
554.288	5.62134
557.181	0.594482
560.074	2.48413
562.967	4.78345
565.859	4.15015
568.752	5.56787
571.645	7.90771
574.537	14.1672
577.43	4.98633
580.323	9.34668
583.216	16.4014
586.108	25.9959
589.001	39.082
591.894	33.908
594.786	35.6668
597.679	34.0613
600.572	40.156
603.464	51.0488
606.357	76.4211
609.25	107.814
612.142	134.804
615.035	145.082
617.928	160.597
620.821	175.881
623.713	160.061
626.606	143.581
629.499	115.032
632.391	82.2632
635.284	77.9106
638.177	77.9844
641.069	72.9702
643.962	63.238
646.855	71.6663
649.747	53.2803
652.64	35.6187
655.533	23.4849
658.426	11.5762
661.318	14.8123
664.211	10.1165
667.104	6.40308
669.996	18.6091
672.889	21.1001
675.782	17.8611
678.674	9.97534
681.567	18.0347
684.46	5.82251
687.353	3.82593
690.245	1.32617
693.138	2.42041
696.031	1.83936
698.923	1.89356
701.816	6.95752
704.709	1.47559
707.601	4.875
710.494	28.2432
713.387	26.3215
716.28	25.1977
719.172	15.1479
722.065	13.3586
724.958	12.8757
727.85	15.688
730.743	18.4482
733.636	10.6509
736.529	8.25195
739.421	14.1428
742.314	5.71265
745.207	20.5278
748.099	7.19019
750.992	12.1421
753.885	3.47266
756.777	10.4421
759.67	2.61133
762.563	4.13696
765.456	8.31104
768.348	1.8147
771.241	2.86108
774.134	4.71484
777.026	7.35132
779.919	11.6074
782.812	7.38916
785.704	4.56738
788.597	1.00073
791.49	7.73144
794.383	9.51025
797.275	6.59839
800.168	2.08789
803.061	8.31885
805.953	1.89209
808.846	6.61572
811.739	0.682129
814.631	3.0022
817.524	6.30127
820.417	7.27905
823.309	0.926025
826.202	5.93091
829.095	3.27441
831.988	9.61792
834.88	10.9883
837.773	8.83813
840.666	9.57861
843.558	8.68433
846.451	14.177
849.344	10.2283
852.236	10.8474
855.129	6.27637
858.022	16.3955
860.915	14.7095
863.807	4.12085
866.7	8.02173
869.593	0.118652
872.485	3.8811
875.378	8.78662
878.271	13.7153
881.163	11.3852
884.056	12.1668
886.949	8.85034
889.842	22.5718
892.734	21.9705
895.627	19.9192
898.52	21.1299
901.412	20.0493
904.305	20.2361
907.198	16.4004
910.091	17.5383
912.983	7.33765
915.876	15.0139
918.769	20.5376
921.661	19.0684
924.554	16.0479
927.447	12.7744
930.339	4.11572
933.232	2.55957
936.125	4.07707
939.018	5.13818
941.91	2.14819
944.803	5.03809
947.696	1.67212
950.588	16.158
953.481	16.54
956.374	15.0124
959.266	17.8933
962.159	27.4971
965.052	37.9849
967.944	54.8962
970.837	106.11
973.73	196.139
976.623	334.152
979.515	526.643
982.408	728.657
985.301	936.984
988.193	1137.44
991.086	1347.3
993.979	1477.91
996.871	1328.19
999.764	966.008
1002.66	680.38
1005.55	418.477
1008.44	241.14
1011.34	135.453
1014.23	69.5332
1017.12	40.3076
1020.01	30.6887
1022.91	22.3315
1025.8	16.0371
1028.69	31.2842
1031.58	38.5122
1034.48	59.8315
1037.37	73.5986
1040.26	86.5322
1043.15	95.979
1046.05	111.29
1048.94	108.131
1051.83	87.7512
1054.73	75.6706
1057.62	61.1433
1060.51	40.0693
1063.4	24.05
1066.3	16.4519
1069.19	1.97827
1072.08	4.9104
1074.97	8.29199
1077.87	15.3479
1080.76	7.4209
1083.65	6.75977
1086.55	12.1438
1089.44	6.3606
1092.33	9.27783
1095.22	9.46265
1098.12	1.20459
1101.01	2.52368
1103.9	2.64453
1106.79	4.28857
1109.69	1.58838
1112.58	5.8457
1115.47	3.07837
1118.37	4.73462
1121.26	3.67578
1124.15	5.1311
1127.04	1.50073
1129.94	4.7251
1132.83	3.48828
1135.72	7.49292
1138.61	5.68189
1141.51	12.7192
1144.4	20.9431
1147.29	24.1736
1150.18	35.283
1153.08	39.4985
1155.97	44.1389
1158.86	49.5242
1161.76	45.3015
1164.65	57.5842
1167.54	54.8857
1170.43	58.4094
1173.33	55.4404
1176.22	52.8774
1179.11	41.0549
1182	31.2566
1184.9	27.6233
1187.79	26.5032
1190.68	15.6775
1193.58	10.9568
1196.47	7.24365
1199.36	14.2075
1202.25	2.18066
1205.15	10.4187
1208.04	5.45532
1210.93	11.1418
1213.82	9.41675
1216.72	11.6406
1219.61	2.69849
1222.5	7.05518
1225.39	2.46558
1228.29	10.7424
1231.18	14.3428
1234.07	9.79004
1236.97	3.56665
1239.86	0.163574
1242.75	1.49316
1245.64	12.1111
1248.54	6.46704
1251.43	17.8743
1254.32	5.3916
1257.21	6.02368
1260.11	5.09473
1263	0.604248
1265.89	2.03955
1268.79	27.8674
1271.68	14.7144
1274.57	8.90723
1277.46	4.63892
1280.36	7.47705
1283.25	6.63721
1286.14	4.7771
1289.03	1.18359
1291.93	3.86206
1294.82	13.3286
1297.71	4.17871
1300.61	22.1294
