Measurement: Raman, 780 nm, unoriented, Raman Data Processed
Mineral: Allophane
Rruff sample: R120001
Ideal chemistry: Al_2_O_3_(SiO_2_)_1.3-2.0_2.5-3.0H_2_O
Locality: Juanita mine, Kelly, New Mexico, USA
Source: Robert Jenkins
Description: Light blue globular
Raman shift (cm-1)	intensity
140.297	0
143.19	2.38367
146.083	6.0968
148.975	12.1947
151.868	14.559
154.761	15.2131
157.654	13.9431
160.546	15.2327
163.439	14.572
166.332	16.8634
169.224	10.5262
172.117	5.08356
175.01	0.935486
177.902	3.25714
180.795	0.756714
183.688	1.7757
186.581	1.12994
189.473	0.324646
192.366	5.16705
195.259	8.87286
198.151	8.70776
201.044	21.9937
203.937	29.3708
206.829	39.8403
209.722	44.2858
212.615	51.2414
215.507	66.4731
218.4	71.9883
221.293	84.3997
224.186	92.506
227.078	103.33
229.971	112.713
232.864	117.022
235.756	123.769
238.649	123.408
241.542	110.104
244.435	98.3282
247.327	87.2798
250.22	69.5687
253.113	57.3742
256.005	46.8505
258.898	42.2357
261.791	41.3308
264.683	40.364
267.576	41.3768
270.469	46.737
273.361	49.9594
276.254	53.145
279.147	48.3471
282.04	40.7347
284.932	30.6522
287.825	21.2967
290.718	18.561
293.61	11.2383
296.503	8.58545
299.396	3.4173
302.288	2.8443
305.181	2.25745
308.074	0.633118
310.967	1.48517
313.859	1.03601
316.752	5.35028
319.645	5.53839
322.537	7.76477
325.43	11.8118
328.323	15.1636
331.216	22.4758
334.108	25.2864
337.001	32.0887
339.894	38.2808
342.786	40.8385
345.679	39.9077
348.572	46.7537
351.464	46.5545
354.357	49.2982
357.25	50.8593
360.142	48.938
363.035	47.044
365.928	45.9227
368.821	43.0847
371.713	39.4594
374.606	32.4388
377.499	22.888
380.391	16.0146
383.284	10.2754
386.177	8.76953
389.07	10.3164
391.962	4.95386
394.855	8.10071
397.748	3.53778
400.64	5.76331
403.533	3.31262
406.426	6.06689
409.318	0.822815
412.211	1.32233
415.104	0.662292
417.997	0.083008
420.889	4.607
423.782	4.09387
426.675	2.07593
429.567	1.59546
432.46	4.37805
435.353	3.77289
438.245	2.99603
441.138	3.98615
444.031	7.00885
446.924	9.09564
449.816	10.1385
452.709	12.3305
455.602	12.6942
458.494	16.149
461.387	17.0112
464.28	18.7886
467.173	16.3611
470.065	15.0046
472.958	18.8694
475.851	16.9681
478.743	17.4927
481.636	18.7789
484.529	23.3983
487.421	24.1152
490.314	29.0729
493.207	31.211
496.099	30.7529
498.992	29.4826
501.885	25.7921
504.778	24.0517
507.67	16.5467
510.563	11.8603
513.456	7.87735
516.348	6.67728
519.241	0.740814
522.134	0.318878
525.026	0.83432
527.919	0.01004
530.812	0.280182
533.705	0.008484
536.597	2.61432
539.49	1.15854
542.383	3.15262
545.275	2.5993
548.168	1.53574
551.061	0.793762
553.953	2.35214
556.846	2.50732
559.739	4.0043
562.631	3.04517
565.524	2.81397
568.417	3.85288
571.31	3.50836
574.202	4.18503
577.095	2.37338
579.988	0.997559
582.88	2.53934
585.773	2.18152
588.666	0.783325
591.559	0.67749
594.451	1.5473
597.344	1.09125
600.237	2.04538
603.129	0.119354
606.022	0.719788
608.915	0.338593
611.808	2.23019
614.7	1.63632
617.593	2.14584
620.486	4.24591
623.378	3.25339
626.271	4.60919
629.164	5.73288
632.056	7.34757
634.949	6.80347
637.842	5.5874
640.735	4.89429
643.627	7.01392
646.52	6.47391
649.413	6.53815
652.305	6.49149
655.198	7.9122
658.091	5.60544
660.983	6.61316
663.876	6.33279
666.769	9.53744
669.662	10.3689
672.554	10.894
675.447	10.5325
678.34	13.4403
681.232	15.6089
684.125	16.815
687.018	18.3224
689.91	20.1632
692.803	23.0647
695.696	24.5456
698.588	24.237
701.481	27.4223
704.374	30.748
707.267	33.1217
710.159	38.9913
713.052	40.0996
715.945	43.2416
718.837	48.4621
721.73	49.6437
724.623	52.096
727.515	47.0439
730.408	48.9597
733.301	44.1592
736.194	41.794
739.086	37.1422
741.979	31.8417
744.872	27.8531
747.764	23.1199
750.657	21.0589
753.55	14.7179
756.442	10.3058
759.335	6.16496
762.228	4.15973
765.121	2.29498
768.013	1.57191
770.906	0.826981
773.799	1.33017
776.691	0.723007
779.584	1.56836
782.477	1.07628
785.37	2.52576
788.262	0.942322
791.155	2.16254
794.048	1.07005
796.94	2.0119
799.833	2.7905
802.726	2.71564
805.618	2.32017
808.511	7.1147
811.404	8.57207
814.297	13.228
817.189	18.9099
820.082	23.8034
822.975	33.9828
825.867	40.2269
828.76	50.0374
831.653	57.0037
834.545	66.3842
837.438	74.052
840.331	87.9827
843.223	99.4029
846.116	108.546
849.009	120.824
851.902	132.142
854.794	135.17
857.687	137.137
860.58	134.094
863.472	131.443
866.365	122.11
869.258	110.472
872.15	97.2213
875.043	86.4493
877.936	76.6068
880.829	63.3257
883.721	55.087
886.614	46.0702
889.507	34.4542
892.399	34.3002
895.292	25.2283
898.185	19.5602
901.077	16.0231
903.97	12.2871
906.863	13.5686
909.756	8.44089
912.648	6.64999
915.541	4.23679
918.434	2.91992
921.326	1.80031
924.219	1.29765
927.112	2.11237
930.005	1.48465
932.897	0.663071
935.79	0.162643
938.683	0.09491
941.575	2.41351
944.468	2.71991
947.361	7.18532
950.253	8.96027
953.146	11.5048
956.039	10.9535
958.932	10.0748
961.824	4.54636
964.717	3.83063
967.61	5.52086
970.502	4.4585
973.395	6.66846
976.288	9.30376
979.18	12.4038
982.073	16.6408
984.966	13.2827
987.859	9.10634
990.751	7.71666
993.644	6.60037
996.537	2.49976
999.429	1.40065
1002.32	4.60696
1005.22	0.293243
1008.11	1.17754
1011	1.21648
1013.89	1.02052
1016.79	0.184189
1019.68	0.001022
1022.57	0.266449
1025.46	1.90439
1028.36	0.179871
1031.25	4.29085
1034.14	0.536438
1037.03	3.00792
1039.93	4.3365
1042.82	2.09436
1045.71	5.12471
1048.61	4.49327
1051.5	5.20451
1054.39	7.07748
1057.28	8.7814
1060.18	6.22398
1063.07	7.18903
1065.96	9.07208
1068.85	7.39436
1071.75	9.82486
1074.64	9.89165
1077.53	10.8336
1080.42	14.8723
1083.32	21.6087
1086.21	28.7145
1089.1	39.2055
1092	48.6599
1094.89	63.8078
1097.78	69.595
1100.67	72.296
1103.57	71.6066
1106.46	65.502
1109.35	56.6835
1112.24	45.9796
1115.14	33.9116
1118.03	29.9797
1120.92	20.8545
1123.82	18.314
1126.71	14.2835
1129.6	9.30528
1132.49	6.97966
1135.39	5.86707
1138.28	3.54082
1141.17	3.88626
1144.06	0.444458
1146.96	0.652542
1149.85	1.6727
1152.74	0.595413
1155.63	0.282791
1158.53	0.393631
1161.42	0.66272
1164.31	0.555267
1167.21	2.08737
1170.1	1.80325
1172.99	1.49504
1175.88	3.89249
1178.78	3.7027
1181.67	4.82645
1184.56	4.23752
1187.45	4.5267
1190.35	5.69772
1193.24	7.84509
1196.13	5.9933
1199.03	8.73036
1201.92	8.5074
1204.81	9.60188
1207.7	8.34215
1210.6	8.63687
1213.49	10.0713
1216.38	8.23694
1219.28	9.05403
1222.17	9.73289
1225.06	8.7373
1227.95	9.00183
1230.85	8.58858
1233.74	6.16614
1236.63	7.04701
1239.52	8.08432
1242.42	5.36885
1245.31	5.09621
1248.2	4.79489
1251.09	3.41823
1253.99	1.77495
1256.88	2.25294
1259.77	1.47209
1262.66	1.28578
1265.56	4.08273
1268.45	3.87047
1271.34	0.442963
1274.24	1.85355
1277.13	3.09029
1280.02	1.33266
1282.91	5.60582
1285.81	0
