Measurement: Raman, 532 nm, unoriented, Raman Data Processed
Mineral: Alluaudite
Rruff sample: R100070
Ideal chemistry: (Na,Ca)(Mn,Mg,Fe^2+^)(Fe^3+^,Mn^2+^)_2_(PO_4_)_3_
Locality: Rapid Creek area, Yukon, Canada
Source: Royal Ontario Museum
Description: Black radiating fibrous masses associated with mariÄ‡ite
Raman shift (cm-1)	intensity
178.237	0
181.13	2.61374
184.023	0.708466
186.916	13.1996
189.808	13.1646
192.701	5.13821
195.594	18.3102
198.486	12.2781
201.379	19.5824
204.272	12.5376
207.164	16.6293
210.057	15.6188
212.95	17.6208
215.843	13.9336
218.735	7.36655
221.628	3.53323
224.521	6.39615
227.413	7.48669
230.306	0.318726
233.199	6.06439
236.091	7.51379
238.984	4.86899
241.877	11.4803
244.769	1.26749
247.662	5.72421
250.555	14.7986
253.448	16.4392
256.34	33.2963
259.233	33.3599
262.126	28.7416
265.018	28.2798
267.911	22.5537
270.804	32.0279
273.697	9.67102
276.589	15.2327
279.482	16.7783
282.375	9.61668
285.267	8.35854
288.16	9.14319
291.053	9.61449
293.945	9.12918
296.838	3.64273
299.731	0.868851
302.623	0.344666
305.516	1.4576
308.409	4.87285
311.302	3.04926
314.194	7.80852
317.087	0.76442
319.98	6.83209
322.872	8.74779
325.765	2.01123
328.658	8.0735
331.55	11.3586
334.443	11.988
337.336	5.30859
340.229	22.6332
343.121	29.3555
346.014	29.1987
348.907	22.0372
351.799	29.0682
354.692	29.2102
357.585	30.9581
360.478	33.0008
363.37	29.1103
366.263	36.121
369.156	25.1485
372.048	26.1897
374.941	28.7636
377.834	20.9073
380.726	18.5752
383.619	16.6506
386.512	19.1426
389.404	15.6303
392.297	17.0457
395.19	12.6096
398.083	17.3173
400.975	18.8599
403.868	37.0445
406.761	24.2233
409.653	11.5801
412.546	11.802
415.439	3.6922
418.332	3.64018
421.224	2.5006
424.117	0.830521
427.01	8.40909
429.902	6.62462
432.795	0.574448
435.688	4.66853
438.58	17.6587
441.473	21.2088
444.366	26.7509
447.259	43.8797
450.151	43.6291
453.044	59.374
455.937	61.4414
458.829	61.8807
461.722	52.07
464.615	51.2089
467.507	62.0638
470.4	64.6509
473.293	83.5075
476.185	82.1542
479.078	102.716
481.971	93.8556
484.864	78.8419
487.756	71.0979
490.649	54.1017
493.542	33.565
496.434	34.7669
499.327	30.3098
502.22	20.6541
505.113	19.487
508.005	17.1083
510.898	13.8473
513.791	9.46481
516.683	9.11879
519.576	1.94869
522.469	4.8046
525.361	3.81726
528.254	6.95993
531.147	1.88667
534.04	3.53047
536.932	6.13519
539.825	0.395187
542.718	0.976837
545.61	7.16042
548.503	0.669754
551.396	6.48646
554.288	16.7174
557.181	15.23
560.074	21.8327
562.967	18.6449
565.859	21.4649
568.752	20.4659
571.645	25.8502
574.537	32.167
577.43	32.8242
580.323	41.4165
583.216	46.2973
586.108	58.1831
589.001	78.7903
591.894	91.5398
594.786	100.016
597.679	87.7055
600.572	79.2795
603.464	68.3501
606.357	60.7003
609.25	57.2268
612.142	68.9098
615.035	77.7435
617.928	79.8343
620.821	97.675
623.713	110.623
626.606	117.203
629.499	104.703
632.391	84.4932
635.284	63.139
638.177	43.9531
641.069	40.8537
643.962	26.5149
646.855	26.348
649.747	24.3597
652.64	15.3136
655.533	7.42992
658.426	13.0106
661.318	13.1348
664.211	3.02171
667.104	4.52623
669.996	1.23215
672.889	0.977219
675.782	6.85774
678.674	2.93861
681.567	3.81485
684.46	4.76065
687.353	1.44328
690.245	1.00931
693.138	2.28838
696.031	1.93355
698.923	2.13089
701.816	0.641312
704.709	0.987839
707.601	0.510971
710.494	0.693344
713.387	5.67633
716.28	3.90675
719.172	4.7363
722.065	0.861572
724.958	7.38606
727.85	1.66722
730.743	1.23389
733.636	0.641388
736.529	2.30849
739.421	3.68475
742.314	6.54185
745.207	4.47331
748.099	11.4645
750.992	6.85173
753.885	7.96756
756.777	5.0184
759.67	2.69577
762.563	6.6501
765.456	8.73155
768.348	6.41354
771.241	4.81426
774.134	10.2392
777.026	8.35699
779.919	11.9743
782.812	8.24358
785.704	8.22983
788.597	10.1055
791.49	0.799896
794.383	3.86262
797.275	2.34692
800.168	10.5863
803.061	11.7834
805.953	12.9439
808.846	9.25359
811.739	15.1399
814.631	7.63916
817.524	16.6795
820.417	11.3003
823.309	3.13219
826.202	18.9862
829.095	6.35921
831.988	13.243
834.88	13.4969
837.773	13.4089
840.666	11.7943
843.558	12.9296
846.451	12.2123
849.344	11.648
852.236	7.07474
855.129	9.75185
858.022	4.11694
860.915	9.18146
863.807	0.772278
866.7	4.01613
869.593	3.26152
872.485	5.15477
875.378	1.11137
878.271	2.34247
881.163	3.29158
884.056	1.44798
886.949	3.96303
889.842	3.64053
892.734	6.31484
895.627	2.27687
898.52	0.071457
901.412	3.80405
904.305	7.35289
907.198	0.3647
910.091	13.7369
912.983	13.7188
915.876	17.5476
918.769	22.7634
921.661	32.2111
924.554	29.4951
927.447	36.1546
930.339	44.9334
933.232	48.5418
936.125	53.0483
939.018	64.6317
941.91	70.2111
944.803	72.2088
947.696	83.8886
950.588	93.3084
953.481	119.214
956.374	137.201
959.266	179.347
962.159	210.689
965.052	246.479
967.944	267.526
970.837	269.361
973.73	257.058
976.623	205.354
979.515	180.193
982.408	143.006
985.301	107.081
988.193	75.7304
991.086	44.9407
993.979	27.9776
996.871	19.1902
999.764	11.5161
1002.66	2.27103
1005.55	8.4693
1008.44	11.0359
1011.34	13.4663
1014.23	23.7739
1017.12	42.4582
1020.01	62.7023
1022.91	83.5696
1025.8	100.553
1028.69	139.43
1031.58	176.209
1034.48	230.053
1037.37	275.987
1040.26	280.39
1043.15	243.552
1046.05	181.334
1048.94	114.675
1051.83	75.0798
1054.73	55.9762
1057.62	38.6227
1060.51	26.0351
1063.4	6.67035
1066.3	7.97226
1069.19	0.696991
1072.08	7.26788
1074.97	0.537659
1077.87	3.51233
1080.76	0.965118
1083.65	0.690002
1086.55	0.775726
1089.44	2.25345
1092.33	3.39223
1095.22	6.61372
1098.12	7.65028
1101.01	3.54311
1103.9	6.91043
1106.79	3.10651
1109.69	9.70534
1112.58	10.9089
1115.47	8.99725
1118.37	12.4262
1121.26	8.49698
1124.15	12.4209
1127.04	5.82579
1129.94	1.1573
1132.83	6.56578
1135.72	1.09294
1138.61	4.57687
1141.51	5.05489
1144.4	7.8762
1147.29	11.2826
1150.18	10.6443
1153.08	6.55633
1155.97	8.6808
1158.86	15.3609
1161.76	11.8795
1164.65	17.5932
1167.54	12.744
1170.43	16.1321
1173.33	15.7319
1176.22	15.2639
1179.11	17.1538
1182	16.7219
1184.9	12.3489
1187.79	7.7112
1190.68	3.5313
1193.58	0.597458
1196.47	1.65447
1199.36	4.69479
1202.25	9.24644
1205.15	4.49876
1208.04	7.55249
1210.93	4.2691
1213.82	14.3817
1216.72	13.1718
1219.61	21.4428
1222.5	27.9375
1225.39	24.6305
1228.29	23.2345
1231.18	26.6861
1234.07	22.8632
1236.97	14.7193
1239.86	5.07517
1242.75	8.29283
1245.64	12.9748
1248.54	9.98377
1251.43	10.5478
1254.32	9.90289
1257.21	8.20262
1260.11	11.0999
1263	9.93263
1265.89	7.52972
1268.79	5.11765
1271.68	8.84772
1274.57	6.21939
1277.46	4.87724
1280.36	6.49748
1283.25	6.30626
1286.14	7.04634
1289.03	2.06007
1291.93	4.01652
1294.82	1.27542
1297.71	7.42328
1300.61	2.65338
