Measurement: Raman, 514 nm, unoriented, Raman Data Processed
Mineral: Almandine
Rruff sample: R040168
Ideal chemistry: Fe^2+^_3_Al_2_(SiO_4_)_3_
Locality: Pocos Dos Cavatos, Ceara, Brazil
Source: University of Arizona Mineral Museum
Description: Dark red etched single crystal
Measured chemistry: (Fe^2+^_1.48_Mn_1.47_Ca_0.05_)_Î£=3_Al_2.00_(Si_1.00_O_4_)_3_; trace amounts of Ti and Y
Raman shift (cm-1)	intensity
108.691	0
112.864	62.018
117.034	326.47
121.203	146.757
125.369	215.133
129.534	277.953
133.696	136.211
137.857	323.203
142.016	172.08
146.172	240.347
150.327	197.692
154.48	316.09
158.63	861.388
162.779	1515.65
166.926	902.012
171.07	535.745
175.213	341.971
179.354	88.159
183.493	31.891
187.63	80.187
191.765	40.393
195.898	135.658
200.029	58.914
204.158	194.008
208.285	504.332
212.41	741.665
216.533	819.912
220.654	621.036
224.773	471.025
228.891	238.859
233.006	143.311
237.119	112.246
241.231	70.003
245.34	25.381
249.448	36.901
253.553	34.543
257.657	65.458
261.758	47.567
265.858	22.641
269.956	0.955
274.052	75.533
278.146	101.766
282.237	134.642
286.327	180.855
290.416	224.667
294.502	359.799
298.586	571.675
302.668	526.698
306.749	656.544
310.827	1033.8
314.903	1490.56
318.978	2470.59
323.051	2592.41
327.121	2014.03
331.19	2169.5
335.257	3318.81
339.322	6827.95
343.385	10685.7
347.446	8991.72
351.505	4722.09
355.563	2647.34
359.618	2099.94
363.672	2491.49
367.723	3834.03
371.773	4078.61
375.821	2783.11
379.866	1570.56
383.91	822.977
387.952	427.868
391.992	298.563
396.031	173.663
400.067	162.139
404.101	197.959
408.134	8.133
412.165	220.874
416.193	44.758
420.22	68.253
424.245	34.121
428.268	124.317
432.289	79.004
436.309	18.659
440.326	97.695
444.342	21.979
448.355	84.43
452.367	8.162
456.377	5.108
460.385	84.206
464.391	186.036
468.395	377.717
472.398	557.117
476.398	433.309
480.397	293.302
484.394	269.212
488.389	265.54
492.382	623.026
496.373	1270.25
500.362	1343.1
504.349	731.727
508.335	422.98
512.319	320.514
516.3	320.697
520.28	374.189
524.259	326.246
528.235	413.938
532.209	437.902
536.182	404.876
540.152	1020.67
544.121	1245.51
548.088	2337.32
552.053	3286.76
556.017	2561.28
559.978	1563.94
563.938	1004.98
567.895	648.42
571.851	466.574
575.805	433.008
579.758	340.568
583.708	292.919
587.657	488.577
591.603	572.024
595.548	341.791
599.491	151.509
603.432	127.689
607.372	173.334
611.309	174.571
615.245	261.649
619.179	245.135
623.111	196.934
627.041	654.144
630.97	521.127
634.896	298.881
638.821	200.408
642.744	180.32
646.665	115.771
650.584	20.585
654.502	229.13
658.418	25.429
662.331	134.467
666.244	167.257
670.154	24.287
674.062	32.216
677.969	2.506
681.874	39.883
685.777	59.804
689.678	34.592
693.577	1.32
697.475	24.451
701.371	26.913
705.265	55.66
709.157	127.258
713.047	42.984
716.936	113.447
720.823	18.515
724.708	84.339
728.591	117.986
732.472	66.404
736.352	48.308
740.23	100.802
744.106	54.181
747.98	96.628
751.853	136.681
755.723	174.419
759.592	151.182
763.459	21.751
767.325	102.122
771.188	151.434
775.05	185.366
778.91	208.133
782.768	185.884
786.625	83.897
790.479	208.146
794.332	133.643
798.183	150.9
802.033	241.295
805.88	307.65
809.726	350.396
813.57	426.622
817.413	388.905
821.253	382.798
825.092	427.652
828.929	454.703
832.764	443.042
836.598	526.506
840.429	519.604
844.259	673.252
848.088	1004.79
851.914	1590.7
855.739	1924.16
859.562	1928.37
863.383	1526.5
867.203	1346.13
871.02	1313.86
874.836	1471.31
878.65	1834.1
882.463	2444.25
886.274	3095.4
890.083	4250.56
893.89	5307.1
897.695	7136.69
901.499	11897.6
905.301	21639.9
909.102	34620
912.9	34915.7
916.697	23203.8
920.492	13114.4
924.285	7775.08
928.077	4936
931.867	3104.95
935.655	2095.95
939.442	1709.09
943.226	1254.32
947.009	838.654
950.791	809.186
954.57	725.894
958.348	644.78
962.124	521.631
965.899	613.827
969.671	519.021
973.442	491.644
977.211	564.98
980.979	492.337
984.745	630.447
988.509	556.835
992.271	433.843
996.032	598.702
999.791	627.945
1003.55	614.408
1007.3	618.146
1011.06	584.493
1014.81	683.612
1018.56	757.188
1022.31	978.09
1026.06	1308.86
1029.8	1760.24
1033.55	1945.77
1037.29	1575.1
1041.03	1157.58
1044.77	811.627
1048.5	622.793
1052.24	487.946
1055.97	324.588
1059.7	371.365
1063.43	356.769
1067.16	307.807
1070.89	163.566
1074.61	164.443
1078.34	145.224
1082.06	250.467
1085.78	323.943
1089.5	151.057
1093.21	145.656
1096.93	101.041
1100.64	90.226
1104.35	63.719
1108.06	54.66
1111.77	138.157
1115.48	54.655
1119.18	79.644
1122.89	140.74
1126.59	112.832
1130.29	36.771
1133.99	98.269
1137.68	41.03
1141.38	113.152
1145.07	89.938
1148.76	15.777
1152.45	44.083
1156.14	41.235
1159.83	78.815
1163.51	80.805
1167.19	153.005
1170.88	110.081
1174.56	186.527
1178.23	179.093
1181.91	82.137
1185.59	135.51
1189.26	164.359
1192.93	158.955
1196.6	129.595
1200.27	89.351
1203.94	317.985
1207.6	293.118
1211.27	143.824
1214.93	244.612
1218.59	88.169
1222.25	77.925
1225.9	69.426
1229.56	190.647
1233.21	225.567
1236.86	148.154
1240.51	130.377
1244.16	319.711
1247.81	212.646
1251.45	408.446
1255.1	292.699
1258.74	243.745
1262.38	220.635
1266.02	332.649
1269.66	317.268
1273.29	247.751
1276.93	287.102
1280.56	307.895
1284.19	209.288
1287.82	165.614
1291.45	73.85
1295.07	125.312
1298.7	170.951
1302.32	28.435
1305.94	291.728
1309.56	190.299
1313.18	134.399
1316.8	77.75
1320.41	141.623
1324.02	73.765
1327.63	238.134
1331.24	64.068
1334.85	14.537
1338.46	42.032
1342.06	257.043
1345.67	110.778
1349.27	206.521
1352.87	149.612
1356.47	163.352
1360.07	84.993
1363.66	33.563
1367.25	59.636
1370.85	58.861
1374.44	68.3
1378.03	21.05
1381.61	108.453
1385.2	86.036
1388.78	22.957
1392.37	142.588
1395.95	105.785
1399.53	109.615
1403.1	193.941
1406.68	218.998
1410.26	310.637
1413.83	270.762
1417.4	184.295
1420.97	426.295
1424.54	293.746
1428.1	320.365
1431.67	361.812
1435.23	404.934
1438.8	581.402
1442.36	637.613
1445.91	571.25
1449.47	635.672
1453.03	754.018
1456.58	673.121
1460.13	635.006
1463.68	551.156
1467.23	445.57
1470.78	424.973
1474.33	196.732
1477.87	208.096
1481.42	255.701
1484.96	325.119
1488.5	112.445
1492.04	320.947
1495.57	245.402
1499.11	90.055
1502.64	232.883
1506.17	83.721
1509.71	57.828
1513.23	119.609
1516.76	0.482
