Measurement: Raman, 532 nm, unoriented, Raman Data Processed
Mineral: Almandine
Rruff sample: R040076
Ideal chemistry: Fe^2+^_3_Al_2_(SiO_4_)_3_
Locality: Barton Garnet mine, Gore Mountain, Warren County, New York, USA
Source: University of Arizona Mineral Museum
Description: Red coarsely crystalline
Measured chemistry: (Fe^2+^_1.38_Mg_1.26_Ca_0.33_Mn_0.03_)_Î£=3_Al_2.00_(Si_1.00_O_4_)_3_; trace amounts of Ti
Raman shift (cm-1)	intensity
127.841	0
130.734	61.6316
133.627	3.68567
136.519	146.239
139.412	273.6
142.305	202.615
145.197	172.783
148.09	121.618
150.983	180.672
153.875	146.962
156.768	184.008
159.661	166.751
162.554	162.64
165.446	65.2059
168.339	33.8131
171.232	261.188
174.124	220.587
177.017	329.013
179.91	229.248
182.803	131.003
185.695	86.2231
188.588	46.5847
191.481	44.8434
194.373	130.154
197.266	213.869
200.159	296.164
203.051	373.131
205.944	461.186
208.837	517.784
211.729	506.34
214.622	484.361
217.515	374.667
220.407	267.197
223.3	189.378
226.193	156.976
229.086	108.868
231.978	87.1926
234.871	59.4075
237.764	33.031
240.656	37.8651
243.549	23.4844
246.442	18.988
249.334	28.0648
252.227	7.57092
255.12	3.6189
258.013	6.36987
260.905	0.596436
263.798	22.13
266.691	6.53613
269.583	14.1179
272.476	14.7648
275.369	19.506
278.262	0.932251
281.154	19.6603
284.047	3.43408
286.94	120.779
289.832	70.8594
292.725	58.708
295.618	72.4554
298.51	90.5109
301.403	161.213
304.296	209.779
307.188	289.04
310.081	320.182
312.974	489.207
315.867	561.605
318.759	641.855
321.652	642.569
324.545	697.458
327.437	880.545
330.33	1101.24
333.223	1454.97
336.115	1860.18
339.008	2371.8
341.901	2969.12
344.794	3722.85
347.686	4901.98
350.579	6175.96
353.472	7337.85
356.364	7295.32
359.257	5853.94
362.15	4354.59
365.043	3327.55
367.935	2794.59
370.828	2517.56
373.721	2221.34
376.613	1951.07
379.506	1612.99
382.399	1264.99
385.291	937.615
388.184	714.045
391.077	512.2
393.969	381.265
396.862	275.218
399.755	214.805
402.648	112.041
405.54	116.844
408.433	70.6238
411.326	39.5482
414.218	39.48
417.111	1.88373
420.004	0.239624
422.897	25.9753
425.789	12.7425
428.682	29.4251
431.575	27.8124
434.467	11.5829
437.36	26.8129
440.253	7.39002
443.145	6.2655
446.038	10.8555
448.931	14.4819
451.824	11.8724
454.716	11.2925
457.609	64.8393
460.502	70.989
463.394	85.7954
466.287	79.1789
469.18	109.627
472.072	174.606
474.965	266.189
477.858	334.342
480.75	463.772
483.643	578.189
486.536	477.235
489.429	345.727
492.321	326.493
495.214	420.727
498.107	662.558
500.999	1150.92
503.892	1520.77
506.785	1405.86
509.678	830.876
512.57	452.117
515.463	305.833
518.356	202.023
521.248	155.836
524.141	172.585
527.034	154.043
529.926	148.92
532.819	144.587
535.712	151.49
538.604	242.107
541.497	374.261
544.39	562.438
547.283	841.215
550.175	1174.14
553.068	1724.42
555.961	2398.91
558.853	2646.1
561.746	2095.03
564.639	1180.71
567.531	653.052
570.424	349.99
573.317	155.992
576.21	79.1961
579.102	27.444
581.995	43.7976
584.888	99.8962
587.78	91.7611
590.673	50.9491
593.566	5.80029
596.458	26.3256
599.351	4.91382
602.244	3.34082
605.136	47.824
608.029	41.3249
610.922	21.5294
613.815	11.0197
616.707	34.8346
619.6	21.1354
622.493	13.1124
625.385	79.3072
628.278	170.351
631.171	294.309
634.063	480.286
636.956	651.106
639.849	672.78
642.742	467.501
645.634	316.126
648.527	220.557
651.42	176.729
654.312	112.579
657.205	77.0787
660.098	44.8022
662.99	56.3661
665.883	15.2086
668.776	30.9506
671.669	33.842
674.561	5.62619
677.454	17.059
680.347	15.1967
683.239	17.4323
686.132	27.4015
689.025	19.5689
691.918	22.2748
694.81	7.1983
697.703	34.402
700.596	14.2532
703.488	43.0247
706.381	49.5888
709.274	45.8606
712.166	74.897
715.059	60.4974
717.952	76.4232
720.845	76.1939
723.737	43.3231
726.63	106.838
729.523	94.2822
732.415	78.1235
735.308	118.981
738.201	109.097
741.093	112.187
743.986	115.127
746.879	111.788
749.771	116.103
752.664	109.118
755.557	104.606
758.45	99.4862
761.342	83.4327
764.235	80.6284
767.128	105.5
770.02	55.9175
772.913	58.2584
775.806	50.2685
778.698	71.4321
781.591	26.208
784.484	37.8714
787.377	45.1558
790.269	2.61395
793.162	14.3249
796.055	8.97315
798.947	15.3352
801.84	2.01373
804.733	3.3316
807.625	35.6037
810.518	51.9871
813.411	38.3834
816.304	29.4522
819.196	15.345
822.089	14.2994
824.982	13.9999
827.874	42.1645
830.767	2.88031
833.66	13.4038
836.552	28.1439
839.445	95.0593
842.338	144.045
845.231	317.15
848.123	480.988
851.016	713.285
853.909	1092.46
856.801	1463.53
859.694	1749.46
862.587	1757.04
865.479	1447.36
868.372	1104.23
871.265	831.284
874.158	666.804
877.05	602.615
879.943	626.964
882.836	727.78
885.728	905.248
888.621	1156.37
891.514	1508.38
894.406	1945.45
897.299	2489.08
900.192	3194.13
903.085	4381.69
905.977	6434.43
908.87	9506.09
911.763	13606.3
914.655	17919
917.548	20217.9
920.441	17987.2
923.333	12751.9
926.226	8217.84
929.119	5299.62
932.011	3494.37
934.904	2380.62
937.797	1671.55
940.69	1120.67
943.582	779.117
946.475	528.355
949.368	353.637
952.26	236.863
955.153	163.944
958.046	83.4048
960.938	48.9042
963.831	35.6051
966.724	21.5707
969.617	21.5153
972.509	0.931885
975.402	0.126282
978.295	12.2698
981.187	34.0369
984.08	30.4267
986.973	8.77661
989.865	20.3591
992.758	13.8702
995.651	21.8388
998.544	19.61
1001.44	15.4188
1004.33	14.0755
1007.22	35.5324
1010.11	88.9735
1013.01	151.852
1015.9	198.473
1018.79	252.652
1021.68	337.016
1024.58	381.395
1027.47	473.161
1030.36	563.518
1033.26	660.792
1036.15	793.586
1039.04	970.797
1041.93	1140.15
1044.83	1229.15
1047.72	1276.19
1050.61	1148.09
1053.51	947.781
1056.4	720.845
1059.29	458.191
1062.18	301.572
1065.08	199.822
1067.97	153.829
1070.86	101.125
1073.75	81.286
1076.65	59.6285
1079.54	44.8788
1082.43	42.7681
1085.33	16.6226
1088.22	24.1199
1091.11	30.7692
1094	21.8237
1096.89	10.6982
1099.79	28.0701
1102.68	12.5843
1105.57	11.2934
1108.47	19.2021
1111.36	1.69766
1114.25	7.15494
1117.14	14.0877
1120.04	17.338
1122.93	18.0348
1125.82	10.305
1128.71	17.4105
1131.61	5.6116
1134.5	33.5123
1137.39	12.2051
1140.29	21.3037
1143.18	2.4754
1146.07	8.27243
1148.96	23.5965
1151.86	35.6198
1154.75	21.5017
1157.64	56.1432
1160.54	32.2065
1163.43	45.3842
1166.32	42.2663
1169.21	42.1525
1172.11	58.4479
1175	45.3755
1177.89	53.1507
1180.78	55.114
1183.68	85.1263
1186.57	66.9787
1189.46	61.002
1192.35	87.5146
1195.25	68.3644
1198.14	57.745
1201.03	56.8685
1203.92	51.0533
1206.82	34.4052
1209.71	39.9071
1212.6	24.611
1215.5	49.9951
1218.39	26.0073
1221.28	32.913
1224.17	19.7017
1227.07	10.1515
1229.96	1.63141
1232.85	2.90863
1235.74	11.7058
1238.64	5.33276
1241.53	1.82275
1244.42	5.08575
1247.32	16.3583
1250.21	36.4227
1253.1	37.8997
1255.99	30.1798
1258.89	1.03442
1261.78	32.0876
1264.67	37.8979
1267.57	44.8413
1270.46	17.3032
1273.35	19.8166
1276.24	43.1648
1279.13	39.533
1282.03	53.936
