Measurement: Raman, 532 nm, unoriented, Raman Data Processed
Mineral: Almandine
Rruff sample: R060099
Ideal chemistry: Fe^2+^_3_Al_2_(SiO_4_)_3_
Locality: Alaska, USA
Source: Roland Boehne
Description: Red cube shaped single crystal
Measured chemistry: (Fe^2+^_1.63_Mg_0.57_Mn_0.56_Ca_0.24_)_Σ=3_(Al_1.98_Fe^3+^_0.02_)_Σ=2_(Si_1.00_O_4_)_3_
Raman shift (cm-1)	intensity
141.047	0
144.422	3.98717
147.797	6.84282
151.172	21.6538
154.547	35.9264
157.921	48.0338
161.296	60.9428
164.671	79.486
168.046	102.984
171.421	88.1958
174.796	33.9466
178.17	11.5783
181.545	0.763519
184.92	0.577888
188.295	0.060928
191.67	3.30288
195.044	11.1893
198.419	21.2463
201.794	34.6593
205.169	47.1204
208.544	59.8293
211.918	66.3977
215.293	61.2486
218.668	47.727
222.043	32.6067
225.418	25.071
228.792	16.2358
232.167	14.7503
235.542	12.0656
238.917	9.34331
242.292	6.73344
245.667	3.6525
249.041	2.5805
252.416	0.729286
255.791	1.68243
259.166	0.757721
262.541	1.0652
265.916	2.71722
269.29	1.75645
272.665	0.49131
276.04	0.570023
279.415	2.23439
282.79	3.93848
286.164	5.88286
289.539	7.94283
292.914	13.4631
296.289	17.4654
299.664	24.0165
303.038	31.7578
306.413	46.8928
309.788	65.8695
313.163	93.4708
316.538	103.946
319.913	117.967
323.287	145.738
326.662	191.219
330.037	239.11
333.412	284.925
336.787	336.817
340.161	423.322
343.536	539.444
346.911	629.176
350.286	555.731
353.661	388.714
357.036	280.786
360.41	242.331
363.785	243.058
367.16	255.893
370.535	266.066
373.91	238.931
377.284	178.74
380.659	116.626
384.034	71.2425
387.409	42.73
390.784	23.9148
394.159	11.0577
397.533	5.55622
400.908	3.10116
404.283	0.335167
407.658	1.06577
411.033	1.0719
414.408	1.9591
417.782	1.81979
421.157	0.941856
424.532	3.10574
427.907	6.29607
431.282	7.51568
434.656	9.03689
438.031	10.9809
441.406	11.3652
444.781	9.54989
448.156	6.73985
451.531	7.87637
454.905	6.15084
458.28	4.07301
461.655	6.19508
465.03	9.0512
468.404	11.7479
471.779	19.5158
475.154	28.0504
478.529	35.0707
481.904	29.7763
485.279	21.9618
488.653	30.2627
492.028	50.264
495.403	83.2856
498.778	124.923
502.153	126.071
505.527	64.542
508.902	23.2872
512.277	8.13084
515.652	1.4737
519.027	0.085602
522.402	0.483376
525.776	1.76446
529.151	1.33363
532.526	2.141
535.901	7.85324
539.276	20.5681
542.65	40.7051
546.025	65.7224
549.4	101.988
552.775	144.87
556.15	168.513
559.525	129.228
562.899	68.9049
566.274	34.369
569.649	16.8238
573.024	11.8175
576.399	13.6499
579.774	20.3894
583.148	25.0972
586.523	21.7069
589.898	17.7422
593.273	22.9179
596.648	27.1854
600.022	29.2384
603.397	26.1978
606.772	22.3868
610.147	20.4027
613.522	20.1543
616.896	20.4804
620.271	23.7281
623.646	27.5009
627.021	34.548
630.396	41.8917
633.771	44.927
637.145	31.5649
640.52	16.2604
643.895	8.79028
647.27	4.31713
650.645	2.39639
654.019	2.39204
657.394	0.134758
660.769	0.41864
664.144	0.352829
667.519	0.669975
670.894	0.693153
674.268	0.863495
677.643	0.20266
681.018	0.462128
684.393	0.134171
687.768	1.1263
691.143	1.47913
694.517	1.20546
697.892	0.418839
701.267	4.08399
704.642	2.37906
708.016	4.27403
711.391	3.33108
714.766	4.30189
718.141	4.6758
721.516	5.22884
724.891	5.87417
728.265	7.41889
731.64	7.38522
735.015	6.21615
738.39	6.93166
741.765	7.15282
745.139	8.02095
748.514	7.65039
751.889	9.69537
755.264	8.18222
758.639	7.50342
762.014	8.23061
765.388	7.76123
768.763	7.35398
772.138	5.0907
775.513	4.41457
778.888	5.65985
782.263	3.64821
785.637	2.79923
789.012	1.6672
792.387	1.39861
795.762	1.53366
799.137	0.285339
802.511	0.223671
805.886	0.578194
809.261	0.328552
812.636	0.783592
816.011	0.945503
819.385	0.033752
822.76	1.74488
826.135	0.995461
829.51	0.680695
832.885	0.480278
836.26	2.11806
839.634	5.36027
843.009	12.2965
846.384	20.8453
849.759	34.5719
853.134	54.3965
856.509	74.2984
859.883	93.3969
863.258	93.8643
866.633	80.8953
870.008	65.1041
873.383	57.1959
876.757	58.0236
880.132	67.8797
883.507	87.3779
886.882	119.257
890.257	164.09
893.631	222.024
897.006	307.715
900.381	435.075
903.756	649.465
907.131	959.65
910.506	1382.86
913.88	1826.31
917.255	1888.12
920.63	1379.9
924.005	825.248
927.38	487.131
930.755	305.527
934.129	195.362
937.504	125.201
940.879	80.6473
944.254	51.2167
947.629	30.4904
951.003	18.6586
954.378	12.5964
957.753	6.68913
961.128	3.30548
964.503	1.22494
967.877	1.3682
971.252	0.220596
974.627	0.598801
978.002	0.271759
981.377	0.844681
984.751	1.4539
988.126	1.46056
991.501	0.654938
994.876	0.009903
998.251	1.40067
1001.63	5.13436
1005	7.8278
1008.38	13.0475
1011.75	17.6995
1015.12	20.4012
1018.5	25.0015
1021.88	32.2728
1025.25	44.6419
1028.62	56.3775
1032	71.8047
1035.37	89.6688
1038.75	99.9778
1042.12	99.9567
1045.5	87.8838
1048.87	64.0984
1052.25	42.8568
1055.62	26.5514
1059	17.9427
1062.37	10.9179
1065.75	6.9781
1069.12	5.40716
1072.5	3.86089
1075.87	3.55347
1079.25	1.89565
1082.62	3.60845
1086	1.67102
1089.37	1.10561
1092.75	1.05107
1096.12	1.26466
1099.49	0.959846
1102.87	0.163399
1106.24	0.471977
1109.62	0.120468
1112.99	0.397949
1116.37	1.01224
1119.74	0.614517
1123.12	0.599937
1126.49	0.928215
1129.87	2.1498
1133.24	1.65741
1136.62	2.21673
1139.99	2.14578
1143.37	2.58099
1146.74	2.15553
1150.12	3.90428
1153.49	3.32526
1156.87	4.69926
1160.24	6.19402
1163.62	6.77731
1166.99	7.71172
1170.37	7.44179
1173.74	7.61254
1177.12	7.71935
1180.49	6.14605
1183.87	5.68925
1187.24	7.52643
1190.62	5.30348
1193.99	5.8738
1197.37	4.90642
1200.74	3.72205
1204.12	3.36547
1207.49	2.6527
1210.86	2.38623
1214.24	2.11777
1217.61	1.82272
1220.99	0.377289
1224.36	0.728683
1227.74	1.09008
1231.11	1.00015
1234.49	0.041496
1237.86	0.123901
1241.24	1.47197
1244.61	1.58509
1247.99	1.56634
1251.36	2.64597
1254.74	3.3757
1258.11	3.43826
1261.49	4.12175
1264.86	3.21845
1268.24	2.52271
1271.61	3.622
1274.99	2.82939
1278.36	3.51797
1281.73	1.53702
1285.11	2.68564
1288.48	2.55709
1291.86	1.69521
1295.23	0.057594
1298.61	3.44858
1301.98	0.680832
