Measurement: Raman, 785 nm, unoriented, Raman Data Processed
Mineral: Almandine
Rruff sample: R070129
Ideal chemistry: Fe^2+^_3_Al_2_(SiO_4_)_3_
Locality: Wrangell, Wrangell Island, Wrangell-Petersburg Borough, Alaska, USA
Source: Michael Scott
Description: Dark red well-formed dodecahedral crystals in schist
Measured chemistry: (Fe^2+^_2.15_Mg_0.60_Mn_0.11_Fe^3+^_0.06_Ca_0.08_)_Σ=3_Al_2.00_((Si_0.98_Al_0.02_)_Σ=1_O_4_)_3_
Raman shift (cm-1)	intensity
129.506	0
132.399	130.914
135.291	267.444
138.184	129.119
141.077	19.3189
143.97	9.71036
146.862	79.7673
149.755	243.929
152.648	333.562
155.54	243.942
158.433	257.287
161.326	292.453
164.218	372.311
167.111	472.833
170.004	529.243
172.897	318.286
175.789	168.518
178.682	68.7701
181.575	13.7132
184.467	3.28354
187.36	15.6029
190.253	4.52264
193.145	25.7519
196.038	72.6459
198.931	102.053
201.823	157.058
204.716	225.792
207.609	304.584
210.502	352.276
213.394	358.006
216.287	315.002
219.18	256.843
222.072	176.79
224.965	123.497
227.858	90.2652
230.75	75.5025
233.643	62.6395
236.536	45.0429
239.429	35.6199
242.321	31.9797
245.214	18.2061
248.107	12.3205
250.999	16.5401
253.892	10.7433
256.785	1.74576
259.678	9.71301
262.57	5.55771
265.463	0.544769
268.356	11.7216
271.248	9.20956
274.141	3.93133
277.034	9.90311
279.926	1.7554
282.819	15.8119
285.712	27.9164
288.604	22.0815
291.497	55.0427
294.39	73.148
297.283	89.6003
300.175	111.295
303.068	139.29
305.961	207.907
308.853	252.227
311.746	380.161
314.639	472.591
317.531	478.026
320.424	495.034
323.317	566.072
326.21	718.484
329.102	931.072
331.995	1120.4
334.888	1321.01
337.78	1627.8
340.673	2084.67
343.566	2671.3
346.459	3063.27
349.351	2725.29
352.244	1816.81
355.137	1219.71
358.029	932.536
360.922	821.686
363.815	830.951
366.707	902.946
369.6	1020
372.493	1014.05
375.385	864.836
378.278	612.383
381.171	383.628
384.064	250.893
386.956	161.868
389.849	93.7673
392.742	54.1398
395.634	42.0433
398.527	44.9034
401.42	21.9302
404.312	3.85182
407.205	18.188
410.098	3.83369
412.99	0.830246
415.883	3.16746
418.776	1.38896
421.669	8.89754
424.561	0.208908
427.454	3.72502
430.347	11.8205
433.239	2.1198
436.132	4.99284
439.025	4.70634
441.918	4.51938
444.81	0.253723
447.703	2.23817
450.596	4.17094
453.488	4.1165
456.381	27.5043
459.274	0.467087
462.166	34.9198
465.059	53.2527
467.952	72.8704
470.844	99.1238
473.737	160.073
476.63	197.332
479.523	223.133
482.415	176.252
485.308	136.726
488.201	189.2
491.093	268.24
493.986	405.746
496.879	590.739
499.772	790.097
502.664	689.65
505.557	383.556
508.45	192.567
511.342	81.0169
514.235	54.8206
517.128	29.8712
520.02	7.12991
522.913	20.8541
525.806	5.16429
528.698	28.7101
531.591	29.1304
534.484	34.2047
537.377	70.9827
540.269	130.285
543.162	202.681
546.055	343.95
548.947	486.624
551.84	659.781
554.733	871.235
557.625	844.287
560.518	592.652
563.411	331.153
566.304	179.767
569.196	104.253
572.089	78.7357
574.982	57.4138
577.874	67.3411
580.767	93.0256
583.66	121.24
586.553	101.072
589.445	52.9055
592.338	50.3894
595.231	60.5707
598.123	50.406
601.016	40.8436
603.909	8.52011
606.801	1.78836
609.694	12.5088
612.587	12.2971
615.48	26.7382
618.372	12.9005
621.265	42.7556
624.158	88.2155
627.05	133.952
629.943	217.554
632.836	236.133
635.728	205.17
638.621	127.382
641.514	90.3129
644.407	58.3179
647.299	30.9204
650.192	35.7005
653.085	4.14699
655.977	14.5646
658.87	8.60693
661.763	13.3529
664.655	9.54925
667.548	6.218
670.441	8.20409
673.333	12.1722
676.226	5.12118
679.119	6.88879
682.012	15.389
684.904	0.51992
687.797	7.02554
690.69	9.43106
693.582	6.68095
696.475	7.3759
699.368	17.2759
702.26	16.652
705.153	4.76149
708.046	12.4917
710.939	19.4244
713.831	14.5105
716.724	24.4906
719.617	15.1692
722.509	18.486
725.402	38.8907
728.295	36.8364
731.188	35.1281
734.08	29.0954
736.973	35.9896
739.866	26.5399
742.758	34.3078
745.651	33.1243
748.544	40.5172
751.436	40.1603
754.329	35.82
757.222	24.4312
760.114	32.9764
763.007	34.0288
765.9	31.9269
768.793	22.9886
771.685	19.9194
774.578	26.0945
777.471	16.2884
780.363	12.9722
783.256	11.9612
786.149	3.11156
789.041	0.089935
791.934	8.39508
794.827	4.14822
797.72	4.17751
800.612	1.55504
803.505	7.22299
806.398	4.62306
809.29	8.37734
812.183	5.2804
815.076	6.57426
817.968	19.7772
820.861	13.16
823.754	12.8435
826.646	6.4884
829.539	5.21155
832.432	1.33046
835.325	4.95961
838.217	0.923401
841.11	10.2589
844.003	39.3146
846.895	52.0104
849.788	76.4321
852.681	152.68
855.573	232.127
858.466	307.25
861.359	375.543
864.252	403.618
867.144	352.929
870.037	280.933
872.93	209.606
875.822	191.323
878.715	202.742
881.608	248.579
884.5	289.486
887.393	402.38
890.286	536.817
893.179	695.257
896.071	934.615
898.964	1232.06
901.857	1643.04
904.75	2266.49
907.642	3357.66
910.535	4854.56
913.428	6645.93
916.32	7589.72
919.213	6855.55
922.106	4811.58
924.998	2982.36
927.891	1864.06
930.784	1205.36
933.677	795.19
936.569	555.254
939.462	356.928
942.355	254.108
945.247	157.776
948.14	90.832
951.033	69.1794
953.925	41.4461
956.818	17.8756
959.711	6.48611
962.603	19.5224
965.496	6.49728
968.389	0.006424
971.282	3.49893
974.174	2.70198
977.067	0.591644
979.96	19.0292
982.852	2.36237
985.745	12.7845
988.638	1.65305
991.53	1.95697
994.423	5.79501
997.316	4.05327
1000.21	2.01521
1003.1	11.5392
1005.99	16.3787
1008.89	30.868
1011.78	40.4487
1014.67	48.7908
1017.57	83.3361
1020.46	105.607
1023.35	141.117
1026.24	157.997
1029.13	221.129
1032.03	271.822
1034.92	346.64
1037.81	390.857
1040.71	450.76
1043.6	413.538
1046.49	346.342
1049.38	244.524
1052.28	174.755
1055.17	120.436
1058.06	61.1353
1060.95	65.1757
1063.85	46.8058
1066.74	26.7335
1069.63	17.9638
1072.53	10.6892
1075.42	18.3813
1078.31	17.3969
1081.2	11.6039
1084.1	1.98529
1086.99	12.9353
1089.88	9.6197
1092.78	24.8774
1095.67	10.3036
1098.56	0.825356
1101.45	27.1354
1104.35	18.2833
1107.24	14.7659
1110.13	25.2524
1113.02	17.8187
1115.92	11.9129
1118.81	18.7687
1121.7	1.6805
1124.6	9.69424
1127.49	9.86309
1130.38	20.0043
1133.27	11.3217
1136.16	22.8855
1139.06	8.39813
1141.95	29.0023
1144.84	16.9665
1147.74	15.8292
1150.63	20.5403
1153.52	40.9426
1156.41	14.0643
1159.31	27.0121
1162.2	27.7859
1165.09	38.657
1167.98	37.8451
1170.88	38.7046
1173.77	32.9115
1176.66	42.5978
1179.56	44.8464
1182.45	26.0726
1185.34	25.0684
1188.23	29.4863
1191.13	14.2174
1194.02	24.6871
1196.91	15.6082
1199.81	20.9129
1202.7	13.1732
1205.59	20.4801
1208.48	7.8217
1211.38	6.26569
1214.27	15.2744
1217.16	14.3234
1220.05	9.8752
1222.95	14.1481
1225.84	5.37331
1228.73	18.5601
1231.62	2.14168
1234.52	5.15008
