Measurement: Raman, 780 nm, unoriented, Raman Data Processed
Mineral: Almandine
Rruff sample: R100046
Ideal chemistry: Fe^2+^_3_Al_2_(SiO_4_)_3_
Locality: Altai, Xinjiang Province, China
Source: William W Pinch
Description: Red trapezohedron
Raman shift (cm-1)	intensity
91.5332	0
94.908	9.85189
98.2828	6.10199
101.658	1.87156
105.032	2.74665
108.407	4.63348
111.782	0.427647
115.157	0.596073
118.532	1.14154
121.907	0.517246
125.281	0.416214
128.656	1.43763
132.031	2.32227
135.406	3.92821
138.781	6.47987
142.155	6.45246
145.53	9.16961
148.905	11.8029
152.28	19.0455
155.655	26.6853
159.03	34.0122
162.404	42.8587
165.779	52.5316
169.154	62.5722
172.529	37.7448
175.904	18.4799
179.278	8.91041
182.653	3.39613
186.028	1.2762
189.403	2.93658
192.778	6.76907
196.153	9.90486
199.527	15.9176
202.902	22.4283
206.277	34.3519
209.652	45.5481
213.027	48.9609
216.401	42.1439
219.776	29.0567
223.151	19.289
226.526	12.9725
229.901	11.0145
233.275	6.67568
236.65	5.49619
240.025	4.49572
243.4	2.48328
246.775	1.1022
250.15	0.138138
253.524	0.544453
256.899	0.004677
260.274	0.281776
263.649	0.871103
267.024	1.35732
270.399	0.707293
273.773	0.168118
277.148	0.070473
280.523	0.502743
283.898	2.7029
287.273	2.43444
290.647	4.05101
294.022	5.89744
297.397	8.21699
300.772	10.8736
304.147	15.5817
307.522	22.4344
310.896	34.2965
314.271	46.7467
317.646	45.0685
321.021	48.6587
324.396	61.1044
327.77	83.432
331.145	104.034
334.52	124.214
337.895	163.237
341.27	232.726
344.644	333.438
348.019	364.691
351.394	256.484
354.769	152.476
358.144	102.518
361.519	83.9391
364.893	83.4324
368.268	90.4776
371.643	94.4296
375.018	77.4565
378.393	52.9668
381.767	33.0794
385.142	19.9514
388.517	13.3109
391.892	8.83951
395.267	4.76619
398.642	3.77148
402.016	1.92193
405.391	1.75939
408.766	0.633886
412.141	0.059578
415.516	0.081451
418.89	0.226961
422.265	0.727343
425.64	1.10724
429.015	0.092318
432.39	0.212135
435.765	0.773006
439.139	0.002089
442.514	0.378162
445.889	0.600193
449.264	0.439369
452.639	1.22702
456.014	1.59994
459.388	3.21621
462.763	4.10137
466.138	5.74017
469.513	9.79556
472.887	15.1201
476.262	22.4702
479.637	25.8217
483.012	18.0347
486.387	15.2425
489.762	17.8526
493.136	30.3421
496.511	56.0197
499.886	87.0983
503.261	67.5077
506.636	29.4469
510.01	14.0803
513.385	7.12836
516.76	4.03846
520.135	3.08576
523.51	2.27415
526.885	2.55984
530.259	3.6473
533.634	5.79678
537.009	9.8885
540.384	16.1705
543.759	25.2006
547.134	39.5049
550.508	64.4061
553.883	95.6488
557.258	101.82
560.633	64.8852
564.008	32.7477
567.382	17.021
570.757	8.92952
574.132	6.99508
577.507	7.3118
580.882	10.6169
584.256	12.7867
587.631	6.29934
591.006	2.82143
594.381	1.83628
597.756	3.56115
601.131	1.30679
604.505	0.003292
607.88	1.10516
611.255	1.07405
614.63	0.356548
618.005	1.80336
621.38	5.31211
624.754	9.54333
628.129	16.3205
631.504	26.0183
634.879	25.4175
638.254	14.9911
641.628	7.72043
645.003	5.1105
648.378	3.54588
651.753	2.0369
655.128	1.6268
658.503	1.25762
661.877	0.562928
665.252	0.691981
668.627	0.326258
672.002	0.010678
675.377	0.164116
678.751	0.456933
682.126	0.309952
685.501	0.839298
688.876	0.832005
692.251	0.594311
695.625	0.710964
699	1.19091
702.375	1.60126
705.75	1.58957
709.125	0.918447
712.5	1.46537
715.874	1.29557
719.249	2.34829
722.624	2.20946
725.999	2.3519
729.374	2.76132
732.749	3.15852
736.123	3.06832
739.498	3.08554
742.873	3.59527
746.248	2.83568
749.623	4.0105
752.997	3.3744
756.372	3.66258
759.747	4.08373
763.122	2.93885
766.497	2.74724
769.871	2.90376
773.246	2.83667
776.621	1.87087
779.996	1.9913
783.371	1.15542
786.745	1.05923
790.12	0.858527
793.495	0.440877
796.87	0.575029
800.245	0.60124
803.62	0.553228
806.994	0.383687
810.369	0.008962
813.744	0.011261
817.119	0.365026
820.494	0.184019
823.869	0.303968
827.243	0.417233
830.618	0.515039
833.993	0.160479
837.368	0.760475
840.743	3.45949
844.117	5.84389
847.492	10.2806
850.867	17.6381
854.242	25.3057
857.617	39.2874
860.991	51.5801
864.366	49.4956
867.741	39.9115
871.116	29.9409
874.491	24.3713
877.866	23.9358
881.24	28.5106
884.615	37.5833
887.99	49.4517
891.365	68.2785
894.74	96.5939
898.115	130.674
901.489	176.604
904.864	252.654
908.239	375.739
911.614	561.416
914.989	767.333
918.363	740.207
921.738	485.361
925.113	272.504
928.488	159.968
931.863	98.9141
935.237	63.7233
938.612	39.8953
941.987	23.9327
945.362	15.8507
948.737	10.2239
952.112	5.62663
955.486	3.3743
958.861	2.62498
962.236	1.18222
965.611	0.032433
968.986	0.195978
972.361	0.482069
975.735	0.005737
979.11	0.366835
982.485	0.068392
985.86	0.01429
989.235	0.75251
992.609	0.50819
995.984	0.508783
999.359	0.801794
1002.73	1.64349
1006.11	2.47509
1009.48	3.17761
1012.86	5.23687
1016.23	7.27989
1019.61	11.0492
1022.98	15.2737
1026.36	19.9153
1029.73	26.8196
1033.11	35.1028
1036.48	44.1284
1039.86	50.1132
1043.23	47.8363
1046.61	40.3016
1049.98	27.9261
1053.36	17.0615
1056.73	10.3578
1060.11	6.67343
1063.48	4.07016
1066.86	2.80538
1070.23	1.60172
1073.61	2.33873
1076.98	1.37303
1080.36	1.24327
1083.73	0.719178
1087.1	0.510156
1090.48	1.11541
1093.85	0.70975
1097.23	0.341326
1100.6	0.333372
1103.98	0.086564
1107.35	0.800588
1110.73	0.271749
1114.1	0.01241
1117.48	0.198488
1120.85	0.636302
1124.23	0.186827
1127.6	0.155712
1130.98	0.485064
1134.35	0.010729
1137.73	0.68058
1141.1	1.02382
1144.48	0.989636
1147.85	0.652311
1151.23	0.968165
1154.6	1.62163
1157.97	2.27404
1161.35	1.76445
1164.72	1.97228
1168.1	2.38531
1171.47	2.47248
1174.85	2.32983
1178.22	3.03544
1181.6	2.40887
1184.97	2.31742
1188.35	2.27185
1191.72	1.51963
1195.1	2.28906
1198.47	1.08092
1201.85	1.58726
1205.22	0.923844
1208.6	0.760614
1211.97	0.739158
1215.35	0.658684
1218.72	1.69877
1222.1	0.691476
1225.47	1.46192
1228.85	0.123936
1232.22	0.356131
1235.6	0.001324
1238.97	0.819293
1242.35	0.053032
1245.72	0.13052
1249.1	0.507188
1252.47	0.58534
1255.85	1.30817
1259.22	0.291466
1262.6	1.02245
1265.97	0.473972
1269.34	1.03598
1272.72	1.27707
1276.09	1.06078
1279.47	0.124691
1282.84	0.652358
