Measurement: Raman, 514 nm, unoriented, Raman Data Processed
Mineral: Almandine
Rruff sample: R040079
Ideal chemistry: Fe^2+^_3_Al_2_(SiO_4_)_3_
Locality: Ontario, Canada
Source: University of Arizona Mineral Museum
Description: Dark red dodecahedral crystal
Measured chemistry: (Fe^2+^_2.29_Mg_0.53_Ca_0.18_)_Î£=3_Al_2.00_(Si_1.00_O_4_)_3_
Raman shift (cm-1)	intensity
183.493	0
187.63	89.295
191.765	176.998
195.898	173.881
200.029	235.589
204.158	340.309
208.285	659.67
212.41	752.075
216.533	575.075
220.654	442.263
224.773	373.431
228.891	190.453
233.006	143.984
237.119	229.845
241.231	201.365
245.34	153.148
249.448	73.166
253.553	82.897
257.657	89.38
261.758	99.93
265.858	27.306
269.956	128.542
274.052	120.171
278.146	170.322
282.237	80.143
286.327	107.532
290.416	46.447
294.502	50.542
298.586	150.961
302.668	192.479
306.749	432.593
310.827	615.069
314.903	614.049
318.978	580.174
323.051	641.893
327.121	589.753
331.19	640.634
335.257	1091.07
339.322	2127.61
343.385	3888.61
347.446	5576.06
351.505	5007.66
355.563	2801.13
359.618	1731.29
363.672	1104.02
367.723	717.165
371.773	566.352
375.821	553.957
379.866	515.48
383.91	312.28
387.952	299.156
391.992	159.336
396.031	69.624
400.067	18.118
404.101	36.133
408.134	4.444
412.165	108.667
416.193	159.386
420.22	52.821
424.245	58.44
428.268	68.673
432.289	106.625
436.309	58.639
440.326	3.678
444.342	75.664
448.355	119.479
452.367	21.88
456.377	4.678
460.385	178.787
464.391	137.791
468.395	156.819
472.398	206.442
476.398	200.275
480.397	758.732
484.394	599.94
488.389	274.73
492.382	440.865
496.373	899.529
500.362	1739.57
504.349	1570.88
508.335	727.435
512.319	483.988
516.3	462.588
520.28	522.673
524.259	322.346
528.235	163.013
532.209	374.354
536.182	389.959
540.152	336.756
544.121	710.841
548.088	854.653
552.053	1348.04
556.017	2117.41
559.978	2040.86
563.938	1418.59
567.895	864.752
571.851	540.016
575.805	276.447
579.758	269.896
583.708	366.703
587.657	429.066
591.603	373.949
595.548	240.777
599.491	138.295
603.432	83.549
607.372	153.514
611.309	182.633
615.245	104.656
619.179	252.34
623.111	231.205
627.041	449.17
630.97	332.277
634.896	724.721
638.821	638.42
642.744	463.902
646.665	203.791
650.584	364.682
654.502	309.842
658.418	41.426
662.331	250.664
666.244	291.277
670.154	9.693
674.062	19.102
677.969	37.555
681.874	168.004
685.777	65.688
689.678	101.424
693.577	6.572
697.475	84.957
701.371	185.594
705.265	128.238
709.157	238.01
713.047	48.293
716.936	300.77
720.823	301.375
724.708	172.527
728.591	241.395
732.472	307.062
736.352	220.922
740.23	188.117
744.106	151.09
747.98	96.887
751.853	40.809
755.723	136.234
759.592	39.945
763.459	184.268
767.325	99.609
771.188	227.203
775.05	441.654
778.91	38.686
782.768	176.389
786.625	179.742
790.479	281.738
794.332	268.293
798.183	284.818
802.033	76.564
805.88	363.58
809.726	1.133
813.57	174.641
817.413	282.826
821.253	188.301
825.092	219.014
828.929	144.447
832.764	101.707
836.598	309.811
840.429	189.148
844.259	365.828
848.088	191.818
851.914	812.455
855.739	774.83
859.562	1255.36
863.383	1790.93
867.203	1767.96
871.02	1448.14
874.836	1276.56
878.65	1012.04
882.463	1285.32
886.274	1179.54
890.083	1955.54
893.89	2451.85
897.695	2657.31
901.499	3634.75
905.301	4993.44
909.102	7567.86
912.9	12313.2
916.697	20597.5
920.492	22327.1
924.285	14753.6
928.077	8347.7
931.867	4921.99
935.655	3225.79
939.442	2581.71
943.226	1739.09
947.009	1480.59
950.791	1130.82
954.57	948.457
958.348	878.898
962.124	1083.18
965.899	634.926
969.671	657.973
973.442	757.918
977.211	730.777
980.979	688.457
984.745	766.266
988.509	807.742
992.271	530.688
996.032	382.035
999.791	625.16
1003.55	257.66
1007.3	503.625
1011.06	731.148
1014.81	822.773
1018.56	1006.08
1022.31	787.633
1026.06	1072.29
1029.8	967.062
1033.55	1040
1037.29	1725.47
1041.03	1952.36
1044.77	2249.96
1048.5	1706.45
1052.24	1762.82
1055.97	956.773
1059.7	685.363
1063.43	913.398
1067.16	664.758
1070.89	398.551
1074.61	630.012
1078.34	611.328
1082.06	672.594
1085.78	664.336
1089.5	417.469
1093.21	387.676
1096.93	475.621
1100.64	428.152
1104.35	569.605
1108.06	104.727
1111.77	504.723
1115.48	464.727
1119.18	421.938
1122.89	363.145
1126.59	217.805
1130.29	55.953
1133.99	45.539
1137.68	195.781
1141.38	249.125
1145.07	173.051
1148.76	127.301
1152.45	94.57
1156.14	103.297
1159.83	91.898
1163.51	479.941
1167.19	364.836
1170.88	282.379
1174.56	16.547
1178.23	483.543
1181.91	234.98
1185.59	695.383
1189.26	523.523
1192.93	542.449
1196.6	385.059
1200.27	515.68
1203.94	924.578
1207.6	226.062
1211.27	344.438
1214.93	690.527
1218.59	540.059
1222.25	444.273
1225.9	727.148
1229.56	447.102
1233.21	388.02
1236.86	640.301
1240.51	544.801
1244.16	580.852
1247.81	663.891
1251.45	728.129
1255.1	606.57
1258.74	250.273
1262.38	76.039
1266.02	926.059
1269.66	604.387
1273.29	431.246
1276.93	500.586
1280.56	736.559
1284.19	499.465
1287.82	429.496
1291.45	93.855
1295.07	349.992
1298.7	160.867
1302.32	549.562
1305.94	212.965
1309.56	432.914
1313.18	146.398
1316.8	491.758
1320.41	80.852
1324.02	277.219
1327.63	491.375
1331.24	75.695
1334.85	83.719
1338.46	19.047
1342.06	45.879
1345.67	97.688
1349.27	526.277
1352.87	360.176
1356.47	497.199
1360.07	539.797
1363.66	176.621
1367.25	396.668
1370.85	827.973
1374.44	842.523
1378.03	568.172
1381.61	634.781
1385.2	913.785
1388.78	612.902
1392.37	989.633
1395.95	916.984
1399.53	822.98
1403.1	1019.9
1406.68	178.781
1410.26	699.051
1413.83	519.238
1417.4	452.902
1420.97	224.73
1424.54	481.695
1428.1	294.363
1431.67	61.488
1435.23	492.75
1438.8	656.875
1442.36	288.129
1445.91	393.582
1449.47	593.922
1453.03	861.211
1456.58	941.277
1460.13	707.133
1463.68	564.879
1467.23	19.492
1470.78	525.754
1474.33	853.309
1477.87	261.68
1481.42	176.027
1484.96	246.566
1488.5	2.699
