Measurement: Raman, 532 nm, unoriented, Raman Data Processed
Mineral: Almandine
Rruff sample: R070129
Ideal chemistry: Fe^2+^_3_Al_2_(SiO_4_)_3_
Locality: Wrangell, Wrangell Island, Wrangell-Petersburg Borough, Alaska, USA
Source: Michael Scott
Description: Dark red well-formed dodecahedral crystals in schist
Measured chemistry: (Fe^2+^_2.15_Mg_0.60_Mn_0.11_Fe^3+^_0.06_Ca_0.08_)_Σ=3_Al_2.00_((Si_0.98_Al_0.02_)_Σ=1_O_4_)_3_
Raman shift (cm-1)	intensity
153.556	0
156.449	80.8252
159.342	178.243
162.235	289.847
165.127	418.643
168.02	593.868
170.913	559.148
173.805	257.103
176.698	124.073
179.591	33.2227
182.483	17.1754
185.376	5.81222
188.269	0.575256
191.162	33.6334
194.054	94.4694
196.947	143.449
199.84	249.416
202.732	357.403
205.625	450.407
208.518	581.982
211.411	651.215
214.303	616.109
217.196	515.259
220.089	369.862
222.981	260.264
225.874	210.264
228.767	157.927
231.659	108.798
234.552	100.504
237.445	93.1007
240.338	69.1842
243.23	46.4592
246.123	15.731
249.016	22.1766
251.908	1.67856
254.801	8.79218
257.694	2.00208
260.587	10.9526
263.479	18.4167
266.372	3.23908
269.265	1.6091
272.157	0.243073
275.05	3.36215
277.943	3.5072
280.835	23.2627
283.728	23.2103
286.621	44.3849
289.514	53.2228
292.406	69.2722
295.299	92.0895
298.192	123.004
301.084	192.972
303.977	259.393
306.87	362.057
309.762	514.749
312.655	679.961
315.548	742.548
318.44	650.046
321.333	637.019
324.226	736.006
327.119	903.746
330.011	1108
332.904	1367.36
335.797	1690.74
338.689	2207.51
341.582	2798.14
344.475	3421.78
347.368	3457.31
350.26	2607.58
353.153	1694.09
356.046	1163.22
358.938	949.083
361.831	926.955
364.724	968.814
367.616	1071.02
370.509	1076.82
373.402	1005.5
376.295	753.137
379.187	515.272
382.08	314.987
384.973	207.143
387.865	149.451
390.758	96.0481
393.651	62.2672
396.543	38.2431
399.436	28.0421
402.329	11.4765
405.221	12.9051
408.114	17.7658
411.007	0.053497
413.9	2.29022
416.792	0.505798
419.685	1.65408
422.578	16.6642
425.47	0.812012
428.363	3.57791
431.256	2.32458
434.149	24.3037
437.041	13.9624
439.934	8.13373
442.827	3.27167
445.719	3.30582
448.612	5.94769
451.505	29.5613
454.397	30.8669
457.29	43.7969
460.183	50.8655
463.076	106.62
465.968	176.67
468.861	242.559
471.754	336.169
474.646	424.272
477.539	567.228
480.432	525.789
483.325	380.35
486.217	389.048
489.11	556.017
492.003	848.056
494.895	1264.21
497.788	1716.71
500.681	1955.4
503.573	1321.76
506.466	647.081
509.359	324.813
512.251	197.01
515.144	123.668
518.037	61.0432
520.93	44.3025
523.822	17.3627
526.715	4.81284
529.608	17.0261
532.5	12.9907
535.393	39.2521
538.286	83.5043
541.178	145.953
544.071	253.568
546.964	429.558
549.857	611.886
552.749	813.222
555.642	933.539
558.535	765.889
561.427	474.98
564.32	273.431
567.213	164.426
570.106	89.8394
572.998	118.639
575.891	158.959
578.784	218.093
581.676	306.783
584.569	295.109
587.462	198.8
590.354	106.146
593.247	70.1143
596.14	61.243
599.033	68.9215
601.925	28.0817
604.818	1.07205
607.711	18.3949
610.603	10.4795
613.496	18.0215
616.389	53.99
619.281	89.5027
622.174	186.332
625.067	303.061
627.96	417.903
630.852	558.924
633.745	557.035
636.638	415.428
639.53	237.296
642.423	140.171
645.316	97.0111
648.208	71.5552
651.101	36.5234
653.994	56.7267
656.886	36.3768
659.779	18.0207
662.672	9.94266
665.565	11.7734
668.457	8.25116
671.35	9.31171
674.243	25.9049
677.135	16.8217
680.028	3.45099
682.921	14.8789
685.814	13.7746
688.706	3.49737
691.599	5.26599
694.492	30.7999
697.384	14.7784
700.277	35.4517
703.17	30.7097
706.062	27.7781
708.955	25.3265
711.848	44.5377
714.741	46.5594
717.633	29.2331
720.526	27.7609
723.419	40.2628
726.311	48.5899
729.204	53.07
732.097	76.6681
734.99	47.3085
737.882	69.5691
740.775	53.0632
743.668	62.2696
746.56	64.1226
749.453	58.0191
752.346	60.8492
755.238	68.553
758.131	52.9187
761.024	56.0412
763.917	44.5084
766.809	45.5025
769.702	52.94
772.595	39.3344
775.487	31.3352
778.38	27.9488
781.273	17.5431
784.165	14.7494
787.058	14.4912
789.951	24.1863
792.844	4.35379
795.736	14.4061
798.629	4.53549
801.522	22.3118
804.414	36.9134
807.307	0.085754
810.2	19.7909
813.092	1.49799
815.985	26.113
818.878	10.0488
821.771	3.17694
824.663	8.51444
827.556	1.23587
830.449	0.409851
833.341	7.27225
836.234	20.7392
839.127	61.5382
842.019	78.1413
844.912	132.848
847.805	243.887
850.698	378.206
853.59	608.961
856.483	818.173
859.376	1097.33
862.268	1284.44
865.161	1191.05
868.054	930.84
870.947	678.489
873.839	540.333
876.732	478.093
879.625	519.267
882.517	600.161
885.41	782.604
888.303	986.925
891.195	1305.69
894.088	1680.56
896.981	2138.18
899.874	2501.23
902.766	3049.1
905.659	4189.89
908.552	5869.8
911.444	8009.42
914.337	9890.54
917.23	10369.2
920.122	8314.92
923.015	5452.99
925.908	3382.24
928.801	2096.47
931.693	1384.45
934.586	935.186
937.479	622.592
940.371	403.643
943.264	268.129
946.157	174.549
949.049	94.89
951.942	39.5518
954.835	31.4644
957.727	14.9049
960.62	7.05096
963.513	25.7604
966.406	9.19806
969.298	4.93396
972.191	7.25201
975.084	1.87964
977.976	14.8164
980.869	12.1793
983.762	4.73346
986.654	5.36108
989.547	9.43646
992.44	17.8727
995.333	6.77887
998.225	28.3297
1001.12	17.3849
1004.01	49.0703
1006.9	95.5815
1009.8	115.282
1012.69	155.142
1015.58	209.849
1018.47	260.34
1021.37	363.525
1024.26	473.554
1027.15	636.834
1030.05	847.065
1032.94	1096.36
1035.83	1330.73
1038.72	1536.58
1041.62	1562.82
1044.51	1397.72
1047.4	1134.16
1050.29	813.944
1053.19	515.734
1056.08	343.457
1058.97	246.762
1061.87	139.579
1064.76	123.136
1067.65	89.9174
1070.54	54.1364
1073.44	45.8945
1076.33	24.9846
1079.22	12.251
1082.11	33.1661
1085.01	18.5336
1087.9	31.3745
1090.79	5.1012
1093.68	4.19501
1096.58	17.1416
1099.47	8.50302
1102.36	20.1701
1105.26	6.49124
1108.15	12.4655
1111.04	0.85553
1113.93	16.1458
1116.83	1.7598
1119.72	4.03449
1122.61	6.90988
1125.5	14.372
1128.4	10.8274
1131.29	5.78232
1134.18	12.9112
1137.08	11.2635
1139.97	10.0827
1142.86	14.2975
1145.75	17.0978
1148.65	16.799
1151.54	29.273
1154.43	25.4252
1157.32	37.7393
1160.22	42.802
1163.11	47.1598
1166	37.9972
1168.89	59.3053
1171.79	40.5793
1174.68	43.2543
1177.57	48.354
1180.47	52.4947
1183.36	49.2786
1186.25	49.2733
1189.14	36.3898
1192.04	37.8095
1194.93	33.9514
1197.82	26.7104
1200.71	31.7899
1203.61	28.5598
1206.5	33.8479
1209.39	4.68799
1212.29	32.789
1215.18	21.8417
1218.07	20.3862
1220.96	23.0119
1223.86	0.049683
1226.75	4.76367
1229.64	20.8187
1232.53	21.8768
1235.43	14.0388
1238.32	15.9731
1241.21	33.7645
1244.11	6.16083
1247	28.9952
1249.89	33.4211
1252.78	16.093
1255.68	28.3037
1258.57	48.3967
1261.46	27.9794
1264.35	36.6663
1267.25	42.4772
1270.14	32.7659
1273.03	31.0394
1275.92	23.7433
1278.82	13.0282
1281.71	21.6233
1284.6	44.2888
1287.49	14.3628
1290.39	20.9177
1293.28	33.9524
1296.17	19.6581
1299.07	6.39502
1301.96	3.81482
1304.85	27.0491
