Measurement: Raman, 785 nm, unoriented, Raman Data Processed
Mineral: Almandine
Rruff sample: R050029
Ideal chemistry: Fe^2+^_3_Al_2_(SiO_4_)_3_
Locality: Barton Garnet mine, Gore Mountain, Warren County, New York, USA
Source: University of Arizona Mineral Museum
Description: Reddish brown fragments
Measured chemistry: (Fe^2+^_1.34_Mg_1.26_Ca_0.37_Mn_0.03_)_Î£=3_Al_2.00_(Si_1.00_O_4_)_3_
Raman shift (cm-1)	intensity
131.144	0
134.037	20.9817
136.929	35.6573
139.822	9.17816
142.715	0.513245
145.607	117.641
148.5	271.988
151.393	395.863
154.286	385.816
157.178	329.324
160.071	266.372
162.964	264.592
165.856	307.039
168.749	303.121
171.642	339.369
174.534	383.815
177.427	420.067
180.32	355.07
183.212	257.236
186.105	260.125
188.998	280.694
191.891	217.948
194.783	273.38
197.676	293.035
200.569	331.197
203.461	365.151
206.354	341.039
209.247	348.766
212.139	371.147
215.032	307.839
217.925	275.728
220.818	221.696
223.71	199.824
226.603	154.688
229.496	118.154
232.388	107.888
235.281	81.0724
238.174	84.4343
241.066	65.8575
243.959	90.2358
246.852	72.0502
249.745	38.1596
252.637	11.5773
255.53	21.9539
258.423	26.5177
261.315	25.4123
264.208	18.994
267.101	1.57825
269.993	21.0762
272.886	8.7417
275.779	9.47485
278.672	0.31543
281.564	2.84656
284.457	9.90588
287.35	16.464
290.242	31.6316
293.135	2.44458
296.028	24.6974
298.921	31.1954
301.813	24.5645
304.706	105.53
307.599	130.906
310.491	156.652
313.384	250.395
316.277	272.771
319.169	287.352
322.062	304.974
324.955	348.89
327.847	473.013
330.74	576.637
333.633	793.196
336.526	990.29
339.418	1246.26
342.311	1530.77
345.204	1927.1
348.096	2436.79
350.989	3063.82
353.882	3539.96
356.774	3427.32
359.667	2840.62
362.56	2206.39
365.452	1738.91
368.345	1441.42
371.238	1282.39
374.131	1129.18
377.023	977.407
379.916	829.628
382.809	671.59
385.701	506.719
388.594	340.343
391.487	243.768
394.38	209.703
397.272	140.102
400.165	110.531
403.058	55.4241
405.95	47.614
408.843	54.8737
411.736	44.2751
414.628	24.5579
417.521	6.44678
420.414	13.1405
423.307	10.6678
426.199	5.69665
429.092	3.29187
431.985	17.4493
434.877	18.1747
437.77	0.648315
440.663	20.6251
443.555	2.37329
446.448	1.91296
449.341	13.5392
452.234	32.184
455.126	8.60339
458.019	26.3976
460.912	19.9237
463.804	52.4637
466.697	60.6442
469.59	73.7898
472.483	114.204
475.375	100.281
478.268	167.922
481.161	238.735
484.053	249.667
486.946	220.056
489.839	177.784
492.731	176.212
495.624	234.676
498.517	310.165
501.409	515.248
504.302	701.123
507.195	619.228
510.088	350.737
512.98	207.409
515.873	99.8512
518.766	82.0122
521.658	96.7361
524.551	86.7244
527.444	94.8696
530.337	67.0743
533.229	94.7716
536.122	110.665
539.015	166.436
541.907	278.189
544.8	373.998
547.693	586.757
550.585	822.902
553.478	1177.06
556.371	1510.4
559.263	1518.29
562.156	1080.5
565.049	613.208
567.942	306.054
570.834	153.883
573.727	104.742
576.62	48.062
579.512	14.4002
582.405	51.3037
585.298	38.4297
588.19	48.4955
591.083	20.6417
593.976	2.68823
596.869	12.2261
599.761	18.3389
602.654	8.10425
605.547	19.1301
608.439	7.03931
611.332	1.03674
614.225	9.82056
617.117	11.6328
620.01	3.46973
622.903	17.3765
625.795	80.339
628.688	147.008
631.581	231.467
634.474	333.23
637.366	409.486
640.259	379.292
643.152	281.386
646.044	160.692
648.937	128.569
651.83	96.5071
654.722	70.0817
657.615	34.9487
660.508	43.6783
663.401	25.1853
666.293	31.0857
669.186	16.0382
672.079	21.1219
674.971	36.8436
677.864	2.91699
680.757	19.3123
683.649	10.5696
686.542	1.20227
689.435	3.2876
692.328	13.5673
695.22	24.009
698.113	17.0138
701.006	26.6228
703.898	16.1868
706.791	17.479
709.684	49.912
712.577	51.4961
715.469	69.16
718.362	42.3584
721.255	39.1073
724.147	58.4788
727.04	51.7667
729.933	46.3468
732.825	53.8219
735.718	58.2499
738.611	64.0527
741.504	52.9864
744.396	86.9125
747.289	76.167
750.182	55.0509
753.074	80.1171
755.967	68.2992
758.86	65.0898
761.752	47.4248
764.645	35.4552
767.538	60.2749
770.431	55.7793
773.323	17.2015
776.216	36.4294
779.109	25.1603
782.001	25.6837
784.894	48.1257
787.787	4.14404
790.679	10.9866
793.572	4.49793
796.465	13.0515
799.357	23.7864
802.25	8.35669
805.143	8.77417
808.036	4.33643
810.928	4.44751
813.821	10.0302
816.714	2.71973
819.606	36.0503
822.499	11.8888
825.392	5.08398
828.284	3.95373
831.177	22.8362
834.07	7.50561
836.963	12.87
839.855	94.8509
842.748	133.411
845.641	244.932
848.533	384.035
851.426	513.833
854.319	740.373
857.212	899.817
860.104	1002.46
862.997	883.683
865.89	690.248
868.782	538.199
871.675	448.297
874.568	358.079
877.46	322.231
880.353	344.969
883.246	452.226
886.139	496.758
889.031	681.837
891.924	884.036
894.817	1134.05
897.709	1375.94
900.602	1823.07
903.495	2623.91
906.388	3863.6
909.28	5626.12
912.173	7931.06
915.066	9676.44
917.958	9692.74
920.851	7503.03
923.744	5061.62
926.636	3252.72
929.529	2127.02
932.422	1393.21
935.314	981.533
938.207	647.053
941.1	458.796
943.993	313.265
946.885	209.74
949.778	145.857
952.671	82.9471
955.563	65.8136
958.456	15.49
961.349	17.1811
964.241	8.14697
967.134	5.00085
970.027	18.231
972.92	30.8771
975.812	5.28772
978.705	4.10986
981.598	12.1387
984.49	32.5353
987.383	5.3302
990.276	8.56836
993.168	13.1592
996.061	0.285156
998.954	12.8286
1001.85	25.0275
1004.74	2.33142
1007.63	44.6233
1010.52	51.9468
1013.42	77.0521
1016.31	89.4853
1019.2	138.398
1022.1	140.35
1024.99	184.242
1027.88	212.409
1030.77	281.47
1033.67	348.222
1036.56	391.914
1039.45	485.274
1042.34	598.125
1045.24	582.94
1048.13	609.111
1051.02	539.788
1053.91	419.925
1056.81	307.488
1059.7	190.353
1062.59	147.986
1065.49	94.6576
1068.38	46.7151
1071.27	36.4954
1074.16	108.17
1077.06	36.5552
1079.95	23.7472
1082.84	34.8049
1085.73	28.0668
1088.63	25.8046
1091.52	38.3252
1094.41	56.9051
1097.31	26.3621
1100.2	23.352
1103.09	34.0425
1105.98	47.661
1108.88	2.68396
1111.77	26.8782
1114.66	35.1082
1117.56	36.998
1120.45	4.51355
1123.34	39.7351
1126.23	15.2452
1129.12	9.33496
1132.02	68.2253
1134.91	38.172
1137.8	49.1368
1140.7	53.7942
1143.59	59.6728
1146.48	49.7539
1149.37	67.625
1152.27	54.1769
1155.16	30.7244
1158.05	24.1847
1160.94	54.0513
1163.84	40.1249
1166.73	48.2712
1169.62	56.7372
1172.52	59.3751
1175.41	32.1975
1178.3	31.1594
1181.19	17.9083
1184.09	38.2286
1186.98	16.6268
1189.87	31.9244
1192.77	29.2484
1195.66	49.51
1198.55	35.3375
1201.44	28.9177
1204.34	32.8418
1207.23	8.5719
1210.12	8.49524
1213.01	20.194
1215.91	25.3634
1218.8	20.2483
1221.69	6.36755
1224.58	6.18225
1227.48	0.536133
1230.37	5.72595
