Measurement: Raman, 780 nm, unoriented, Raman Data Processed
Mineral: Almandine
Rruff sample: R120152
Ideal chemistry: Fe^2+^_3_Al_2_(SiO_4_)_3_
Locality: The garnet schist, Roxbury, Litchfield Co., Connecticut, USA
Source: Eric Van Valkenburg
Description: Dark brown dodecahedra
Raman shift (cm-1)	intensity
127.358	0
130.251	0.722641
133.144	0.578537
136.036	1.41812
138.929	4.06557
141.822	1.81364
144.714	2.00655
147.607	6.27915
150.5	10.2654
153.393	14.9902
156.285	27.0104
159.178	42.7008
162.071	65.9199
164.963	116.509
167.856	135.58
170.749	64.5228
173.642	28.2028
176.534	13.8849
179.427	5.12858
182.32	1.09104
185.212	1.00955
188.105	1.2734
190.998	0.459137
193.89	2.86293
196.783	4.8959
199.676	6.75523
202.569	12.4147
205.461	17.8761
208.354	22.8033
211.247	31.9265
214.139	36.6821
217.032	32.422
219.925	30.597
222.817	25.5728
225.71	22.6137
228.603	21.0562
231.495	18.4049
234.388	21.0731
237.281	18.6633
240.173	19.5001
243.066	16.1764
245.959	15.834
248.852	11.7565
251.744	8.8137
254.637	3.69946
257.53	1.97888
260.422	1.51747
263.315	0.139481
266.208	2.48861
269.101	0.642067
271.993	1.02297
274.886	0.924133
277.779	0.141373
280.671	0.168991
283.564	1.91833
286.457	2.62867
289.349	5.18122
292.242	7.40243
295.135	9.21402
298.027	11.5608
300.92	13.7374
303.813	17.4314
306.706	24.3081
309.598	32.4976
312.491	45.1702
315.384	59.6208
318.276	71.3258
321.169	93.8276
324.062	123.224
326.954	150.456
329.847	167.544
332.74	180.043
335.633	211.013
338.525	276.663
341.418	383.43
344.311	486.542
347.203	466.79
350.096	327.078
352.989	214.93
355.882	163.476
358.774	148.628
361.667	156.542
364.56	180.373
367.452	212.771
370.345	236.39
373.238	222.648
376.13	180.975
379.023	126.93
381.916	86.4699
384.808	57.1939
387.701	38.2748
390.594	26.1453
393.486	16.7665
396.379	10.3613
399.272	6.20364
402.165	4.88349
405.057	2.94732
407.95	1.38212
410.843	0.465309
413.735	0.736553
416.628	1.09964
419.521	0.334091
422.413	2.34246
425.306	0.29689
428.199	0.633602
431.092	0.391396
433.984	0.488197
436.877	0.170162
439.77	0.233685
442.662	0.597195
445.555	1.15078
448.448	0.005939
451.341	0.867729
454.233	2.06255
457.126	3.00328
460.019	4.8702
462.911	7.32258
465.804	7.55535
468.697	9.25074
471.589	11.6823
474.482	14.9161
477.375	17.7532
480.267	13.0161
483.16	8.40873
486.053	7.21776
488.946	11.2176
491.838	19.0838
494.731	35.9024
497.624	62.1339
500.516	64.4888
503.409	39.3043
506.302	18.1393
509.195	9.13095
512.087	4.90456
514.98	2.30296
517.873	2.71994
520.765	1.86692
523.658	3.12577
526.551	1.75916
529.443	3.0268
532.336	3.45092
535.229	6.0233
538.121	8.94455
541.014	15.4577
543.907	24.999
546.799	38.8702
549.692	67.0125
552.585	101.697
555.478	115.588
558.37	89.6316
561.263	52.7681
564.156	27.007
567.048	14.6862
569.941	9.08111
572.834	5.98674
575.726	5.09145
578.619	9.53886
581.512	10.69
584.405	9.65849
587.297	7.19938
590.19	8.2294
593.083	13.3453
595.975	16.1998
598.868	11.7373
601.761	4.60985
604.654	0.894573
607.546	0.827608
610.439	0.867342
613.332	0.715296
616.224	0.396069
619.117	2.02679
622.01	2.46309
624.902	7.00167
627.795	13.5306
630.688	18.5851
633.58	16.3673
636.473	8.82296
639.366	5.85867
642.259	3.62126
645.151	3.0926
648.044	1.82468
650.937	1.52463
653.829	0.893473
656.722	0.213549
659.615	0.672159
662.507	0.084606
665.4	0.762604
668.293	0.212429
671.186	0.028339
674.078	0.789318
676.971	0.782543
679.864	0.710915
682.756	1.16382
685.649	0.693853
688.542	1.51265
691.434	1.01867
694.327	0.7132
697.22	2.44168
700.112	1.08546
703.005	2.45083
705.898	1.16961
708.791	1.72251
711.683	1.62406
714.576	2.51811
717.469	2.61179
720.361	2.80276
723.254	2.57005
726.147	3.69919
729.039	3.58862
731.932	2.42624
734.825	3.10942
737.718	3.13334
740.61	3.53495
743.503	3.18853
746.396	3.62049
749.288	4.2871
752.181	3.65958
755.074	3.13288
757.966	3.5205
760.859	4.05021
763.752	4.10802
766.645	3.13406
769.537	2.33662
772.43	3.16412
775.323	1.7566
778.215	2.54913
781.108	3.00699
784.001	1.72949
786.894	0.891228
789.786	2.0773
792.679	1.01294
795.572	0.571613
798.464	1.0206
801.357	0.030779
804.25	0.997139
807.142	0.581188
810.035	0.250074
812.928	0.207197
815.82	0.637259
818.713	1.36983
821.606	0.711327
824.499	0.468187
827.391	1.40134
830.284	0.177612
833.177	0.335312
836.069	0.2048
838.962	1.33853
841.855	2.11813
844.747	4.46802
847.64	7.02741
850.533	10.905
853.426	16.6837
856.318	25.2273
859.211	32.7861
862.104	34.2886
864.996	32.2309
867.889	26.1772
870.782	22.6299
873.674	20.2778
876.567	23.0327
879.46	25.7401
882.352	31.0607
885.245	40.9334
888.138	54.0503
891.031	73.1442
893.923	98.68
896.816	128.036
899.709	167.667
902.601	234.526
905.494	349.791
908.387	537.129
911.279	779.152
914.172	945.265
917.065	856.646
919.958	592.616
922.85	369.409
925.743	235.191
928.636	155.185
931.528	107.96
934.421	73.1478
937.314	48.9234
940.207	33.3799
943.099	21.438
945.992	15.2986
948.885	10.0544
951.777	5.9075
954.67	5.47652
957.563	2.7424
960.455	1.51444
963.348	1.63543
966.241	0.940228
969.133	0.421635
972.026	0.047798
974.919	0.490047
977.812	1.14383
980.704	0.390659
983.597	0.586552
986.49	1.57774
989.382	0.225895
992.275	0.661064
995.168	0.246666
998.06	1.18697
1000.95	0.063122
1003.85	0.409651
1006.74	2.94437
1009.63	3.98795
1012.52	7.00229
1015.42	9.33583
1018.31	10.8383
1021.2	13.8362
1024.1	18.2631
1026.99	23.7817
1029.88	32.1231
1032.77	40.8036
1035.67	49.63
1038.56	51.584
1041.45	46.8433
1044.34	37.064
1047.24	24.8525
1050.13	16.372
1053.02	11.157
1055.91	6.96691
1058.81	5.40361
1061.7	3.16192
1064.59	2.38782
1067.48	1.24646
1070.38	2.71105
1073.27	0.830891
1076.16	1.42929
1079.06	0.391672
1081.95	1.63422
1084.84	1.43956
1087.73	1.41463
1090.63	0.651546
1093.52	0.004461
1096.41	0.597042
1099.31	1.14993
1102.2	0.310986
1105.09	1.74517
1107.98	0.437763
1110.88	0.083107
1113.77	0.056448
1116.66	0.192402
1119.55	0.108463
1122.45	0.446959
1125.34	0.288092
1128.23	0.681095
1131.12	0.419672
1134.02	1.3246
1136.91	1.18519
1139.8	0.331324
1142.69	2.04993
1145.59	1.67877
1148.48	1.67894
1151.37	2.63875
1154.27	1.39485
1157.16	2.95509
1160.05	3.2921
1162.94	3.04564
1165.84	3.41862
1168.73	2.8715
1171.62	4.08153
1174.52	3.86723
1177.41	3.99444
1180.3	4.27867
1183.19	3.4809
1186.09	3.04189
1188.98	3.26241
1191.87	3.02468
1194.76	2.93987
1197.66	2.72551
1200.55	2.19583
1203.44	2.44715
1206.34	1.94055
1209.23	1.7347
1212.12	1.63078
1215.01	1.04845
1217.91	0.531279
1220.8	1.24674
1223.69	0.417139
1226.58	2.23147
1229.48	0.93346
1232.37	0.500429
1235.26	0.676544
1238.15	0.114491
1241.05	1.14398
1243.94	1.67886
1246.83	2.13255
1249.72	0.172304
1252.62	2.251
1255.51	2.44089
1258.4	1.28307
1261.3	2.34277
1264.19	0.171539
1267.08	1.22103
1269.97	0.693031
1272.87	0.771482
1275.76	0.104147
1278.65	0.636461
1281.55	0.897484
