Measurement: Raman, 532 nm, unoriented, Raman Data Processed
Mineral: Almandine
Rruff sample: R040168
Ideal chemistry: Fe^2+^_3_Al_2_(SiO_4_)_3_
Locality: Pocos Dos Cavatos, Ceara, Brazil
Source: University of Arizona Mineral Museum
Description: Dark red etched single crystal
Measured chemistry: (Fe^2+^_1.48_Mn_1.47_Ca_0.05_)_Î£=3_Al_2.00_(Si_1.00_O_4_)_3_; trace amounts of Ti and Y
Raman shift (cm-1)	intensity
124.592	0
127.967	4.48738
131.341	4.36689
134.716	5.8376
138.091	27.4239
141.466	23.8108
144.841	20.0492
148.215	33.618
151.59	62.7456
154.965	105.415
158.34	157.148
161.715	277.873
165.09	433.048
168.464	213.867
171.839	135.525
175.214	103.371
178.589	85.8377
181.964	60.3549
185.339	31.8782
188.713	9.82581
192.088	13.3089
195.463	12.0804
198.838	19.5027
202.213	43.8636
205.587	70.6559
208.962	121.482
212.337	204.386
215.712	271.016
219.087	266.099
222.462	178.195
225.836	117.649
229.211	72.8056
232.586	47.338
235.961	31.4076
239.336	17.2499
242.71	10.4015
246.085	6.71756
249.46	1.77434
252.835	0.134689
256.21	4.07213
259.584	4.96565
262.959	5.39391
266.334	2.38472
269.709	6.43446
273.084	7.22201
276.459	3.35405
279.833	4.06357
283.208	8.53549
286.583	24.6924
289.958	28.0787
293.333	58.7569
296.707	81.139
300.082	101.356
303.457	126.575
306.832	151.157
310.207	229.945
313.582	329.011
316.956	457.63
320.331	592.362
323.706	626.206
327.081	465.855
330.456	401.304
333.83	469.259
337.205	670.012
340.58	984.037
343.955	1409.79
347.33	1437.64
350.705	832.204
354.079	475.61
357.454	409.33
360.829	466.097
364.204	602.064
367.579	841.746
370.954	1050
374.328	918.94
377.703	554.36
381.078	296.43
384.453	153.387
387.828	97.307
391.202	53.6415
394.577	38.1737
397.952	24.7463
401.327	4.0797
404.702	4.94881
408.077	6.7225
411.451	0.372299
414.826	4.19525
418.201	2.07185
421.576	0.720741
424.951	5.63256
428.325	11.4748
431.7	7.60114
435.075	4.6592
438.45	8.55413
441.825	3.89437
445.2	3.00193
448.574	0.813911
451.949	4.88847
455.324	10.6284
458.699	28.5401
462.074	32.8991
465.448	59.5269
468.823	92.7388
472.198	152.227
475.573	183.553
478.948	87.6151
482.322	52.7825
485.697	73.2359
489.072	108.108
492.447	200.582
495.822	339.492
499.197	453.149
502.571	275.35
505.946	100.517
509.321	55.1198
512.696	18.3713
516.071	14.1343
519.446	9.78923
522.82	7.38875
526.195	11.6207
529.57	16.9392
532.945	19.2643
536.32	26.3609
539.694	66.0227
543.069	110.815
546.444	209.917
549.819	311.176
553.194	372.75
556.568	281.356
559.943	142.695
563.318	69.3338
566.693	27.4391
570.068	19.0286
573.443	20.3729
576.817	11.7781
580.192	21.9784
583.567	27.8694
586.942	25.4459
590.317	53.8674
593.692	62.3213
597.066	30.025
600.441	2.29571
603.816	8.34418
607.191	6.17998
610.566	2.32427
613.94	9.40182
617.315	24.8825
620.69	42.9264
624.065	74.8326
627.44	120.195
630.814	118.148
634.189	65.5089
637.564	36.9017
640.939	25.2412
644.314	18.3663
647.689	4.98226
651.063	5.16518
654.438	5.26759
657.813	8.45602
661.188	1.41877
664.563	5.58692
667.938	5.39277
671.312	5.79479
674.687	0.614395
678.062	0.128593
681.437	0.328064
684.812	13.1891
688.186	10.3519
691.561	11.7239
694.936	8.43444
698.311	7.00528
701.686	11.259
705.061	17.1377
708.435	16.239
711.81	15.9165
715.185	15.3583
718.56	16.498
721.935	14.6688
725.309	11.3617
728.684	22.973
732.059	17.5601
735.434	17.9722
738.809	23.7999
742.183	19.2119
745.558	13.993
748.933	17.1819
752.308	18.9823
755.683	20.4801
759.058	11.497
762.432	10.0787
765.807	7.82001
769.182	15.2739
772.557	7.15679
775.932	10.2059
779.307	7.00228
782.681	8.37747
786.056	3.31773
789.431	1.62733
792.806	6.91224
796.181	6.71767
799.555	4.10614
802.93	1.8557
806.305	5.78134
809.68	9.71112
813.055	15.6594
816.429	13.2389
819.804	0.152832
823.179	5.72523
826.554	1.78775
829.929	0.330658
833.304	14.2103
836.678	12.3118
840.053	55.0219
843.428	76.4518
846.803	137.864
850.178	204.186
853.553	293.483
856.927	301.444
860.302	229.892
863.677	167.049
867.052	124.904
870.427	118.046
873.801	148.326
877.176	197.344
880.551	269.377
883.926	364.514
887.301	509.878
890.676	598.789
894.05	733.649
897.425	991.345
900.8	1556.27
904.175	2449.17
907.55	3525.97
910.924	3924.36
914.299	3025.22
917.674	1811.07
921.049	1080.8
924.424	640.719
927.798	409.643
931.173	237.132
934.548	147.996
937.923	88.2026
941.298	40.5586
944.673	31.1126
948.047	11.5689
951.422	3.34972
954.797	1.36673
958.172	3.63469
961.547	3.54869
964.922	2.12639
968.296	10.0655
971.671	16.9541
975.046	1.22557
978.421	5.26028
981.796	18.1799
985.17	2.34743
988.545	0.298508
991.92	0.757935
995.295	5.49724
998.67	24.1089
1002.04	22.1334
1005.42	36.1861
1008.79	58.4905
1012.17	70.6211
1015.54	92.6343
1018.92	133.811
1022.29	177.221
1025.67	265.33
1029.04	364.375
1032.42	398.947
1035.79	343.759
1039.17	235.522
1042.54	140.601
1045.92	86.8637
1049.29	40.8179
1052.67	34.7498
1056.04	18.9768
1059.42	18.1814
1062.79	11.1491
1066.17	13.6213
1069.54	13.6184
1072.92	4.32803
1076.29	14.6211
1079.66	7.61106
1083.04	3.91214
1086.41	7.84183
1089.79	12.9451
1093.16	6.30131
1096.54	1.98032
1099.91	2.4744
1103.29	0.170715
1106.66	8.74881
1110.04	2.24046
1113.41	7.51144
1116.79	6.79469
1120.16	0.654945
1123.54	1.57781
1126.91	5.97398
1130.29	2.4025
1133.66	8.14394
1137.04	9.02939
1140.41	5.06953
1143.79	1.19238
1147.16	9.82232
1150.54	11.5357
1153.91	9.46267
1157.29	12.2015
1160.66	25.7634
1164.04	20.4962
1167.41	16.564
1170.79	16.9717
1174.16	19.0875
1177.54	9.56573
1180.91	18.9236
1184.29	10.2946
1187.66	7.6777
1191.03	14.0099
1194.41	10.5186
1197.78	15.3212
1201.16	6.02916
1204.53	7.90636
1207.91	5.94778
1211.28	4.5142
1214.66	3.86512
1218.03	5.6243
1221.41	5.76594
1224.78	1.70308
1228.16	6.31438
1231.53	4.66516
1234.91	3.04837
1238.28	10.8929
1241.66	6.59199
1245.03	7.22881
1248.41	9.13005
1251.78	10.9726
1255.16	10.8395
1258.53	16.3372
1261.91	10.958
1265.28	8.97019
1268.65	15.8821
1272.03	14.2984
1275.4	10.1619
1278.78	17.267
1282.15	14.5018
1285.53	5.38064
1288.9	6.56222
1292.28	1.81174
1295.65	3.64294
1299.03	9.55741
1302.4	10.8193
