Measurement: Raman, 780 nm, unoriented, Raman Data Processed
Mineral: Almandine
Rruff sample: R040076
Ideal chemistry: Fe^2+^_3_Al_2_(SiO_4_)_3_
Locality: Barton Garnet mine, Gore Mountain, Warren County, New York, USA
Source: University of Arizona Mineral Museum
Description: Red coarsely crystalline
Measured chemistry: (Fe^2+^_1.38_Mg_1.26_Ca_0.33_Mn_0.03_)_Î£=3_Al_2.00_(Si_1.00_O_4_)_3_; trace amounts of Ti
Raman shift (cm-1)	intensity
127.237	0
130.13	86.0386
133.023	15.1306
135.915	12.8369
138.808	164.764
141.701	161.801
144.594	135.061
147.486	191.653
150.379	183.74
153.272	188.537
156.164	179.331
159.057	177.212
161.95	147.689
164.842	94.2393
167.735	145.61
170.628	101.86
173.52	301.959
176.413	547.064
179.306	530.239
182.199	321.907
185.091	120.865
187.984	129.637
190.877	115.323
193.769	183.539
196.662	349.574
199.555	477.362
202.447	682.265
205.34	872.64
208.233	1032.28
211.126	1090.63
214.018	1088.53
216.911	876.339
219.804	681.596
222.696	545.548
225.589	379.471
228.482	236.909
231.375	199.881
234.267	150.469
237.16	148.619
240.053	82.1494
242.945	95.7061
245.838	38.9397
248.731	176.685
251.623	48.9751
254.516	16.6665
257.409	63.0383
260.301	10.9314
263.194	24.7581
266.087	4.22949
268.98	10.5847
271.872	2.70435
274.765	6.05689
277.658	20.0898
280.55	11.3313
283.443	2.83569
286.336	26.1863
289.228	100.712
292.121	75.6592
295.014	134.974
297.907	171.155
300.799	194.288
303.692	260.167
306.585	375.78
309.477	546.102
312.37	728.361
315.263	904.696
318.156	1035.42
321.048	1042.66
323.941	1057.72
326.834	1252.09
329.726	1550.66
332.619	2036.04
335.512	2590.9
338.404	3265.67
341.297	3983.02
344.19	4920.69
347.082	6069.72
349.975	7646.87
352.868	9360.94
355.761	9996.04
358.653	8863.94
361.546	6876.06
364.439	5451.44
367.331	4483.29
370.224	4026.41
373.117	3704.63
376.01	3340.25
378.902	2745.09
381.795	2230.11
384.688	1749.1
387.58	1304.56
390.473	966.717
393.366	674.508
396.258	470.025
399.151	317.377
402.044	226.007
404.937	153.667
407.829	93.0508
410.722	95.4569
413.615	44.6233
416.507	18.5641
419.4	8.83508
422.293	27.0786
425.185	7.02625
428.078	37.0178
430.971	19.3084
433.863	4.44617
436.756	46.3718
439.649	13.0438
442.542	11.2402
445.434	3.1283
448.327	12.3024
451.22	2.34473
454.112	7.8717
457.005	27.4619
459.898	69.0491
462.791	63.7444
465.683	117.03
468.576	142.359
471.469	210.312
474.361	299.579
477.254	408.309
480.147	577.985
483.039	676.508
485.932	602.447
488.825	424.004
491.717	390.344
494.61	521.006
497.503	756.557
500.396	1218.01
503.288	1832.78
506.181	1987.05
509.074	1349.75
511.966	716.137
514.859	381.505
517.752	262.791
520.644	258.304
523.537	267.586
526.43	210.436
529.323	246.3
532.215	203.771
535.108	235.205
538.001	318.325
540.893	457.064
543.786	668.978
546.679	997.202
549.572	1515.49
552.464	2233.04
555.357	3062.49
558.25	3738.92
561.142	3225.77
564.035	2051.58
566.928	1111.11
569.82	550.577
572.713	234.464
575.606	100.79
578.499	33.6542
581.391	58.312
584.284	105.011
587.177	161.743
590.069	113.037
592.962	18.0029
595.855	14.48
598.747	6.68945
601.64	8.83008
604.533	25.035
607.426	61.4955
610.318	55.5503
613.211	28.6144
616.104	21.3782
618.996	34.5226
621.889	2.40967
624.782	109.13
627.674	196.181
630.567	365.87
633.46	663.954
636.352	959.205
639.245	1035.18
642.138	813.829
645.031	494.477
647.923	318.55
650.816	188.064
653.709	150.118
656.601	118.148
659.494	72.2705
662.387	31.0122
665.279	50.6069
668.172	8.68073
671.065	13.3497
673.958	56.966
676.85	12.6091
679.743	31.9744
682.636	7.11688
685.528	23.9943
688.421	28.623
691.314	29.0129
694.207	41.9501
697.099	22.4294
699.992	42.3296
702.885	24.5439
705.777	52.5387
708.67	74.8379
711.563	52.1233
714.455	91.3395
717.348	75.5494
720.241	96.0948
723.134	88.6407
726.026	83.6088
728.919	91.2494
731.812	81.1491
734.704	115.436
737.597	110.371
740.49	107.903
743.382	129.935
746.275	120.591
749.168	123.348
752.061	117.294
754.953	98.4562
757.846	95.3278
760.739	78.1224
763.631	87.4901
766.524	81.5601
769.417	91.2849
772.309	69.9435
775.202	74.6032
778.095	67.4838
780.987	50.6296
783.88	29.2634
786.773	29.3505
789.666	1.24622
792.558	8.34149
795.451	20.9226
798.344	13.6926
801.236	15.8927
804.129	3.50879
807.022	7.80695
809.914	7.16211
812.807	15.3193
815.7	18.4425
818.593	4.27283
821.485	23.3319
824.378	15.6379
827.271	28.8105
830.163	4.88281
833.056	18.358
835.949	47.3392
838.841	101.05
841.734	163.691
844.627	360.894
847.519	535.027
850.412	827.586
853.305	1220.27
856.198	1699.03
859.09	2082.86
861.983	2294.2
864.876	1996.77
867.768	1547.69
870.661	1142.91
873.554	906.79
876.447	838.04
879.339	752.936
882.232	909.295
885.125	1049.52
888.017	1308.1
890.91	1689.12
893.803	2151.53
896.695	2680.11
899.588	3339.43
902.481	4460.04
905.374	6338.18
908.266	9531.23
911.159	14002.8
914.052	19000.5
916.944	22359.7
919.837	20848.4
922.73	15660.1
925.622	10209.7
928.515	6512.46
931.408	4281.02
934.301	2869.82
937.193	1902.03
940.086	1313.16
942.979	912.067
945.871	585.408
948.764	437.98
951.657	254.851
954.549	176.884
957.442	122.97
960.335	66.77
963.227	17.5669
966.12	2.83521
969.013	29.6047
971.906	12.5298
974.798	21.8796
977.691	17.8834
980.584	17.77
983.476	13.9634
986.369	2.96167
989.262	0.551147
992.154	4.15198
995.047	16.9337
997.94	35.3053
1000.83	31.3014
1003.73	1.11255
1006.62	44.3413
1009.51	66.5356
1012.4	88.1422
1015.3	139.971
1018.19	227.075
1021.08	281.131
1023.97	329.358
1026.87	423.578
1029.76	542.068
1032.65	594.22
1035.55	785.683
1038.44	934.521
1041.33	1080.01
1044.22	1256.92
1047.12	1282.97
1050.01	1252.93
1052.9	1062.66
1055.79	772.481
1058.69	550.163
1061.58	353.796
1064.47	236.529
1067.37	149.455
1070.26	93.405
1073.15	86.386
1076.04	83.6248
1078.94	57.5673
1081.83	63.9612
1084.72	54.3537
1087.61	26.1323
1090.51	12.1391
1093.4	40.0257
1096.29	23.9544
1099.18	66.3397
1102.08	24.8339
1104.97	8.58051
1107.86	20.1858
1110.76	20.5018
1113.65	5.31622
1116.54	7.2616
1119.43	10.6686
1122.33	18.5121
1125.22	7.79541
1128.11	27.2178
1131	28.2286
1133.9	4.80212
1136.79	9.59467
1139.68	20.667
1142.58	26.4379
1145.47	19.048
1148.36	27.0938
1151.25	33.8731
1154.15	33.2815
1157.04	47.9579
1159.93	41.5988
1162.82	58.3351
1165.72	86.2848
1168.61	52.7513
1171.5	76.97
1174.39	87.5184
1177.29	63.8556
1180.18	58.777
1183.07	72.7821
1185.96	77.1203
1188.86	80.7968
1191.75	77.9338
1194.64	88.5623
1197.54	60.4339
1200.43	80.1584
1203.32	57.2797
1206.21	52.6493
1209.11	59.5972
1212	55.5658
1214.89	89.0053
1217.79	38.9265
1220.68	0.393982
1223.57	33.8721
1226.46	23.4405
1229.36	29.0879
1232.25	21.3857
1235.14	4.21222
1238.03	0.7547
1240.93	15.3645
1243.82	129.328
1246.71	5.3371
1249.61	4.19421
1252.5	28.7514
1255.39	37.3026
1258.28	15.1344
1261.18	8.46521
1264.07	19.9843
1266.96	0
