Measurement: Raman, 780 nm, unoriented, Raman Data Processed
Mineral: Almandine
Rruff sample: R120145
Ideal chemistry: Fe^2+^_3_Al_2_(SiO_4_)_3_
Locality: Zagi Mountain, Hameed Abad Kafoor Dheri, Peshawar, Khyber Pakhtunkhwa, Pakistan
Source: Ikram Mineralogy
Description: Brown crystal fragment
Raman shift (cm-1)	intensity
115.305	0
118.68	0.108269
122.055	0.9841
125.43	0.071312
128.805	2.79804
132.179	4.03081
135.554	6.9021
138.929	11.1928
142.304	14.0861
145.679	20.0814
149.054	26.099
152.428	31.6673
155.803	36.1563
159.178	36.0838
162.553	33.5052
165.928	36.0972
169.302	26.7148
172.677	12.7112
176.052	3.02547
179.427	0.259228
182.802	0.019875
186.177	1.11638
189.551	4.48033
192.926	9.87567
196.301	14.9215
199.676	21.0953
203.051	27.9833
206.425	34.4338
209.8	40.4312
213.175	44.7916
216.55	44.9748
219.925	39.8207
223.299	33.8466
226.674	26.1237
230.049	18.9361
233.424	14.9607
236.799	10.9385
240.173	7.82671
243.548	5.87831
246.923	3.77091
250.298	2.90741
253.673	1.26771
257.048	0.10516
260.422	0.241383
263.797	0.811012
267.172	0.899864
270.547	0.252972
273.922	0.032116
277.296	0.706631
280.671	0.71719
284.046	1.35813
287.421	2.74201
290.796	4.82927
294.171	7.57602
297.545	10.2387
300.92	13.5927
304.295	17.9039
307.67	22.8444
311.045	30.3528
314.42	33.9905
317.794	36.7059
321.169	43.3316
324.544	55.9242
327.919	77.5279
331.293	102.358
334.668	131.811
338.043	166.734
341.418	208.12
344.793	248.59
348.168	242.722
351.542	177.213
354.917	113.694
358.292	81.0453
361.667	65.6223
365.042	56.7386
368.416	51.3691
371.791	45.7581
375.166	38.905
378.541	30.7107
381.916	23.4814
385.291	16.93
388.665	12.5217
392.04	8.43871
395.415	5.54572
398.79	4.29415
402.165	2.97532
405.539	2.28151
408.914	1.28833
412.289	0.316488
415.664	0.466623
419.039	0.304758
422.413	0.39011
425.788	0.669159
429.163	0.49185
432.538	0.74975
435.913	0.391951
439.288	0.88656
442.662	0.269754
446.037	0.168325
449.412	1.26078
452.787	1.82809
456.162	3.13144
459.536	5.79192
462.911	8.69405
466.286	11.6059
469.661	14.8584
473.036	18.8916
476.411	22.6255
479.785	20.7593
483.16	21.9759
486.535	27.6868
489.91	35.5688
493.285	49.9164
496.659	70.9136
500.034	82.5677
503.409	54.2264
506.784	24.2439
510.159	11.9425
513.534	5.86274
516.908	2.75193
520.283	1.32988
523.658	1.32839
527.033	1.9995
530.408	3.3652
533.782	6.97801
537.157	14.0198
540.532	21.0933
543.907	31.136
547.282	43.4092
550.656	58.5081
554.031	65.1296
557.406	50.077
560.781	27.4539
564.156	13.6968
567.53	8.52069
570.905	7.18423
574.28	7.39492
577.655	8.55256
581.03	8.75113
584.405	5.42774
587.779	2.26426
591.154	2.01223
594.529	1.43641
597.904	0.941605
601.279	1.08819
604.654	0.749092
608.028	0.227314
611.403	1.66043
614.778	4.3286
618.153	6.30372
621.528	10.6608
624.902	14.7086
628.277	19.9991
631.652	20.5178
635.027	13.8947
638.402	7.51125
641.776	4.66441
645.151	3.25787
648.526	2.03941
651.901	1.18929
655.276	0.43103
658.65	0.884872
662.025	0.059734
665.4	0.0016
668.775	0.174383
672.15	0.161871
675.525	0.303727
678.899	0.177465
682.274	0.103404
685.649	0.684227
689.024	0.343182
692.399	0.530909
695.774	0.898543
699.148	1.28275
702.523	1.37801
705.898	1.23869
709.273	1.31607
712.648	1.49879
716.022	1.50948
719.397	1.88075
722.772	1.89088
726.147	1.96163
729.522	2.05697
732.896	1.95908
736.271	1.87206
739.646	2.29903
743.021	2.61998
746.396	2.89031
749.77	2.48093
753.145	2.30481
756.52	2.73731
759.895	2.59837
763.27	1.96131
766.645	1.82637
770.019	1.35671
773.394	1.29787
776.769	1.3745
780.144	0.853413
783.519	0.551382
786.894	0.765135
790.268	0.143801
793.643	0.055563
797.018	0.618786
800.393	1.25995
803.768	0.389919
807.142	0.55463
810.517	0.854179
813.892	0.314148
817.267	0.011721
820.642	0.553104
824.016	0.468781
827.391	1.21848
830.766	2.02127
834.141	2.48332
837.516	4.92033
840.89	9.45751
844.265	15.3029
847.64	21.9585
851.015	31.2077
854.39	37.4256
857.765	39.6257
861.139	33.584
864.514	26.7396
867.889	22.7393
871.264	22.5927
874.639	25.6639
878.013	32.5038
881.388	43.6339
884.763	58.9896
888.138	78.8709
891.513	107.557
894.888	146.832
898.262	207.468
901.637	294.727
905.012	405.414
908.387	518.191
911.762	547.404
915.136	435.061
918.511	277.628
921.886	166.368
925.261	103.538
928.636	66.6467
932.01	42.9149
935.385	26.5891
938.76	16.365
942.135	9.64031
945.51	6.65631
948.885	3.50363
952.259	1.97952
955.634	0.416082
959.009	0.096436
962.384	0.290361
965.759	0.18259
969.133	0.252632
972.508	0.123056
975.883	0.573008
979.258	0.006895
982.633	0.304079
986.008	0.554728
989.382	0.512615
992.757	0.012886
996.132	1.35667
999.507	2.52275
1002.88	3.84878
1006.26	5.99465
1009.63	8.49006
1013.01	11.2563
1016.38	15.7054
1019.76	20.5606
1023.13	28.3522
1026.51	37.1155
1029.88	46.4186
1033.26	52.6677
1036.63	50.7009
1040.01	40.4791
1043.38	27.1647
1046.75	17.121
1050.13	10.4412
1053.5	6.81487
1056.88	4.3988
1060.25	3.29126
1063.63	1.94755
1067	1.42026
1070.38	1.61708
1073.75	1.30065
1077.13	1.22259
1080.5	0.781983
1083.88	0.636744
1087.25	0.596343
1090.63	0.71684
1094	0.319193
1097.38	0.077465
1100.75	0.043259
1104.13	0.309935
1107.5	0.524111
1110.88	0.356171
1114.25	0.243603
1117.62	0.410388
1121	0.532307
1124.38	0.144894
1127.75	0.405543
1131.12	0.124135
1134.5	0.547171
1137.87	0.77222
1141.25	1.00676
1144.62	1.17154
1148	1.72268
1151.37	1.79885
1154.75	2.33406
1158.12	2.34955
1161.5	2.48613
1164.87	2.32754
1168.25	2.14455
1171.62	2.70684
1175	2.54347
1178.37	1.9117
1181.75	1.93864
1185.12	1.88416
1188.5	1.51484
1191.87	1.53329
1195.25	0.979359
1198.62	1.22883
1202	0.588726
1205.37	0.418152
1208.74	0.20345
1212.12	0.513105
1215.49	0.557283
1218.87	0.496327
1222.24	0.101241
1225.62	0.165219
1228.99	0.016264
1232.37	0.118381
1235.74	0.029515
1239.12	0.174912
1242.49	0.171372
1245.87	0.319491
1249.24	0.9686
1252.62	0.596385
1255.99	0.580546
1259.37	0.629285
1262.74	0.775845
1266.12	0.721079
1269.49	0.475517
1272.87	0.642956
1276.24	0.201711
1279.62	0.032799
1282.99	0.1691
