Measurement: Raman, 780 nm, unoriented, Raman Data Processed
Mineral: Almandine
Rruff sample: R040079
Ideal chemistry: Fe^2+^_3_Al_2_(SiO_4_)_3_
Locality: Ontario, Canada
Source: University of Arizona Mineral Museum
Description: Dark red dodecahedral crystal
Measured chemistry: (Fe^2+^_2.29_Mg_0.53_Ca_0.18_)_Î£=3_Al_2.00_(Si_1.00_O_4_)_3_
Raman shift (cm-1)	intensity
128.684	0
131.576	85.5239
134.469	13.6172
137.362	1.73633
140.255	99.4663
143.147	51.5171
146.04	35.3648
148.933	146.541
151.825	129.949
154.718	211.6
157.611	339.88
160.503	363.416
163.396	497.858
166.289	505.241
169.181	689.616
172.074	469.067
174.967	248.195
177.859	122.921
180.752	5.34814
183.645	4.37793
186.538	19.6946
189.43	60.3718
192.323	94.3401
195.216	127.789
198.108	148.329
201.001	250.694
203.894	361.517
206.786	481.131
209.679	537.051
212.572	565.488
215.465	573.86
218.357	526.514
221.25	410.555
224.143	308.945
227.035	280.089
229.928	227.63
232.821	228.152
235.714	187.699
238.606	170.437
241.499	127.285
244.392	139.815
247.284	77.845
250.177	95.4595
253.07	24.4561
255.962	14.5769
258.855	62.7458
261.748	23.0857
264.64	20.1111
267.533	13.9529
270.426	42.2153
273.319	14.9163
276.211	22.1352
279.104	15.5393
281.997	16.9602
284.889	10.3354
287.782	16.3794
290.675	82.3897
293.567	86.8648
296.46	20.8208
299.353	77.9697
302.246	52.5532
305.138	157.904
308.031	222.155
310.924	278.472
313.816	459.206
316.709	444.087
319.602	481.871
322.495	575.862
325.387	661.559
328.28	791.562
331.173	1035.65
334.065	1206.79
336.958	1526.8
339.851	2055.55
342.743	2379.28
345.636	2926.9
348.529	3074.01
351.421	2481.95
354.314	1742.61
357.207	1236.48
360.1	986.234
362.992	959.145
365.885	975.404
368.778	1018.09
371.67	987.946
374.563	889.877
377.456	677.167
380.349	435.606
383.241	273.823
386.134	166.015
389.027	90.1675
391.919	22.3445
394.812	11.8438
397.705	37.3313
400.597	16.874
403.49	4.78418
406.383	29.1528
409.276	23.6992
412.168	53.8125
415.061	115.793
417.954	88.665
420.846	131.211
423.739	180.613
426.632	231.533
429.524	267.055
432.417	320.582
435.31	405.569
438.202	433.348
441.095	530.51
443.988	546.049
446.881	493.889
449.773	502.841
452.666	414.042
455.559	320.779
458.451	284.117
461.344	219.922
464.237	184.632
467.13	129.151
470.022	170.024
472.915	170.705
475.808	192.097
478.7	180.194
481.593	150.945
484.486	122.871
487.378	112.901
490.271	168.309
493.164	322.875
496.057	574.202
498.949	783.013
501.842	848.001
504.735	553.505
507.627	295.135
510.52	124.499
513.413	48.5942
516.305	0.435303
519.198	11.5847
522.091	0.17627
524.984	7.80469
527.876	8.49243
530.769	23.2329
533.662	53.1543
536.554	28.3306
539.447	63.2617
542.34	135.045
545.232	218.675
548.125	440.852
551.018	520.197
553.91	702.523
556.803	762.244
559.696	641.987
562.589	400.149
565.481	218.999
568.374	146.883
571.267	76.5102
574.159	48.0913
577.052	122.677
579.945	123.589
582.837	184.599
585.73	189.044
588.623	145.044
591.516	164.245
594.408	146.081
597.301	187.703
600.194	241.132
603.086	234.297
605.979	175.584
608.872	180.182
611.764	188.396
614.657	165.194
617.55	141.567
620.443	95.7058
623.335	140.958
626.228	194.416
629.121	212.103
632.013	263.435
634.906	232.158
637.799	183.849
640.692	63.491
643.584	44.3726
646.477	52.2085
649.37	36.3777
652.262	32.8457
655.155	0.862305
658.048	24.3262
660.94	42.1582
663.833	38.4793
666.726	45.4912
669.619	37.051
672.511	52.3899
675.404	62.6697
678.297	25.176
681.189	17.7561
684.082	58.2756
686.975	13.158
689.867	11.2334
692.76	19.6316
695.653	42.3159
698.545	14.2471
701.438	33.9072
704.331	2.84033
707.224	40.9934
710.116	25.5757
713.009	33.8621
715.902	27.5395
718.794	50.384
721.687	39.9688
724.58	5.68799
727.472	24.7224
730.365	60.2246
733.258	35.0117
736.151	44.772
739.043	1.2146
741.936	6.91089
744.829	40.1299
747.721	26.1865
750.614	56.3547
753.507	31.6457
756.399	16.1748
759.292	21.4617
762.185	47.7393
765.078	57.7214
767.97	45.2964
770.863	38.4614
773.756	16.3257
776.648	28.3398
779.541	48.2129
782.434	52.3096
785.327	22.0002
788.219	45.418
791.112	3.77466
794.005	61.3835
796.897	5.55933
799.79	3.7207
802.683	17.2832
805.575	48.8406
808.468	0.805176
811.361	18.1611
814.254	32.8374
817.146	15.6992
820.039	33.3672
822.932	13.2092
825.824	7.71191
828.717	14.1665
831.61	21.9002
834.502	27.3691
837.395	2.16089
840.288	9.59619
843.181	31.2305
846.073	57.9719
848.966	86.4919
851.859	176.416
854.751	232.078
857.644	377.562
860.537	509.014
863.429	472.241
866.322	441.458
869.215	353.386
872.107	239.964
875	239.454
877.893	198.004
880.786	232.533
883.678	287.519
886.571	371.101
889.464	459.491
892.356	685.683
895.249	868.424
898.142	1060.06
901.034	1335.1
903.927	1880.15
906.82	2655.36
909.713	4027.02
912.605	5383.86
915.498	6392.77
918.391	6015.9
921.283	4592.34
924.176	2895.35
927.069	1871.23
929.962	1172.46
932.854	822.883
935.747	526.648
938.64	378.575
941.532	230.755
944.425	171.519
947.318	114.953
950.21	67.0637
953.103	56.9736
955.996	48.0691
958.889	8.5
961.781	49.2424
964.674	9.94385
967.567	5.57324
970.459	2.45361
973.352	3.83179
976.245	19.2983
979.137	34.7878
982.03	9.00195
984.923	12.2644
987.816	13.3757
990.708	14.9768
993.601	1.49805
996.494	19.9641
999.386	4.64038
1002.28	36.3887
1005.17	18.6658
1008.06	41.5627
1010.96	89.6558
1013.85	74.1523
1016.74	93.6702
1019.63	160.25
1022.53	166.011
1025.42	230.337
1028.31	220.649
1031.21	328.188
1034.1	391.785
1036.99	455.01
1039.88	529.838
1042.78	506.66
1045.67	495.012
1048.56	399.36
1051.45	290.17
1054.35	176.481
1057.24	117.031
1060.13	138.832
1063.03	66.6456
1065.92	54.5681
1068.81	34.3313
1071.7	37.3901
1074.6	61.4473
1077.49	38.3634
1080.38	60.1097
1083.28	39.0884
1086.17	15.2174
1089.06	23.1342
1091.95	45.0847
1094.85	25.1378
1097.74	4.8158
1100.63	7.85889
1103.52	30.4498
1106.42	39.2378
1109.31	6.14575
1112.2	1.52954
1115.09	8.36951
1117.99	24.0629
1120.88	31.957
1123.77	6.38831
1126.66	16.1954
1129.56	31.9891
1132.45	21.2205
1135.34	17.5674
1138.24	3.78894
1141.13	43.7274
1144.02	53.3052
1146.91	24.3657
1149.81	33.2191
1152.7	32.0057
1155.59	6.95984
1158.48	31.9578
1161.38	33.4051
1164.27	42.5782
1167.16	36.335
1170.06	91.6156
1172.95	49.9697
1175.84	42.2866
1178.73	68.3334
1181.63	20.7415
1184.52	49.0919
1187.41	51.583
1190.3	34.9531
1193.2	26.1519
1196.09	45.0175
1198.98	64.993
1201.88	31.6531
1204.77	35.8075
1207.66	19.1329
1210.55	29.354
1213.45	15.4402
1216.34	29.7931
1219.23	6.28979
1222.12	20.0801
1225.02	34.6398
1227.91	18.715
1230.8	28.6035
1233.69	31.5708
1236.59	33.7689
1239.48	11.8514
1242.37	19.6733
1245.27	24.0436
1248.16	29.0129
1251.05	9.32947
1253.94	51.7333
1256.84	12.2554
1259.73	22.0099
1262.62	26.2952
1265.52	2.90247
1268.41	0
