Measurement: Raman, 532 nm, unoriented, Raman Data Processed
Mineral: Almandine
Rruff sample: R040079
Ideal chemistry: Fe^2+^_3_Al_2_(SiO_4_)_3_
Locality: Ontario, Canada
Source: University of Arizona Mineral Museum
Description: Dark red dodecahedral crystal
Measured chemistry: (Fe^2+^_2.29_Mg_0.53_Ca_0.18_)_Î£=3_Al_2.00_(Si_1.00_O_4_)_3_
Raman shift (cm-1)	intensity
156.768	0
159.661	31.4873
162.554	177.191
165.446	245.555
168.339	376.35
171.232	337.982
174.124	166.764
177.017	21.2686
179.91	10.6562
182.803	22.3315
185.695	9.15527
188.588	10.4473
191.481	110.902
194.373	114.388
197.266	125.422
200.159	132.398
203.051	214.445
205.944	304.041
208.837	409.233
211.729	401.25
214.622	375.883
217.515	337.059
220.407	270.292
223.3	168.474
226.193	231.004
229.086	190.306
231.978	166.085
234.871	135.678
237.764	130.539
240.656	101.788
243.549	113.117
246.442	84.3623
249.334	56.6909
252.227	56.6777
255.12	16.9634
258.013	90.1475
260.905	20.7832
263.798	83.0869
266.691	42.5215
269.583	60.398
272.476	71.7798
275.369	53.6431
278.262	81.2759
281.154	27.0732
284.047	10.8599
286.94	12.1416
289.832	119.328
292.725	54.1279
295.618	8.92627
298.51	36.4468
301.403	162.382
304.296	151.734
307.188	201.632
310.081	260.8
312.974	352.158
315.867	459.93
318.759	406.233
321.652	448.48
324.545	571.073
327.437	713.251
330.33	971.906
333.223	1186.45
336.115	1482.89
339.008	1850.93
341.901	2344.67
344.794	2876.64
347.686	3095.78
350.579	2441.29
353.472	1643.71
356.364	1203.27
359.257	956.144
362.15	811.746
365.043	816.898
367.935	828.756
370.828	836.124
373.721	749.932
376.613	596.346
379.506	431.809
382.399	283.669
385.291	167.488
388.184	89.1084
391.077	37.3247
393.969	19.208
396.862	54.9995
399.755	27.8814
402.648	14.4521
405.54	1.37647
408.433	30.7954
411.326	21.8169
414.218	35.1377
417.111	7.875
420.004	155.913
422.897	148.173
425.789	200.404
428.682	153.588
431.575	263.033
434.467	325.211
437.36	282.397
440.253	280.128
443.145	332.505
446.038	329.702
448.931	305.538
451.824	254.226
454.716	239.411
457.609	184.154
460.502	90.2686
463.394	189.075
466.287	110.088
469.18	150.087
472.072	178.699
474.965	193.733
477.858	168.239
480.75	117.603
483.643	220.065
486.536	202.574
489.429	196.014
492.321	410.553
495.214	494.494
498.107	877.111
500.999	1027.57
503.892	746.414
506.785	346.349
509.678	128.857
512.57	28.8203
515.463	68.71
518.356	34.3984
521.248	59.8027
524.141	9.58594
527.034	19.041
529.926	27.2178
532.819	54.0215
535.712	139.48
538.604	134.945
541.497	151.642
544.39	272.058
547.283	383.703
550.175	515.475
553.068	771.434
555.961	887.873
558.853	766.134
561.746	481.091
564.639	269.171
567.531	237.318
570.424	59.166
573.317	85.6728
576.21	74.2236
579.102	206.697
581.995	205.118
584.888	223.236
587.78	165.409
590.673	158.919
593.566	215.488
596.458	227.14
599.351	264.127
602.244	213.306
605.136	134.622
608.029	76.1514
610.922	65.3672
613.815	168.583
616.707	64.2246
619.6	102.924
622.493	169.428
625.385	124.231
628.278	257.009
631.171	294.191
634.063	318.541
636.956	154.395
639.849	91.0781
642.742	47.1963
645.634	25.4688
648.527	53.1738
651.42	16.2021
654.312	36.6065
657.205	20.9023
660.098	72.3769
662.99	15.2822
665.883	18.1484
668.776	124.332
671.669	31.0537
674.561	39.9844
677.454	97.1768
680.347	17.1514
683.239	81.5068
686.132	120.776
689.025	27.793
691.918	13.3398
694.81	8.71777
697.703	2.37305
700.596	45.6514
703.488	100.728
706.381	132.435
709.274	144.431
712.166	134.853
715.059	75.8252
717.952	19.6484
720.845	127.357
723.737	112.269
726.63	87.083
729.523	81.4531
732.415	93.1875
735.308	69.3057
738.201	14.6621
741.093	139.31
743.986	63.8975
746.879	107.751
749.771	112.753
752.664	99.8301
755.557	16.4795
758.45	65.9238
761.342	2.58789
764.235	101.802
767.128	136.158
770.02	157.459
772.913	205.664
775.806	72.0439
778.698	69.335
781.591	107.889
784.484	108.008
787.377	80.0283
790.269	83.7998
793.162	58.9932
796.055	79.3125
798.947	62.4268
801.84	104.535
804.733	3.21875
807.625	33.1465
810.518	53.1934
813.411	62.5605
816.304	48.6357
819.196	26.1406
822.089	28.9424
824.982	90.5801
827.874	40.998
830.767	64.4932
833.66	13.1494
836.552	1.23438
839.445	24.8359
842.338	41.2109
845.231	152.517
848.123	191.714
851.016	223.275
853.909	365.049
856.801	558.004
859.694	718.648
862.587	680.811
865.479	663.635
868.372	488.53
871.265	334.705
874.158	386.728
877.05	309.961
879.943	393.054
882.836	453.93
885.728	585.821
888.621	686.121
891.514	917.118
894.406	1181.76
897.299	1555.15
900.192	1999.91
903.085	2708.13
905.977	3811.87
908.87	5210.68
911.763	7050.78
914.655	8505.12
917.548	8426.01
920.441	6783.41
923.333	4405.91
926.226	2717.44
929.119	1758.73
932.011	1179.04
934.904	837.89
937.797	583.905
940.69	398.399
943.582	268.779
946.475	225.719
949.368	96.8428
952.26	17.0166
955.153	56.6182
958.046	73.4717
960.938	98.0449
963.831	103.406
966.724	17.4473
969.617	51.709
972.509	49.9541
975.402	42.3262
978.295	34.125
981.187	20.3369
984.08	52.6611
986.973	35.4844
989.865	19.4883
992.758	27.1299
995.651	31.4355
998.544	8.19434
1001.44	42.3516
1004.33	50.1299
1007.22	101.918
1010.11	55.1377
1013.01	91.0732
1015.9	145.775
1018.79	227.93
1021.68	264.419
1024.58	303.709
1027.47	301.042
1030.36	500.915
1033.26	634.487
1036.15	743.407
1039.04	750.391
1041.93	711.813
1044.83	685.935
1047.72	445.242
1050.61	407.978
1053.51	238.544
1056.4	108.914
1059.29	123.968
1062.18	78.7236
1065.08	107.544
1067.97	6.87012
1070.86	36.2676
1073.75	115.358
1076.65	83.8603
1079.54	79.5986
1082.43	96.3184
1085.33	47.9385
1088.22	32.7978
1091.11	73.0889
1094	9.28613
1096.89	72.085
1099.79	76.7197
1102.68	33.7109
1105.57	139.491
1108.47	125.851
1111.36	107.461
1114.25	184.581
1117.14	145.349
1120.04	97.5557
1122.93	37.5703
1125.82	68.6914
1128.71	109.885
1131.61	100.695
1134.5	128.117
1137.39	124.474
1140.29	48.7432
1143.18	51.6397
1146.07	6.16894
1148.96	55.9902
1151.86	94.0996
1154.75	88.251
1157.64	30.8545
1160.54	76.1777
1163.43	65.6914
1166.32	41.9414
1169.21	59.9336
1172.11	82.9394
1175	86.9775
1177.89	76.1094
1180.78	38.3477
1183.68	161.366
1186.57	103.939
1189.46	113.332
1192.35	151.445
1195.25	77.041
1198.14	72.3965
1201.03	33.4727
1203.92	29.4062
1206.82	112.266
1209.71	62.3105
1212.6	96.2383
1215.5	104.738
1218.39	64.9961
1221.28	99.1582
1224.17	20.5117
1227.07	21.416
1229.96	32.2754
1232.85	40.0098
1235.74	28.0801
1238.64	166.699
1241.53	111.986
1244.42	59.7129
1247.32	138.99
1250.21	139.162
1253.1	125.34
1255.99	89.5996
1258.89	40.0137
1261.78	90.834
1264.67	99.0508
1267.57	4.61719
1270.46	87.6758
1273.35	145.978
1276.24	85.7617
1279.13	4.70703
