Measurement: Raman, 514 nm, unoriented, Raman Data Processed
Mineral: Almandine
Rruff sample: R050029
Ideal chemistry: Fe^2+^_3_Al_2_(SiO_4_)_3_
Locality: Barton Garnet mine, Gore Mountain, Warren County, New York, USA
Source: University of Arizona Mineral Museum
Description: Reddish brown fragments
Measured chemistry: (Fe^2+^_1.34_Mg_1.26_Ca_0.37_Mn_0.03_)_Î£=3_Al_2.00_(Si_1.00_O_4_)_3_
Raman shift (cm-1)	intensity
94.768	0
98.947	83.167
103.124	74.119
107.3	152.37
111.473	52.795
115.644	253.007
119.813	91.524
123.981	132.814
128.146	176.836
132.309	183.853
136.47	406.332
140.63	364.861
144.787	414.164
148.942	440.009
153.096	442.155
157.247	350.423
161.396	352.678
165.544	180.813
169.689	142.744
173.833	183.403
177.974	242.617
182.114	262.466
186.251	254.875
190.387	393.094
194.52	626.83
198.652	834.864
202.782	1067.14
206.909	1334.67
211.035	1182.47
215.159	965.529
219.281	822.855
223.4	655.441
227.518	611.277
231.634	486.359
235.748	361.681
239.86	458.245
243.97	392.055
248.079	285.119
252.185	293.437
256.289	279.001
260.391	285.919
264.492	264.917
268.59	287.018
272.687	205.861
276.781	332.64
280.874	275.233
284.964	248.2
289.053	248.418
293.14	265.772
297.225	379.047
301.308	411.083
305.389	580.411
309.468	798.004
313.545	987.84
317.62	1095.9
321.693	1092.16
325.765	1064.61
329.834	1334.24
333.902	1828.15
337.967	2494.99
342.031	3817.07
346.093	6025.3
350.153	9276.65
354.21	11633.1
358.267	9999.69
362.321	6746.41
366.373	4430.26
370.423	3165.24
374.471	2290.36
378.518	1688.67
382.563	1205.23
386.605	840.021
390.646	592.05
394.685	371.296
398.722	217.755
402.757	121.334
406.79	57.985
410.821	92.744
414.851	17.671
418.878	20.315
422.904	20.309
426.927	31.02
430.949	30.827
434.969	72.743
438.987	10.768
443.003	78.934
447.018	2.24
451.03	83.41
455.041	2.991
459.049	142.6
463.056	132.207
467.061	174.813
471.064	298.41
475.065	494.993
479.064	926.553
483.062	1179.08
487.057	877.579
491.051	729.034
495.043	973.443
499.032	1744.8
503.02	3099.11
507.007	2768.35
510.991	1594.72
514.973	974.934
518.954	794.013
522.933	770.237
526.91	711.1
530.885	814.722
534.858	872.617
538.829	1143.44
542.799	1564.01
546.766	2164.29
550.732	3475.53
554.696	5539.11
558.658	6524.61
562.618	4434.76
566.576	2317.65
570.533	1393.74
574.488	950.469
578.44	667.871
582.391	691.357
586.341	779.166
590.288	613.071
594.233	473.92
598.177	307.23
602.119	323.778
606.059	340.066
609.997	343.866
613.933	239.69
617.868	282.221
621.801	280.843
625.731	504.785
629.66	677.776
633.588	1276.23
637.513	1884.42
641.437	1624.41
645.358	1038.21
649.278	626.807
653.196	513.206
657.113	232.405
661.027	272.406
664.94	216.209
668.851	158.811
672.76	51.212
676.667	10.607
680.572	5.71
684.476	50.899
688.378	0.255
692.278	29.708
696.176	45.122
700.072	17.074
703.967	53.517
707.86	45.477
711.751	62.936
715.64	7.162
719.527	15.368
723.413	28.371
727.297	11.873
731.179	35.737
735.059	34.646
738.937	27.345
742.814	14.247
746.689	72.754
750.562	15.703
754.433	17.602
758.303	21.469
762.17	36.27
766.036	54.907
769.901	56.642
773.763	103.174
777.624	2.586
781.482	8.103
785.339	88.104
789.195	76.223
793.048	126.259
796.9	131.219
800.75	247.107
804.598	402.928
808.445	833.685
812.289	813.389
816.132	1281.06
819.973	880.37
823.813	1315.11
827.65	1650.1
831.486	1149.2
835.32	816.187
839.152	1005.5
842.983	1372.12
846.812	1922.51
850.639	2880.86
854.464	4211.18
858.288	5729.71
862.11	5828.02
865.93	4647.32
869.748	3750.05
873.564	3249.61
877.379	3056.27
881.192	3229.99
885.004	3725.9
888.813	4660.26
892.621	6041.19
896.427	7332.86
900.232	9220.01
904.034	13385
907.835	21757
911.634	35778.1
915.432	51280.9
919.227	48937.8
923.021	32658.8
926.813	19511
930.604	11916
934.393	7809.05
938.18	5326.38
941.965	3850.9
945.749	2818.59
949.53	2195.49
953.311	1754.45
957.089	1505.5
960.866	1357.41
964.641	1118.7
968.414	1080.82
972.185	976.293
975.955	911.923
979.723	1003.11
983.49	993.372
987.254	937.843
991.017	715.238
994.779	704.262
998.538	798.35
1002.3	624.952
1006.05	642.502
1009.81	784.338
1013.56	916.546
1017.31	1006.87
1021.06	1149.8
1024.81	1339.9
1028.55	1511.87
1032.3	1853.4
1036.04	2181.88
1039.78	2864.41
1043.52	3382.07
1047.26	3717.03
1050.99	3453.88
1054.73	2628.77
1058.46	1715.85
1062.19	1133.05
1065.92	722.342
1069.65	433.491
1073.37	349.777
1077.1	320.957
1080.82	315.284
1084.54	244.469
1088.26	156.293
1091.97	146.905
1095.69	3.162
1099.4	53.548
1103.12	115.866
1106.83	36.072
1110.54	39.101
1114.24	13.447
1117.95	17.279
1121.65	143.087
1125.35	111.651
1129.06	97.974
1132.75	40.206
1136.45	96.069
1140.15	61.042
1143.84	49.36
1147.53	19.101
1151.22	44.988
1154.91	14.81
1158.6	0.645
1162.28	37.756
1165.97	95.993
1169.65	81.098
1173.33	128.577
1177.01	223.08
1180.69	142.227
1184.36	232.374
1188.04	204.323
1191.71	177.517
1195.38	165.112
1199.05	242.775
1202.71	194.514
1206.38	175.897
1210.04	132.026
1213.71	168.531
1217.37	152.818
1221.03	145.953
1224.68	153.286
1228.34	171.534
1231.99	168.21
1235.65	117.062
1239.3	156.032
1242.95	119.014
1246.59	217.885
1250.24	202.407
1253.88	261.999
1257.53	97.971
1261.17	148.018
1264.81	145.24
1268.45	310.185
1272.08	241.18
1275.72	262.305
1279.35	230.963
1282.98	212.863
1286.61	137.172
1290.24	98.563
1293.87	122.075
1297.49	121.646
1301.11	94.227
1304.73	153.239
1308.36	149.744
1311.97	45.342
1315.59	28.918
1319.2	23.546
1322.82	46.808
1326.43	123.542
1330.04	17.217
1333.65	69.731
1337.26	28.016
1340.86	33.829
1344.47	10.62
1348.07	27.444
1351.67	133.416
1355.27	83.184
1358.87	111.097
1362.46	20.061
1366.06	26.415
1369.65	94.036
1373.24	108.203
1376.83	47.623
1380.42	31.469
1384	59.715
1387.59	78.53
1391.17	128.728
1394.75	63.191
1398.33	77.18
1401.91	137.95
1405.49	15.466
1409.06	74.915
1412.64	126.556
1416.21	145.185
1419.78	142
1423.35	161.722
1426.91	165.354
1430.48	101.729
1434.05	123.385
1437.61	187.056
1441.17	170.985
1444.73	51.728
1448.29	147.75
1451.84	264.228
1455.4	280.197
1458.95	189.963
1462.5	162.281
1466.05	138.316
1469.6	179.004
1473.15	176.683
1476.69	153.097
1480.24	158.909
1483.78	204.383
1487.32	126.947
1490.86	193.848
1494.39	228.876
1497.93	27.227
1501.46	132.259
1505	98.104
1508.53	5.691
1512.06	223.526
1515.59	2.384
1519.11	3.602
1522.64	69.911
