Measurement: Raman, 780 nm, unoriented, Raman Data Processed
Mineral: Almandine
Rruff sample: R060450
Ideal chemistry: Fe^2+^_3_Al_2_(SiO_4_)_3_
Locality: Canada
Source: Gemological Institute of America
Description: Reddish-brown translucent fragment
Measured chemistry: (Fe^2+^_1.92_Mg_1.03_Ca_0.04_Mn_0.01_)_Î£=3_Al_2.00_(Si_1.00_O_4_)_3_
Raman shift (cm-1)	intensity
94.6166	0
97.9915	1.66128
101.366	1.44202
104.741	0.601311
108.116	0.143049
111.491	0.796925
114.865	0.126404
118.24	0.448368
121.615	0.379093
124.99	0.763638
128.365	0.80975
131.74	1.50671
135.114	1.85445
138.489	3.73677
141.864	3.41558
145.239	4.14118
148.614	4.76535
151.988	5.92643
155.363	8.02475
158.738	9.02718
162.113	12.2621
165.488	14.417
168.863	19.2031
172.237	26.5528
175.612	16.4253
178.987	8.03628
182.362	3.55617
185.737	1.20455
189.111	0.668112
192.486	1.09274
195.861	2.80897
199.236	5.26844
202.611	8.13082
205.986	12.2503
209.36	15.1011
212.735	12.9817
216.11	7.06158
219.485	4.15141
222.86	1.01268
226.234	0.082603
229.609	1.053
232.984	0.141865
236.359	0.315437
239.734	1.23235
243.108	0.451088
246.483	0.983526
249.858	0.443552
253.233	0.767532
256.608	0.473272
259.983	0.641079
263.357	0.683714
266.732	0.187645
270.107	0.381882
273.482	0.299603
276.857	1.19559
280.231	1.19061
283.606	2.34998
286.981	2.17691
290.356	2.07688
293.731	4.0664
297.106	4.51463
300.48	6.82544
303.855	8.41179
307.23	10.6069
310.605	16.5512
313.98	24.6968
317.354	28.3951
320.729	30.7538
324.104	41.3654
327.479	59.2881
330.854	82.0392
334.228	98.1159
337.603	112.531
340.978	137.933
344.353	187.662
347.728	241.953
351.103	224.212
354.477	147.322
357.852	97.7315
361.227	77.6326
364.602	76.8136
367.977	84.6567
371.351	91.5248
374.726	79.0682
378.101	49.2407
381.476	29.1677
384.851	15.5023
388.226	9.50549
391.6	5.77637
394.975	2.65792
398.35	1.59151
401.725	1.05892
405.099	0.528114
408.474	0.141756
411.849	0.098343
415.224	0.069263
418.599	0.413807
421.974	0.446507
425.348	0.648083
428.723	0.131728
432.098	0.215516
435.473	0.024493
438.848	0.09348
442.223	0.308373
445.597	0.477433
448.972	0.203853
452.347	0.739573
455.722	0.236831
459.097	0.54015
462.471	1.29012
465.846	2.59381
469.221	2.53702
472.596	3.96433
475.971	5.69072
479.346	9.8345
482.72	9.24208
486.095	5.57201
489.47	5.23464
492.845	7.67455
496.219	13.8957
499.594	25.1127
502.969	26.9214
506.344	14.5095
509.719	5.99168
513.094	3.28858
516.468	2.5648
519.843	2.20982
523.218	2.31918
526.593	2.30288
529.968	2.70941
533.342	4.40001
536.717	7.17044
540.092	10.7682
543.467	17.0289
546.842	25.9666
550.217	40.846
553.591	62.8494
556.966	80.7295
560.341	62.5648
563.716	33.4314
567.091	15.9221
570.466	8.36216
573.84	4.02926
577.215	2.41082
580.59	3.12368
583.965	4.18289
587.34	4.60327
590.714	2.54864
594.089	1.64473
597.464	1.32186
600.839	2.33102
604.214	2.40304
607.588	2.07468
610.963	0.158953
614.338	0.369791
617.713	0.991311
621.088	0.081845
624.462	2.47662
627.837	4.5273
631.212	8.83289
634.587	13.4084
637.962	11.5119
641.337	7.0938
644.711	4.01676
648.086	1.98724
651.461	1.40113
654.836	1.22861
658.211	0.893971
661.585	1.10426
664.96	0.634828
668.335	0.509037
671.71	0.301723
675.085	0.270148
678.46	0.005206
681.834	0.021671
685.209	0.247263
688.584	0.469632
691.959	0.188047
695.334	0.279306
698.708	0.43854
702.083	0.299055
705.458	0.991084
708.833	1.09613
712.208	1.30899
715.582	1.66927
718.957	1.87537
722.332	1.8272
725.707	2.1421
729.082	1.97135
732.457	1.91135
735.831	2.0872
739.206	2.11582
742.581	1.91124
745.956	2.31
749.331	2.09503
752.705	1.55626
756.08	1.42352
759.455	1.42642
762.83	1.30034
766.205	1.11545
769.58	1.36331
772.954	1.60311
776.329	0.94583
779.704	0.743701
783.079	1.15931
786.454	0.740794
789.828	0.751022
793.203	0.592688
796.578	0.29255
799.953	0.184696
803.328	0.086962
806.702	0.323699
810.077	0.724156
813.452	0.787682
816.827	0.730935
820.202	0.071816
823.577	0.516806
826.951	0.096511
830.326	0.535451
833.701	0.861304
837.076	0.088152
840.451	0.124836
843.825	1.18369
847.2	3.20126
850.575	6.24439
853.95	10.2714
857.325	15.3125
860.699	23.602
864.074	32.4135
867.449	31.8573
870.824	22.5163
874.199	16.7684
877.573	13.7665
880.948	14.2752
884.323	16.1771
887.698	21.1088
891.073	28.7719
894.448	40.9223
897.822	57.7327
901.197	79.7913
904.572	111.741
907.947	168.103
911.322	250.498
914.697	382.665
918.071	531.051
921.446	515.226
924.821	328.764
928.196	180.127
931.571	102.135
934.945	61.8807
938.32	39.2912
941.695	25.547
945.07	15.724
948.445	10.0373
951.819	5.22286
955.194	2.90653
958.569	1.83696
961.944	1.09579
965.319	0.491398
968.693	0.05838
972.068	0.144079
975.443	0.074825
978.818	0.186941
982.193	0.565697
985.568	0.459745
988.942	0.000435
992.317	0.468666
995.692	0.605716
999.067	0.461626
1002.44	0.114248
1005.82	0.758389
1009.19	0.975781
1012.57	1.51456
1015.94	2.93714
1019.32	3.85193
1022.69	4.92594
1026.07	6.89779
1029.44	9.13673
1032.82	11.3075
1036.19	14.9128
1039.57	19.2949
1042.94	22.9313
1046.31	25.2132
1049.69	23.7761
1053.06	19.4496
1056.44	13.0182
1059.81	8.37634
1063.19	5.05342
1066.56	3.01995
1069.94	1.8882
1073.31	1.68355
1076.69	1.29121
1080.06	1.23204
1083.44	1.17632
1086.81	0.313885
1090.19	0.735633
1093.56	0.672485
1096.94	0.99619
1100.31	0.580411
1103.69	0.200648
1107.06	0.035138
1110.44	0.372849
1113.81	0.518353
1117.18	0.274825
1120.56	0.476775
1123.93	0.350827
1127.31	0.154695
1130.68	0.175586
1134.06	0.867405
1137.43	0.465586
1140.81	0.515219
1144.18	0.689348
1147.56	0.595992
1150.93	0.709453
1154.31	0.787962
1157.68	0.275806
1161.06	0.646163
1164.43	2.06022
1167.81	1.23218
1171.18	1.48727
1174.56	1.6486
1177.93	1.67391
1181.31	1.80496
1184.68	1.8598
1188.06	1.67256
1191.43	1.61038
1194.81	2.05989
1198.18	1.28958
1201.56	1.30467
1204.93	1.14412
1208.31	1.00799
1211.68	0.735193
1215.06	0.503914
1218.43	0.543441
1221.81	0.635649
1225.18	0.150823
1228.55	0.041743
1231.93	0.581644
1235.3	0.249654
1238.68	0.052997
1242.05	0.648895
1245.43	0.242573
1248.8	0.207317
1252.18	0.703708
1255.55	1.37738
1258.93	0.661071
1262.3	1.21456
1265.68	0.674239
1269.05	0.481054
1272.43	0.786801
1275.8	0.083241
1279.18	0.773312
1282.55	0.156373
1285.93	0
