Measurement: Raman, 532 nm, unoriented, Raman Data Processed
Mineral: Almandine
Rruff sample: R050029
Ideal chemistry: Fe^2+^_3_Al_2_(SiO_4_)_3_
Locality: Barton Garnet mine, Gore Mountain, Warren County, New York, USA
Source: University of Arizona Mineral Museum
Description: Reddish brown fragments
Measured chemistry: (Fe^2+^_1.34_Mg_1.26_Ca_0.37_Mn_0.03_)_Î£=3_Al_2.00_(Si_1.00_O_4_)_3_
Raman shift (cm-1)	intensity
133.27	0
136.645	50.886
140.019	77.598
143.394	58.264
146.769	57.8507
150.144	94.4481
153.519	130.371
156.894	132.254
160.268	102.375
163.643	88.7034
167.018	22.7384
170.393	89.9056
173.768	153.93
177.143	202.294
180.517	154.891
183.892	103.195
187.267	147.568
190.642	159.033
194.017	246.203
197.391	298.224
200.766	376.307
204.141	440.979
207.516	500.667
210.891	516.36
214.266	464.017
217.64	356.699
221.015	287.888
224.39	209.489
227.765	158.603
231.14	107.273
234.514	97.7761
237.889	81.3847
241.264	58.2003
244.639	47.2687
248.014	16.4846
251.388	37.1299
254.763	16.9208
258.138	24.4205
261.513	8.56085
264.888	5.21075
268.263	13.0462
271.637	22.4646
275.012	6.67487
278.387	11.6324
281.762	2.84772
285.137	13.7994
288.512	0.596558
291.886	24.0642
295.261	53.3817
298.636	81.7292
302.011	139.807
305.386	166.6
308.76	285.878
312.135	424.852
315.51	481.71
318.885	488.6
322.26	467.428
325.635	533.91
329.009	683.414
332.384	910.112
335.759	1206.21
339.134	1542.77
342.509	1966.33
345.883	2561.27
349.258	3319.22
352.633	3968.65
356.008	3969.94
359.383	3204.58
362.757	2425.55
366.132	1970.27
369.507	1742.18
372.882	1477.85
376.257	1263.89
379.632	1016.8
383.006	763.142
386.381	579.965
389.756	411.401
393.131	295.23
396.506	205.266
399.88	89.4972
403.255	85.4927
406.63	72.017
410.005	61.1573
413.38	20.366
416.755	6.14404
420.129	3.12982
423.504	5.76428
426.879	8.22729
430.254	6.64941
433.629	0.064514
437.003	8.68549
440.378	9.53003
443.753	26.1283
447.128	10.7394
450.503	9.96039
453.878	7.59369
457.252	30.0398
460.627	58.0198
464.002	74.114
467.377	131.807
470.752	185.16
474.127	273.907
477.501	396.748
480.876	530.468
484.251	564.391
487.626	416.851
491.001	399.479
494.375	566.391
497.75	895.406
501.125	1378.63
504.5	1737.43
507.875	1145.65
511.25	554.978
514.624	293.551
517.999	183.524
521.374	147.54
524.749	105.444
528.124	94.0154
531.498	59.4685
534.873	111.738
538.248	175.599
541.623	262.005
544.998	461.178
548.372	751.642
551.747	1143.29
555.122	1533.36
558.497	1613.87
561.872	1062.83
565.247	501.484
568.621	209.487
571.996	60.1745
575.371	43.3054
578.746	38.4531
582.121	75.395
585.495	127.153
588.87	66.3489
592.245	22.9958
595.62	0.978882
598.995	16.4278
602.37	2.10474
605.744	29.7223
609.119	35.2847
612.494	1.71631
615.869	14.7051
619.244	19.4282
622.619	73.3296
625.993	224.849
629.368	438.889
632.743	669.144
636.118	928.533
639.493	880.666
642.867	584.26
646.242	365.975
649.617	237.413
652.992	163.024
656.367	100.6
659.741	22.5288
663.116	41.0147
666.491	8.19788
669.866	3.51782
673.241	4.70801
676.616	23.614
679.99	14.2933
683.365	0.032959
686.74	21.2607
690.115	80.7838
693.49	20.918
696.865	27.4872
700.239	24.8046
703.614	39.8278
706.989	46.1216
710.364	31.5048
713.739	43.9273
717.113	67.7434
720.488	85.1266
723.863	84.2719
727.238	91.1679
730.613	92.2884
733.987	99.3138
737.362	121.995
740.737	126.446
744.112	104.297
747.487	115.808
750.862	128.896
754.236	123.318
757.611	106.689
760.986	99.6565
764.361	84.3605
767.736	76.0944
771.111	41.9792
774.485	50.8868
777.86	29.6528
781.235	30.6148
784.61	30.086
787.985	16.0916
791.359	12.9182
794.734	13.6145
798.109	28.5367
801.484	16.0943
804.859	9.867
808.234	6.72418
811.608	27.2668
814.983	13.6802
818.358	9.83044
821.733	9.09436
825.108	31.8362
828.482	34.6724
831.857	66.6777
835.232	100.82
838.607	246.541
841.982	429.352
845.356	737.023
848.731	1176.04
852.106	1766.67
855.481	2394.08
858.856	2726.09
862.231	2466.44
865.605	1825.62
868.98	1289.84
872.355	974.484
875.73	829.506
879.105	784.821
882.48	917.387
885.854	1120.7
889.229	1496.31
892.604	1835.83
895.979	2199.4
899.354	2633.39
902.729	3691.03
906.103	5701.64
909.478	8528.87
912.853	11670.5
916.228	12979.3
919.602	10598.3
922.977	6845.8
926.352	4031.55
929.727	2434.63
933.102	1485.87
936.477	927.118
939.851	567.307
943.226	334.573
946.601	165.857
949.976	57.2799
953.351	16.7948
956.726	26.3406
960.1	8.58594
963.475	5.89978
966.85	48.4634
970.225	2.32385
973.6	5.72595
976.974	14.3429
980.349	19.8118
983.724	2.71362
987.099	8.56775
990.474	13.8155
993.848	24.3363
997.223	2.21118
1000.6	29.1249
1003.97	22.9766
1007.35	82.1427
1010.72	153.545
1014.1	217.317
1017.47	306.313
1020.85	391.034
1024.22	519.687
1027.6	624.507
1030.97	826.877
1034.35	1032.78
1037.72	1322.87
1041.1	1616.31
1044.47	1841.98
1047.85	1787.39
1051.22	1484.3
1054.6	1093.26
1057.97	692.125
1061.35	419.997
1064.72	270.11
1068.09	167.675
1071.47	149.437
1074.84	93.8821
1078.22	60.6886
1081.59	25.6054
1084.97	36.6876
1088.34	25.4569
1091.72	9.08289
1095.09	3.38446
1098.47	21.9953
1101.84	19.3012
1105.22	9.33356
1108.59	3.30878
1111.97	25.1448
1115.34	0.565063
1118.72	11.5942
1122.09	21.6464
1125.47	9.5788
1128.84	2.51361
1132.22	9.48608
1135.59	10.2882
1138.97	6.95538
1142.34	9.89575
1145.71	23.9647
1149.09	1.80151
1152.46	19.454
1155.84	17.9752
1159.21	62.1913
1162.59	35.719
1165.96	51.3484
1169.34	50.0541
1172.71	73.1145
1176.09	45.9652
1179.46	42.4207
1182.84	39.8302
1186.21	55.9525
1189.59	23.3774
1192.96	62.8928
1196.34	39.9104
1199.71	0.394775
1203.09	36.8025
1206.46	40.7156
1209.84	26.87
1213.21	22.3926
1216.59	48.5482
1219.96	25.669
1223.34	17.0867
1226.71	26.3585
1230.09	3.16797
1233.46	15.3572
1236.84	18.7547
1240.21	33.8919
1243.59	6.05408
1246.96	9.21039
1250.34	0.122803
1253.71	44.9984
1257.08	23.0057
1260.46	28.2242
1263.83	9.38287
1267.21	39.225
1270.58	13.2825
1273.96	55.5604
1277.33	13.9491
1280.71	46.3375
1284.08	23.5496
1287.46	11.6028
1290.83	53.391
1294.21	29.649
1297.58	21.6486
