Measurement: Raman, 785 nm, unoriented, Raman Data Processed
Mineral: Almandine
Rruff sample: R040168
Ideal chemistry: Fe^2+^_3_Al_2_(SiO_4_)_3_
Locality: Pocos Dos Cavatos, Ceara, Brazil
Source: University of Arizona Mineral Museum
Description: Dark red etched single crystal
Measured chemistry: (Fe^2+^_1.48_Mn_1.47_Ca_0.05_)_Î£=3_Al_2.00_(Si_1.00_O_4_)_3_; trace amounts of Ti and Y
Raman shift (cm-1)	intensity
148.018	0
150.911	41.0513
153.803	60.5196
156.696	98.9959
159.589	113.983
162.481	344.245
165.374	601.734
168.267	365.281
171.16	222.081
174.052	150.004
176.945	129.327
179.838	110.653
182.73	70.0396
185.623	39.1943
188.516	15.1235
191.408	0.108154
194.301	1.62512
197.194	9.3916
200.087	19.9905
202.979	91.6258
205.872	120.713
208.765	198.144
211.657	304.064
214.55	408.538
217.443	491.655
220.335	426.345
223.228	342.847
226.121	228.563
229.013	151.397
231.906	72.3527
234.799	75.1232
237.692	40.3004
240.584	51.8073
243.477	42.6877
246.37	17.7975
249.262	12.8373
252.155	3.08496
255.048	20.4121
257.941	17.1444
260.833	11.4008
263.726	12.1746
266.619	11.7521
269.511	5.38977
272.404	4.99805
275.297	0.684814
278.19	2.73669
281.082	0.503052
283.975	22.1157
286.868	35.2893
289.76	53.2562
292.653	89.9917
295.546	85.7734
298.438	150.5
301.331	157.672
304.224	204.912
307.116	246.64
310.009	335.6
312.902	459.966
315.795	587.686
318.687	768.813
321.58	985.493
324.473	906.627
327.365	758.367
330.258	713.342
333.151	798.858
336.043	1050.57
338.936	1453.95
341.829	2134.75
344.721	2904.3
347.614	2874.42
350.507	1815.69
353.4	1043.96
356.292	753.04
359.185	690.816
362.078	750.482
364.97	910.537
367.863	1209.53
370.756	1554.26
373.649	1581.62
376.541	1111.72
379.434	638.815
382.327	384.388
385.219	201.27
388.112	152.07
391.005	59.9701
393.897	72.9034
396.79	44.193
399.683	27.2463
402.575	4.33258
405.468	11.2169
408.361	8.33099
411.254	6.65393
414.146	19.6973
417.039	13.7662
419.932	13.9959
422.824	15.1942
425.717	0.28363
428.61	13.2896
431.502	5.13312
434.395	18.7496
437.288	12.7212
440.181	8.9826
443.073	11.65
445.966	20.9836
448.859	1.39612
451.751	6.84662
454.644	8.6842
457.537	15.404
460.43	39.5717
463.322	34.1109
466.215	65.1086
469.108	105.533
472	163.583
474.893	214.768
477.786	158.351
480.678	77.5941
483.571	64.7926
486.464	76.7385
489.356	101.013
492.249	167.994
495.142	352.915
498.035	489.952
500.927	507.471
503.82	254.548
506.713	108.431
509.605	48.2601
512.498	31.5758
515.391	24.3618
518.284	9.57776
521.176	24.6538
524.069	21.5121
526.962	19.3284
529.854	25.0666
532.747	44.971
535.64	67.0424
538.533	118.351
541.425	167.306
544.318	285.65
547.211	444.137
550.103	676.205
552.996	795.125
555.889	688.659
558.781	447.454
561.674	238.057
564.567	142.985
567.459	66.2914
570.352	44.4646
573.245	38.4816
576.138	16.0222
579.03	12.9119
581.923	29.7161
584.816	38.1977
587.708	31.2563
590.601	65.2964
593.494	74.6685
596.386	37.0627
599.279	37.8752
602.172	5.7193
605.064	7.91174
607.957	4.03931
610.85	3.30792
613.743	2.02795
616.635	28.9273
619.528	38.1198
622.421	54.4875
625.313	109.818
628.206	149.501
631.099	134.352
633.991	72.3039
636.884	36.8995
639.777	27.3171
642.67	7.33008
645.562	16.362
648.455	11.5754
651.348	4.05164
654.24	4.04797
657.133	9.20209
660.026	10.2942
662.918	3.37561
665.811	4.54364
668.704	4.41443
671.597	11.3131
674.489	14.4575
677.382	13.1824
680.275	6.8363
683.167	6.95258
686.06	10.6449
688.953	14.5273
691.846	4.93744
694.738	25.1302
697.631	24.2475
700.524	26.2597
703.416	11.2457
706.309	7.96545
709.202	17.9341
712.094	38.0013
714.987	36.9271
717.88	20.0118
720.773	26.5277
723.665	30.2907
726.558	32.1962
729.451	18.2284
732.343	33.8062
735.236	28.5774
738.129	29.7859
741.021	28.4759
743.914	29.892
746.807	43.2599
749.699	36.3124
752.592	21.0211
755.485	29.7541
758.378	28.609
761.27	12.4711
764.163	31.6749
767.056	21.5601
769.948	17.3129
772.841	2.41156
775.734	0.900635
778.626	3.75122
781.519	9.54895
784.412	14.6074
787.305	0.846375
790.197	6.68646
793.09	0.726685
795.983	10.2354
798.875	6.31757
801.768	15.0281
804.661	6.21832
807.553	0.928101
810.446	0.03772
813.339	13.2927
816.232	6.80585
819.124	15.0587
822.017	0.97876
824.91	1.41095
827.802	2.01147
830.695	0.619324
833.588	3.7052
836.481	0.766724
839.373	26.7607
842.266	53.9075
845.159	87.6943
848.051	127.948
850.944	186.346
853.837	270.137
856.729	295.15
859.622	263.214
862.515	185.855
865.408	169.893
868.3	125.6
871.193	157.694
874.086	170.578
876.978	222.556
879.871	297.677
882.764	383.477
885.656	547.245
888.549	695.9
891.442	839.803
894.335	1106.72
897.227	1562.45
900.12	2329.9
903.013	3474.54
905.905	5098.16
908.798	6671.54
911.691	6988.47
914.583	5512.54
917.476	3587.22
920.369	2273.28
923.261	1456.54
926.154	946.625
929.047	638.857
931.94	431.414
934.832	280.906
937.725	179.507
940.618	121.727
943.51	86.1769
946.403	50.1833
949.296	38.6245
952.188	26.0278
955.081	3.6485
957.974	7.74982
960.867	3.94043
963.759	10.1036
966.652	12.9543
969.545	9.91785
972.437	2.85883
975.33	7.83752
978.223	0.790161
981.115	8.7721
984.008	10.0344
986.901	2.04285
989.794	1.33844
992.686	6.00186
995.579	11.1742
998.472	3.60583
1001.36	21.1444
1004.26	32.815
1007.15	41.6509
1010.04	48.1135
1012.93	66.2849
1015.83	79.016
1018.72	96.201
1021.61	125.958
1024.51	173.696
1027.4	219.768
1030.29	308.331
1033.18	344.6
1036.08	256.475
1038.97	181.405
1041.86	123.395
1044.76	89.793
1047.65	52.288
1050.54	48.2433
1053.43	35.8926
1056.33	18.1594
1059.22	33.6433
1062.11	16.6526
1065	13.37
1067.9	23.8756
1070.79	3.32428
1073.68	20.5582
1076.58	16.7917
1079.47	8.45847
1082.36	16.0012
1085.25	3.82922
1088.14	2.82803
1091.04	9.29562
1093.93	6.51599
1096.82	7.04318
1099.72	4.22971
1102.61	2.88828
1105.5	9.96289
1108.39	2.7142
1111.29	3.1423
1114.18	5.10681
1117.07	6.15253
1119.96	18.8162
1122.86	17.5118
1125.75	13.562
1128.64	18.5512
1131.54	6.11749
1134.43	8.71698
1137.32	14.5395
1140.21	18.3307
1143.11	8.95538
1146	26.2974
1148.89	20.9536
1151.79	39.5359
1154.68	31.6877
1157.57	31.3345
1160.46	32.1772
1163.36	28.5447
1166.25	35.3159
1169.14	30.2858
1172.03	22.4754
1174.93	41.3145
1177.82	28.3684
1180.71	21.8903
1183.6	15.3832
1186.5	12.9542
1189.39	17.2983
1192.28	16.5615
1195.17	16.3707
1198.07	18.0147
1200.96	2.87289
1203.85	16.5146
1206.75	14.3553
1209.64	19.5137
1212.53	18.5179
1215.42	4.95087
1218.32	6.19742
1221.21	15.8837
1224.1	2.0003
1226.99	16.8906
1229.89	21.1186
1232.78	6.97913
