Measurement: Raman, 532 nm, unoriented, Raman Data Processed
Mineral: Almandine
Rruff sample: R120152
Ideal chemistry: Fe^2+^_3_Al_2_(SiO_4_)_3_
Locality: The garnet schist, Roxbury, Litchfield Co., Connecticut, USA
Source: Eric Van Valkenburg
Description: Dark brown dodecahedra
Raman shift (cm-1)	intensity
156.376	0
159.269	1.68191
162.161	0.752247
165.054	1.16976
167.947	0.813011
170.839	1.25576
173.732	2.3531
176.625	3.7111
179.518	5.17888
182.41	4.8833
185.303	6.85841
188.196	8.68561
191.088	14.8474
193.981	17.6837
196.874	20.3381
199.766	23.9318
202.659	27.146
205.552	31.9319
208.445	40.7934
211.337	50.4879
214.23	56.047
217.123	51.1348
220.015	42.9956
222.908	32.935
225.801	24.4228
228.693	20.2934
231.586	15.3189
234.479	11.1285
237.371	10.2558
240.264	9.66575
243.157	8.34707
246.05	6.56304
248.942	3.527
251.835	1.83935
254.728	1.84161
257.62	0.86763
260.513	0.971752
263.406	0.206524
266.298	0.228519
269.191	0.263493
272.084	0.353138
274.977	1.48677
277.869	1.61786
280.762	0.256149
283.655	1.37415
286.547	2.31488
289.44	1.53037
292.333	2.56387
295.226	4.53503
298.118	6.65794
301.011	11.287
303.904	15.0366
306.796	23.7805
309.689	34.3755
312.582	45.2839
315.474	47.217
318.367	42.7651
321.26	42.6992
324.152	51.5077
327.045	64.4343
329.938	78.8432
332.831	98.1775
335.723	130.51
338.616	183.668
341.509	260.553
344.401	321.651
347.294	297.038
350.187	199.237
353.079	123.537
355.972	82.3651
358.865	65.3474
361.758	59.2219
364.65	60.233
367.543	62.7091
370.436	65.4284
373.328	58.3932
376.221	49.5345
379.114	33.65
382.007	22.6865
384.899	15.232
387.792	10.5487
390.685	8.71581
393.577	6.23563
396.47	3.52348
399.363	2.11956
402.255	1.60239
405.148	0.534824
408.041	1.33256
410.933	0.804581
413.826	0.279057
416.719	0.60297
419.612	1.00858
422.504	0.56982
425.397	0.427292
428.29	1.18986
431.182	0.712395
434.075	0.015957
436.968	0.361618
439.861	0.68586
442.753	0.400146
445.646	0.395443
448.539	0.979004
451.431	1.0375
454.324	2.0552
457.217	3.22965
460.109	4.25588
463.002	6.92088
465.895	10.1517
468.788	15.0064
471.68	21.7079
474.573	32.4957
477.466	37.2237
480.358	29.0335
483.251	19.5644
486.144	20.6563
489.036	29.9011
491.929	48.8317
494.822	84.295
497.714	132.216
500.607	140.372
503.5	82.7164
506.393	39.7282
509.285	20.0983
512.178	11.6125
515.071	8.49506
517.963	5.11407
520.856	2.86965
523.749	1.88636
526.641	0.999477
529.534	0.554379
532.427	1.55068
535.32	2.36034
538.212	5.63206
541.105	9.57641
543.998	16.8876
546.89	27.7236
549.783	44.9383
552.676	64.6524
555.568	75.1123
558.461	57.2149
561.354	32.2247
564.247	18.3059
567.139	10.5241
570.032	7.45545
572.925	7.7242
575.817	11.0908
578.71	16.6049
581.603	21.7523
584.495	16.8302
587.388	8.6084
590.281	5.8007
593.174	4.0388
596.066	4.66122
598.959	2.209
601.852	0.316254
604.744	0.911451
607.637	0.957998
610.53	1.0546
613.423	0.560156
616.315	2.50682
619.208	5.42028
622.101	9.46009
624.993	15.5811
627.886	25.229
630.779	32.9223
633.671	28.4746
636.564	17.745
639.457	10.0842
642.35	6.16954
645.242	4.18702
648.135	2.85683
651.028	5.07318
653.92	6.05722
656.813	1.72435
659.706	0.767937
662.598	0.620052
665.491	0.406534
668.384	0.23027
671.277	0.151155
674.169	0.069803
677.062	0.597
679.955	0.467295
682.847	0.273993
685.74	0.66256
688.633	0.758205
691.525	0.857151
694.418	0.584667
697.311	0.950521
700.203	1.44734
703.096	1.50749
705.989	1.48094
708.882	1.57651
711.774	2.14922
714.667	2.00372
717.56	2.47485
720.452	2.6899
723.345	2.79978
726.238	2.36405
729.13	2.39295
732.023	2.6729
734.916	2.36876
737.809	3.50224
740.701	3.05596
743.594	3.46717
746.487	3.38883
749.379	2.53172
752.272	3.3595
755.165	3.49562
758.058	3.16605
760.95	2.51981
763.843	2.58772
766.736	3.68815
769.628	3.20085
772.521	2.41357
775.414	2.16964
778.306	1.78128
781.199	2.09544
784.092	1.17337
786.985	1.51949
789.877	1.15812
792.77	0.24188
795.663	0.080065
798.555	0.447042
801.448	0.234694
804.341	0.641903
807.233	0.171324
810.126	1.2239
813.019	0.249361
815.912	0.202579
818.804	0.409727
821.697	0.587467
824.59	1.25627
827.482	0.115788
830.375	0.149349
833.268	0.042812
836.16	1.60214
839.053	2.42728
841.946	4.88558
844.838	8.26365
847.731	13.5021
850.624	18.7328
853.517	28.7045
856.409	41.6147
859.302	54.5424
862.195	59.1591
865.087	51.4581
867.98	39.9211
870.873	32.5446
873.765	27.5294
876.658	27.7324
879.551	29.6822
882.444	37.1312
885.336	48.0845
888.229	63.6475
891.122	86.5883
894.014	114.517
896.907	142.297
899.8	171.267
902.692	219.938
905.585	308.514
908.478	456.436
911.371	648.153
914.263	793.181
917.156	734.24
920.049	515.269
922.941	324.224
925.834	204.042
928.727	132.696
931.62	89.9052
934.512	59.9406
937.405	40.7226
940.298	26.4383
943.19	17.2854
946.083	10.0796
948.976	5.9746
951.868	4.46053
954.761	2.50607
957.654	1.26282
960.547	0.500412
963.439	0.394188
966.332	0.549706
969.225	0.024147
972.117	0.022564
975.01	0.499657
977.903	1.00008
980.795	0.100185
983.688	0.336887
986.581	0.776936
989.473	0.798885
992.366	0.666786
995.259	0.12534
998.152	0.459549
1001.04	1.26814
1003.94	3.30223
1006.83	5.08885
1009.72	6.38478
1012.62	10.2891
1015.51	12.6421
1018.4	16.5155
1021.29	21.4174
1024.19	29.8271
1027.08	39.9282
1029.97	53.4655
1032.86	69.6475
1035.76	86.1402
1038.65	90.6413
1041.54	81.5484
1044.43	64.5369
1047.33	44.1254
1050.22	30.6687
1053.11	19.217
1056.01	13.1242
1058.9	8.2728
1061.79	6.00335
1064.68	3.54535
1067.58	2.06726
1070.47	1.38253
1073.36	1.43687
1076.26	0.944263
1079.15	0.569632
1082.04	1.99573
1084.93	0.544722
1087.83	0.649611
1090.72	1.01414
1093.61	0.74729
1096.5	0.864759
1099.4	0.572676
1102.29	0.688328
1105.18	0.516136
1108.07	0.263578
1110.97	0.182016
1113.86	0.811279
1116.75	1.43568
1119.64	0.168282
1122.54	0.139973
1125.43	0.018877
1128.32	0.764952
1131.22	0.211285
1134.11	0.887455
1137	0.753595
1139.89	0.6805
1142.79	1.6923
1145.68	1.64133
1148.57	1.18464
1151.46	1.67155
1154.36	2.29255
1157.25	2.52023
1160.14	3.55141
1163.04	3.29852
1165.93	3.69332
1168.82	2.32755
1171.71	2.83718
1174.61	3.28114
1177.5	3.00969
1180.39	2.06711
1183.28	2.10208
1186.18	2.85909
1189.07	2.14085
1191.96	2.55049
1194.86	2.25572
1197.75	2.00166
1200.64	0.86413
1203.53	1.47827
1206.43	1.59753
1209.32	1.61176
1212.21	0.314007
1215.1	0.257454
1218	0.44051
1220.89	0.002205
1223.78	0.062637
1226.67	0.084396
1229.57	1.04492
1232.46	0.007149
1235.35	1.01456
1238.25	0.164326
1241.14	0.626938
1244.03	0.420116
1246.92	1.73163
1249.82	1.03725
1252.71	1.03366
1255.6	0.926044
1258.49	2.18186
1261.39	2.09383
1264.28	2.07832
1267.17	0.297401
1270.07	1.74773
1272.96	2.19717
1275.85	1.76616
1278.74	1.43503
1281.64	0.718845
1284.53	0.759663
1287.42	0.826126
1290.31	0.30077
1293.21	1.06686
1296.1	0.024517
1298.99	1.02982
1301.88	0
