Measurement: Raman, 514 nm, unoriented, Raman Data Processed
Mineral: Almandine
Rruff sample: R040076
Ideal chemistry: Fe^2+^_3_Al_2_(SiO_4_)_3_
Locality: Barton Garnet mine, Gore Mountain, Warren County, New York, USA
Source: University of Arizona Mineral Museum
Description: Red coarsely crystalline
Measured chemistry: (Fe^2+^_1.38_Mg_1.26_Ca_0.33_Mn_0.03_)_Î£=3_Al_2.00_(Si_1.00_O_4_)_3_; trace amounts of Ti
Raman shift (cm-1)	intensity
136.47	0
140.63	102.888
144.787	76.087
148.942	50.605
153.096	70.904
157.247	13.242
161.396	3.501
165.544	18.264
169.689	194.19
173.833	467.038
177.974	601.742
182.114	316.261
186.251	130.39
190.387	63.968
194.52	41.91
198.652	138.16
202.782	217.678
206.909	299.442
211.035	177.492
215.159	103.336
219.281	163.859
223.4	88.456
227.518	187.03
231.634	175.492
235.748	191.33
239.86	169.188
243.97	247.573
248.079	248.993
252.185	246.453
256.289	285.962
260.391	312.534
264.492	281.185
268.59	267.925
272.687	321.753
276.781	319.664
280.874	326.912
284.964	353.899
289.053	412.31
293.14	483.895
297.225	538.708
301.308	597.576
305.389	606.566
309.468	776.66
313.545	882.073
317.62	1055.18
321.693	1290.37
325.765	1630.67
329.834	2134.65
333.902	3008.31
337.967	3846.07
342.031	5146.9
346.093	7200.79
350.153	10360.7
354.21	12800.7
358.267	10635.8
362.321	7655.26
366.373	5770.08
370.423	4900.35
374.471	4322.77
378.518	3511.34
382.563	2645.07
386.605	1895.95
390.646	1273.98
394.685	792.141
398.722	630.334
402.757	434.547
406.79	330.783
410.821	217.012
414.851	131.253
418.878	79.476
422.904	23.676
426.927	8.841
430.949	6.047
434.969	29.009
438.987	25.068
443.003	19.226
447.018	5.508
451.03	0.008
455.041	18.333
459.049	0.519
463.056	77.775
467.061	18.489
471.064	52.379
475.065	139.196
479.064	205.943
483.062	238.615
487.057	225.24
491.051	242.797
495.043	262.264
499.032	457.639
503.02	841.916
507.007	760.246
510.991	526.553
514.973	537.602
518.954	568.217
522.933	667.615
526.91	696.84
530.885	698.649
534.858	772.437
538.829	999.365
542.799	1250.73
546.766	1814.15
550.732	2894.15
554.696	4889
558.658	6181.68
562.618	4309.1
566.576	2290.36
570.533	1291.75
574.488	848.523
578.44	637.234
582.391	550.251
586.341	460.975
590.288	440.643
594.233	386.718
598.177	409.078
602.119	489.077
606.059	557.616
609.997	522.055
613.933	356.616
617.868	222.173
621.801	212.687
625.731	253.722
629.66	300.634
633.588	503.509
637.513	562.98
641.437	533.255
645.358	416.335
649.278	351.219
653.196	208.907
657.113	163.401
661.027	168.701
664.94	117.806
668.851	102.7
672.76	70.373
676.667	45.82
680.572	27.008
684.476	4.084
688.378	64.562
692.278	29.521
696.176	54.072
700.072	51.912
703.967	26.368
707.86	36.333
711.751	6.689
715.64	13.305
719.527	19.826
723.413	43.721
727.297	13.583
731.179	32.879
735.059	25.169
738.937	14.289
742.814	14.252
746.689	50.086
750.562	10.183
754.433	21.448
758.303	35.984
762.17	15.445
766.036	85.835
769.901	48.146
773.763	19.364
777.624	46.483
781.482	16.498
785.339	1.582
789.195	53.244
793.048	115.987
796.9	149.65
800.75	173.238
804.598	218.755
808.445	318.208
812.289	477.615
816.132	505.987
819.973	468.002
823.813	463.057
827.65	473.236
831.486	464.779
835.32	485.383
839.152	593.618
842.983	767.6
846.812	940.195
850.639	1181.55
854.464	1563.58
858.288	2253.66
862.11	2439.8
865.93	2253.45
869.748	1969.85
873.564	1855.67
877.379	1950.05
881.192	2140.44
885.004	2601.66
888.813	3258.63
892.621	4103.91
896.427	5332.24
900.232	7250.99
904.034	10608.5
907.835	17334.6
911.634	30038.8
915.432	46163.3
919.227	48829.9
923.021	34576.7
926.813	20245.5
930.604	12040.3
934.393	7827.2
938.18	5264.12
941.965	3747.49
945.749	2774.94
949.53	2180.49
953.311	1770.14
957.089	1495.94
960.866	1329.29
964.641	1172.35
968.414	1019.4
972.185	1030.29
975.955	955.76
979.723	967.412
983.49	866.196
987.254	815.563
991.017	734.379
994.779	650.832
998.538	611.714
1002.3	596.3
1006.05	607.521
1009.81	559.706
1013.56	691.995
1017.31	782.573
1021.06	919.9
1024.81	946.31
1028.55	1012.82
1032.3	1112.45
1036.04	1250.2
1039.78	1269.04
1043.52	1437.96
1047.26	1430.97
1050.99	1373.06
1054.73	1122.24
1058.46	759.533
1062.19	487.878
1065.92	393.402
1069.65	349.827
1073.37	267.292
1077.1	188.844
1080.82	162.389
1084.54	116
1088.26	140.779
1091.97	30.363
1095.69	99.093
1099.4	40.859
1103.12	17.484
1106.83	5.458
1110.54	8.945
1114.24	21.407
1117.95	2.063
1121.65	78.513
1125.35	49.3
1129.06	32.286
1132.75	35.323
1136.45	39.743
1140.15	54.386
1143.84	19.658
1147.53	10.43
1151.22	42.914
1154.91	47.547
1158.6	48.889
1162.28	36.278
1165.97	70.131
1169.65	173.928
1173.33	138.908
1177.01	190.557
1180.69	156.002
1184.36	177.761
1188.04	166.331
1191.71	173.849
1195.38	170.222
1199.05	186.016
1202.71	162.023
1206.38	221.765
1210.04	92.618
1213.71	129.059
1217.37	227.384
1221.03	177.859
1224.68	131.29
1228.34	202.129
1231.99	88.621
1235.65	165.441
1239.3	165.458
1242.95	198.665
1246.59	156.351
1250.24	135.263
1253.88	198.534
1257.53	160.656
1261.17	175.686
1264.81	220.657
1268.45	236.916
1272.08	173.899
1275.72	203.626
1279.35	161.914
1282.98	162.541
1286.61	189.884
1290.24	174.972
1293.87	152.396
1297.49	153.54
1301.11	180.881
1304.73	130.811
1308.36	66.622
1311.97	88.197
1315.59	50.775
1319.2	63.148
1322.82	43.259
1326.43	9.901
1330.04	40.681
1333.65	48.718
1337.26	70.833
1340.86	49.708
1344.47	106.384
1348.07	8.247
1351.67	8.394
1355.27	81.195
1358.87	82.903
1362.46	64.414
1366.06	52.677
1369.65	69.648
1373.24	71.546
1376.83	65.038
1380.42	1.152
1384	46.49
1387.59	130.954
1391.17	48.957
1394.75	39.009
1398.33	112.916
1401.91	102.953
1405.49	13.714
1409.06	41.942
1412.64	115.644
1416.21	130.751
1419.78	136.962
1423.35	118.798
1426.91	151.141
1430.48	147.586
1434.05	157.723
1437.61	80.618
1441.17	100.043
1444.73	113.504
1448.29	184.546
1451.84	103.667
1455.4	163.646
1458.95	105.253
1462.5	194.246
1466.05	166.947
1469.6	138.677
1473.15	124.038
1476.69	209.369
1480.24	101.322
1483.78	96.196
1487.32	92.813
1490.86	136.062
1494.39	113.598
1497.93	113.419
1501.46	12.125
1505	49.595
1508.53	79.581
1512.06	43.737
1515.59	1.12
1519.11	39.689
