Measurement: Raman, 532 nm, unoriented, Raman Data Processed
Mineral: Almandine
Rruff sample: R060450
Ideal chemistry: Fe^2+^_3_Al_2_(SiO_4_)_3_
Locality: Canada
Source: Gemological Institute of America
Description: Reddish-brown translucent fragment
Measured chemistry: (Fe^2+^_1.92_Mg_1.03_Ca_0.04_Mn_0.01_)_Î£=3_Al_2.00_(Si_1.00_O_4_)_3_
Raman shift (cm-1)	intensity
96.9305	0
100.305	0.739398
103.68	0.684451
107.055	0.332355
110.43	0.141715
113.805	0.036221
117.179	0.805429
120.554	1.19248
123.929	3.28292
127.304	4.86464
130.679	9.69002
134.054	11.5178
137.428	13.3022
140.803	17.9023
144.178	22.4489
147.553	23.737
150.928	25.5338
154.302	27.4193
157.677	29.4176
161.052	32.4979
164.427	34.5696
167.802	35.392
171.177	35.3458
174.551	27.6553
177.926	16.8806
181.301	11.5285
184.676	9.12277
188.051	8.38195
191.425	10.2027
194.8	14.4481
198.175	19.1193
201.55	24.1739
204.925	32.9669
208.299	39.8378
211.674	38.8263
215.049	28.9929
218.424	17.077
221.799	9.19083
225.174	3.82278
228.548	2.21747
231.923	1.46303
235.298	1.16832
238.673	0.143286
242.048	0.619871
245.423	0.600483
248.797	0.714935
252.172	0.116804
255.547	0.566231
258.922	0.418299
262.297	0.46257
265.671	0.562187
269.046	0.693228
272.421	0.59816
275.796	0.641195
279.171	0.254398
282.546	1.1551
285.92	1.65128
289.295	1.76665
292.67	2.98818
296.045	4.19124
299.42	6.88665
302.794	10.1954
306.169	14.1454
309.544	21.1422
312.919	32.0196
316.294	41.4519
319.668	33.4831
323.043	32.599
326.418	43.0252
329.793	59.0675
333.168	81.6149
336.543	102.99
339.917	130.334
343.292	173.872
346.667	237.482
350.042	266.206
353.417	201.591
356.791	123.678
360.166	83.9042
363.541	69.7515
366.916	68.7824
370.291	72.5383
373.666	67.8226
377.04	48.6748
380.415	30.2483
383.79	17.7332
387.165	10.0311
390.54	5.76767
393.914	3.75964
397.289	2.25291
400.664	1.77203
404.039	1.58193
407.414	0.975756
410.788	0.083481
414.163	0.011562
417.538	0.4494
420.913	0.692247
424.288	0.248047
427.663	0.174307
431.037	0.33493
434.412	0.118393
437.787	0.572605
441.162	0.327713
444.537	0.173132
447.911	0.299927
451.286	0.595667
454.661	0.734682
458.036	1.34164
461.411	2.11337
464.786	3.04102
468.16	6.21518
471.535	8.95533
474.91	13.847
478.285	20.2148
481.66	26.0665
485.034	19.9233
488.409	16.8881
491.784	20.9103
495.159	32.5138
498.534	54.5752
501.909	72.0459
505.283	53.7133
508.658	24.7858
512.033	11.7208
515.408	6.65865
518.783	4.32789
522.158	3.55456
525.532	3.07243
528.907	2.36011
532.282	3.13379
535.657	4.64166
539.032	9.27824
542.406	15.8443
545.781	27.4775
549.156	41.2865
552.531	66.0783
555.906	91.9905
559.28	90.4207
562.655	58.676
566.03	28.7189
569.405	13.7776
572.78	7.50305
576.154	5.48028
579.529	5.74978
582.904	8.84967
586.279	11.5103
589.654	8.25111
593.029	3.12135
596.403	0.574959
599.778	1.18345
603.153	0.805128
606.528	0.513369
609.903	0.504213
613.278	1.12004
616.652	0.31439
620.027	1.20937
623.402	4.636
626.777	9.88907
630.152	17.0274
633.526	25.7474
636.901	28.6627
640.276	20.6256
643.651	11.7215
647.026	7.26463
650.4	3.7077
653.775	3.52834
657.15	2.03385
660.525	1.46196
663.9	1.14381
667.275	0.56931
670.649	0.345014
674.024	0.117412
677.399	0.041813
680.774	0.27335
684.149	0.205449
687.524	0.430928
690.898	0.709621
694.273	0.865833
697.648	0.831026
701.023	1.04088
704.398	1.68714
707.772	1.64723
711.147	1.73569
714.522	2.15539
717.897	2.19113
721.272	2.45304
724.646	2.97891
728.021	2.81647
731.396	3.14693
734.771	3.55576
738.146	3.55001
741.521	3.14318
744.895	3.44031
748.27	3.63722
751.645	3.47408
755.02	3.21667
758.395	3.66668
761.769	3.55336
765.144	3.41072
768.519	2.82598
771.894	2.48685
775.269	2.69825
778.644	1.87598
782.018	1.4621
785.393	0.624959
788.768	0.285376
792.143	0.710121
795.518	0.385471
798.893	0.480447
802.267	0.28064
805.642	0.13916
809.017	0.787289
812.392	0.621014
815.766	1.39018
819.141	1.18498
822.516	0.431498
825.891	1.00402
829.266	0.605747
832.641	1.55518
836.015	0.643915
839.39	0.212694
842.765	2.1317
846.14	4.3497
849.515	9.69716
852.889	15.6964
856.264	26.5058
859.639	42.2778
863.014	58.4451
866.389	66.331
869.764	53.208
873.138	37.0825
876.513	27.9351
879.888	24.4092
883.263	26.1895
886.638	32.8175
890.013	43.6608
893.387	59.9973
896.762	84.873
900.137	114.692
903.512	153.07
906.887	222.131
910.261	342.182
913.636	532.674
917.011	779.149
920.386	916.172
923.761	712.143
927.135	407.473
930.51	226.623
933.885	133.689
937.26	82.3125
940.635	52.2072
944.01	33.4323
947.384	20.3405
950.759	12.2908
954.134	6.87322
957.509	4.82707
960.884	2.4853
964.259	1.03711
967.633	0.513783
971.008	0.775438
974.383	0.192623
977.758	0.531544
981.133	0.239517
984.507	0.362993
987.882	1.15692
991.257	0.711493
994.632	0.783928
998.007	1.45304
1001.38	0.130503
1004.76	0.896521
1008.13	1.47557
1011.51	2.68213
1014.88	4.02055
1018.26	5.89668
1021.63	7.74562
1025.01	11.5748
1028.38	15.4374
1031.76	20.5874
1035.13	27.9724
1038.5	35.8122
1041.88	44.527
1045.25	50.6437
1048.63	52.1117
1052	44.9672
1055.38	33.7823
1058.75	20.9391
1062.13	12.6862
1065.5	7.48207
1068.88	4.91333
1072.25	3.60298
1075.63	2.73529
1079	1.88928
1082.38	1.57122
1085.75	1.11532
1089.13	0.846348
1092.5	0.320616
1095.88	0.437396
1099.25	0.747655
1102.63	0.524599
1106	0.361051
1109.38	0.085701
1112.75	0.400111
1116.12	0.00296
1119.5	0.079959
1122.88	0.382272
1126.25	0.053892
1129.62	0.297663
1133	0.526682
1136.37	0.618452
1139.75	0.335018
1143.12	0.280984
1146.5	0.625185
1149.87	0.322375
1153.25	0.844802
1156.62	1.42362
1160	1.24499
1163.37	1.59679
1166.75	1.93141
1170.12	2.11721
1173.5	2.86309
1176.87	2.5129
1180.25	2.87579
1183.62	2.83562
1187	2.32076
1190.37	2.72631
1193.75	3.04481
1197.12	2.14938
1200.5	2.3189
1203.87	1.67055
1207.24	1.30323
1210.62	1.42935
1213.99	0.627619
1217.37	0.783374
1220.74	0.404885
1224.12	0.801392
1227.49	0.297295
1230.87	0.097712
1234.24	0.424707
1237.62	0.305595
1240.99	0.210289
1244.37	0.144772
1247.74	0.655321
1251.12	0.457386
1254.49	0.893887
1257.87	0.861788
1261.24	1.00057
1264.62	0.919418
1267.99	1.39148
1271.37	1.41942
1274.74	1.36059
1278.12	0.125475
1281.49	0.805752
1284.87	0.347044
1288.24	0.879131
1291.62	0.591047
1294.99	0.383245
1298.37	0.436092
1301.74	0.848366
