Measurement: Raman, 532 nm, unoriented, Raman Data Processed
Mineral: Almandine
Rruff sample: R100046
Ideal chemistry: Fe^2+^_3_Al_2_(SiO_4_)_3_
Locality: Altai, Xinjiang Province, China
Source: William W Pinch
Description: Red trapezohedron
Raman shift (cm-1)	intensity
90.4922	0
93.867	1.57115
97.2418	0.477367
100.617	1.71437
103.992	2.34495
107.366	3.97907
110.741	2.42972
114.116	5.47009
117.491	1.34676
120.865	1.69226
124.24	0.686193
127.615	0.421614
130.99	2.13279
134.365	0.042085
137.74	2.33509
141.114	5.61724
144.489	8.15685
147.864	15.4548
151.239	27.9656
154.614	42.6248
157.988	51.4553
161.363	62.1918
164.738	75.822
168.113	93.6507
171.488	83.9234
174.863	48.089
178.237	30.4214
181.612	20.8305
184.987	15.7034
188.362	15.0899
191.737	15.6415
195.112	18.7225
198.486	21.089
201.861	27.0467
205.236	36.7865
208.611	44.7195
211.986	49.6328
215.36	48.7014
218.735	39.5005
222.11	27.9751
225.485	19.7915
228.86	15.4663
232.234	11.3926
235.609	7.7158
238.984	7.00535
242.359	5.1217
245.734	1.51532
249.109	2.20279
252.483	1.25362
255.858	0.914833
259.233	0.491627
262.608	0.848194
265.983	1.42992
269.358	1.55315
272.732	0.388672
276.107	1.55432
279.482	0.263905
282.857	0.93882
286.232	1.72301
289.606	3.54428
292.981	4.07095
296.356	7.86033
299.731	10.6317
303.106	14.8446
306.481	21.7539
309.855	30.0937
313.23	44.2664
316.605	55.4418
319.98	55.6543
323.355	67.1287
326.729	86.6421
330.104	116.804
333.479	138.984
336.854	170.217
340.229	225.481
343.603	305.368
346.978	372.342
350.353	324.676
353.728	205.99
357.103	134.145
360.478	104.908
363.852	102.201
367.227	110.25
370.602	118.978
373.977	112.365
377.352	84.7804
380.726	53.1559
384.101	31.9149
387.476	21.2667
390.851	13.4683
394.226	7.19029
397.601	5.37039
400.975	1.98321
404.35	1.46751
407.725	1.54428
411.1	0.136768
414.475	0.783434
417.849	0.225252
421.224	0.5495
424.599	0.666357
427.974	0.291939
431.349	0.468828
434.724	0.186087
438.098	0.116039
441.473	0.18848
444.848	0.117455
448.223	0.2486
451.598	1.48336
454.972	1.41078
458.347	3.45097
461.722	3.46736
465.097	7.06533
468.472	10.4515
471.846	16.1056
475.221	21.5376
478.596	27.4914
481.971	24.3038
485.346	18.4256
488.721	21.336
492.095	32.0472
495.47	53.2632
498.845	82.1154
502.22	92.2585
505.595	51.9979
508.969	22.4053
512.344	10.8677
515.719	6.33553
519.094	4.29033
522.469	2.89521
525.844	3.22048
529.218	2.86381
532.593	4.10223
535.968	6.93551
539.343	12.3006
542.718	22.0785
546.092	36.3569
549.467	55.6797
552.842	84.12
556.217	104.893
559.592	88.6989
562.967	49.6477
566.341	25.0224
569.716	13.3602
573.091	7.23402
576.466	6.8091
579.841	8.33435
583.216	12.2999
586.59	11.3336
589.965	6.19712
593.34	3.63237
596.715	5.06105
600.09	5.46407
603.464	1.00257
606.839	1.04109
610.214	1.38138
613.589	1.0745
616.964	1.41855
620.338	2.09802
623.713	7.60039
627.088	13.6692
630.463	21.2828
633.838	25.3118
637.212	19.3702
640.587	10.726
643.962	7.09959
647.337	4.50823
650.712	2.95502
654.087	2.09456
657.461	1.47883
660.836	0.48096
664.211	0.994008
667.586	0.73441
670.961	0.293834
674.335	0.511816
677.71	0.053572
681.085	0.509206
684.46	0.285186
687.835	0.828206
691.21	0.911239
694.584	1.14531
697.959	1.83646
701.334	1.88099
704.709	2.09607
708.084	2.64248
711.458	2.3067
714.833	2.10225
718.208	2.34246
721.583	2.80124
724.958	3.30755
728.332	3.66025
731.707	3.68549
735.082	3.95309
738.457	4.72925
741.832	5.01923
745.207	4.20066
748.581	5.28961
751.956	6.35536
755.331	5.73344
758.706	6.15727
762.081	6.91925
765.456	5.81168
768.83	5.80314
772.205	5.13577
775.58	3.14859
778.955	2.52497
782.33	2.26153
785.704	2.22505
789.079	1.73214
792.454	1.39541
795.829	0.518654
799.204	0.20986
802.578	0.374777
805.953	0.322025
809.328	0.392536
812.703	0.098116
816.078	0.329372
819.453	0.411018
822.827	1.04424
826.202	1.06163
829.577	1.00131
832.952	0.426767
836.327	1.4005
839.702	2.63065
843.076	3.81821
846.451	10.4684
849.826	17.4826
853.201	26.0059
856.576	36.7113
859.95	48.5828
863.325	58.3482
866.7	51.1548
870.075	39.9101
873.45	32.3659
876.824	32.7041
880.199	35.0721
883.574	42.8058
886.949	58.8498
890.324	81.1538
893.698	112.658
897.073	156.694
900.448	215.135
903.823	315.436
907.198	480.325
910.573	716.906
913.947	1017.34
917.322	1171.63
920.697	947.522
924.072	574.59
927.447	329.832
930.822	198.18
934.196	124.715
937.571	77.9923
940.946	48.898
944.321	30.3004
947.696	18.7588
951.07	11.2835
954.445	6.54148
957.82	3.62834
961.195	1.60923
964.57	0.681843
967.944	0.789375
971.319	0.032585
974.694	0.34042
978.069	0.345104
981.444	0.200626
984.819	1.12749
988.193	1.0604
991.568	0.589449
994.943	0.682192
998.318	0.036373
1001.69	0.602198
1005.07	2.7091
1008.44	4.28811
1011.82	6.33571
1015.19	8.89246
1018.57	13.5795
1021.94	17.6396
1025.32	22.7052
1028.69	31.8546
1032.07	41.6658
1035.44	53.8816
1038.82	62.8378
1042.19	63.2329
1045.57	55.1603
1048.94	41.4542
1052.32	26.3098
1055.69	15.9925
1059.07	9.47916
1062.44	6.09761
1065.81	4.64068
1069.19	2.48266
1072.56	2.04904
1075.94	2.04241
1079.31	1.33885
1082.69	1.43286
1086.06	1.79738
1089.44	0.806114
1092.81	0.80934
1096.19	0.588687
1099.56	0.763227
1102.94	0.081127
1106.31	0.640706
1109.69	0.042694
1113.06	0.029582
1116.44	0.546744
1119.81	0.425393
1123.19	0.166017
1126.56	0.137654
1129.94	0.096325
1133.31	0.528389
1136.68	1.1888
1140.06	0.516414
1143.43	0.766175
1146.81	1.387
1150.18	1.83503
1153.56	2.35591
1156.93	3.3963
1160.31	3.58259
1163.68	4.27712
1167.06	3.01065
1170.43	4.20281
1173.81	3.85331
1177.18	4.12314
1180.56	4.06899
1183.93	3.65292
1187.31	4.33959
1190.68	3.15436
1194.06	3.80737
1197.43	2.8965
1200.81	2.24161
1204.18	2.07184
1207.56	2.33899
1210.93	0.700397
1214.31	1.16074
1217.68	1.14931
1221.06	0.098425
1224.43	0.483971
1227.81	0.126312
1231.18	0.882776
1234.56	0.124603
1237.93	0.215414
1241.31	1.14221
1244.68	0.989511
1248.05	0.877245
1251.43	0.656647
1254.8	2.08008
1258.18	1.76165
1261.55	1.67246
1264.93	4.54391
1268.3	2.80253
1271.68	1.29616
1275.05	1.44181
1278.43	0.859917
1281.8	1.53159
1285.18	1.27956
1288.55	0.273312
1291.93	0.536983
1295.3	0.438915
1298.68	0.466806
1302.05	0.238226
