Measurement: Raman, 532 nm, unoriented, Raman Data Processed
Mineral: Almandine
Rruff sample: R120145
Ideal chemistry: Fe^2+^_3_Al_2_(SiO_4_)_3_
Locality: Zagi Mountain, Hameed Abad Kafoor Dheri, Peshawar, Khyber Pakhtunkhwa, Pakistan
Source: Ikram Mineralogy
Description: Brown crystal fragment
Raman shift (cm-1)	intensity
160.715	0
163.608	0.144945
166.5	0.086091
169.393	0.002717
172.286	0.435252
175.178	2.20538
178.071	2.64792
180.964	2.1832
183.857	3.29564
186.749	5.19871
189.642	6.98424
192.535	9.00608
195.427	10.0922
198.32	11.7564
201.213	12.7874
204.105	13.2689
206.998	14.5206
209.891	16.109
212.784	16.9537
215.676	17.2633
218.569	16.8745
221.462	14.9516
224.354	13.2485
227.247	10.9573
230.14	8.76346
233.032	7.53453
235.925	5.82464
238.818	4.7372
241.71	3.93406
244.603	3.47413
247.496	2.72477
250.389	1.91474
253.281	1.93934
256.174	0.86039
259.067	0.947548
261.959	1.41367
264.852	0.822945
267.745	0.452011
270.637	0.123619
273.53	0.324112
276.423	0.07568
279.316	0.190393
282.208	0.604954
285.101	0.010473
287.994	0.378384
290.886	0.574078
293.779	1.29015
296.672	1.11086
299.565	2.38274
302.457	3.24277
305.35	4.94999
308.243	6.72611
311.135	9.15004
314.028	11.6941
316.921	12.612
319.813	15.5734
322.706	18.7581
325.599	22.8685
328.491	29.5076
331.384	33.4487
334.277	40.874
337.17	50.8627
340.062	65.0668
342.955	83.0806
345.848	99.3041
348.74	95.6753
351.633	73.4321
354.526	52.8918
357.418	40.5621
360.311	36.6884
363.204	35.2905
366.097	36.094
368.989	36.0868
371.882	34.7781
374.775	31.0477
377.667	26.9609
380.56	21.9428
383.453	17.5023
386.346	12.4009
389.238	8.91629
392.131	6.40322
395.024	4.33361
397.916	3.02654
400.809	1.76695
403.702	0.805261
406.594	0.971838
409.487	0.734816
412.38	0.154048
415.272	0.226765
418.165	0.064346
421.058	0.174312
423.951	0.436831
426.843	0.132763
429.736	0.036259
432.629	0.0353
435.521	0.016439
438.414	0.445765
441.307	0.119462
444.2	0.314282
447.092	0.35401
449.985	0.654616
452.878	1.15386
455.77	1.37635
458.663	3.1523
461.556	2.27464
464.448	2.67574
467.341	3.95396
470.234	5.18143
473.127	6.72732
476.019	8.5924
478.912	8.03621
481.805	6.05883
484.697	5.68766
487.59	7.28818
490.483	10.3696
493.375	15.5993
496.268	24.0669
499.161	31.7636
502.053	28.725
504.946	16.1513
507.839	8.18264
510.732	3.92618
513.624	2.49074
516.517	1.43577
519.41	0.722838
522.302	0.309337
525.195	0.792073
528.088	0.585975
530.981	0.59419
533.873	1.37565
536.766	1.88373
539.659	4.09144
542.551	6.52276
545.444	9.73611
548.337	14.6464
551.229	20.568
554.122	23.9562
557.015	20.3641
559.908	12.5409
562.8	6.21426
565.693	3.69929
568.586	2.45778
571.478	1.97549
574.371	2.25488
577.264	2.45545
580.156	2.93792
583.049	3.23503
585.942	2.0709
588.835	1.86412
591.727	2.47449
594.62	3.18163
597.513	2.47424
600.405	1.0445
603.298	0.158524
606.191	0.420557
609.083	0.330332
611.976	0.014897
614.869	0.745299
617.761	1.4881
620.654	2.06298
623.547	3.93962
626.44	5.58587
629.332	7.82134
632.225	7.57537
635.118	5.67347
638.01	3.31288
640.903	2.34125
643.796	1.68858
646.688	1.24618
649.581	0.775243
652.474	0.632271
655.367	0.547013
658.259	0.437923
661.152	0.585884
664.045	0.25451
666.937	0.014242
669.83	0.069892
672.723	0.107551
675.615	0.131323
678.508	0.392138
681.401	0.300368
684.294	0.168033
687.186	0.011417
690.079	0.218229
692.972	0.786655
695.864	1.1138
698.757	0.712754
701.65	0.685396
704.543	0.564409
707.435	0.626199
710.328	0.682009
713.221	1.10596
716.113	0.80342
719.006	0.831525
721.899	1.07269
724.791	0.972379
727.684	1.00877
730.577	1.38355
733.47	0.99178
736.362	1.47669
739.255	1.22088
742.148	1.34052
745.04	1.57884
747.933	1.37264
750.826	1.59151
753.718	1.46879
756.611	1.88181
759.504	1.36278
762.396	1.19287
765.289	1.08089
768.182	0.799495
771.075	0.751778
773.967	0.562329
776.86	0.647163
779.753	0.456371
782.645	0.852881
785.538	0.311957
788.431	0.030272
791.323	0.147928
794.216	0.115137
797.109	0.186078
800.002	0.290179
802.894	0.19621
805.787	0.3192
808.68	0.129025
811.572	0.14854
814.465	0.03748
817.358	0.203963
820.25	0.282988
823.143	0.639338
826.036	0.408361
828.929	0.683205
831.821	0.894466
834.714	0.725719
837.607	1.50674
840.5	2.6509
843.392	4.39196
846.285	6.09542
849.178	8.86465
852.07	12.1595
854.963	15.673
857.856	16.1304
860.748	14.4929
863.641	12.1141
866.534	9.72444
869.427	9.14943
872.319	9.07003
875.212	9.78566
878.105	11.3053
880.997	15.714
883.89	20.424
886.783	26.4094
889.675	33.9872
892.568	44.8941
895.461	57.1851
898.354	75.7779
901.246	107.71
904.139	151.818
907.032	207.133
909.924	255.319
912.817	261.27
915.71	209.176
918.602	140.786
921.495	91.6017
924.388	60.6832
927.28	40.9889
930.173	27.6272
933.066	18.7432
935.959	12.301
938.851	7.96288
941.744	5.55979
944.637	3.79016
947.529	2.39004
950.422	1.78768
953.315	0.920914
956.207	0.72645
959.1	0.380793
961.993	0.018673
964.886	0.357161
967.778	0.083191
970.671	0.162951
973.564	0.112377
976.456	0.058985
979.349	0.042612
982.242	0.405415
985.135	0.708708
988.027	0.019228
990.92	0.266523
993.813	0.083676
996.705	0.562992
999.598	1.00978
1002.49	1.21569
1005.38	2.35587
1008.28	3.38015
1011.17	4.68356
1014.06	6.17679
1016.95	7.82262
1019.85	9.06911
1022.74	12.1021
1025.63	14.6882
1028.53	18.8258
1031.42	22.3854
1034.31	24.7117
1037.2	23.3013
1040.1	19.5253
1042.99	14.5353
1045.88	9.80932
1048.77	6.16526
1051.67	4.20062
1054.56	2.82476
1057.45	2.20493
1060.35	1.55953
1063.24	1.02159
1066.13	0.908744
1069.02	0.612172
1071.92	0.472006
1074.81	0.512024
1077.7	0.394883
1080.59	0.387532
1083.49	0.642729
1086.38	0.12231
1089.27	0.394691
1092.16	0.084115
1095.06	0.186065
1097.95	0.244119
1100.84	0.323763
1103.73	0.083008
1106.63	0.23284
1109.52	0.173466
1112.41	0.07414
1115.31	0.047754
1118.2	0.174021
1121.09	0.092752
1123.98	0.280622
1126.88	0.252748
1129.77	0.456799
1132.66	0.20588
1135.56	0.351908
1138.45	0.097067
1141.34	0.668536
1144.23	0.375449
1147.13	0.866941
1150.02	0.782631
1152.91	0.729304
1155.8	0.956074
1158.7	1.0268
1161.59	1.42196
1164.48	1.28303
1167.38	1.05741
1170.27	1.5049
1173.16	1.20956
1176.05	1.01711
1178.94	1.22038
1181.84	1.27468
1184.73	0.984228
1187.62	1.25691
1190.52	0.616452
1193.41	0.640722
1196.3	0.705235
1199.19	0.433648
1202.09	0.486417
1204.98	0.574657
1207.87	0.614439
1210.77	0.186856
1213.66	0.287624
1216.55	0.148375
1219.44	0.174909
1222.34	0.052311
1225.23	0.041985
1228.12	0.094007
1231.01	0.094679
1233.91	0.039443
1236.8	0.239023
1239.69	0.486293
1242.59	0.607037
1245.48	0.595863
1248.37	0.772283
1251.26	0.591229
1254.16	0.9233
1257.05	0.768116
1259.94	0.724732
1262.83	0.860126
1265.73	1.03338
1268.62	0.909434
1271.51	0.865932
1274.4	0.537457
1277.3	0.483994
1280.19	0.712662
1283.08	0.694098
1285.97	0.288733
1288.87	0.231269
1291.76	0.772346
1294.65	0.358445
1297.55	0.294112
1300.44	0.48661
