Measurement: Raman, 780 nm, unoriented, Raman Data Processed
Mineral: Almandine
Rruff sample: R060099
Ideal chemistry: Fe^2+^_3_Al_2_(SiO_4_)_3_
Locality: Alaska, USA
Source: Roland Boehne
Description: Red cube shaped single crystal
Measured chemistry: (Fe^2+^_1.63_Mg_0.57_Mn_0.56_Ca_0.24_)_Σ=3_(Al_1.98_Fe^3+^_0.02_)_Σ=2_(Si_1.00_O_4_)_3_
Raman shift (cm-1)	intensity
98.3088	0
101.684	1.62984
105.058	1.85238
108.433	3.40768
111.808	1.56168
115.183	0.18425
118.558	0.037407
121.933	0.429855
125.307	0.65506
128.682	3.73138
132.057	4.24683
135.432	6.71768
138.807	11.248
142.181	15.0269
145.556	18.0925
148.931	26.5131
152.306	33.7737
155.681	42.6119
159.055	52.3833
162.43	59.7974
165.805	66.4136
169.18	71.5604
172.555	42.8023
175.93	17.2599
179.304	5.4134
182.679	1.28155
186.054	3.16696
189.429	6.80131
192.804	12.025
196.179	21.5542
199.553	27.7966
202.928	41.5139
206.303	51.1341
209.678	58.7448
213.053	60.7096
216.427	51.1061
219.802	36.8231
223.177	26.5771
226.552	16.2857
229.927	14.0216
233.302	9.66719
236.676	8.40774
240.051	5.05486
243.426	4.74471
246.801	0.081261
250.176	2.57237
253.55	0.140572
256.925	0.295799
260.3	0.40004
263.675	1.33581
267.05	1.4997
270.425	0.619308
273.799	1.20138
277.174	0.590858
280.549	3.70975
283.924	3.41956
287.299	4.9605
290.673	8.04189
294.048	12.7327
297.423	17.2502
300.798	23.3483
304.173	30.8925
307.548	43.7843
310.922	58.958
314.297	73.6157
317.672	81.4957
321.047	90.238
324.421	118.305
327.796	158.338
331.171	200.893
334.546	242.174
337.921	297.302
341.296	377.75
344.67	468.009
348.045	486.618
351.42	373.397
354.795	244.888
358.17	175.473
361.545	151.953
364.919	146.665
368.294	145.282
371.669	138.285
375.044	114.184
378.419	78.751
381.793	50.9202
385.168	31.0499
388.543	17.3189
391.918	10.0602
395.293	6.18288
398.668	3.41814
402.042	1.87851
405.417	0.775146
408.792	0.642693
412.167	0.377228
415.542	0.491234
418.916	0.162079
422.291	1.53818
425.666	0.439621
429.041	3.03028
432.416	4.76067
435.791	2.97473
439.165	4.23665
442.54	2.48113
445.915	4.46581
449.29	4.44962
452.665	3.82421
456.039	4.91041
459.414	5.01208
462.789	6.72656
466.164	8.43617
469.539	11.7797
472.913	21.1204
476.288	24.8145
479.663	27.3518
483.038	25.0226
486.413	24.8682
489.788	32.6468
493.162	49.4492
496.537	79.6242
499.912	102.384
503.287	76.8436
506.662	33.9343
510.036	11.7832
513.411	5.12213
516.786	0.045013
520.161	1.35365
523.536	0.936707
526.91	2.33086
530.285	0.847931
533.66	7.02396
537.035	17.2273
540.41	30.5858
543.785	47.7979
547.159	65.5022
550.534	97.1939
553.909	124.205
557.284	119.374
560.659	75.6416
564.034	36.4282
567.408	15.3451
570.783	9.31161
574.158	4.98435
577.533	8.68417
580.908	8.9135
584.282	11.931
587.657	6.15693
591.032	4.03962
594.407	3.13772
597.782	6.28312
601.156	4.19626
604.531	3.17081
607.906	2.10058
611.281	1.04892
614.656	1.18051
618.03	6.41115
621.405	10.4204
624.78	16.7765
628.155	24.4445
631.53	30.8687
634.905	28.7654
638.279	15.25
641.654	8.92511
645.029	3.47146
648.404	0.451309
651.779	0.404171
655.154	0.109264
658.528	0.040848
661.903	0.909267
665.278	1.03842
668.653	0.795811
672.028	0.932514
675.402	0.651142
678.777	0.121681
682.152	2.26428
685.527	1.71465
688.902	1.0919
692.277	2.1628
695.651	2.18933
699.026	2.40302
702.401	2.89763
705.776	2.38066
709.151	2.86811
712.525	3.81076
715.9	4.96641
719.275	4.07027
722.65	5.47789
726.025	5.10387
729.399	5.13553
732.774	4.57348
736.149	4.99546
739.524	5.11941
742.899	4.88831
746.274	6.41274
749.648	5.40103
753.023	5.38012
756.398	3.93316
759.773	5.35777
763.148	4.26928
766.523	4.8835
769.897	4.09348
773.272	3.22159
776.647	3.21458
780.022	2.23433
783.396	2.7982
786.771	2.8804
790.146	0.040668
793.521	0.241055
796.896	0.52375
800.271	0.115242
803.645	0.574169
807.02	0.090614
810.395	0.033997
813.77	0.243046
817.145	0.122581
820.519	1.07801
823.894	0.938278
827.269	0.525414
830.644	0.258339
834.019	1.34703
837.394	4.05553
840.768	7.18805
844.143	13.4992
847.518	19.868
850.893	31.1203
854.268	42.7014
857.643	56.8804
861.017	65.2463
864.392	59.6827
867.767	47.4915
871.142	37.5779
874.517	35.7728
877.891	38.6752
881.266	49.3669
884.641	63.6488
888.016	85.4867
891.391	119.454
894.765	167.884
898.14	236.38
901.515	340.399
904.89	491.623
908.265	688.837
911.64	920.698
915.014	1065.8
918.389	917.501
921.764	591.194
925.139	343.301
928.514	207.45
931.888	130.965
935.263	83.9507
938.638	52.5609
942.013	33.5583
945.388	20.4655
948.763	12.8716
952.137	7.53416
955.512	3.79963
958.887	1.44672
962.262	1.55383
965.637	0.287979
969.011	1.09946
972.386	1.14024
975.761	0.839378
979.136	0.348694
982.511	0.125038
985.885	1.44624
989.26	0.39983
992.635	0.360374
996.01	0.320099
999.385	1.86665
1002.76	0.735596
1006.13	4.24156
1009.51	6.9816
1012.88	9.34589
1016.26	11.56
1019.63	17.9131
1023.01	24.4929
1026.38	31.3367
1029.76	40.4249
1033.13	50.2889
1036.51	59.4165
1039.88	62.9135
1043.26	59.3983
1046.63	46.8827
1050.01	33.4853
1053.38	21.4192
1056.76	13.4864
1060.13	9.66428
1063.51	5.51305
1066.88	4.77398
1070.26	2.18486
1073.63	2.46615
1077.01	1.91418
1080.38	1.07895
1083.76	0.240662
1087.13	1.43944
1090.51	0.383949
1093.88	0.906315
1097.25	1.13103
1100.63	0.664909
1104	0.409969
1107.38	0.451683
1110.75	0.337803
1114.13	0.964268
1117.5	1.02391
1120.88	0.808167
1124.25	0.728725
1127.63	1.16971
1131	0.697296
1134.38	0.327637
1137.75	1.85836
1141.13	1.91277
1144.5	1.04601
1147.88	2.23478
1151.25	2.08256
1154.63	1.588
1158	3.03155
1161.38	4.11148
1164.75	3.23151
1168.13	2.91853
1171.5	4.22401
1174.88	4.15209
1178.25	3.89826
1181.62	4.00384
1185	3.97324
1188.38	1.92386
1191.75	3.73663
1195.12	2.97198
1198.5	3.27992
1201.87	2.92996
1205.25	2.04588
1208.62	1.02785
1212	2.3982
1215.37	1.75762
1218.75	1.2384
1222.12	0.054329
1225.5	0.976067
1228.87	0.054817
1232.25	0.048695
1235.62	0.145451
1239	1.19268
1242.37	0.800812
1245.75	0.581795
1249.12	1.04918
1252.5	1.01468
1255.87	2.05138
1259.25	2.53639
1262.62	0.970192
1265.99	3.27033
1269.37	1.53376
1272.74	1.21284
1276.12	1.15736
1279.49	0.182877
1282.87	0.068909
1286.24	0
