Measurement: Raman, 780 nm, unoriented, Raman Data Processed
Mineral: AlSO4(OH)
Rruff sample: R141118
Ideal chemistry: AlSO_4_(OH)
Locality: Only one crystal was synthesized hydrothermally at 700Â°C and ~1.0 GPa.
Source: Alan J. Anderson
Description: Prismatic colorless crystal mounted in super glue.
Measured chemistry: AlSO_4_(OH). EDS shows the major elements of Al, S, and O, plus trace Cr. Si is from glass fiber. No electron microprobe analysis was done, because there is only one crystal. The final chemistry was from the structure refinement.
Raman shift (cm-1)	intensity
99.3956	0
102.77	1.36969
106.145	11.2806
109.52	0.786865
112.895	1.91071
116.27	0.764832
119.644	3.36469
123.019	12.984
126.394	10.9362
129.769	21.2277
133.144	34.318
136.518	68.6275
139.893	87.5726
143.268	99.5168
146.643	79.3976
150.018	35.3101
153.393	13.5755
156.767	4.66119
160.142	3.73645
163.517	2.79486
166.892	2.98859
170.267	0.1203
173.642	0.971802
177.016	1.68079
180.391	2.13657
183.766	2.18616
187.141	1.93646
190.516	1.23621
193.89	1.7507
197.265	1.86572
200.64	1.31021
204.015	2.01163
207.39	4.25839
210.764	11.2069
214.139	6.53558
217.514	2.10602
220.889	13.3868
224.264	6.58099
227.638	3.47803
231.013	4.85901
234.388	5.99152
237.763	9.41754
241.138	11.122
244.513	15.6245
247.887	24.6893
251.262	34.7417
254.637	49.3285
258.012	81.3908
261.387	140.273
264.762	185.757
268.136	123.981
271.511	61.4368
274.886	35.3936
278.261	23.3702
281.635	17.1017
285.01	10.3553
288.385	7.42313
291.76	4.87103
295.135	4.86633
298.51	5.35843
301.884	4.02963
305.259	5.3313
308.634	4.49121
312.009	3.76776
315.384	6.26544
318.759	4.71332
322.133	7.99561
325.508	7.80078
328.883	6.16888
332.258	0.936279
335.633	3.17529
339.007	1.14331
342.382	0.040771
345.757	0.676331
349.132	2.63391
352.507	0.975891
355.882	7.37921
359.256	3.60132
362.631	8.32343
366.006	7.40497
369.381	7.66058
372.755	1.34625
376.13	2.89069
379.505	13.6235
382.88	8.48706
386.255	15.7447
389.63	21.9714
393.004	39.683
396.379	57.9569
399.754	72.9219
403.129	58.6575
406.504	36.8448
409.878	15.4237
413.253	8.15613
416.628	3.98651
420.003	11.2305
423.378	6.4892
426.753	11.3427
430.127	22.236
433.502	47.7373
436.877	85.0971
440.252	41.1829
443.627	12.2495
447.001	2.15979
450.376	2.76978
453.751	3.19592
457.126	1.65216
460.501	0.442139
463.875	0.833252
467.25	1.6908
470.625	1.90149
474	4.21887
477.375	0.663818
480.75	2.45477
484.124	3.29346
487.499	5.55695
490.874	3.75037
494.249	5.27625
497.624	8.68762
500.998	11.7813
504.373	16.0087
507.748	19.314
511.123	34.6048
514.498	47.2304
517.873	39.9196
521.247	26.5813
524.622	10.231
527.997	7.85736
531.372	3.86438
534.747	2.6178
538.121	2.40637
541.496	1.82312
544.871	1.97839
548.246	1.90875
551.621	1.521
554.995	0.253479
558.37	1.05133
561.745	1.3822
565.12	0.930603
568.495	1.92603
571.87	0.843323
575.244	0.195679
578.619	1.6958
581.994	1.54297
585.369	0.868713
588.744	6.17999
592.119	8.83624
595.493	11.8273
598.868	16.5684
602.243	31.5781
605.618	58.6165
608.993	87.7545
612.367	40.1519
615.742	14.6818
619.117	8.08868
622.492	4.84985
625.867	4.2384
629.241	4.97809
632.616	3.89941
635.991	6.67932
639.366	7.56689
642.741	6.35229
646.115	8.35577
649.49	15.6907
652.865	23.0328
656.24	37.9653
659.615	66.5888
662.99	98.5729
666.364	97.8997
669.739	67.9138
673.114	61.3517
676.489	32.5126
679.864	18.6177
683.239	10.7358
686.613	8.36194
689.988	5.25928
693.363	4.83258
696.738	1.63068
700.112	3.88141
703.487	1.14557
706.862	0.856689
710.237	1.82678
713.612	0.297913
716.987	2.99371
720.361	2.9527
723.736	0.549561
727.111	0.795715
730.486	3.00116
733.861	1.75519
737.236	1.19122
740.61	0.878784
743.985	2.31293
747.36	1.13434
750.735	1.97485
754.11	1.17297
757.484	0.835754
760.859	0.921326
764.234	3.00366
767.609	2.33356
770.984	1.90595
774.359	0.134094
777.733	1.8031
781.108	2.3772
784.483	2.80158
787.858	4.70691
791.232	4.2652
794.607	8.35699
797.982	0.437866
801.357	2.1294
804.732	4.3075
808.107	4.22015
811.481	4.99695
814.856	5.17554
818.231	5.47156
821.606	8.53021
824.981	8.72485
828.356	9.84546
831.73	6.74487
835.105	9.83209
838.48	8.60242
841.855	9.00006
845.23	13.0737
848.604	12.7416
851.979	6.43445
855.354	7.29944
858.729	8.7168
862.104	7.21454
865.479	7.82178
868.853	3.89655
872.228	5.43909
875.603	4.46075
878.978	6.27417
882.352	8.71021
885.727	5.08319
889.102	2.99646
892.477	4.95264
895.852	3.26056
899.227	1.59149
902.601	4.88043
905.976	0.071594
909.351	2.45239
912.726	1.65698
916.101	2.63001
919.476	1.84259
922.85	0.915833
926.225	2.35925
929.6	0.798828
932.975	1.17572
936.35	1.17694
939.724	2.99811
943.099	2.39111
946.474	2.35315
949.849	6.80273
953.224	2.28021
956.598	3.46448
959.973	3.00678
963.348	2.09314
966.723	5.29297
970.098	2.6048
973.472	0.853027
976.847	2.4751
980.222	2.15918
983.597	1.85644
986.972	2.75781
990.347	3.14307
993.721	3.70062
997.096	1.80762
1000.47	2.88879
1003.85	0.744934
1007.22	0.709717
1010.6	1.04394
1013.97	1.45807
1017.35	3.34912
1020.72	0.252319
1024.1	2.51129
1027.47	0.48645
1030.84	3.63269
1034.22	1.00305
1037.59	5.70715
1040.97	3.4303
1044.34	0.811035
1047.72	1.01697
1051.09	0.554077
1054.47	0.276855
1057.84	4.62457
1061.22	3.76056
1064.59	3.56122
1067.97	5.05847
1071.34	5.83618
1074.72	6.14038
1078.09	10.9424
1081.47	19.7168
1084.84	31.1735
1088.22	59.1337
1091.59	110.901
1094.97	205.181
1098.34	257.199
1101.71	145.336
1105.09	80.7484
1108.46	71.035
1111.84	25.4268
1115.21	13.2224
1118.59	2.3241
1121.96	3.0719
1125.34	1.35748
1128.71	6.67194
1132.09	8.11462
1135.46	21.5369
1138.84	49.3256
1142.21	90.6566
1145.59	80.7624
1148.96	26.2705
1152.34	10.2922
1155.71	2.25568
1159.09	1.30359
1162.46	0.157104
1165.84	2.51837
1169.21	1.15662
1172.59	0.911133
1175.96	3.24109
1179.34	4.83215
1182.71	0.767639
1186.09	5.2887
1189.46	0.687317
1192.84	1.83447
1196.21	1.02216
1199.59	5.66022
1202.96	3.96289
1206.34	2.16272
1209.71	1.95782
1213.08	3.33771
1216.46	5.09918
1219.83	3.77716
1223.21	2.72174
1226.58	11.5626
1229.96	3.96564
1233.33	14.1372
1236.71	19.2108
1240.08	15.8893
1243.46	8.32214
1246.83	4.33704
1250.21	0.786377
1253.58	2.05774
1256.96	1.02856
1260.33	2.00073
1263.71	1.43481
1267.08	3.1875
1270.46	1.16186
1273.83	1.10193
1277.21	7.25635
1280.58	4.10364
1283.95	0
