Measurement: Raman, 532 nm, unoriented, Raman Data Processed
Mineral: AlSO4(OH)
Rruff sample: R141118
Ideal chemistry: AlSO_4_(OH)
Locality: Only one crystal was synthesized hydrothermally at 700Â°C and ~1.0 GPa.
Source: Alan J. Anderson
Description: Prismatic colorless crystal mounted in super glue.
Measured chemistry: AlSO_4_(OH). EDS shows the major elements of Al, S, and O, plus trace Cr. Si is from glass fiber. No electron microprobe analysis was done, because there is only one crystal. The final chemistry was from the structure refinement.
Raman shift (cm-1)	intensity
100.932	0
104.307	0.014156
107.682	0.560562
111.057	0.770203
114.432	1.27791
117.806	1.22068
121.181	1.91935
124.556	0.989542
127.931	2.34275
131.306	2.23366
134.681	2.52823
138.055	1.7474
141.43	2.43669
144.805	1.17128
148.18	1.25328
151.555	0.587077
154.929	0.206599
158.304	0.102118
161.679	0.667382
165.054	0.145963
168.429	0.708367
171.804	0.447216
175.178	0.820783
178.553	2.0308
181.928	1.60673
185.303	2.9141
188.678	3.68488
192.053	3.84224
195.427	4.25883
198.802	2.91484
202.177	3.65718
205.552	3.41373
208.927	3.25816
212.301	2.74818
215.676	2.60652
219.051	2.25307
222.426	1.87532
225.801	1.3565
229.175	1.30677
232.55	1.4254
235.925	1.43346
239.3	1.79156
242.675	3.1019
246.05	6.51379
249.424	9.45753
252.799	13.3078
256.174	19.3203
259.549	26.7087
262.924	38.3707
266.298	35.5412
269.673	18.9499
273.048	10.0101
276.423	6.09777
279.798	3.98802
283.173	2.67583
286.547	1.61088
289.922	1.15323
293.297	0.523531
296.672	0.083757
300.047	0.394769
303.421	0.341579
306.796	0.360848
310.171	0.679782
313.546	1.02834
316.921	1.70376
320.296	2.40201
323.67	3.36397
327.045	3.63831
330.42	1.90139
333.795	0.951838
337.17	0.326297
340.544	0.163057
343.919	0.282226
347.294	0.28508
350.669	0.267838
354.044	0.048322
357.418	0.160917
360.793	0.038866
364.168	0.183993
367.543	0.185484
370.918	0.620687
374.293	0.925268
377.667	1.75595
381.042	3.21444
384.417	4.81339
387.792	6.74743
391.167	9.96235
394.541	14.1265
397.916	17.2933
401.291	17.4807
404.666	11.7552
408.041	6.5319
411.416	3.81604
414.79	3.37551
418.165	3.63174
421.54	8.33359
424.915	11.947
428.29	15.5957
431.664	26.2309
435.039	43.1956
438.414	45.8465
441.789	14.1817
445.164	4.63544
448.539	2.13359
451.913	0.959243
455.288	0.462641
458.663	0.338367
462.038	0.355906
465.413	0.156116
468.788	0.279755
472.162	0.750805
475.537	0.620923
478.912	0.459559
482.287	0.91578
485.662	1.42745
489.036	0.895862
492.411	1.97209
495.786	3.09868
499.161	6.06361
502.536	10.1238
505.911	14.5625
509.285	21.7769
512.66	30.5594
516.035	35.2976
519.41	25.3711
522.784	13.7091
526.159	8.0828
529.534	5.08209
532.909	3.17473
536.284	2.0158
539.659	1.41036
543.033	1.25729
546.408	0.543131
549.783	0.097689
553.158	0.212491
556.533	0.039345
559.908	0.202845
563.282	0.065871
566.657	0.158473
570.032	0.17277
573.407	0.130603
576.782	0.250135
580.156	0.044519
583.531	0.291533
586.906	0.653485
590.281	2.05065
593.656	4.15883
597.03	5.87184
600.405	7.66317
603.78	12.4568
607.155	17.6116
610.53	16.5832
613.905	5.84398
617.279	2.16399
620.654	0.895638
624.029	0.681897
627.404	0.678002
630.779	0.875701
634.154	1.28009
637.528	2.28469
640.903	3.98125
644.278	6.11287
647.653	10.323
651.028	18.7951
654.402	29.3852
657.777	45.2861
661.152	67.3125
664.527	79.7656
667.902	65.1721
671.277	50.3789
674.651	40.5215
678.026	18.7976
681.401	9.00335
684.776	5.39138
688.151	3.91986
691.525	2.34266
694.9	1.8558
698.275	1.31537
701.65	1.07239
705.025	1.13128
708.399	0.885132
711.774	0.229325
715.149	0.455741
718.524	0.478663
721.899	0.102062
725.274	0.179715
728.648	0.167431
732.023	0.12768
735.398	0.324655
738.773	0.15504
742.148	0.229915
745.523	0.17946
748.897	0.198743
752.272	0.067845
755.647	0.135134
759.022	0.340253
762.396	0.174908
765.771	0.244496
769.146	0.391918
772.521	0.518795
775.896	0.468944
779.271	0.56017
782.645	0.653288
786.02	0.442401
789.395	0.497137
792.77	0.384549
796.145	0.652033
799.519	0.26355
802.894	0.62878
806.269	0.333757
809.644	0.641403
813.019	0.417539
816.394	0.511725
819.768	0.567717
823.143	0.574271
826.518	0.976636
829.893	0.773011
833.268	0.620843
836.643	0.715922
840.017	0.839873
843.392	0.824196
846.767	0.770016
850.142	0.983886
853.517	0.807886
856.891	0.923347
860.266	0.609985
863.641	0.976413
867.016	0.70643
870.391	0.836044
873.765	0.525728
877.14	0.489335
880.515	0.381254
883.89	0.743914
887.265	0.422331
890.64	0.368951
894.014	0.270629
897.389	0.193806
900.764	0.487423
904.139	0.341864
907.514	0.011021
910.889	0.318533
914.263	0.131819
917.638	0.070878
921.013	0.041642
924.388	0.281267
927.763	0.454666
931.137	0.478361
934.512	0.82793
937.887	0.776789
941.262	0.317727
944.637	0.136506
948.011	0.546896
951.386	0.589496
954.761	0.592126
958.136	0.093809
961.511	0.586751
964.886	0.17976
968.26	0.536272
971.635	0.407568
975.01	0.561993
978.385	0.113895
981.76	0.103587
985.135	0.521239
988.509	0.089335
991.884	0.111452
995.259	0.099113
998.634	0.291505
1002.01	0.284778
1005.38	0.253326
1008.76	0.158818
1012.13	0.052173
1015.51	0.132217
1018.88	0.353725
1022.26	0.092605
1025.63	0.269496
1029.01	0.327533
1032.38	0.329416
1035.76	0.313913
1039.13	0.215459
1042.51	0.197382
1045.88	0.535878
1049.26	0.916554
1052.63	0.769617
1056.01	1.48431
1059.38	2.27576
1062.76	3.00403
1066.13	4.28246
1069.51	5.38232
1072.88	7.06842
1076.26	9.89937
1079.63	14.486
1083	24.5739
1086.38	45.5442
1089.75	77.9836
1093.13	121.383
1096.5	179.81
1099.88	166.318
1103.25	94.4383
1106.63	74.1097
1110	51.3445
1113.38	22.1344
1116.75	11.4762
1120.13	7.06569
1123.5	5.4113
1126.88	5.77609
1130.25	7.41392
1133.63	12.2429
1137	17.955
1140.38	28.5242
1143.75	40.8445
1147.13	22.6922
1150.5	7.71585
1153.88	3.0503
1157.25	1.42109
1160.62	0.171642
1164	0.047271
1167.38	0.217531
1170.75	0.169674
1174.12	0.218637
1177.5	0.034027
1180.87	0.136421
1184.25	0.061595
1187.62	0.387731
1191	0.464682
1194.37	0.301097
1197.75	0.586611
1201.12	1.10112
1204.5	1.49909
1207.87	1.8618
1211.25	2.4582
1214.62	2.68586
1218	3.72692
1221.37	3.96603
1224.75	3.98991
1228.12	5.46925
1231.5	6.96666
1234.87	10.0942
1238.25	11.3997
1241.62	7.46116
1244.99	3.30859
1248.37	1.0615
1251.74	0.097809
1255.12	0.246319
1258.49	0.106512
1261.87	0.186252
1265.24	0.118301
1268.62	0.357178
1271.99	0.923546
1275.37	1.94863
1278.74	1.5505
1282.12	1.68724
1285.49	2.80088
1288.87	1.56311
1292.24	1.33776
1295.62	0.270788
1298.99	0.578625
