Measurement: Raman, 532 nm, unoriented, Raman Data Processed
Mineral: Alstonite
Rruff sample: R090049
Ideal chemistry: BaCa(CO_3_)_2_
Locality: Admiralty flats, Haggs mine, Nentsberry, Cumbria, England
Source: Bob Jenkins
Description: Clusters of colorless pyramidal crystals. We have posted cell parameters that match those in the literature, but do not represent the correct cell. The crystals are twinned.
Measured chemistry: Ba_0.99_(Ca_0.99_Sr_0.05_)_Î£=1.04_(CO_3_)_2_
Raman shift (cm-1)	intensity
122.566	0
125.94	126.94
129.315	331.658
132.69	828.968
136.065	1732.81
139.44	2747.4
142.815	3193.18
146.189	3044.05
149.564	2875.08
152.939	1934.16
156.314	1230.22
159.689	1071.04
163.063	1168.65
166.438	1316.75
169.813	1438.93
173.188	1381.46
176.563	891.795
179.938	612.006
183.312	476.496
186.687	348.871
190.062	306.133
193.437	328.347
196.812	299.773
200.186	122.71
203.561	7.46619
206.936	24.9926
210.311	86.6943
213.686	65.8245
217.06	14.905
220.435	66.9894
223.81	79.2955
227.185	41.5967
230.56	33.1497
233.935	136.074
237.309	245.175
240.684	374.736
244.059	497.581
247.434	531.61
250.809	387.671
254.184	195.726
257.558	72.6068
260.933	30.8064
264.308	37.5001
267.683	55.4025
271.058	83.3428
274.433	121.406
277.807	149.358
281.182	152.229
284.557	132.696
287.932	139.184
291.307	135.767
294.681	120.334
298.056	119.225
301.431	113.468
304.806	120.301
308.181	130.466
311.555	146.012
314.93	148.958
318.305	132.734
321.68	97.2605
325.055	63.6907
328.43	42.5292
331.804	29.1751
335.179	18.0009
338.554	5.87677
341.929	4.05414
345.304	0.376343
348.678	6.29169
352.053	0.281738
355.428	0.304443
358.803	0.015747
362.178	0.992065
365.553	3.50525
368.928	2.96661
372.302	2.03479
375.677	0.3974
379.052	2.5622
382.427	0.723145
385.802	0.912109
389.176	3.72437
392.551	2.94391
395.926	4.22638
399.301	7.76343
402.676	6.87885
406.05	8.48987
409.425	6.46887
412.8	11.4226
416.175	6.64123
419.55	5.8808
422.925	6.97705
426.299	3.70776
429.674	4.85376
433.049	1.47693
436.424	1.59753
439.799	4.29028
443.173	7.32349
446.548	3.27551
449.923	8.09949
453.298	8.3252
456.673	9.10559
460.048	2.73401
463.423	2.95142
466.797	0.452881
470.172	1.57056
473.547	2.87976
476.922	1.92578
480.297	1.14233
483.671	7.52637
487.046	0.830444
490.421	8.67419
493.796	3.33179
497.171	10.4213
500.546	4.13586
503.92	5.48425
507.295	6.52344
510.67	1.40308
514.045	5.93494
517.42	1.76514
520.794	2.77722
524.169	4.83606
527.544	9.03955
530.919	5.20544
534.294	2.12964
537.668	8.28369
541.043	3.50793
544.418	9.80371
547.793	4.98157
551.168	11.4211
554.543	9.23975
557.917	7.13452
561.292	6.91821
564.667	6.72144
568.042	7.96655
571.417	3.93079
574.792	6.82104
578.166	7.44702
581.541	8.04395
584.916	12.3253
588.291	5.79065
591.666	7.88892
595.04	9.33032
598.415	4.58032
601.79	5.89746
605.165	0.459595
608.54	8.46374
611.915	4.25012
615.289	0.305786
618.664	0.999146
622.039	5.39038
625.414	5.96277
628.789	1.56116
632.163	6.33936
635.538	17.8133
638.913	0.497803
642.288	4.19226
645.663	2.42749
649.038	0.117554
652.412	0.614136
655.787	1.65173
659.162	4.27124
662.537	8.54858
665.912	12.4347
669.287	17.736
672.661	22.4482
676.036	104.726
679.411	252.947
682.786	435.146
686.161	718.637
689.535	1219.99
692.91	1091.79
696.285	775.038
699.66	649.538
703.035	623.697
706.409	260.937
709.784	185.892
713.159	71.1278
716.534	29.2579
719.909	14.9397
723.284	9.2439
726.659	4.8092
730.033	6.63306
733.408	3.47485
736.783	2.42639
740.158	2.88489
743.533	8.26318
746.907	1.70801
750.282	2.1178
753.657	5.36658
757.032	4.07886
760.407	5.16492
763.782	3.42127
767.156	3.48401
770.531	1.70019
773.906	4.0448
777.281	4.55798
780.656	3.50659
784.03	3.2456
787.405	4.57129
790.78	4.49646
794.155	5.41455
797.53	0.837769
800.904	5.84534
804.279	5.22668
807.654	3.25305
811.029	4.93543
814.404	4.44189
817.779	2.21936
821.154	6.72241
824.528	5.12183
827.903	2.37793
831.278	9.89636
834.653	9.9707
838.028	6.53162
841.402	8.83374
844.777	5.83142
848.152	7.3551
851.527	5.34473
854.902	4.01538
858.277	9.18774
861.651	1.08008
865.026	7.52124
868.401	5.89758
871.776	1.48511
875.151	2.86633
878.525	1.5304
881.9	7.61499
885.275	2.61462
888.65	11.1838
892.025	11.9708
895.399	21.9324
898.774	37.323
902.149	37.9877
905.524	2.89062
908.899	9.00207
912.274	12.545
915.649	11.577
919.023	10.179
922.398	10.4203
925.773	9.2605
929.148	4.26196
932.523	2.03455
935.897	2.83911
939.272	9.03149
942.647	7.30615
946.022	7.80713
949.397	0.438721
952.771	0.524292
956.146	1.23218
959.521	2.01892
962.896	2.78809
966.271	3.52698
969.646	1.55029
973.02	4.26196
976.395	3.45142
979.77	7.19531
983.145	3.25562
986.52	8.9303
989.894	3.88196
993.269	3.33301
996.644	7.26929
1000.02	6.49414
1003.39	3.38232
1006.77	2.65686
1010.14	1.49963
1013.52	3.63831
1016.89	6.21423
1020.27	12.2576
1023.64	8.28308
1027.02	6.37817
1030.39	19.3934
1033.77	33.1514
1037.14	39.9926
1040.52	76.474
1043.89	96.2854
1047.27	113.436
1050.64	540.537
1054.02	2798.75
1057.39	4319.45
1060.77	8085.78
1064.14	14374.7
1067.52	1419.22
1070.89	329.34
1074.27	324.712
1077.64	862.562
1081.02	1904.73
1084.39	3304.9
1087.76	5614.51
1091.14	3881.05
1094.51	884.864
1097.89	207.472
1101.26	58.5395
1104.64	17.2833
1108.01	11.2401
1111.39	5.1687
1114.76	5.82605
1118.14	0.693604
1121.51	2.70129
1124.89	4.73315
1128.26	2.12549
1131.64	1.51135
1135.01	4.06287
1138.39	1.87146
1141.76	1.36719
1145.14	8.80371
1148.51	3.96155
1151.89	2.84631
1155.26	4.84241
1158.64	3.3584
1162.01	1.84729
1165.38	7.66528
1168.76	6.67212
1172.13	5.43152
1175.51	7.87781
1178.88	3.25586
1182.26	0.968994
1185.63	2.6792
1189.01	3.97217
1192.38	5.25317
1195.76	4.48083
1199.13	7.98621
1202.51	5.91907
1205.88	7.31348
1209.26	3.36096
1212.63	6.66321
1216.01	5.69006
1219.38	4.65137
1222.76	9.2052
1226.13	6.58032
1229.51	9.95373
1232.88	6.34631
1236.26	5.60596
1239.63	4.80212
1243.01	5.16565
1246.38	2.00049
1249.76	1.94641
1253.13	1.94861
1256.51	4.57678
1259.88	1.85339
1263.26	2.67053
1266.63	10.6172
1270.01	11.4496
1273.38	9.82336
1276.75	6.01892
1280.13	6.04504
1283.5	1.91235
1286.88	4.00806
1290.25	3.63025
1293.63	4.27966
1297	3.19092
1300.38	5.29541
