Measurement: Raman, 532 nm, unoriented, Raman Data Processed
Mineral: Alstonite
Rruff sample: R050483
Ideal chemistry: BaCa(CO_3_)_2_
Locality: Minerva #1 mine, Cave-in-Rock, Hardin County, Illinois, USA
Source: California Institute of Technology
Description: Aggregate of colorless pyramidal crystals
Measured chemistry: Ba_1.00_(Ca_0.84_Sr_0.16_)_Î£=1_(CO_3_)_2_
Raman shift (cm-1)	intensity
145.005	0
148.38	137.448
151.755	227.194
155.129	73.1231
158.504	2.53613
161.879	71.2363
165.254	205.174
168.629	374.545
172.003	506.852
175.378	419.778
178.753	312.47
182.128	208.034
185.503	149.708
188.877	43.3154
192.252	8.39453
195.627	15.6943
199.002	8.9248
202.377	18.2266
205.752	2.93848
209.126	72.0752
212.501	75.4238
215.876	45.0908
219.251	40.207
222.626	27.9697
226	10.7646
229.375	7.92871
232.75	25.5088
236.125	110.265
239.5	226.026
242.875	310.301
246.249	366.503
249.624	333.938
252.999	236.911
256.374	135.369
259.749	94.083
263.123	68.4414
266.498	89.1856
269.873	99.2373
273.248	90.8076
276.623	112.365
279.998	144.731
283.372	115.006
286.747	126.098
290.122	184.478
293.497	188.704
296.872	132.973
300.247	112.183
303.621	114.488
306.996	110.276
310.371	93.4248
313.746	108.503
317.12	123.314
320.495	80.8457
323.87	74.0596
327.245	81.3125
330.62	77.8379
333.995	67.4463
337.369	46.584
340.744	49.416
344.119	22.3955
347.494	30.1113
350.869	74.624
354.243	37.9297
357.618	49.0557
360.993	53.0098
364.368	25.3926
367.743	20.0957
371.118	10.2793
374.492	17.4062
377.867	6.60938
381.242	12.0723
384.617	3.75586
387.992	27.6289
391.366	42.1992
394.741	62.7598
398.116	42.7207
401.491	27.3311
404.866	15.292
408.241	52.1279
411.615	43.418
414.99	46.0215
418.365	32.1074
421.74	24.1504
425.115	34.0605
428.49	5.84766
431.864	39.5566
435.239	30.1914
438.614	4.90625
441.989	11.9736
445.364	14.1309
448.738	14.7256
452.113	20.9209
455.488	8.34473
458.863	0.826172
462.238	21.5527
465.613	37.1523
468.987	28.4385
472.362	29.5576
475.737	39.9873
479.112	29.2803
482.486	27.0508
485.861	26.9189
489.236	35.8467
492.611	51.4326
495.986	34.4473
499.361	52.8994
502.735	28.7422
506.11	44.8125
509.485	28.6113
512.86	40.9619
516.235	10.1787
519.61	5.69238
522.984	23.1172
526.359	46.5185
529.734	40.6826
533.109	38.9424
536.484	40.5996
539.859	54.9531
543.233	79.1436
546.608	67.5596
549.983	41.1953
553.358	19.999
556.732	26.3887
560.107	35.1504
563.482	45.6963
566.857	56.0029
570.232	57.9658
573.607	46.9629
576.981	51.3701
580.356	47.1113
583.731	52.8779
587.106	47.7051
590.481	47.8594
593.856	41.2022
597.23	24.4297
600.605	21.2422
603.98	25.5469
607.355	31.4648
610.73	52.1758
614.104	46.123
617.479	33.9092
620.854	11.9414
624.229	22.5361
627.604	18.291
630.979	16.1582
634.353	38.4248
637.728	56.2529
641.103	85.1543
644.478	49.4434
647.852	17.2217
651.227	32.2539
654.602	41.874
657.977	41.9209
661.352	56.29
664.727	44.5869
668.101	50.5469
671.476	52.6309
674.851	50.5234
678.226	80.3838
681.601	134.762
684.976	271.986
688.35	466.447
691.725	767.288
695.1	641.532
698.475	447.589
701.85	400.428
705.224	278.402
708.599	176.394
711.974	136.986
715.349	59.8535
718.724	7.80469
722.098	24.0303
725.473	18.4268
728.848	30.8789
732.223	29.4922
735.598	12.04
738.973	17.3105
742.347	17.7646
745.722	16.6221
749.097	2.21875
752.472	5.50293
755.847	10.0156
759.221	29.7803
762.596	32.3096
765.971	37.6621
769.346	11.4619
772.721	0.832031
776.096	21.9639
779.47	35.1807
782.845	35.6934
786.22	25.3799
789.595	15.0117
792.97	23.1416
796.345	48.1631
799.719	29.9375
803.094	36.9219
806.469	55.0273
809.844	58.0625
813.219	51.0029
816.593	60.8721
819.968	47.9678
823.343	60.9434
826.718	28.04
830.093	35.501
833.467	32.5986
836.842	45.4795
840.217	47.8545
843.592	67.7598
846.967	24.2979
850.342	5.1416
853.716	19.5371
857.091	27.2207
860.466	19.0996
863.841	24.9092
867.216	36.5098
870.591	20.166
873.965	1.29492
877.34	6.81836
880.715	16.3018
884.09	0.407227
887.465	8.12012
890.839	30.4609
894.214	6.74707
897.589	20.9199
900.964	35.9824
904.339	56.7871
907.713	17.8945
911.088	38.4766
914.463	23.29
917.838	45.6455
921.213	49.293
924.587	69.751
927.962	32.9307
931.337	33.2139
934.712	0.099609
938.087	24.8154
941.462	15.8213
944.836	4.56934
948.211	4.2207
951.586	11.6543
954.961	37.4482
958.336	29.2549
961.711	11.4531
965.085	34.375
968.46	4.72754
971.835	0.46582
975.21	12.4883
978.585	40.9316
981.959	56.625
985.334	27.0244
988.709	15.7812
992.084	20.9482
995.459	15.9629
998.833	21.4512
1002.21	17.3564
1005.58	13.333
1008.96	45.2568
1012.33	37.376
1015.71	19.6641
1019.08	26.6445
1022.46	56.333
1025.83	13.6377
1029.21	23.8418
1032.58	8.62305
1035.96	50.8897
1039.33	21.9844
1042.71	103.715
1046.08	66.8213
1049.46	61.831
1052.83	209.285
1056.2	1081.87
1059.58	2518.78
1062.95	6820.82
1066.33	6723.63
1069.7	530.007
1073.08	218.222
1076.45	216.732
1079.83	364.085
1083.2	878.652
1086.58	2115.29
1089.95	3788.56
1093.33	2079.54
1096.7	489.947
1100.08	150.863
1103.45	56.7598
1106.83	53.8672
1110.2	30.8525
1113.58	24.8398
1116.95	12.2871
1120.33	33.0879
1123.7	20.8154
1127.08	2.58301
1130.45	1.04492
1133.83	34.7549
1137.2	24.2822
1140.58	16.1562
1143.95	2.33106
1147.33	11.3711
1150.7	15.2188
1154.08	22.1426
1157.45	11.4932
1160.83	11.6865
1164.2	36.1807
1167.57	25.2539
1170.95	17.0635
1174.32	10.7324
1177.7	39.6348
1181.07	38.1006
1184.45	6.27832
1187.82	41.4678
1191.2	0.241211
1194.57	30.7607
1197.95	19.9434
1201.32	22.8975
1204.7	7.33887
1208.07	2.0459
1211.45	20.9434
1214.82	48.8281
1218.2	38.0879
1221.57	60.2471
1224.95	32.9853
1228.32	46.3008
1231.7	24.1299
1235.07	17.9854
1238.44	16.5449
1241.82	20.4951
1245.19	9.77734
1248.57	16.2031
1251.94	28.8916
1255.32	19.3652
1258.69	5.7207
1262.07	6.67481
1265.44	7.53027
1268.82	4.79297
1272.19	24.5654
1275.57	28.6797
1278.94	43.5703
1282.32	37.4062
1285.69	25.5439
1289.07	35.9492
1292.44	24.2012
1295.82	10.7344
1299.19	36.7246
1302.57	16.2744
