Measurement: Raman, 780 nm, unoriented, Raman Data Processed
Mineral: Alstonite
Rruff sample: R050483
Ideal chemistry: BaCa(CO_3_)_2_
Locality: Minerva #1 mine, Cave-in-Rock, Hardin County, Illinois, USA
Source: California Institute of Technology
Description: Aggregate of colorless pyramidal crystals
Measured chemistry: Ba_1.00_(Ca_0.84_Sr_0.16_)_Î£=1_(CO_3_)_2_
Raman shift (cm-1)	intensity
145.37	0
148.262	111.709
151.155	181.236
154.048	121.073
156.94	18.5186
159.833	11.1677
162.726	29.4126
165.619	97.1682
168.511	155.832
171.404	209.025
174.297	180.426
177.189	106.036
180.082	47.0964
182.975	13.9282
185.868	7.3894
188.76	3.53198
191.653	3.49976
194.546	18.6523
197.438	36.1489
200.331	23.7913
203.224	9.57031
206.117	55.9485
209.009	101.395
211.902	119.01
214.795	101.275
217.687	73.1631
220.58	55.3435
223.473	46.1663
226.365	38.8113
229.258	45.261
232.151	48.4111
235.043	56.2742
237.936	58.8247
240.829	76.2754
243.722	88.1721
246.614	98.2258
249.507	95.0764
252.4	75.2654
255.292	54.8828
258.185	37.1604
261.078	30.227
263.971	26.6008
266.863	29.2873
269.756	29.9216
272.649	31.8494
275.541	28.7248
278.434	36.0869
281.327	35.9104
284.219	40.3381
287.112	32.5071
290.005	29.2205
292.897	25.2368
295.79	19.085
298.683	14.2922
301.576	20.727
304.468	10.7107
307.361	9.37646
310.254	10.1948
313.146	8.4939
316.039	7.948
318.932	7.36133
321.825	2.78565
324.717	4.90259
327.61	2.77393
330.503	6.75293
333.395	1.46851
336.288	5.75
339.181	7.91113
342.074	3.83057
344.966	3.6084
347.859	3.66748
350.752	3.55957
353.644	3.396
356.537	2.0874
359.43	3.22583
362.322	0.188477
365.215	0.186279
368.108	5.11035
371	4.51978
373.893	8.52246
376.786	3.86133
379.679	7.10718
382.571	4.0354
385.464	9.20093
388.357	8.24927
391.249	3.91211
394.142	7.8501
397.035	10.1404
399.928	6.96655
402.82	4.74927
405.713	2.22656
408.606	3.48999
411.498	1.57593
414.391	1.9209
417.284	9.19092
420.176	5.64844
423.069	8.76953
425.962	11.0168
428.854	6.63916
431.747	2.60938
434.64	6.28027
437.533	9.75635
440.425	11.7427
443.318	12.7856
446.211	18.4343
449.103	12.4402
451.996	14.8005
454.889	13.2354
457.781	12.6028
460.674	13.2485
463.567	15.8379
466.46	16.0488
469.352	14.8984
472.245	8.10254
475.138	10.8498
478.03	10.9204
480.923	11.0381
483.816	12.7932
486.709	11.7537
489.601	12.2224
492.494	8.87622
495.387	6.01538
498.279	12.0425
501.172	6.15918
504.065	5.34424
506.957	9.90552
509.85	6.51685
512.743	5.85522
515.636	1.76807
518.528	2.40747
521.421	1.06567
524.314	2.21997
527.206	3.61169
530.099	3.57324
532.992	2.99341
535.885	0.121216
538.777	2.43848
541.67	1.07349
544.563	4.95618
547.455	0.59021
550.348	2.0846
553.241	0.530396
556.133	5.13477
559.026	3.12903
561.919	6.11475
564.812	0.976196
567.704	1.16687
570.597	4.18982
573.49	4.01782
576.382	6.27588
579.275	3.75415
582.168	6.37305
585.06	6.63806
587.953	15.5178
590.846	3.30005
593.739	7.59949
596.631	6.27026
599.524	3.33398
602.417	6.27271
605.309	8.12573
608.202	7.7561
611.095	0.768799
613.987	5.19055
616.88	0.852173
619.773	2.00793
622.665	4.42676
625.558	6.37146
628.451	2.37659
631.344	3.20825
634.236	4.24292
637.129	14.404
640.022	22.6276
642.914	9.73425
645.807	8.30054
648.7	7.04053
651.592	3.43958
654.485	0.531494
657.378	2.44934
660.271	0.361206
663.163	1.59045
666.056	2.29663
668.949	4.39905
671.841	1.00903
674.734	4.13342
677.627	7.76392
680.519	15.9713
683.412	24.562
686.305	52.2548
689.198	105.074
692.09	150.119
694.983	138.512
697.876	90.8757
700.769	73.4657
703.661	75.3545
706.554	46.7483
709.447	40.4036
712.339	24.2478
715.232	5.04285
718.125	5.86755
721.017	4.71387
723.91	2.55957
726.803	3.33386
729.696	4.25366
732.588	7.85388
735.481	6.86414
738.374	3.00415
741.266	4.38403
744.159	0.329224
747.052	1.67822
749.944	2.06238
752.837	3.93567
755.73	2.51233
758.622	7.59851
761.515	0.00769
764.408	3.92761
767.301	0.881104
770.193	2.47315
773.086	0.63916
775.979	0.068481
778.871	2.8396
781.764	1.38513
784.657	0.243896
787.549	4.86572
790.442	0.694214
793.335	12.7549
796.228	10.7631
799.12	15.1443
802.013	9.47192
804.906	9.1167
807.798	17.0011
810.691	14.5576
813.584	13.9867
816.477	12.2477
819.369	16.4465
822.262	21.9082
825.155	20.8923
828.047	20.1731
830.94	20.8706
833.833	19.134
836.726	16.8611
839.618	16.1289
842.511	17.8611
845.404	16.1133
848.296	12.3502
851.189	13.1578
854.082	10.462
856.974	8.92932
859.867	9.41235
862.76	3.47925
865.653	7.72705
868.545	7.58752
871.438	7.3584
874.331	7.19897
877.223	7.7124
880.116	4.1178
883.009	5.24585
885.901	4.48621
888.794	12.5655
891.687	5.44348
894.58	6.20654
897.472	13.7358
900.365	21.7944
903.258	14.1276
906.15	3.43225
909.043	0.068604
911.936	6.43396
914.828	3.53027
917.721	1.40442
920.614	3.7395
923.506	5.13
926.399	2.29419
929.292	0.995239
932.185	5.28821
935.077	4.81177
937.97	7.23035
940.863	3.76978
943.755	2.87671
946.648	0.097168
949.541	3.98767
952.433	2.5083
955.326	3.375
958.219	4.9021
961.112	7.89233
964.004	4.49793
966.897	7.4469
969.79	10.7291
972.682	4.70215
975.575	1.04822
978.468	0.861206
981.361	1.24048
984.253	8.98877
987.146	0.010864
990.039	1.32983
992.931	0.376831
995.824	0.881958
998.717	3.60303
1001.61	4.10938
1004.5	1.29431
1007.39	1.76831
1010.29	5.53406
1013.18	2.86951
1016.07	2.84338
1018.97	4.7146
1021.86	4.36731
1024.75	3.06982
1027.64	6.005
1030.54	3.48144
1033.43	5.31702
1036.32	9.87366
1039.21	15.1676
1042.11	15.7156
1045	15.7396
1047.89	10.8604
1050.79	32.8057
1053.68	130.191
1056.57	221.494
1059.46	387.506
1062.36	937.673
1065.25	1531.59
1068.14	267.31
1071.03	51.7906
1073.93	39.2835
1076.82	45.2773
1079.71	77.4429
1082.61	140.849
1085.5	277.609
1088.39	510.796
1091.28	534.755
1094.18	239.497
1097.07	86.9634
1099.96	20.1869
1102.85	10.0757
1105.75	3.73682
1108.64	6.21167
1111.53	10.5199
1114.42	12.025
1117.32	6.43433
1120.21	1.60718
1123.1	8.37231
1126	2.76453
1128.89	1.58948
1131.78	2.76135
1134.67	1.95264
1137.57	1.73767
1140.46	1.19629
1143.35	6.03552
1146.24	2.78198
1149.14	2.07458
1152.03	7.37646
1154.92	0.923096
1157.82	1.36731
1160.71	3.85303
1163.6	5.81982
1166.49	10.3761
1169.39	7.20764
1172.28	7.62915
1175.17	9.29871
1178.06	8.34644
1180.96	10.8013
1183.85	12.3453
1186.74	16.3904
1189.63	14.6398
1192.53	9.18726
1195.42	3.94043
1198.31	3.93201
1201.21	7.4447
1204.1	7.95337
1206.99	11.7847
1209.88	4.87158
1212.78	3.42786
1215.67	7.64685
1218.56	4.80066
1221.45	2.27405
1224.35	5.76623
1227.24	12.5881
1230.13	10.1047
1233.03	2.73877
1235.92	5.34326
1238.81	4.84644
1241.7	0.620605
1244.6	1.75171
1247.49	5.54456
1250.38	6.34949
1253.28	2.56274
1256.17	1.40698
1259.06	6.13525
1261.95	2.75134
1264.85	2.89002
1267.74	6.69873
1270.63	4.38757
1273.52	1.05029
1276.42	0.769897
1279.31	9.38415
1282.2	2.28479
1285.09	2.90076
