Measurement: Raman, 780 nm, unoriented, Raman Data Processed
Mineral: Alstonite
Rruff sample: R090049
Ideal chemistry: BaCa(CO_3_)_2_
Locality: Admiralty flats, Haggs mine, Nentsberry, Cumbria, England
Source: Bob Jenkins
Description: Clusters of colorless pyramidal crystals. We have posted cell parameters that match those in the literature, but do not represent the correct cell. The crystals are twinned.
Measured chemistry: Ba_0.99_(Ca_0.99_Sr_0.05_)_Î£=1.04_(CO_3_)_2_
Raman shift (cm-1)	intensity
92.0254	0
95.4002	38.4227
98.775	189.904
102.15	447.979
105.525	355.341
108.9	75.994
112.274	102.304
115.649	297.56
119.024	721.631
122.399	980.739
125.773	1051.52
129.148	1037.02
132.523	1010.82
135.898	1303.8
139.273	1981.21
142.648	2569.59
146.022	2477.02
149.397	2240.07
152.772	1395.86
156.147	566.177
159.522	254.285
162.897	222.336
166.271	285.261
169.646	394.317
173.021	512.403
176.396	325.4
179.771	136.143
183.145	79.4205
186.52	50.947
189.895	60.8949
193.27	127.122
196.645	184.247
200.019	97.7903
203.394	9.14191
206.769	12.369
210.144	52.2637
213.519	60.8981
216.893	22.0626
220.268	11.1338
223.643	21.3453
227.018	18.1226
230.393	10.9468
233.768	0.778809
237.142	17.4422
240.517	51.299
243.892	91.5149
247.267	134.23
250.642	133.039
254.017	95.273
257.391	52.6207
260.766	39.7568
264.141	41.7086
267.516	46.9935
270.891	58.4679
274.265	75.9093
277.64	86.49
281.015	89.8908
284.39	77.0712
287.765	60.2869
291.139	50.95
294.514	45.5295
297.889	35.6299
301.264	30.6075
304.639	29.8337
308.014	28.779
311.388	32.4819
314.763	31.8896
318.138	32.4587
321.513	21.3073
324.888	19.9574
328.262	18.8626
331.637	9.39719
335.012	5.29816
338.387	12.2186
341.762	4.72955
345.137	1.47644
348.511	1.97232
351.886	1.1181
355.261	3.1395
358.636	0.990601
362.01	5.5914
365.385	0.847839
368.76	0.752106
372.135	5.4382
375.51	2.68231
378.885	2.17947
382.259	1.64969
385.634	0.704651
389.009	1.61963
392.384	0.286743
395.759	5.755
399.134	0.077789
402.508	0.427948
405.883	3.36157
409.258	0.924194
412.633	0.680481
416.008	4.15836
419.382	0.263184
422.757	2.52402
426.132	5.50104
429.507	1.15591
432.882	2.14969
436.257	3.02808
439.631	1.44666
443.006	2.93692
446.381	4.01553
449.756	4.69473
453.13	5.77533
456.505	1.42645
459.88	4.56744
463.255	3.85449
466.63	6.30173
470.005	2.83972
473.379	6.01892
476.754	2.41385
480.129	0.931305
483.504	5.11307
486.879	3.60266
490.253	4.51196
493.628	2.72488
497.003	2.75241
500.378	0.837433
503.753	3.83972
507.128	1.05823
510.502	4.36957
513.877	1.59592
517.252	5.17758
520.627	0.278198
524.002	2.64535
527.376	2.64081
530.751	2.9122
534.126	0.942261
537.501	0.585266
540.876	1.93228
544.25	3.41888
547.625	0.69458
551	1.59708
554.375	0.998779
557.75	2.34
561.125	2.85349
564.499	1.01208
567.874	2.7182
571.249	2.94058
574.624	5.73166
577.999	2.09851
581.374	2.88236
584.748	3.78757
588.123	2.80212
591.498	0.895752
594.873	3.95206
598.248	1.6749
601.622	2.97723
604.997	13.9285
608.372	5.7547
611.747	6.31226
615.122	1.91165
618.496	0.96463
621.871	3.08823
625.246	1.99313
628.621	5.25983
631.996	0.841064
635.37	5.53097
638.745	1.60675
642.12	3.09003
645.495	1.02722
648.87	3.27817
652.245	6.23505
655.619	2.51679
658.994	1.29947
662.369	1.21851
665.744	0.390686
669.119	2.60968
672.494	1.57584
675.868	13.7317
679.243	21.9254
682.618	38.4736
685.993	77.4687
689.368	211.64
692.742	287.964
696.117	213.354
699.492	126.575
702.867	173.772
706.242	85.8538
709.616	65.7121
712.991	36.1359
716.366	11.0063
719.741	4.73441
723.116	4.59875
726.49	2.94434
729.865	0.566803
733.24	4.59442
736.615	2.33746
739.99	3.41153
743.365	3.45944
746.739	1.87198
750.114	3.19495
753.489	0.383789
756.864	0.95755
760.239	3.07858
763.614	0.427155
766.988	0.757416
770.363	1.82266
773.738	3.16953
777.113	0.140839
780.487	2.92154
783.862	4.19247
787.237	0.322083
790.612	5.07639
793.987	6.02081
797.362	1.09906
800.736	0.787994
804.111	2.6348
807.486	2.26956
810.861	3.40417
814.236	3.92261
817.611	3.54877
820.985	8.96793
824.36	0.190613
827.735	3.7356
831.11	4.07825
834.485	1.04932
837.859	5.43607
841.234	4.94589
844.609	7.07895
847.984	1.38541
851.359	0.423492
854.734	3.83203
858.108	5.40277
861.483	2.50098
864.858	7.51883
868.233	3.0068
871.607	2.00845
874.982	4.74509
878.357	3.67874
881.732	4.81055
885.107	4.47803
888.482	6.77277
891.856	3.34744
895.231	8.78497
898.606	15.5533
901.981	39.4996
905.356	1.44775
908.731	2.38788
912.105	1.07776
915.48	2.92349
918.855	1.41138
922.23	0.006744
925.605	3.99048
928.979	0.229309
932.354	1.02805
935.729	1.93884
939.104	2.46698
942.479	1.1604
945.854	0.307892
949.228	1.51999
952.603	3.6405
955.978	5.47681
959.353	1.91171
962.727	1.99878
966.102	1.32526
969.477	1.37125
972.852	1.64496
976.227	0.705719
979.602	1.87659
982.976	5.35532
986.351	0.242279
989.726	0.436096
993.101	2.87942
996.476	0.095856
999.851	2.26318
1003.23	1.64798
1006.6	2.85724
1009.98	1.13361
1013.35	0.185547
1016.73	3.42075
1020.1	0.625275
1023.47	2.63571
1026.85	0.017578
1030.22	4.20813
1033.6	3.20166
1036.97	6.38825
1040.35	8.26181
1043.72	17.6549
1047.1	11.6981
1050.47	38.9878
1053.85	158.954
1057.22	257.352
1060.6	668.738
1063.97	2672.12
1067.35	706.84
1070.72	68.7766
1074.1	40.4339
1077.47	64.402
1080.85	115.592
1084.22	252.255
1087.6	674.298
1090.97	1024.45
1094.35	281.534
1097.72	59.4175
1101.1	18.6963
1104.47	7.71539
1107.84	2.67831
1111.22	4.75464
1114.59	0.262085
1117.97	0.256531
1121.34	1.16687
1124.72	0.161652
1128.09	2.70575
1131.47	0.231537
1134.84	2.2536
1138.22	3.99085
1141.59	4.55319
1144.97	3.20453
1148.34	0.036682
1151.72	0.325256
1155.09	0.018982
1158.47	2.14798
1161.84	2.97745
1165.22	3.95981
1168.59	4.42798
1171.97	0.822968
1175.34	4.8111
1178.72	2.70373
1182.09	3.90875
1185.46	4.99252
1188.84	4.34363
1192.21	5.26584
1195.59	0.38858
1198.96	4.09464
1202.34	4.65951
1205.71	6.07001
1209.09	4.5387
1212.46	1.90158
1215.84	3.62524
1219.21	3.83746
1222.59	3.17267
1225.96	9.17572
1229.34	6.11939
1232.71	2.77817
1236.09	2.20612
1239.46	2.49158
1242.84	0.728455
1246.21	1.19446
1249.59	0.20636
1252.96	1.14197
1256.34	1.4751
1259.71	0.302765
1263.09	1.29077
1266.46	5.83957
1269.84	5.06222
1273.21	1.40475
1276.59	4.21878
1279.96	1.21786
1283.34	4.85614
