Measurement: Raman, 532 nm, unoriented, Raman Data Processed
Mineral: Althausite
Rruff sample: R070113
Ideal chemistry: Mg_4_(PO_4_)_2_(OH,O)(F,[box])
Locality: Tingelstadtjern, Modum, Norway
Source: Bob Jenkins
Description: Colorless platy crystals associated with R060710 holtedahlite
Raman shift (cm-1)	intensity
149.7	0
153.074	0.300598
156.449	12.2603
159.824	19.9076
163.199	13.1805
166.573	35.9737
169.948	67.3148
173.323	133.566
176.698	169.142
180.073	115.679
183.448	157.187
186.822	201.358
190.197	81.3241
193.572	31.631
196.947	12.8804
200.322	6.07776
203.696	3.87457
207.071	3.51978
210.446	0.604065
213.821	6.66602
217.196	21.9971
220.571	34.2101
223.945	21.7004
227.32	13.5458
230.695	8.1416
234.07	31.608
237.445	24.6298
240.82	45.5042
244.194	133.712
247.569	185.386
250.944	177.182
254.319	51.1445
257.693	17.6034
261.068	4.96191
264.443	16.2514
267.818	18.8596
271.193	22.7754
274.568	29.3952
277.942	31.7543
281.317	15.1872
284.692	4.41785
288.067	2.75769
291.442	2.4552
294.817	3.5152
298.191	18.2613
301.566	15.9962
304.941	26.9166
308.316	37.077
311.691	33.5109
315.065	36.1851
318.44	45.8621
321.815	46.9178
325.19	43.686
328.565	26.4877
331.939	34.0698
335.314	37.2492
338.689	54.116
342.064	64.7314
345.439	94.6857
348.813	108.527
352.188	164.372
355.563	214.294
358.938	280.461
362.313	299.586
365.688	364.828
369.062	402.374
372.437	339.145
375.812	234.718
379.187	152.941
382.562	91.5618
385.936	72.7005
389.311	20.7669
392.686	26.5278
396.061	25.1691
399.436	1.26434
402.81	14.0751
406.185	3.6955
409.56	0.763794
412.935	0.244995
416.31	43.5038
419.685	39.4586
423.059	74.3033
426.434	75.5755
429.809	98.8484
433.184	59.7211
436.559	38.5733
439.933	23.6019
443.308	14.8412
446.683	30.9614
450.058	56.9506
453.433	54.0322
456.808	70.5952
460.182	64.8679
463.557	67.9108
466.932	62.4543
470.307	70.9499
473.682	74.2305
477.056	79.4327
480.431	88.9571
483.806	114.362
487.181	127.82
490.556	115.421
493.93	116.673
497.305	104.94
500.68	97.2497
504.055	85.9428
507.43	76.1293
510.805	58.3232
514.179	35.3996
517.554	32.7837
520.929	7.39563
524.304	25.04
527.679	2.61603
531.053	2.68188
534.428	1.44202
537.803	4.76758
541.178	14.7895
544.553	24.4454
547.928	6.55023
551.302	15.6893
554.677	26.0942
558.052	18.0731
561.427	1.32086
564.802	11.6752
568.176	13.2966
571.551	16.2686
574.926	43.8007
578.301	31.7906
581.676	19.7243
585.051	60.6943
588.425	87.6046
591.8	84.7056
595.175	116.647
598.55	139.71
601.924	154.972
605.299	182.891
608.674	199.073
612.049	258.574
615.424	317.691
618.799	381.635
622.173	435.219
625.548	484.95
628.923	435.74
632.298	327.701
635.673	201.062
639.048	150.04
642.422	105.451
645.797	73.8423
649.172	73.5863
652.547	35.6554
655.922	38.455
659.296	32.4208
662.671	35.341
666.046	40.385
669.421	27.2136
672.796	20.4154
676.17	21.7518
679.545	12.0728
682.92	3.14349
686.295	8.74896
689.67	0.527344
693.044	9.65063
696.419	9.61609
699.794	8.73877
703.169	2.94397
706.544	8.78894
709.919	7.19275
713.293	7.84375
716.668	4.35388
720.043	9.08777
723.418	2.95923
726.793	6.88391
730.167	0.96106
733.542	19.39
736.917	26.7787
740.292	9.52356
743.667	11.4085
747.042	0.302734
750.416	10.8258
753.791	27.2058
757.166	6.4043
760.541	4.33777
763.916	16.2963
767.29	15.0337
770.665	1.16357
774.04	8.02051
777.415	12.3543
780.79	34.9462
784.164	4.19727
787.539	24.9049
790.914	18.788
794.289	18.1702
797.664	4.46753
801.038	24.7749
804.413	62.5261
807.788	85.8863
811.163	108.214
814.538	74.7304
817.913	52.441
821.287	23.2454
824.662	21.5656
828.037	19.7151
831.412	17.0206
834.787	30.467
838.162	4.08179
841.536	20.9601
844.911	21.8391
848.286	42.1074
851.661	69.6554
855.036	82.285
858.41	106.216
861.785	82.2991
865.16	58.2405
868.535	52.6317
871.91	30.3411
875.284	27.595
878.659	49.8903
882.034	45.2922
885.409	70.3218
888.784	74.0833
892.159	102.89
895.533	94.3986
898.908	74.1638
902.283	43.639
905.658	39.5947
909.033	65.0236
912.407	27.0095
915.782	2.76245
919.157	31.4246
922.532	15.5702
925.907	13.8795
929.281	20.799
932.656	2.88098
936.031	10.1547
939.406	11.5427
942.781	0.375244
946.155	15.5787
949.53	17.4283
952.905	58.7041
956.28	100.946
959.655	112.68
963.03	157.722
966.404	172.071
969.779	208.391
973.154	282.167
976.529	422.839
979.904	756.659
983.279	1322.18
986.653	2058.52
990.028	2781.76
993.403	2803.17
996.778	1647.87
1000.15	672.912
1003.53	305.968
1006.9	149.775
1010.28	120.972
1013.65	62.058
1017.03	71.6285
1020.4	145.023
1023.78	295.984
1027.15	490.003
1030.53	580.518
1033.9	388.208
1037.28	216.315
1040.65	145.675
1044.03	94.9115
1047.4	80.7935
1050.78	112.927
1054.15	196.108
1057.52	415.398
1060.9	723.761
1064.27	946.176
1067.65	765.107
1071.02	365.531
1074.4	153.545
1077.77	57.2156
1081.15	29.8552
1084.52	2.26978
1087.9	7.95654
1091.27	11.8317
1094.65	25.1645
1098.02	13.2584
1101.4	3.82812
1104.77	17.5188
1108.15	21.453
1111.52	93.2418
1114.9	54.6185
1118.27	51.2228
1121.65	64.088
1125.02	77.0399
1128.4	93.4192
1131.77	54.8306
1135.14	34.6991
1138.52	32.2601
1141.89	35.0627
1145.27	18.4714
1148.64	1.03442
1152.02	45.6499
1155.39	37.4475
1158.77	40.7301
1162.14	38.6229
1165.52	23.9379
1168.89	10.6394
1172.27	6.15674
1175.64	25.3921
1179.02	40.3049
1182.39	15.2545
1185.77	16.1841
1189.14	9.21338
1192.52	40.0725
1195.89	13.4171
1199.27	2.74194
1202.64	4.15259
1206.02	11.6628
1209.39	2.57825
1212.77	0.699097
1216.14	12.4817
1219.52	7.52478
1222.89	10.844
1226.27	21.7051
1229.64	52.4038
1233.02	46.5901
1236.39	50.1995
1239.76	48.4793
1243.14	40.5588
1246.51	40.4266
1249.89	62.5902
1253.26	32.7957
1256.64	40.4305
1260.01	55.0894
1263.39	33.6384
1266.76	58.0831
1270.14	19.5913
1273.51	57.2695
1276.89	43.8274
1280.26	47.9122
1283.64	17.905
1287.01	26.6587
1290.39	39.2128
1293.76	15.0743
1297.14	52.5256
1300.51	34.0391
1303.89	34.6103
