Measurement: Raman, 785 nm, unoriented, Raman Data Processed
Mineral: Althausite
Rruff sample: R070113
Ideal chemistry: Mg_4_(PO_4_)_2_(OH,O)(F,[box])
Locality: Tingelstadtjern, Modum, Norway
Source: Bob Jenkins
Description: Colorless platy crystals associated with R060710 holtedahlite
Raman shift (cm-1)	intensity
144.933	0
147.826	13.327
150.719	19.7861
153.611	8.80127
156.504	2.59683
159.397	10.2093
162.289	29.8458
165.182	48.6797
168.075	66.8507
170.968	83.9971
173.86	153.433
176.753	182.856
179.646	133.38
182.538	150.703
185.431	205.502
188.324	171.239
191.216	65.765
194.109	44.8961
197.002	20.9048
199.894	7.73605
202.787	14.503
205.68	6.10359
208.573	14.7677
211.465	15.502
214.358	9.14504
217.251	8.68156
220.143	30.2181
223.036	27.1603
225.929	20.0667
228.821	10.7674
231.714	16.6042
234.607	24.4329
237.5	41.181
240.392	67.8213
243.285	101.062
246.178	167.203
249.07	227.887
251.963	175.969
254.856	73.2639
257.748	36.6899
260.641	26.1415
263.534	19.9492
266.427	17.8788
269.319	25.4349
272.212	51.8715
275.105	60.5009
277.997	23.2456
280.89	9.94357
283.783	3.11832
286.675	2.52374
289.568	2.01935
292.461	2.77181
295.354	12.345
298.246	18.6697
301.139	13.0785
304.032	24.6277
306.924	23.2667
309.817	29.6152
312.71	22.7796
315.602	37.4089
318.495	36.4924
321.388	42.8637
324.281	36.195
327.173	30.2557
330.066	19.5565
332.959	27.0279
335.851	32.7004
338.744	40.0664
341.637	46.1741
344.529	55.904
347.422	63.2319
350.315	81.073
353.208	113.453
356.1	145.828
358.993	179.76
361.886	206.017
364.778	269.132
367.671	303.014
370.564	288.007
373.457	233.22
376.349	162.88
379.242	113.03
382.135	67.7577
385.027	54.5854
387.92	21.9606
390.813	14.091
393.705	20.3394
396.598	0.444885
399.491	1.50177
402.384	13.8169
405.276	7.36075
408.169	3.53494
411.062	5.17711
413.954	18.87
416.847	33.6919
419.74	33.8955
422.632	47.1762
425.525	68.1954
428.418	64.0613
431.31	43.3165
434.203	26.2779
437.096	18.585
439.989	18.1243
442.881	7.13542
445.774	16.2012
448.667	38.5933
451.559	33.7586
454.452	38.2411
457.345	40.8439
460.238	50.1995
463.13	45.3326
466.023	56.6672
468.916	45.4432
471.808	32.8094
474.701	30.6553
477.594	51.0125
480.486	42.9241
483.379	68.9176
486.272	56.8434
489.164	74.5927
492.057	62.189
494.95	52.5164
497.843	56.0294
500.735	38.1602
503.628	36.4758
506.521	44.5307
509.413	23.4105
512.306	24.132
515.199	17.4292
518.091	14.5737
520.984	7.00694
523.877	4.38255
526.77	1.54417
529.662	1.57805
532.555	3.46132
535.448	5.62894
538.34	4.50349
541.233	0.240387
544.126	14.4881
547.019	4.6599
549.911	3.17639
552.804	7.35005
555.697	5.00468
558.589	1.1758
561.482	7.99899
564.375	3.13521
567.267	9.87372
570.16	3.94583
573.053	8.44972
575.945	1.1935
578.838	9.49144
581.731	16.888
584.624	29.6597
587.516	34.0411
590.409	46.2575
593.302	55.0226
596.194	62.4303
599.087	63.209
601.98	70.567
604.872	95.6136
607.765	100.791
610.658	109.954
613.551	136.514
616.443	162.243
619.336	183.6
622.229	202.329
625.121	221.768
628.014	185.755
630.907	159.49
633.799	114.515
636.692	107.97
639.585	85.3596
642.477	68.6556
645.37	50.4015
648.263	32.5737
651.156	23.9992
654.048	12.7911
656.941	17.0624
659.834	18.3581
662.726	27.2055
665.619	19.1098
668.512	14.6565
671.404	14.7491
674.297	13.3763
677.19	16.44
680.083	11.9253
682.975	8.15263
685.868	4.43625
688.761	9.75362
691.653	2.01468
694.546	11.6251
697.439	4.55222
700.332	10.3223
703.224	0.131363
706.117	2.35603
709.01	0.635956
711.902	7.358
714.795	1.87881
717.688	0.315811
720.58	6.24574
723.473	12.1961
726.366	4.75504
729.259	10.5302
732.151	4.35071
735.044	0.986206
737.937	2.77042
740.829	6.31142
743.722	11.262
746.615	11.8849
749.507	8.53055
752.4	16.2678
755.293	13.3328
758.186	11.6705
761.078	7.26685
763.971	9.74558
766.864	8.46645
769.756	10.2339
772.649	9.62119
775.542	7.27524
778.434	12.2444
781.327	9.43526
784.22	6.88898
787.112	8.28601
790.005	6.15753
792.898	1.80144
795.791	13.1682
798.683	17.1092
801.576	21.2391
804.469	12.6992
807.361	32.424
810.254	53.6087
813.147	45.1845
816.04	33.9854
818.932	15.6604
821.825	6.57025
824.718	12.6059
827.61	2.34976
830.503	2.95737
833.396	9.80955
836.288	9.43021
839.181	8.60889
842.074	3.23108
844.967	14.8172
847.859	25.0235
850.752	30.0595
853.645	35.811
856.537	41.9712
859.43	36.7627
862.323	36.2877
865.216	32.9596
868.108	22.1055
871.001	17.3526
873.894	10.5418
876.786	14.9458
879.679	9.62164
882.572	22.8515
885.464	26.0263
888.357	36.0917
891.25	35.4644
894.143	37.3619
897.035	31.6234
899.928	37.5088
902.821	27.0069
905.713	24.8227
908.606	31.2783
911.499	20.8774
914.391	11.5735
917.284	22.1774
920.177	3.24051
923.069	4.71463
925.962	6.39204
928.855	2.50543
931.748	4.84531
934.64	1.49883
937.533	6.7011
940.426	6.47405
943.318	2.97658
946.211	2.13029
949.104	20.2276
951.996	19.5109
954.889	24.5992
957.782	35.6974
960.675	58.3104
963.567	87.3721
966.46	91.9969
969.353	101.621
972.245	154.588
975.138	214.719
978.031	340.946
980.923	553.449
983.816	868.138
986.709	1308.65
989.602	1782.18
992.494	1830.54
995.387	1309.91
998.28	685.531
1001.17	343.72
1004.07	175.153
1006.96	100.944
1009.85	60.128
1012.74	48.5246
1015.64	43.2195
1018.53	72.2288
1021.42	104.625
1024.31	186.972
1027.21	300.481
1030.1	331.28
1032.99	236.939
1035.88	135.817
1038.78	78.1504
1041.67	49.1245
1044.56	35.8472
1047.46	30.9249
1050.35	38.7093
1053.24	48.3436
1056.13	92.4239
1059.03	145.357
1061.92	220.547
1064.81	291.738
1067.7	213.082
1070.6	103.526
1073.49	56.9153
1076.38	30.8672
1079.28	8.76324
1082.17	1.46111
1085.06	2.4278
1087.95	1.96677
1090.85	0.347885
1093.74	0.996582
1096.63	9.54591
1099.52	7.5652
1102.42	11.7228
1105.31	8.85651
1108.2	15.3763
1111.1	30.5653
1113.99	33.0955
1116.88	25.3333
1119.77	29.1891
1122.67	22.2534
1125.56	35.7364
1128.45	46.0656
1131.34	29.3749
1134.24	26.6933
1137.13	2.70955
1140.02	10.6308
1142.91	2.16402
1145.81	4.08884
1148.7	9.13292
1151.59	13.9103
1154.48	8.28238
1157.38	18.1421
1160.27	16.2456
1163.16	6.53996
1166.06	5.03221
1168.95	3.64356
1171.84	9.17656
1174.73	13.6087
1177.63	11.6846
1180.52	14.997
1183.41	27.8338
1186.31	23.2592
1189.2	21.3455
1192.09	10.9048
1194.98	20.7552
1197.88	10.7904
