Measurement: Raman, 514 nm, unoriented, Raman Data Processed
Mineral: Alum-(K)
Rruff sample: R040134
Ideal chemistry: KAl(SO_4_)_2_12H_2_O
Locality: Alunite mine, Esmeralda County, Nevada, USA
Source: University of Arizona Mineral Museum
Description: Colorless coarsely crystalline massive
Measured chemistry: (K_0.86_(NH_4_)_0.14_)_Σ=1_Al_1.00_(S_1.00_O_4_)_2_·12H_2_O ; NH_4_ not measured but estimated by stoichiometry
Raman shift (cm-1)	intensity
114.254	0
118.424	71.988
122.592	151.728
126.758	180.903
130.922	218.811
135.083	521.686
139.243	747.853
143.401	906.857
147.557	999.661
151.711	1034.79
155.863	1152.87
160.013	1003.96
164.161	933.435
168.308	972.077
172.452	953.129
176.594	1179.83
180.734	1394.65
184.872	1668.53
189.008	1776.39
193.143	1753.73
197.275	1481.99
201.405	1228.49
205.534	853.822
209.66	645.226
213.784	474.615
217.907	454.678
222.027	381.702
226.146	319.729
230.263	320.654
234.377	315.881
238.49	320.736
242.601	261.257
246.709	115.299
250.816	220.243
254.921	69.954
259.024	48.41
263.125	11.522
267.224	24.22
271.321	135.409
275.416	72.135
279.51	1.234
283.601	32.768
287.69	76.472
291.778	12.2
295.863	120.663
299.947	73.069
304.029	144.933
308.108	260.195
312.186	277.859
316.262	280.997
320.336	398.295
324.408	441.506
328.478	398.678
332.546	305.781
336.612	288.241
340.677	235.093
344.739	234.352
348.799	131.929
352.858	247.618
356.915	177.981
360.969	184.96
365.022	85.681
369.073	61.477
373.122	90.86
377.169	115.959
381.215	126.92
385.258	160.723
389.299	175.024
393.339	173.051
397.376	131.592
401.412	300.174
405.446	352.017
409.478	250.618
413.508	350.482
417.536	388.738
421.562	474.191
425.586	580.315
429.609	836.71
433.629	1141.07
437.648	1417.86
441.665	1471.45
445.68	1574.28
449.693	1735.56
453.704	1772.38
457.713	1815.18
461.721	1596.22
465.726	1450.07
469.73	1182.94
473.731	916.425
477.731	781.766
481.729	699.519
485.725	616.115
489.72	549.519
493.712	518.477
497.703	578.108
501.691	519.074
505.678	582.515
509.663	553.471
513.646	509.388
517.627	536.403
521.607	526.926
525.584	590.992
529.56	570.416
533.534	546.307
537.506	662.788
541.476	579.868
545.444	381.477
549.41	327.862
553.375	420.818
557.337	293.775
561.298	283.709
565.257	206.372
569.214	148.525
573.17	217.108
577.123	359.214
581.075	228.145
585.024	518.114
588.972	623.764
592.918	678.521
596.863	777.348
600.805	930.594
604.746	1284.27
608.685	1808.5
612.621	2242.52
616.557	2243.04
620.49	2033.16
624.421	1796.8
628.351	1442.04
632.279	1144.72
636.205	975.059
640.129	690.984
644.051	669.606
647.972	540.311
651.89	358.458
655.807	267.711
659.722	260.922
663.636	244.687
667.547	82.582
671.457	184.917
675.365	176.076
679.271	58.177
683.175	32.22
687.077	111.201
690.978	200.124
694.877	154.015
698.774	43.52
702.669	152.974
706.562	124.307
710.454	0.521
714.344	90.502
718.232	12.659
722.118	41.949
726.002	24.586
729.885	118.295
733.766	23.308
737.645	41.438
741.522	32.182
745.397	99.408
749.271	88.308
753.143	92.707
757.013	102.581
760.881	19.723
764.748	21.794
768.613	151.119
772.476	1.843
776.337	27.951
780.196	48.787
784.054	1.433
787.91	22.944
791.764	67.312
795.616	4.405
799.467	139.773
803.316	38.874
807.163	11.212
811.008	5.223
814.851	35.436
818.693	63.782
822.533	49.576
826.371	39.543
830.208	121.749
834.042	67.816
837.875	36.721
841.706	121.89
845.536	27.866
849.363	42.337
853.189	164.01
857.013	250.483
860.836	125.833
864.656	73.983
868.475	109.646
872.292	130.022
876.108	257.327
879.922	300.596
883.733	125.066
887.544	185.922
891.352	270.534
895.159	182.885
898.964	208.979
902.767	202.746
906.568	194.049
910.368	250.921
914.166	288.67
917.962	227.661
921.757	355.948
925.55	381.396
929.341	370.649
933.13	457.047
936.918	500.169
940.703	385.748
944.488	543.423
948.27	680.528
952.051	809.483
955.83	826.495
959.607	1652.16
963.383	2199.03
967.156	4360.05
970.928	9398.46
974.699	13684.3
978.468	10613.8
982.234	10083.5
986	19471.5
989.763	48292.6
993.525	29520
997.285	7968.37
1001.04	2792.91
1004.8	1510.66
1008.55	1014.76
1012.31	476.177
1016.06	363.885
1019.81	388.565
1023.56	190.366
1027.31	166.863
1031.05	242.284
1034.79	49.577
1038.53	22.598
1042.27	366.057
1046.01	172.748
1049.75	37.538
1053.48	260.374
1057.22	58.296
1060.95	130.032
1064.68	108.943
1068.4	1.832
1072.13	63.001
1075.86	175.163
1079.58	188.438
1083.3	259.337
1087.02	340.771
1090.74	483.19
1094.45	507.836
1098.17	465.288
1101.88	837.131
1105.59	802.149
1109.3	879.644
1113.01	1121.95
1116.71	1274.77
1120.42	1357.94
1124.12	1765.22
1127.82	1957.05
1131.52	2486.96
1135.22	2096.53
1138.91	1445
1142.61	921.171
1146.3	577.275
1149.99	499.092
1153.68	231.52
1157.37	316.4
1161.06	264.157
1164.74	107.651
1168.42	198.777
1172.1	138.256
1175.78	78.401
1179.46	153.453
1183.14	86.614
1186.81	149.313
1190.48	214.971
1194.15	317.67
1197.83	220.697
1201.49	269.768
1205.16	27.51
1208.82	169.508
1212.49	115.828
1216.15	101.177
1219.81	121.655
1223.46	147.204
1227.12	235.483
1230.78	80.659
1234.43	0.782
1238.08	48.273
1241.73	63.468
1245.38	114.385
1249.03	109.02
1252.67	3.317
1256.31	97.996
1259.95	162.298
1263.6	84.179
1267.23	62.227
1270.87	91.833
1274.51	50.062
1278.14	49.735
1281.77	2.237
1285.4	58.343
1289.03	99.536
1292.66	132.382
1296.28	69.871
1299.91	97.077
1303.53	12.325
1307.15	86.65
1310.77	74.616
1314.38	102.774
1318	85.55
1321.61	90.227
1325.23	134.364
1328.84	233.653
1332.45	106.911
1336.06	140.004
1339.66	91.868
1343.27	263.493
1346.87	178.942
1350.47	308.481
1354.07	324.626
1357.67	139.438
1361.26	362.908
1364.86	224.854
1368.45	215.617
1372.04	267.684
1375.63	324.668
1379.22	243.451
1382.81	299.74
1386.39	241.299
1389.98	439.201
1393.56	344.535
1397.14	374.553
1400.72	398.717
1404.3	350.25
1407.87	375.4
1411.45	353.297
1415.02	130.709
1418.59	497.533
1422.16	228.336
1425.73	297.373
1429.29	413.195
1432.86	371.135
1436.42	300.014
1439.98	299.84
1443.54	512.979
1447.1	321.75
1450.66	359.838
1454.21	322.898
1457.77	226.584
1461.32	360.074
1464.87	250.625
1468.42	472.484
1471.96	522.217
1475.51	425.314
1479.06	292.904
1482.6	529.641
1486.14	272.234
1489.68	215.166
1493.22	152.301
1496.75	192.73
1500.29	310.922
1503.82	27.002
1507.35	215.582
1510.88	60.908
