Measurement: Raman, 532 nm, unoriented, Raman Data Processed
Mineral: Alum-(K)
Rruff sample: R060014
Ideal chemistry: KAl(SO_4_)_2_12H_2_O
Locality: Tolfa, Italy
Source: American Museum of Natural History
Description: Colorless fragment
Raman shift (cm-1)	intensity
120.887	0
124.262	3.64099
127.636	15.4224
131.011	20.8589
134.386	27.7132
137.761	29.7011
141.136	31.2782
144.511	39.2981
147.885	45.956
151.26	47.3132
154.635	47.2299
158.01	40.8363
161.385	38.0399
164.76	35.5349
168.134	36.731
171.509	37.4071
174.884	38.5424
178.259	47.7171
181.634	59.922
185.008	66.6058
188.383	70.4374
191.758	67.427
195.133	56.3971
198.508	39.5447
201.882	25.9879
205.257	13.6441
208.632	5.70706
212.007	2.36156
215.382	3.00699
218.756	2.22801
222.131	3.31348
225.506	3.68738
228.881	2.18042
232.256	2.90167
235.631	1.81534
239.005	3.04424
242.38	0.76593
245.755	0.126328
249.13	0.89286
252.505	1.11219
255.88	3.03676
259.254	0.172882
262.629	0.300369
266.004	0.127594
269.379	0.539574
272.754	2.99749
276.128	3.52273
279.503	4.43018
282.878	6.86202
286.253	8.26346
289.628	10.4821
293.002	13.2697
296.377	15.4273
299.752	18.8975
303.127	24.0268
306.502	26.3535
309.877	30.9138
313.251	32.2749
316.626	32.4654
320.001	35.3976
323.376	32.8316
326.751	30.5136
330.125	28.3096
333.5	25.5564
336.875	21.4821
340.25	17.8543
343.625	15.0337
347	11.3287
350.374	9.72815
353.749	8.30001
357.124	4.1683
360.499	5.29624
363.874	2.99929
367.248	2.70375
370.623	0.383301
373.998	1.40813
377.373	0.943161
380.748	0.260742
384.123	0.631989
387.497	0.898727
390.872	0.494385
394.247	1.13061
397.622	1.55586
400.997	0.19751
404.371	0.163841
407.746	0.487808
411.121	3.01843
414.496	5.52092
417.871	10.1158
421.245	16.2611
424.62	26.1013
427.995	35.8128
431.37	50.2486
434.745	67.5738
438.12	78.2646
441.494	87.0927
444.869	90.6457
448.244	94.3503
451.619	100.339
454.994	101.033
458.368	95.2957
461.743	82.4892
465.118	68.0979
468.493	54.1651
471.868	41.7949
475.243	33.5004
478.617	24.8468
481.992	18.726
485.367	15.6527
488.742	12.2521
492.117	10.5654
495.491	10.821
498.866	7.78554
502.241	8.6692
505.616	8.0678
508.991	9.58412
512.365	7.90875
515.74	8.13187
519.115	8.96576
522.49	11.1189
525.865	9.49481
529.24	9.28383
532.614	9.21094
535.989	10.6882
539.364	10.2972
542.739	7.28281
546.114	5.5495
549.489	3.11342
552.863	1.27278
556.238	0.664719
559.613	2.36632
562.988	2.62872
566.363	0.08551
569.737	1.14102
573.112	2.9081
576.487	5.89815
579.862	8.36169
583.237	10.7238
586.611	16.4082
589.986	23.494
593.361	30.1685
596.736	39.4778
600.111	51.5465
603.486	67.5681
606.86	85.57
610.235	103.03
613.61	114.512
616.985	110.457
620.36	94.4126
623.734	78.1728
627.109	66.0472
630.484	54.3734
633.859	40.4662
637.234	33.6745
640.609	25.0474
643.983	19.0038
647.358	13.5068
650.733	9.96324
654.108	6.62927
657.483	6.30696
660.857	4.2735
664.232	2.47757
667.607	1.18855
670.982	0.68988
674.357	0.493607
677.731	1.95633
681.106	0.60376
684.481	0.976395
687.856	1.09216
691.231	1.1012
694.606	0.156067
697.98	1.56883
701.355	0.614944
704.73	0.346634
708.105	0.246536
711.48	0.472961
714.855	1.12582
718.229	1.76808
721.604	1.28302
724.979	1.36618
728.354	0.283081
731.729	1.34627
735.103	1.78536
738.478	1.8646
741.853	1.73399
745.228	0.253235
748.603	1.54512
751.977	3.33337
755.352	2.31049
758.727	2.22234
762.102	1.31912
765.477	3.26683
768.852	1.72466
772.226	3.02339
775.601	4.2635
778.976	4.07291
782.351	3.37355
785.726	3.60258
789.1	3.22421
792.475	2.61201
795.85	1.98781
799.225	1.1409
802.6	3.0166
805.975	2.48668
809.349	1.53091
812.724	1.83888
816.099	0.837769
819.474	0.440155
822.849	0.842499
826.223	0.667099
829.598	0.593338
832.973	0.238831
836.348	1.45737
839.723	0.428696
843.097	0.703903
846.472	0.316406
849.847	1.17754
853.222	0.400833
856.597	2.14038
859.972	2.22971
863.346	3.15691
866.721	2.75819
870.096	3.19394
873.471	2.59097
876.846	2.26224
880.221	1.4762
883.595	3.47484
886.97	1.69058
890.345	0.332306
893.72	1.09131
897.095	0.535828
900.469	0.22493
903.844	0.331512
907.219	0.071182
910.594	0.325394
913.969	1.33237
917.343	0.960938
920.718	0.168427
924.093	0.030121
927.468	3.08795
930.843	2.22084
934.217	2.28819
937.592	3.57948
940.967	6.86612
944.342	9.72109
947.717	15.0812
951.092	22.2938
954.466	31.5087
957.841	51.4281
961.216	84.5825
964.591	143.659
967.966	241.528
971.341	389.117
974.715	471.757
978.09	432.925
981.465	489.449
984.84	742.859
988.215	1359.37
991.589	1310.7
994.964	390.665
998.339	128.659
1001.71	58.9694
1005.09	31.2418
1008.46	18.5673
1011.84	10.8763
1015.21	4.97435
1018.59	4.73837
1021.96	1.78169
1025.34	2.42311
1028.71	0.246796
1032.09	0.804703
1035.46	1.1747
1038.84	0.326141
1042.21	0.992035
1045.59	0.804474
1048.96	0.730743
1052.34	0.169983
1055.71	2.0838
1059.09	1.76663
1062.46	3.97453
1065.84	3.99811
1069.21	6.1154
1072.59	6.89824
1075.96	7.75906
1079.34	10.7005
1082.71	14.6436
1086.08	18.8925
1089.46	21.9042
1092.83	26.8902
1096.21	33.3438
1099.58	36.5807
1102.96	38.7865
1106.33	40.9442
1109.71	42.0048
1113.08	45.5389
1116.46	48.9439
1119.83	57.5766
1123.21	70.5018
1126.58	84.3922
1129.96	91.9631
1133.33	86.629
1136.71	68.0062
1140.08	44.5865
1143.46	30.4415
1146.83	18.0674
1150.21	12.7099
1153.58	6.55164
1156.95	4.34039
1160.33	3.5435
1163.7	1.37869
1167.08	0.115677
1170.45	0.868301
1173.83	0.140533
1177.2	0.013046
1180.58	0.856857
1183.95	1.5074
1187.33	3.56404
1190.7	2.98816
1194.08	3.92613
1197.45	2.98212
1200.83	2.13173
1204.2	1.1234
1207.58	2.27332
1210.95	1.26614
1214.33	0.695953
1217.7	0.121399
1221.08	0.911163
1224.45	1.19165
1227.83	0.39917
1231.2	0.372665
1234.58	1.06937
1237.95	0.857101
1241.33	0.741638
1244.7	0.584641
1248.08	0.590073
1251.45	0.718399
1254.83	1.79359
1258.2	1.39523
1261.58	1.74651
1264.95	1.80075
1268.32	0.882416
1271.7	2.06004
1275.07	0.945618
1278.45	0.34024
1281.82	1.08336
1285.2	1.6021
1288.57	0.788681
1291.95	1.34909
1295.32	1.48529
1298.7	0.011002
