Measurement: Raman, 780 nm, unoriented, Raman Data Processed
Mineral: Alum-(Na)
Rruff sample: R110204
Ideal chemistry: NaAl(SO_4_)_2_12H_2_O
Locality: Flux mine, near Patagonia, Arizona
Source: Gordon W Downs
Description: Colorless ram's horn
Raman shift (cm-1)	intensity
103.656	0
107.031	6.84703
110.406	18.3635
113.781	25.9582
117.156	30.7597
120.531	22.7138
123.905	12.4743
127.28	1.87929
130.655	1.53741
134.03	0.731064
137.405	2.90262
140.779	10.2342
144.154	15.1752
147.529	20.6855
150.904	25.6111
154.279	22.7502
157.654	18.679
161.028	11.5668
164.403	7.31457
167.778	4.52959
171.153	2.91745
174.528	7.77282
177.902	14.1505
181.277	24.3664
184.652	32.6351
188.027	37.2839
191.402	34.8333
194.776	28.2595
198.151	19.6218
201.526	10.917
204.901	6.32227
208.276	4.10184
211.651	6.12267
215.025	9.90702
218.4	12.7478
221.775	13.1489
225.15	12.6405
228.525	10.8995
231.899	9.87656
235.274	10.5697
238.649	8.84642
242.024	6.68774
245.399	5.67403
248.774	3.06752
252.148	0.678986
255.523	0.193493
258.898	0.800976
262.273	0.019375
265.648	0.560452
269.022	0.176622
272.397	0.098022
275.772	0.518459
279.147	0.263371
282.522	2.36205
285.897	2.9779
289.271	3.42589
292.646	5.20955
296.021	5.72736
299.396	7.13082
302.771	9.49177
306.145	11.076
309.52	12.6707
312.895	13.4717
316.27	14.5151
319.645	13.9997
323.019	13.8795
326.394	13.7314
329.769	12.9244
333.144	11.1801
336.519	10.7772
339.894	8.32855
343.268	7.14438
346.643	6.39355
350.018	4.80536
353.393	4.03189
356.768	2.46391
360.142	2.48445
363.517	1.48836
366.892	0.503122
370.267	0.217167
373.642	0.066149
377.017	0.365707
380.391	0.209526
383.766	0.852978
387.141	0.12149
390.516	0.188559
393.891	0.224737
397.265	0.170696
400.64	0.625439
404.015	0.923624
407.39	1.50906
410.765	1.29318
414.14	4.19515
417.514	5.64103
420.889	8.10957
424.264	13.2841
427.639	20.4831
431.014	28.2968
434.389	39.9476
437.763	49.6005
441.138	58.0964
444.513	63.7859
447.888	67.8388
451.263	70.1996
454.637	68.2567
458.012	62.6959
461.387	55.6295
464.762	46.0919
468.137	36.5684
471.512	28.4662
474.886	23.007
478.261	17.1014
481.636	10.3373
485.011	7.98285
488.386	5.37309
491.76	2.49288
495.135	2.67555
498.51	0.46566
501.885	0.064842
505.26	1.68049
508.635	0.729939
512.009	0.792381
515.384	2.26276
518.759	2.08966
522.134	2.55748
525.509	3.8384
528.883	4.46749
532.258	5.05783
535.633	6.4253
539.008	6.35428
542.383	5.725
545.757	4.24956
549.132	2.38582
552.507	0.82062
555.882	1.32911
559.257	0.263592
562.631	1.34911
566.006	0.534168
569.381	1.13061
572.756	2.36659
576.131	5.20699
579.506	6.25805
582.88	9.61467
586.255	11.7819
589.63	14.1127
593.005	18.5321
596.38	22.7683
599.755	27.045
603.129	35.0558
606.504	43.5172
609.879	53.4936
613.254	60.6009
616.629	62.9697
620.003	58.1936
623.378	51.2183
626.753	46.0585
630.128	38.4337
633.503	30.6806
636.878	23.1062
640.252	17.2807
643.627	12.507
647.002	8.82169
650.377	6.3022
653.752	3.5118
657.126	2.4707
660.501	1.58653
663.876	1.0638
667.251	1.29246
670.626	0.160408
674	0.306431
677.375	0.687119
680.75	0.31489
684.125	0.161102
687.5	0.770447
690.875	0.273352
694.249	0.806734
697.624	0.126286
700.999	0.140597
704.374	0.577438
707.749	1.07118
711.124	0.632583
714.498	0.57192
717.873	0.594539
721.248	0.622725
724.623	0.111854
727.998	0.556335
731.372	0.640453
734.747	0.683839
738.122	0.6359
741.497	0.770668
744.872	1.15095
748.246	1.61659
751.621	1.16654
754.996	1.13409
758.371	1.97515
761.746	1.52853
765.12	2.31218
768.495	2.41227
771.87	2.30043
775.245	2.83968
778.62	2.52837
781.995	2.33858
785.369	2.59989
788.744	1.85655
792.119	1.88245
795.494	1.0391
798.869	0.475183
802.244	1.85674
805.618	1.20488
808.993	1.23418
812.368	0.506336
815.743	0.455284
819.118	0.879116
822.492	0.969467
825.867	0.646524
829.242	0.573267
832.617	0.196113
835.992	0.712493
839.366	0.643495
842.741	0.069157
846.116	0.089571
849.491	0.46891
852.866	0.510196
856.241	0.776305
859.615	0.233626
862.99	1.32299
866.365	1.35137
869.74	0.625409
873.115	0.183382
876.49	0.609051
879.864	0.254557
883.239	0.653704
886.614	0.592461
889.989	0.827656
893.364	0.821705
896.738	0.51413
900.113	0.474257
903.488	0.181356
906.863	0.134674
910.238	0.391472
913.612	0.182444
916.987	0.360205
920.362	0.623957
923.737	0.318924
927.112	1.11958
930.487	2.35573
933.861	2.4254
937.236	3.18844
940.611	5.51717
943.986	5.9372
947.361	8.29163
950.736	12.6118
954.11	18.6203
957.485	27.4982
960.86	43.9152
964.235	75.4638
967.61	143.839
970.984	265.866
974.359	332.843
977.734	263.675
981.109	266.432
984.484	458.206
987.859	1015.85
991.233	1063.93
994.608	314.883
997.983	101.528
1001.36	44.8555
1004.73	23.7344
1008.11	14.2686
1011.48	8.7693
1014.86	5.77169
1018.23	3.32424
1021.61	2.13088
1024.98	1.48976
1028.36	0.061756
1031.73	0.210021
1035.11	0.588727
1038.48	0.522291
1041.86	0.444105
1045.23	0.259455
1048.61	0.576669
1051.98	0.183365
1055.36	0.413135
1058.73	1.31831
1062.1	1.98303
1065.48	2.82602
1068.85	3.76207
1072.23	4.16007
1075.6	6.0209
1078.98	7.54688
1082.35	9.8381
1085.73	13.5294
1089.1	17.6488
1092.48	21.3391
1095.85	23.9952
1099.23	24.9001
1102.6	23.2818
1105.98	23.5823
1109.35	21.7947
1112.73	21.7244
1116.1	22.5598
1119.48	25.4827
1122.85	29.9995
1126.23	36.5872
1129.6	40.6522
1132.98	40.9472
1136.35	32.4948
1139.72	22.7438
1143.1	14.4314
1146.47	9.579
1149.85	5.55685
1153.22	3.68515
1156.6	2.12931
1159.97	1.90488
1163.35	1.20884
1166.72	0.33736
1170.1	0.039392
1173.47	0.343848
1176.85	0.264159
1180.22	0.170242
1183.6	0.371156
1186.97	1.26351
1190.35	1.32564
1193.72	1.57
1197.1	2.31098
1200.47	0.367396
1203.85	0.463874
1207.22	0.943707
1210.6	0.328295
1213.97	0.223267
1217.35	0.12045
1220.72	0.537112
1224.1	1.01053
1227.47	0.09403
1230.85	0.147466
1234.22	0.419421
1237.6	1.21914
1240.97	0.035477
1244.34	0.537962
1247.72	1.85968
1251.09	0.720132
1254.47	1.02332
1257.84	0.927442
1261.22	0.789652
1264.59	1.24327
1267.97	1.05566
1271.34	0.771935
1274.72	1.54516
1278.09	0.755651
1281.47	0.513804
1284.84	0.157803
