Measurement: Raman, 785 nm, unoriented, Raman Data Processed
Mineral: Alumohydrocalcite
Rruff sample: R061067
Ideal chemistry: CaAl_2_(CO_3_)_2_(OH)_4_3H_2_O
Locality: Lubom'ra, Czech Republic
Source: Michael Scott
Description: White fibers in flowing radial aggregates
Raman shift (cm-1)	intensity
167.811	0
170.704	29.8027
173.596	4.86035
176.489	91.3892
179.382	329.257
182.274	780.982
185.167	1285.76
188.06	1944.55
190.952	2141.22
193.845	1453.96
196.738	646
199.631	272.463
202.523	195.532
205.416	139.045
208.309	309.61
211.201	647.308
214.094	1144.07
216.987	1852.68
219.88	1764.34
222.772	934.543
225.665	440.673
228.558	189.902
231.45	81.3008
234.343	5.61377
237.236	27.5181
240.128	59.0239
243.021	66.7978
245.914	114.947
248.806	283.488
251.699	502.137
254.592	842.219
257.485	1281.28
260.377	1664.61
263.27	1165.64
266.163	484.849
269.055	223.18
271.948	100.413
274.841	8.02344
277.733	78.7231
280.626	8.96533
283.519	0.045898
286.412	0.594727
289.304	24.5054
292.197	34.1103
295.09	57.4912
297.982	50.2227
300.875	2.52588
303.768	13.6826
306.661	69.7158
309.553	23.6533
312.446	80.0772
315.339	70.5811
318.231	64.1099
321.124	61.1855
324.017	121.462
326.909	205.449
329.802	249.092
332.695	279.918
335.587	294.269
338.48	276.978
341.373	289.695
344.266	413.29
347.158	400.47
350.051	452.305
352.944	482.778
355.836	517.816
358.729	501.041
361.622	456.062
364.514	467.637
367.407	438.592
370.3	344.054
373.193	332.725
376.085	427.223
378.978	414.288
381.871	442.004
384.763	475.675
387.656	495.959
390.549	437.275
393.442	339.327
396.334	232.032
399.227	294.158
402.12	191.934
405.012	190.552
407.905	121.163
410.798	181.135
413.69	212.308
416.583	191.254
419.476	157.776
422.368	154.465
425.261	130.848
428.154	101.545
431.046	80.6948
433.939	60.998
436.832	51.8833
439.725	94.0337
442.617	43.5005
445.51	75.0703
448.403	41.0913
451.295	4.89844
454.188	9.22168
457.081	38.0474
459.974	2.57275
462.866	50.7881
465.759	32.4548
468.652	22.3325
471.544	10.7248
474.437	5.84717
477.33	26.5176
480.222	38.1914
483.115	66.4319
486.008	87.5332
488.901	187.009
491.793	260.55
494.686	273.518
497.579	348.31
500.471	340.022
503.364	245.819
506.257	266.965
509.149	277.271
512.042	283.556
514.935	324.466
517.827	378.27
520.72	236.401
523.613	146.583
526.506	126.708
529.398	15.5356
532.291	37.3447
535.184	8.19971
538.076	36.554
540.969	80.9404
543.862	72.9053
546.755	8.86865
549.647	40.0295
552.54	12.6653
555.433	24.6096
558.325	66.3345
561.218	49.4282
564.111	54.2563
567.003	49.6519
569.896	96.394
572.789	171.467
575.682	272.367
578.574	516.682
581.467	935.516
584.36	1465.29
587.252	2046.84
590.145	2089.69
593.038	1300.48
595.93	622.644
598.823	399.425
601.716	244.524
604.609	149.297
607.501	168.989
610.394	126.643
613.287	80.061
616.179	42.9531
619.072	48.6682
621.965	113.914
624.857	77.0032
627.75	82.0129
630.643	51.3101
633.535	57.3833
636.428	71.3023
639.321	60.7261
642.214	61.02
645.106	64.8877
647.999	4.5542
650.892	2.79224
653.784	22.7593
656.677	17.2974
659.57	28.9661
662.462	24.0952
665.355	0.449951
668.248	36.1016
671.141	53.7876
674.033	10.5349
676.926	23.477
679.819	32.4192
682.711	23.5002
685.604	23.6692
688.497	29.0207
691.389	37.9216
694.282	68.2878
697.175	40.0591
700.068	39.9106
702.96	89.9585
705.853	72.0432
708.746	80.8032
711.638	78.9846
714.531	80.583
717.424	186.589
720.317	230.244
723.209	410.938
726.102	729.297
728.995	1067.93
731.887	837.194
734.78	333.943
737.673	283.661
740.565	155.294
743.458	223.007
746.351	194.158
749.243	127.522
752.136	64.3748
755.029	78.1094
757.922	58.7476
760.814	5.18286
763.707	50.7114
766.6	26.7564
769.492	77.8201
772.385	54.5098
775.278	16.2258
778.17	26.4744
781.063	32.373
783.956	35.8154
786.848	46.9045
789.741	38.8718
792.634	48.5415
795.527	20.1677
798.419	12.6352
801.312	30.1169
804.205	11.2515
807.097	47.876
809.99	125.087
812.883	110.526
815.775	132.455
818.668	192.391
821.561	165.605
824.454	190.283
827.346	155.424
830.239	158.6
833.132	169.48
836.024	170.523
838.917	193.273
841.81	179.596
844.702	269.805
847.595	241.136
850.488	313.175
853.381	341.116
856.273	292.789
859.166	289.884
862.059	251.544
864.951	268.687
867.844	190.368
870.737	182.814
873.63	154.895
876.522	106.266
879.415	118.248
882.308	72.9905
885.2	61.8923
888.093	28.8606
890.986	33.1721
893.878	70.6965
896.771	72.7978
899.664	40.7063
902.557	5.24805
905.449	19.7983
908.342	21.4075
911.235	7.9165
914.127	13.5205
917.02	4.47754
919.913	7.06079
922.805	19.2312
925.698	100.65
928.591	86.8384
931.484	137.612
934.376	118.995
937.269	130.493
940.162	98.6111
943.054	121.035
945.947	19.6306
948.84	19.2966
951.732	30.6614
954.625	45.7703
957.518	62.3003
960.41	47.5803
963.303	70.7607
966.196	58.6941
969.089	75.6455
971.981	58.0886
974.874	141.76
977.767	189.06
980.659	231.485
983.552	166.626
986.445	140.917
989.337	18.3625
992.23	1.85083
995.123	56.728
998.016	35.9692
1000.91	8.34912
1003.8	50.4983
1006.69	52.6233
1009.59	21.4248
1012.48	29.6609
1015.37	4.91455
1018.26	15.415
1021.16	13.7803
1024.05	15.5024
1026.94	6.57568
1029.84	32.3555
1032.73	56.4121
1035.62	50.5222
1038.51	5.04175
1041.41	27.8447
1044.3	40.7188
1047.19	51.7385
1050.08	76.8113
1052.98	122.079
1055.87	111.777
1058.76	103.519
1061.65	151.166
1064.55	284.247
1067.44	289.574
1070.33	316.868
1073.23	298.148
1076.12	397.496
1079.01	555.206
1081.9	990.893
1084.8	1737.46
1087.69	2662.47
1090.58	3173.12
1093.47	2854.56
1096.37	2221.28
1099.26	1705.29
1102.15	1269.01
1105.05	962.546
1107.94	746.463
1110.83	548.992
1113.72	433.435
1116.62	334.475
1119.51	229.713
1122.4	203.584
1125.29	177.12
1128.19	62.8435
1131.08	81.8843
1133.97	98.6233
1136.87	114.011
1139.76	99.1397
1142.65	44.9099
1145.54	41.488
1148.44	67.0147
1151.33	18.3
1154.22	2.93408
1157.11	4.56592
1160.01	38.1133
1162.9	17.6326
1165.79	41.6233
1168.68	43.3315
1171.58	4.32812
1174.47	3.15772
1177.36	0.293213
1180.26	12.2407
1183.15	55.4968
1186.04	64.9644
1188.93	59.5532
1191.83	37.8899
1194.72	89.6667
1197.61	60.2661
1200.51	123.608
1203.4	58.8818
1206.29	33.7136
1209.18	36.825
1212.08	59.0292
1214.97	88.7637
1217.86	85.9043
1220.75	77.616
1223.65	68.2183
1226.54	75.5001
1229.43	47.4308
1232.32	32.4614
1235.22	41.0276
1238.11	51.4275
1241	40.1106
1243.89	50.2101
1246.79	45.6921
1249.68	87.8835
1252.57	28.9396
1255.47	37.387
1258.36	0.325684
1261.25	0
