Measurement: Raman, 785 nm, unoriented, Raman Data Processed
Mineral: Alum-(K)
Rruff sample: R040134
Ideal chemistry: KAl(SO_4_)_2_12H_2_O
Locality: Alunite mine, Esmeralda County, Nevada, USA
Source: University of Arizona Mineral Museum
Description: Colorless coarsely crystalline massive
Measured chemistry: (K_0.86_(NH_4_)_0.14_)_Σ=1_Al_1.00_(S_1.00_O_4_)_2_·12H_2_O ; NH_4_ not measured but estimated by stoichiometry
Raman shift (cm-1)	intensity
172.124	0
175.017	19.9293
177.909	63.1857
180.802	165.53
183.695	257.398
186.587	328.47
189.48	366.835
192.373	366.315
195.265	355.308
198.158	248.308
201.051	146.786
203.944	83.4935
206.836	16.2228
209.729	0.524963
212.622	10.305
215.514	21.3864
218.407	57.1135
221.3	80.853
224.192	79.1756
227.085	62.084
229.978	70.5346
232.87	56.0305
235.763	80.457
238.656	61.6345
241.549	58.7706
244.441	55.3502
247.334	14.3024
250.227	21.7933
253.119	0.63678
256.012	7.4202
258.905	0.263214
261.798	13.271
264.69	5.00824
267.583	5.01157
270.476	6.13245
273.368	16.5248
276.261	23.4982
279.154	11.7576
282.046	27.577
284.939	40.5958
287.832	48.3749
290.724	71.7774
293.617	82.8574
296.51	114.574
299.403	97.2856
302.295	138.737
305.188	167.08
308.081	196.012
310.973	201.931
313.866	213.949
316.759	213.779
319.651	231.206
322.544	223.674
325.437	210.494
328.33	208.703
331.222	189.244
334.115	183.928
337.008	181.434
339.9	141.149
342.793	121.056
345.686	95.7152
348.579	77.6913
351.471	63.5325
354.364	51.6655
357.257	35.8194
360.149	28.9167
363.042	19.3571
365.935	2.29523
368.827	12.2779
371.72	9.12058
374.613	5.69611
377.505	0.604004
380.398	5.82838
383.291	8.57977
386.184	5.74228
389.076	10.3695
391.969	11.69
394.862	0.259216
397.754	4.52112
400.647	8.58386
403.54	21.1591
406.433	16.6568
409.325	32.5638
412.218	41.1814
415.111	41.0598
418.003	81.2014
420.896	122.182
423.789	166.533
426.681	244.158
429.574	351.764
432.467	484.654
435.36	645.854
438.252	719.442
441.145	800.575
444.038	847.761
446.93	902.888
449.823	936.373
452.716	990.387
455.608	971.812
458.501	907.761
461.394	832.175
464.286	698.528
467.179	562.498
470.072	479.958
472.965	383.56
475.857	307.083
478.75	207.672
481.643	174.091
484.535	138.247
487.428	108.963
490.321	84.3827
493.214	56.5184
496.106	47.9865
498.999	46.214
501.892	46.2533
504.784	34.4515
507.677	53.833
510.57	59.2235
513.462	67.3823
516.355	66.3053
519.248	62.6048
522.14	63.9687
525.033	77.742
527.926	73.2158
530.819	79.9432
533.711	103.742
536.604	104.388
539.497	85.9456
542.389	74.3828
545.282	47.6761
548.175	30.1114
551.067	27.807
553.96	0.814331
556.853	8.01523
559.745	5.57153
562.638	15.2246
565.531	13.3541
568.424	3.2225
571.316	8.42294
574.209	50.4836
577.102	72.6375
579.994	90.3173
582.887	127.09
585.78	166.001
588.673	190.481
591.565	255.315
594.458	307.773
597.351	392.231
600.243	494.871
603.136	602.919
606.029	755.319
608.921	909.248
611.814	1077.57
614.707	1110.03
617.6	1073.83
620.492	989.275
623.385	865.013
626.278	732.141
629.17	631.578
632.063	530.694
634.956	439.302
637.848	342.74
640.741	281.448
643.634	210.767
646.527	171.456
649.419	116.811
652.312	93.4194
655.205	75.7104
658.097	67.6796
660.99	33.2372
663.883	34.4303
666.775	32.9149
669.668	21.1149
672.561	17.7507
675.454	20.848
678.346	0.18718
681.239	6.56172
684.132	12.8056
687.024	0.384201
689.917	5.32465
692.81	3.24646
695.702	3.48309
698.595	2.30144
701.488	6.60884
704.381	3.86539
707.273	4.31822
710.166	6.13591
713.059	4.50905
715.951	1.73204
718.844	2.74799
721.737	1.73952
724.63	7.14523
727.522	6.28671
730.415	4.64368
733.308	17.5775
736.2	13.4576
739.093	11.435
741.986	10.886
744.878	13.9552
747.771	9.11395
750.664	42.3026
753.557	13.7138
756.449	29.9462
759.342	14.9468
762.235	24.7535
765.127	23.1172
768.02	28.8547
770.913	40.5377
773.805	36.4944
776.698	46.231
779.591	39.2325
782.484	32.9661
785.376	26.6625
788.269	37.3214
791.162	31.9942
794.054	25.9337
796.947	21.8185
799.84	10.577
802.732	4.61168
805.625	12.5659
808.518	1.59998
811.41	5.14163
814.303	9.67276
817.196	12.3598
820.089	11.6476
822.981	4.45618
825.874	3.08655
828.767	3.37997
831.659	0.227829
834.552	2.43303
837.445	2.10994
840.337	1.82088
843.23	1.46481
846.123	0.994507
849.016	17.7398
851.908	7.57841
854.801	7.44998
857.694	9.4611
860.586	20.2115
863.479	8.74213
866.372	17.7389
869.264	24.1696
872.157	1.20485
875.05	0.395065
877.943	5.92656
880.835	20.1325
883.728	20.5923
886.621	15.5915
889.513	14.6237
892.406	8.84357
895.299	6.25708
898.192	13.5033
901.084	17.891
903.977	6.30917
906.87	8.27399
909.762	1.61298
912.655	6.45441
915.548	7.24008
918.44	12.1007
921.333	5.98904
924.226	6.90784
927.119	16.6819
930.011	25.4978
932.904	25.9101
935.797	62.2085
938.689	68.37
941.582	72.5659
944.475	98.6716
947.367	129.959
950.26	187.037
953.153	235.813
956.045	343.066
958.938	508.528
961.831	784.7
964.724	1307.89
967.616	2149.82
970.509	3495.89
973.402	4474.23
976.294	4165.02
979.187	3840.86
982.08	4893.83
984.972	7717.07
987.865	13587.6
990.758	14661.3
993.651	6706.63
996.543	2391.27
999.436	1026.88
1002.33	546.298
1005.22	312.446
1008.11	216.688
1011.01	127.616
1013.9	89.8384
1016.79	60.8603
1019.68	32.8999
1022.58	26.7623
1025.47	1.19589
1028.36	19.1951
1031.26	1.21373
1034.15	16.6464
1037.04	1.28244
1039.93	2.51988
1042.83	1.58919
1045.72	8.05106
1048.61	4.98497
1051.51	1.07604
1054.4	14.6104
1057.29	7.77184
1060.18	12.3933
1063.08	13.1072
1065.97	39.9014
1068.86	46.0815
1071.75	54.191
1074.65	60.6463
1077.54	71.2204
1080.43	114.828
1083.32	137.73
1086.22	175.74
1089.11	237.157
1092	275.607
1094.89	304.013
1097.79	325.738
1100.68	340.589
1103.57	379.045
1106.47	341.392
1109.36	326.984
1112.25	359.001
1115.14	404.904
1118.04	430.124
1120.93	493.834
1123.82	600.438
1126.71	703.797
1129.61	745.548
1132.5	725.172
1135.39	635.851
1138.29	481.563
1141.18	319.207
1144.07	229.687
1146.96	140.358
1149.86	90.6288
1152.75	62.8878
1155.64	42.6504
1158.53	31.7585
1161.43	24.473
1164.32	15.0151
1167.21	9.7305
1170.11	7.03441
1173	2.15134
1175.89	0.31041
1178.78	3.41095
1181.68	7.34404
1184.57	10.7834
1187.46	9.74606
1190.35	25.2631
1193.25	36.4138
1196.14	29.1099
1199.03	24.4603
1201.92	28.519
1204.82	12.8814
1207.71	2.48891
1210.6	1.82959
1213.5	0.405197
1216.39	10.2227
1219.28	10.8869
1222.17	6.25056
1225.07	5.0813
1227.96	16.2737
1230.85	10.4578
1233.74	1.13687
1236.64	8.54164
1239.53	5.78514
1242.42	1.99109
