Measurement: Raman, 785 nm, unoriented, Raman Data Processed
Mineral: Aluminite
Rruff sample: R060691
Ideal chemistry: Al_2_SO_4_(OH)_4_7H_2_O
Locality: Newhaven, East Sussex, England, United Kingdom
Source: Michael Scott
Description: Nodular masses of white fibers
Raman shift (cm-1)	intensity
137.437	0
140.33	56.4085
143.223	45.1125
146.115	1092.72
149.008	2058.32
151.901	2044.96
154.794	1565.33
157.686	996.547
160.579	866.212
163.472	1198.14
166.364	837.929
169.257	540.563
172.15	332.355
175.042	178.709
177.935	70.363
180.828	59.0935
183.721	6.45898
186.613	6.17993
189.506	27.1094
192.399	15.3286
195.291	134.521
198.184	359.696
201.077	689.131
203.969	1083.91
206.862	1214.35
209.755	1008.54
212.648	910.166
215.54	869.747
218.433	857.3
221.326	925.964
224.218	883.475
227.111	575.843
230.004	322.205
232.896	191.498
235.789	286.038
238.682	370.5
241.574	435.008
244.467	492.896
247.36	636.63
250.253	689.973
253.145	707.535
256.038	649.599
258.931	508.537
261.823	309.284
264.716	108.521
267.609	47.1956
270.501	13.8184
273.394	47.947
276.287	126.243
279.18	292.596
282.072	497.469
284.965	463.034
287.858	367.833
290.75	343.603
293.643	337.538
296.536	328.942
299.428	396.149
302.321	468.53
305.214	561.4
308.107	708.311
310.999	854.858
313.892	908.81
316.785	835.198
319.677	626.965
322.57	404.627
325.463	321.402
328.355	210.271
331.248	163.852
334.141	83.8396
337.034	69.7869
339.926	15.7632
342.819	1.81763
345.712	7.14331
348.604	8.073
351.497	7.64294
354.39	4.1062
357.283	21.1656
360.175	25.6385
363.068	9.70105
365.961	48.051
368.853	23.4386
371.746	15.535
374.639	15.7479
377.531	76.0189
380.424	67.5189
383.317	37.5608
386.21	42.4684
389.102	61.297
391.995	48.2846
394.888	54.3091
397.78	97.1931
400.673	94.374
403.566	146.04
406.458	189.214
409.351	213.86
412.244	266.409
415.137	346.653
418.029	505.142
420.922	578.829
423.815	723.97
426.707	934.381
429.6	1172.08
432.493	1435.71
435.385	1830.25
438.278	2161.44
441.171	1921.74
444.064	1453.33
446.956	1087.51
449.849	868.088
452.742	712.233
455.634	555.38
458.527	479.861
461.42	370.001
464.312	326.848
467.205	296.65
470.098	298.483
472.991	260.259
475.883	241.923
478.776	235.982
481.669	222.942
484.561	233.511
487.454	262.95
490.347	290.278
493.239	304.472
496.132	272.441
499.025	236.357
501.918	167.054
504.81	140.15
507.703	144.013
510.596	108.133
513.488	85.5626
516.381	65.2986
519.274	61.0392
522.166	40.119
525.059	0.493774
527.952	1.58215
530.844	45.1326
533.737	21.62
536.63	5.6189
539.523	0.336914
542.415	0.745361
545.308	32.4042
548.201	64.3372
551.093	0.228516
553.986	33.2517
556.879	50.9474
559.771	116.362
562.664	197.837
565.557	264.636
568.45	320.623
571.342	424.512
574.235	421.066
577.128	542.441
580.02	582.309
582.913	684.766
585.806	846.689
588.699	1038.47
591.591	1212.41
594.484	1450.4
597.377	1588.38
600.269	1678.55
603.162	1762.69
606.055	1780.1
608.948	1691.82
611.84	1492.43
614.733	1254.29
617.626	1125.74
620.518	987.187
623.411	955.269
626.304	907.62
629.196	807.69
632.089	697.437
634.982	540.163
637.875	429.273
640.767	275.773
643.66	180.95
646.553	153.679
649.445	106.94
652.338	70.7382
655.231	95.4022
658.123	107.095
661.016	74.1295
663.909	112.797
666.802	93.2449
669.694	126.085
672.587	131.798
675.48	139.23
678.372	213.976
681.265	166.367
684.158	170.311
687.05	127.1
689.943	80.6228
692.836	50.8126
695.729	0.112549
698.621	0.824951
701.514	2.49548
704.407	0.587524
707.299	0.354126
710.192	22.0044
713.085	16.3589
715.977	3.45129
718.87	18.884
721.763	10.5481
724.656	22.2758
727.548	13.1141
730.441	26.256
733.334	31.4465
736.226	15.9076
739.119	64.7367
742.012	50.2499
744.904	55.4795
747.797	58.3783
750.69	86.3284
753.583	73.8115
756.475	50.1669
759.368	76.6522
762.261	109.333
765.153	117.864
768.046	115.066
770.939	131.589
773.831	141.778
776.724	161.865
779.617	152.353
782.51	175.029
785.402	130.176
788.295	179.076
791.188	161.476
794.08	183.441
796.973	165.077
799.866	130.082
802.758	134.615
805.651	110.593
808.544	108.49
811.437	85.3391
814.329	127.955
817.222	120.01
820.115	68.713
823.007	51.1067
825.9	23.4269
828.793	74.9254
831.685	85.3618
834.578	68.4038
837.471	13.4002
840.364	47.3303
843.256	32.7109
846.149	15.4616
849.042	23.3256
851.934	28.6583
854.827	19.8381
857.72	3.51636
860.612	6.87927
863.505	1.42773
866.398	6.40222
869.291	7.26965
872.183	5.01379
875.076	19.8342
877.969	21.3363
880.861	7.74707
883.754	38.4075
886.647	3.6405
889.539	12.4683
892.432	10.9888
895.325	37.147
898.218	13.6067
901.11	12.0214
904.003	20.0586
906.896	4.62183
909.788	4.87756
912.681	21.6755
915.574	9.47412
918.466	28.532
921.359	18.1129
924.252	1.35962
927.145	4.35767
930.037	13.2704
932.93	17.8814
935.823	13.4966
938.715	14.1422
941.608	33.8744
944.501	38.2
947.393	28.2002
950.286	40.891
953.179	25.6156
956.072	75.2037
958.964	76.0577
961.857	146.352
964.75	180.293
967.642	226.125
970.535	363.439
973.428	558.321
976.32	812.246
979.213	1109.19
982.106	1815.13
984.999	3858.4
987.891	10244.1
990.784	24468
993.677	21321.1
996.569	6608.22
999.462	2587.61
1002.36	1334.05
1005.25	804.954
1008.14	478.889
1011.03	296.209
1013.93	213.919
1016.82	137.799
1019.71	51.3387
1022.6	20.2964
1025.5	17.954
1028.39	1.97681
1031.28	7.86768
1034.17	18.8157
1037.07	11.9916
1039.96	6.15668
1042.85	16.5231
1045.74	48.2494
1048.64	52.3617
1051.53	69.832
1054.42	133.513
1057.32	191.868
1060.21	222.312
1063.1	289.413
1065.99	335.882
1068.89	387.667
1071.78	396.62
1074.67	485.447
1077.57	588.621
1080.46	681.879
1083.35	868.501
1086.24	1106.11
1089.14	1284.72
1092.03	1328.09
1094.92	1246.63
1097.81	1011.27
1100.71	753.413
1103.6	561.056
1106.49	394.354
1109.38	302.027
1112.28	240.875
1115.17	248.026
1118.06	214.642
1120.96	178.241
1123.85	206.494
1126.74	242.57
1129.63	262.584
1132.53	304.049
1135.42	247.277
1138.31	213.429
1141.2	198.449
1144.1	201.84
1146.99	176.4
1149.88	156.248
1152.78	93.3964
1155.67	73.8016
1158.56	80.7313
1161.45	48.168
1164.35	23.3801
1167.24	12.2905
1170.13	2.36938
1173.02	5.8302
1175.92	6.37341
1178.81	7.81348
1181.7	4.15845
1184.6	0.143127
1187.49	24.452
1190.38	4.23456
1193.27	13.8398
1196.17	27.3342
1199.06	40.4325
1201.95	47.106
1204.84	13.3885
1207.74	1.69977
1210.63	28.643
1213.52	32.5718
1216.41	41.5217
1219.31	47.0629
1222.2	23.1863
1225.09	49.0277
1227.98	31.8569
1230.88	29.5354
1233.77	49.3509
1236.66	31.8138
1239.56	41.9289
1242.45	49.8166
1245.34	5.11011
1248.23	102.377
1251.13	36.6649
1254.02	6.9856
1256.91	25.4749
1259.81	48.8475
1262.7	35.9009
1265.59	11.679
