Measurement: Raman, 532 nm, unoriented, Raman Data Processed
Mineral: Alum-(K)
Rruff sample: R060528
Ideal chemistry: KAl(SO_4_)_2_12H_2_O
Locality: El Desierto mine fumaroles, Potos√≠, Bolivia
Source: Michael Scott
Description: Colorless thin tabular crystals associated with yellow sulfur and colorless tamarugite
Raman shift (cm-1)	intensity
108.024	0
111.399	10.901
114.773	229.767
118.148	814.082
121.523	907.268
124.898	693.041
128.273	787.364
131.648	1218.43
135.022	1633.44
138.397	2052.74
141.772	2430.91
145.147	3053.25
148.522	3868.49
151.896	4158.4
155.271	3421.7
158.646	2530.63
162.021	2233.39
165.396	2055.78
168.77	1937.89
172.145	1863.35
175.52	1941.76
178.895	2255.55
182.27	2633.18
185.645	2974.7
189.019	2974.43
192.394	2712.64
195.769	2238.51
199.144	1601.11
202.519	1165.65
205.893	1020.25
209.268	1389.6
212.643	1900.83
216.018	2250.7
219.393	2474.08
222.768	563.648
226.142	362.462
229.517	338.807
232.892	319.037
236.267	312.506
239.642	305.248
243.016	299.193
246.391	227.283
249.766	83.468
253.141	28.731
256.516	65.167
259.89	66.49
263.265	65.9
266.64	53.317
270.015	6.667
273.39	10.322
276.764	21.279
280.139	69.889
283.514	93.889
286.889	137.33
290.264	176.194
293.639	311.487
297.013	401.429
300.388	504.283
303.763	663.797
307.138	778.08
310.513	903.995
313.888	1051.78
317.262	1067.49
320.637	1121.03
324.012	1096.42
327.387	1058.83
330.762	977.679
334.136	850.829
337.511	728.574
340.886	582.724
344.261	482.678
347.636	392.702
351.01	294.795
354.385	219.964
357.76	178.652
361.135	102.441
364.51	83.389
367.884	17.765
371.259	21.324
374.634	7.524
378.009	10.993
381.384	11.538
384.759	31.885
388.133	24.01
391.508	9.467
394.883	14.324
398.258	7.753
401.633	2.305
405.008	38.84
408.382	102.164
411.757	148.062
415.132	301.593
418.507	398.713
421.882	632.466
425.256	949.255
428.631	1489.76
432.006	2191.32
435.381	2813.97
438.756	3210.41
442.13	3265.58
445.505	3379.09
448.88	3593.07
452.255	3904.02
455.63	4046.12
459.004	4008.26
462.379	3769.78
465.754	3608.71
469.129	3508.01
472.504	3416.04
475.879	1967.99
479.253	1161.04
482.628	880.383
486.003	694.57
489.378	541.019
492.753	415.964
496.128	396.108
499.502	367.456
502.877	344.738
506.252	361.058
509.627	372.461
513.002	321.61
516.376	327.498
519.751	329.859
523.126	305.478
526.501	345.571
529.876	354.134
533.25	339.009
536.625	306.931
540	301.814
543.375	221.677
546.75	149.617
550.125	47.563
553.499	12.435
556.874	55.716
560.249	60.797
563.624	69.013
566.999	36.273
570.373	37.32
573.748	125.898
577.123	210.2
580.498	288.724
583.873	432.185
587.247	646.888
590.622	841.729
593.997	1132.48
597.372	1560.47
600.747	2041.31
604.122	2719.34
607.496	3526.14
610.871	4351
614.246	4729.77
617.621	4398.67
620.996	3775.07
624.37	3213.83
627.745	2663.25
631.12	2134.05
634.495	1700.74
637.87	1298.87
641.245	1009.12
644.619	745.684
647.994	548.948
651.369	430.774
654.744	313.844
658.119	221.179
661.493	145.392
664.868	120.59
668.243	75.896
671.618	79.219
674.993	54.108
678.367	32.666
681.742	2.344
685.117	15.326
688.492	22.837
691.867	12.644
695.242	27.771
698.616	19.682
701.991	24.323
705.366	29.572
708.741	5.871
712.116	18.233
715.49	4.602
718.865	15.53
722.24	0.074
725.615	29.288
728.99	7.545
732.365	14.633
735.739	25.568
739.114	34.122
742.489	50.21
745.864	40.482
749.239	69.999
752.613	0.662
755.988	40.951
759.363	79.916
762.738	69.65
766.113	67.318
769.487	126.413
772.862	126.74
776.237	124.157
779.612	128.083
782.987	126.689
786.362	81.731
789.736	83.795
793.111	67.99
796.486	38.674
799.861	19.724
803.236	15.845
806.61	13.45
809.985	0.458
813.36	20.481
816.735	60.778
820.11	6.26
823.484	3.881
826.859	17.145
830.234	3.774
833.609	20.117
836.984	10.973
840.359	0.625
843.733	45.286
847.108	76.403
850.483	71.729
853.858	102.055
857.233	119.905
860.607	156.406
863.982	152.145
867.357	127.346
870.732	144.953
874.107	122.09
877.482	127.942
880.856	125.327
884.231	77.484
887.606	97.757
890.981	82.466
894.356	97.285
897.73	117.095
901.105	60.421
904.48	43.992
907.855	30.414
911.23	25.391
914.604	13.502
917.979	19.487
921.354	28.445
924.729	21.125
928.104	36.589
931.479	71.349
934.853	97.454
938.228	170.317
941.603	225.049
944.978	285.487
948.353	408.234
951.727	642.845
955.102	979.113
958.477	1495.2
961.852	2533.8
965.227	4481.8
968.602	7836.65
971.976	12206.7
975.351	12214.4
978.726	11011.2
982.101	14628.6
985.476	24915.9
988.85	43823.8
992.225	25156.5
995.6	6765.01
998.975	2648.53
1002.35	1298.18
1005.72	726.957
1009.1	449.13
1012.47	342.809
1015.85	295.927
1019.22	255.407
1022.6	190.431
1025.97	114.83
1029.35	8.658
1032.72	27.59
1036.1	26.018
1039.47	26.761
1042.85	26.605
1046.22	4.082
1049.6	35.879
1052.97	52.144
1056.35	123.226
1059.72	111.05
1063.1	158.314
1066.47	199.802
1069.85	244.515
1073.22	324.906
1076.6	374.161
1079.97	516.18
1083.35	668.381
1086.72	878.722
1090.1	1114.3
1093.47	1343.54
1096.84	1562.27
1100.22	1788.58
1103.59	1892.36
1106.97	1965.37
1110.34	2037.82
1113.72	2243.11
1117.09	2522.17
1120.47	2959.16
1123.84	3642.46
1127.22	4356.02
1130.59	4603.36
1133.97	4126.65
1137.34	3099.87
1140.72	1985.58
1144.09	1256
1147.47	811.324
1150.84	503.744
1154.22	330.911
1157.59	227.286
1160.97	113.062
1164.34	34.539
1167.72	2.595
1171.09	41.575
1174.46	2.565
1177.84	27.323
1181.21	41.132
1184.59	113.092
1187.96	87.684
1191.34	181.094
1194.71	178.073
1198.09	147.899
1201.46	74.716
1204.84	36.069
1208.21	30.524
1211.59	16.419
1214.96	27.64
1218.34	6.317
1221.71	22.41
1225.09	21.313
1228.46	9.799
1231.84	7.168
1235.21	24.672
1238.59	19.821
1241.96	15.651
1245.34	29.258
1248.71	22.009
1252.09	62.239
1255.46	77.768
1258.84	67.752
1262.21	64.732
1265.59	52.564
1268.96	72.157
1272.34	54.36
1275.71	42.456
1279.08	54.875
1282.46	74.687
1285.83	31.291
1289.21	41.423
1292.58	50.507
1295.96	4.17
1299.33	14.275
