Measurement: Raman, 532 nm, unoriented, Raman Data Processed
Mineral: Alum-(K)
Rruff sample: R040134
Ideal chemistry: KAl(SO_4_)_2_12H_2_O
Locality: Alunite mine, Esmeralda County, Nevada, USA
Source: University of Arizona Mineral Museum
Description: Colorless coarsely crystalline massive
Measured chemistry: (K_0.86_(NH_4_)_0.14_)_Σ=1_Al_1.00_(S_1.00_O_4_)_2_·12H_2_O ; NH_4_ not measured but estimated by stoichiometry
Raman shift (cm-1)	intensity
173.768	0
176.66	34.2825
179.553	154.497
182.446	364.884
185.339	466.218
188.231	607.276
191.124	631.406
194.017	579.321
196.909	458.493
199.802	335.371
202.695	198.666
205.587	53.9048
208.48	7.5686
211.373	4.12695
214.266	9.19116
217.158	38.2395
220.051	85.2378
222.944	91.3184
225.836	94.089
228.729	72.3934
231.622	40.9117
234.514	35.2449
237.407	43.8648
240.3	65.2074
243.192	31.2293
246.085	8.79065
248.978	8.0636
251.871	0.683899
254.763	7.65552
257.656	15.8709
260.549	1.97791
263.441	12.3781
266.334	6.71753
269.227	5.2525
272.12	22.6768
275.012	51.54
277.905	65.6503
280.798	86.9303
283.69	95.2487
286.583	119.214
289.476	140.387
292.368	163.149
295.261	196.617
298.154	233.43
301.046	266.405
303.939	341.703
306.832	385.785
309.725	414.17
312.617	442.301
315.51	466.181
318.403	490.586
321.295	511.473
324.188	477.606
327.081	460.109
329.974	454.954
332.866	428.254
335.759	372.038
338.652	335.575
341.544	250.843
344.437	209.312
347.33	198.018
350.223	141.229
353.115	121.487
356.008	85.9534
358.901	67.8658
361.793	41.6014
364.686	40.5484
367.579	20.4972
370.471	8.57245
373.364	0.584351
376.257	2.92963
379.149	0.075378
382.042	15.1976
384.935	0.898254
387.828	23.7963
390.72	42.1991
393.613	6.03467
396.506	0.251953
399.398	1.36231
402.291	10.0361
405.184	21.8971
408.077	44.2842
410.969	51.6494
413.862	70.6276
416.755	162.201
419.647	165.555
422.54	283.792
425.433	426.315
428.325	621.169
431.218	852.087
434.111	1091.78
437.003	1345.55
439.896	1512.72
442.789	1544.68
445.682	1652.98
448.574	1782.49
451.467	1844.37
454.36	1899.47
457.252	1850.6
460.145	1687.4
463.038	1458.75
465.93	1212.31
468.823	1017.18
471.716	836.972
474.609	688.672
477.501	527.154
480.394	433.377
483.287	335.671
486.179	276.099
489.072	242.82
491.965	223.615
494.858	170.891
497.75	152.966
500.643	161.976
503.536	145.248
506.428	151.32
509.321	163.417
512.214	138.906
515.106	137.529
517.999	152.278
520.892	132.315
523.784	123.016
526.677	121.569
529.57	139.521
532.463	126.868
535.355	127.521
538.248	125.153
541.141	86.064
544.033	59.6063
546.926	59.8533
549.819	3.42554
552.712	7.33765
555.604	25.004
558.497	6.58325
561.39	13.9335
564.282	34.9316
567.175	12.3966
570.068	32.9469
572.96	72.6187
575.853	131.759
578.746	184.781
581.639	212.572
584.531	312.771
587.424	388.441
590.317	469.882
593.209	610.173
596.102	776.478
598.995	974.45
601.888	1211.98
604.78	1547.39
607.673	1878.58
610.566	2167.37
613.458	2439.64
616.351	2405.98
619.244	2151.49
622.136	1895.59
625.029	1635.51
627.922	1443.23
630.814	1202.68
633.707	986.519
636.6	801.409
639.493	612.443
642.385	471.459
645.278	380.75
648.171	290.828
651.063	187.537
653.956	152.701
656.849	107.923
659.741	88.8812
662.634	38.4029
665.527	48.8242
668.42	48.0928
671.312	37.3217
674.205	19.5698
677.098	9.89685
679.99	5.70398
682.883	14.5897
685.776	2.45874
688.668	3.4718
691.561	11.2109
694.454	13.7338
697.347	3.19409
700.239	5.92615
703.132	14.6333
706.025	1.35535
708.917	3.16406
711.81	20.0483
714.703	12.4778
717.596	10.4822
720.488	25.0572
723.381	8.0553
726.274	5.09094
729.166	15.0458
732.059	17.2714
734.952	34.4248
737.844	18.5314
740.737	0.371704
743.63	48.3904
746.523	45.8182
749.415	15.3429
752.308	42.2468
755.201	45.2721
758.093	66.5055
760.986	73.3063
763.879	69.8971
766.771	83.9796
769.664	62.8075
772.557	49.0317
775.45	79.0033
778.342	76.8629
781.235	63.1272
784.128	66.4762
787.02	70.7434
789.913	61.0023
792.806	46.7656
795.698	34.547
798.591	56.934
801.484	19.3398
804.377	17.0033
807.269	6.21094
810.162	1.44446
813.055	15.0127
815.947	4.31091
818.84	16.5618
821.733	10.1564
824.625	8.29895
827.518	6.77539
830.411	5.81628
833.304	2.53857
836.196	5.84241
839.089	3.68201
841.982	19.9865
844.874	21.9019
847.767	27.0375
850.66	16.9817
853.553	34.8474
856.445	63.3514
859.338	52.6439
862.231	39.0807
865.123	56.6715
868.016	77.1128
870.909	45.2612
873.801	55.4424
876.694	50.3364
879.587	65.4004
882.48	67.5256
885.372	61.9097
888.265	48.593
891.158	27.0966
894.05	29.207
896.943	14.8058
899.836	29.9217
902.729	10.4753
905.621	12.5406
908.514	3.6593
911.407	48.9266
914.299	20.7256
917.192	18.9324
920.085	0.891235
922.977	19.5505
925.87	20.4669
928.763	1.64587
931.655	16.2433
934.548	55.971
937.441	78.2459
940.334	58.4359
943.226	94.6288
946.119	158.899
949.012	217.639
951.904	329.255
954.797	409.651
957.69	602.826
960.582	884.866
963.475	1496.52
966.368	2482.69
969.261	3920.93
972.153	5621.29
975.046	5845
977.939	5115.77
980.831	5991.6
983.724	8949.04
986.617	14607.6
989.51	21134.8
992.402	12212.8
995.295	4092.15
998.188	1597.09
1001.08	838.928
1003.97	466.306
1006.87	259.223
1009.76	190.373
1012.65	84.4497
1015.54	50.0477
1018.44	21.2484
1021.33	9.35107
1024.22	12.7465
1027.12	25.0916
1030.01	7.79285
1032.9	24.5813
1035.79	18.4789
1038.68	5.21545
1041.58	3.97949
1044.47	3.71033
1047.36	10.6433
1050.26	16.9159
1053.15	34.3105
1056.04	23.3823
1058.93	57.3982
1061.83	84.637
1064.72	130.351
1067.61	131.73
1070.51	174.264
1073.4	175.667
1076.29	235.852
1079.18	267.863
1082.08	345.341
1084.97	445.337
1087.86	573.345
1090.75	701.88
1093.65	777.392
1096.54	881.623
1099.43	957.268
1102.33	1009.26
1105.22	1022.5
1108.11	1047.83
1111	1054.51
1113.9	1129.43
1116.79	1270.26
1119.68	1455.16
1122.57	1740.22
1125.47	2030.74
1128.36	2243.29
1131.25	2272.88
1134.14	2093.56
1137.04	1603.28
1139.93	1159.69
1142.82	793.187
1145.71	529.117
1148.61	361.017
1151.5	255.52
1154.39	135.26
1157.29	146.595
1160.18	85.0111
1163.07	36.2257
1165.96	13.4415
1168.86	8.29565
1171.75	6.93628
1174.64	9.4458
1177.54	18.5951
1180.43	46.2632
1183.32	32.5055
1186.21	66.3368
1189.11	57.8081
1192	79.1006
1194.89	79.7991
1197.78	86.2036
1200.68	71.819
1203.57	47.4351
1206.46	55.0747
1209.36	26.9552
1212.25	11.0523
1215.14	8.58118
1218.03	17.0372
1220.93	26.7754
1223.82	2.63403
1226.71	13.5252
1229.6	8.52759
1232.5	11.5137
1235.39	2.57812
1238.28	8.11267
1241.17	10.3567
1244.07	10.2913
1246.96	7.8208
1249.85	13.7875
1252.74	17.6091
1255.64	49.9274
1258.53	24.655
1261.42	51.4061
1264.32	45.967
1267.21	36.9775
1270.1	39.827
1272.99	41.5978
1275.89	31.2218
1278.78	56.9213
1281.67	27.8412
1284.57	27.4175
1287.46	21.3492
1290.35	41.6313
1293.24	28.9032
1296.14	21.5519
1299.03	39.1001
1301.92	33.9673
1304.81	23.9862
1307.71	37.0136
1310.6	0.349976
1313.49	26.9304
