Measurement: Raman, 780 nm, unoriented, Raman Data Processed
Mineral: Alum-(K)
Rruff sample: R060014
Ideal chemistry: KAl(SO_4_)_2_12H_2_O
Locality: Tolfa, Italy
Source: American Museum of Natural History
Description: Colorless fragment
Raman shift (cm-1)	intensity
104.152	0
107.527	0.31234
110.902	0.406601
114.277	3.3671
117.652	5.01125
121.026	5.57174
124.401	9.03931
127.776	13.1068
131.151	18.5311
134.526	24.7291
137.901	30.8244
141.275	35.3647
144.65	40.6326
148.025	44.9464
151.4	50.7427
154.775	51.464
158.149	47.1975
161.524	46.9455
164.899	45.5014
168.274	43.5302
171.649	43.4202
175.024	45.1373
178.398	52.9769
181.773	59.2651
185.148	66.3453
188.523	70.7846
191.898	65.8628
195.272	55.4774
198.647	42.0106
202.022	27.7435
205.397	15.921
208.772	8.4379
212.147	3.83624
215.521	2.37455
218.896	2.36349
222.271	2.85424
225.646	2.10397
229.021	2.55578
232.395	2.78972
235.77	3.02949
239.145	3.84366
242.52	2.97209
245.895	2.04937
249.269	0.370359
252.644	0.426788
256.019	0.623241
259.394	1.22609
262.769	0.66748
266.144	0.052341
269.518	0.38656
272.893	0.759411
276.268	1.00172
279.643	1.77186
283.018	2.9654
286.392	4.26375
289.767	5.4535
293.142	7.51887
296.517	9.33315
299.892	11.6236
303.267	13.5414
306.641	16.8525
310.016	18.426
313.391	20.4578
316.766	21.5929
320.141	20.8623
323.515	21.1983
326.89	20.6882
330.265	19.2826
333.64	16.4851
337.015	14.0603
340.39	13.0752
343.764	9.81605
347.139	8.03248
350.514	5.76063
353.889	4.50994
357.264	3.77808
360.638	2.12317
364.013	1.44306
367.388	0.990154
370.763	0.902466
374.138	0.109688
377.512	0.066319
380.887	0.083229
384.262	0.508129
387.637	0.318958
391.012	0.976845
394.387	0.599924
397.761	0.346663
401.136	0.238302
404.511	0.580004
407.886	1.19777
411.261	2.31778
414.635	4.50388
418.01	6.95387
421.385	11.0661
424.76	17.2401
428.135	24.946
431.51	34.193
434.884	45.9911
438.259	55.3441
441.634	57.9539
445.009	60.282
448.384	60.556
451.759	65.5083
455.133	67.221
458.508	64.2252
461.883	56.4075
465.258	46.2975
468.633	37.2784
472.007	28.7251
475.382	22.8461
478.757	17.856
482.132	14.0117
485.507	12.0133
488.882	10.0712
492.256	8.70209
495.631	8.4734
499.006	6.93371
502.381	7.40753
505.756	8.15034
509.13	7.95852
512.505	8.70725
515.88	8.39823
519.255	8.61281
522.63	7.72375
526.005	8.39361
529.379	7.73297
532.754	8.36842
536.129	9.00069
539.504	13.3399
542.879	6.62647
546.253	4.08398
549.628	2.02009
553.003	0.740334
556.378	0.224836
559.753	1.13845
563.127	0.378922
566.502	1.00512
569.877	0.193254
573.252	0.644184
576.627	2.17416
580.001	3.84
583.376	6.50878
586.751	9.47373
590.126	14.8185
593.501	20.3916
596.875	27.7376
600.25	36.2844
603.625	47.1573
607	59.8062
610.375	74.1186
613.75	85.1646
617.125	80.0585
620.499	69.8303
623.874	55.6074
627.249	47.8649
630.624	38.0122
633.999	30.6056
637.373	23.9119
640.748	17.5969
644.123	13.4922
647.498	10.0074
650.873	7.46839
654.247	5.48754
657.622	4.51762
660.997	3.95168
664.372	2.18924
667.747	1.74696
671.121	1.25347
674.496	0.65071
677.871	0.76174
681.246	0.331869
684.621	0.184348
687.996	0.126238
691.37	0.098406
694.745	0.205354
698.12	0.083905
701.495	0.474444
704.87	0.051872
708.245	0.131668
711.619	0.021381
714.994	0.035687
718.369	0.288085
721.744	0.135283
725.119	0.563389
728.493	0.13826
731.868	0.592147
735.243	0.271621
738.618	0.653956
741.993	0.551162
745.367	0.572952
748.742	0.524886
752.117	0.829434
755.492	0.833755
758.867	1.23574
762.242	1.28309
765.616	1.50414
768.991	1.60795
772.366	1.63443
775.741	1.2994
779.116	1.9831
782.49	1.30778
785.865	1.44047
789.24	1.49216
792.615	1.05849
795.99	0.67207
799.365	0.629277
802.739	0.828176
806.114	0.878871
809.489	0.629064
812.864	1.09303
816.239	0.087077
819.614	0.490753
822.988	0.092231
826.363	0.358116
829.738	0.131563
833.113	0.2158
836.487	0.830245
839.862	0.33961
843.237	0.578712
846.612	0.988667
849.987	1.12629
853.362	1.13715
856.736	0.769857
860.111	1.60248
863.486	1.58811
866.861	1.76789
870.236	1.69074
873.611	1.88712
876.985	1.71334
880.36	1.82072
883.735	1.3417
887.11	1.35303
890.485	1.38983
893.859	0.81714
897.234	0.814661
900.609	0.846919
903.984	0.429168
907.359	0.278595
910.734	0.183815
914.108	0.449667
917.483	0.014578
920.858	0.504929
924.233	0.362389
927.607	0.610699
930.982	0.910311
934.357	1.76463
937.732	2.67377
941.107	4.05679
944.482	6.13221
947.856	9.35046
951.231	13.5804
954.606	20.9043
957.981	33.4839
961.356	54.4452
964.731	83.6717
968.105	135.931
971.48	226.629
974.855	290.283
978.23	269.918
981.605	276.932
984.979	399.414
988.354	747.784
991.729	772.687
995.104	233.109
998.479	76.2898
1001.85	35.2486
1005.23	19.3429
1008.6	11.1452
1011.98	6.75648
1015.35	3.83204
1018.73	2.62074
1022.1	1.54204
1025.48	0.763079
1028.85	0.394286
1032.23	0.040586
1035.6	0.358928
1038.98	0.123974
1042.35	0.727799
1045.73	0.050933
1049.1	0.11789
1052.48	0.546822
1055.85	0.368299
1059.22	0.907342
1062.6	1.74546
1065.97	1.89592
1069.35	2.51268
1072.72	3.00585
1076.1	4.19406
1079.47	5.60227
1082.85	6.31095
1086.22	8.94509
1089.6	11.1067
1092.97	13.8568
1096.35	16.4087
1099.72	19.3572
1103.1	20.8463
1106.47	22.8418
1109.85	24.0183
1113.22	27.2053
1116.6	30.9446
1119.97	37.489
1123.35	45.0992
1126.72	53.6567
1130.1	57.8162
1133.47	56.7021
1136.85	44.3672
1140.22	30.3059
1143.6	19.6236
1146.97	12.8185
1150.35	7.32496
1153.72	4.85318
1157.1	2.92671
1160.47	1.75265
1163.85	0.930103
1167.22	0.245284
1170.59	0.083555
1173.97	0.366989
1177.34	0.312939
1180.72	0.881262
1184.09	0.402165
1187.47	1.58927
1190.84	1.98602
1194.22	1.91525
1197.59	2.09388
1200.97	1.83715
1204.34	1.04942
1207.72	0.304742
1211.09	0.267641
1214.47	0.222561
1217.84	0.102385
1221.22	0.04364
1224.59	0.032747
1227.97	0.077927
1231.34	0.017484
1234.72	0.208849
1238.09	0.343366
1241.46	0.391889
1244.84	0.393346
1248.21	1.10301
1251.59	1.19987
1254.96	0.683104
1258.34	0.472736
1261.71	0.555175
1265.09	0.849017
1268.46	0.378741
1271.84	0.292033
1275.21	0.743607
1278.59	0.393078
1281.96	0.051601
