Measurement: Raman, 532 nm, unoriented, Raman Data Processed
Mineral: Alumotungstite
Rruff sample: R061044
Ideal chemistry: (H_2_O,Ca)_x_(W,Al)_2_(O,OH)_6_nH_2_O
Locality: Hemerdon mine, Sparkwell, Plympton, Devon, England
Source: Michael Scott
Description: Pale orange crust on ferberite with quartz
Raman shift (cm-1)	intensity
132.129	0
135.021	28.1201
137.914	137.842
140.807	1152.53
143.7	2592
146.592	4126.15
149.485	4793.7
152.378	4989.4
155.27	4569.31
158.163	4132.42
161.056	3655.36
163.948	2926.47
166.841	2259.16
169.734	1435.44
172.626	925.555
175.519	565.225
178.412	449.947
181.305	294.139
184.197	252.05
187.09	179.573
189.983	121.115
192.875	46.8283
195.768	30.5069
198.661	-15.4691
201.554	17.7168
204.446	50.8453
207.339	54.7093
210.232	103.255
213.124	183.355
216.017	216.256
218.91	308.962
221.802	417.183
224.695	643.945
227.588	820.256
230.481	964.812
233.373	1292.05
236.266	1495.54
239.159	1702.72
242.051	1955.01
244.944	2285.19
247.837	2611.02
250.729	2657.91
253.622	2851.05
256.515	3175.05
259.407	3810.94
262.3	4432.76
265.193	4897.76
268.086	5491.45
270.978	6039.2
273.871	6659.97
276.764	7443.76
279.656	8180.21
282.549	8739.98
285.442	8982.93
288.334	9266.1
291.227	9255.28
294.12	8870.12
297.012	8230.56
299.905	7622.05
302.798	6784.16
305.691	5962.09
308.583	4962.3
311.476	4113.7
314.369	3405.75
317.261	2762.39
320.154	2137.7
323.047	1758.76
325.94	1619.22
328.832	1130.04
331.725	818.771
334.618	586.85
337.51	474.581
340.403	260.933
343.296	164.048
346.188	86.3288
349.081	73.3921
351.974	17.9874
354.866	-14.5815
357.759	-14.8704
360.652	5.83104
363.545	3.98581
366.437	-14.1281
369.33	40.4998
372.223	96.5659
375.115	127.461
378.008	171.749
380.901	261.122
383.793	344.578
386.686	451.665
389.579	483.527
392.472	489.521
395.364	569.444
398.257	706.312
401.15	776.627
404.042	823.724
406.935	859.289
409.828	896.589
412.721	907.734
415.613	866.527
418.506	794.985
421.399	699.846
424.291	678.87
427.184	569.63
430.077	523.535
432.969	521.951
435.862	430.412
438.755	409.582
441.647	390.918
444.54	347.789
447.433	336.416
450.326	283.875
453.218	237.291
456.111	288.848
459.004	193.663
461.896	166.229
464.789	243.139
467.682	205.536
470.575	159.782
473.467	175.789
476.36	130.26
479.253	138.921
482.145	155.652
485.038	194.746
487.931	158.519
490.823	142.648
493.716	84.1728
496.609	118.411
499.501	94.5474
502.394	135.576
505.287	76.8979
508.18	66.2905
511.072	82.0742
513.965	95.9155
516.858	115.601
519.75	77.5615
522.643	69.3574
525.536	23.9619
528.428	3.33252
531.321	58.894
534.214	50.9653
537.106	3.72022
539.999	18.0151
542.892	32.6435
545.785	1.01953
548.677	24.9185
551.57	5.61084
554.463	0.158203
557.355	7.91064
560.248	31.9106
563.141	24.1611
566.034	102.646
568.926	49.3301
571.819	20.7505
574.712	52.5029
577.604	36.3687
580.497	84.5088
583.39	97.2437
586.282	101.856
589.175	111.396
592.068	100.348
594.961	153.377
597.853	152.642
600.746	222.597
603.639	212.441
606.531	253.587
609.424	292.415
612.317	271.033
615.209	281.049
618.102	249.852
620.995	198.169
623.888	216.208
626.78	202.296
629.673	154.405
632.566	161.331
635.458	150.84
638.351	65.3052
641.244	42.352
644.136	82.2798
647.029	3.96973
649.922	45.7974
652.814	2.99805
655.707	50.8174
658.6	10.9756
661.493	35.189
664.385	26.7192
667.278	46.7192
670.171	162.037
673.063	226.343
675.956	179.655
678.849	317.014
681.741	472.528
684.634	661.36
687.527	745.624
690.42	857.343
693.312	913.99
696.205	935.773
699.098	916.669
701.99	964.361
704.883	957.248
707.776	881.782
710.668	789.838
713.561	751.713
716.454	627.866
719.347	586.028
722.239	390.987
725.132	309.275
728.025	109.345
730.917	56.5183
733.81	14.8166
736.703	-18.2712
739.596	-23.6706
742.488	29.446
745.381	33.8027
748.274	121.429
751.166	271.562
754.059	545.902
756.952	878.029
759.844	1177.28
762.737	1636.48
765.63	2228.25
768.522	2984.81
771.415	3683.52
774.308	4460.39
777.201	5346.45
780.093	6312.25
782.986	7274.5
785.879	8190.82
788.771	9063.47
791.664	9720.27
794.557	10131.5
797.449	10259.5
800.342	10395.2
803.235	10241.6
806.128	10119.9
809.02	9617.92
811.913	9290.37
814.806	8571.85
817.698	7985.96
820.591	7216.6
823.484	6442.85
826.376	5706.62
829.269	4978.49
832.162	4278.39
835.054	3517.54
837.947	2987.26
840.84	2445.4
843.733	1908.16
846.625	1494.27
849.518	1190.56
852.411	884.09
855.303	552.53
858.196	491.134
861.089	393.741
863.981	276.448
866.874	294.147
869.767	224.916
872.66	308.526
875.552	304.807
878.445	274.934
881.338	223.723
884.23	207.944
887.123	202.645
890.016	109.008
892.908	21.0171
895.801	61.4644
898.694	38.2251
901.587	18.0308
904.479	46.1924
907.372	105.814
910.265	75.417
913.157	17.4365
916.05	22.7939
918.943	8.93604
921.835	17.1172
924.728	81.5703
927.621	76.7183
930.514	160.991
933.406	127.949
936.299	150.621
939.192	178.679
942.084	251.779
944.977	207.023
947.87	207.539
950.763	231.14
953.655	226.597
956.548	243.61
959.441	242.999
962.333	266.243
965.226	170.887
968.119	157.759
971.011	123.155
973.904	147.846
976.797	110.042
979.689	139.847
982.582	70.2874
985.475	129.925
988.368	131.721
991.26	84.7124
994.153	134.209
997.046	168.703
999.938	206.748
1002.83	160.326
1005.72	139.971
1008.62	185.166
1011.51	196.583
1014.4	200.478
1017.29	149.276
1020.19	120.01
1023.08	98.4724
1025.97	97.2808
1028.87	110.564
1031.76	85.022
1034.65	58.096
1037.54	99.4695
1040.44	58.894
1043.33	36.4834
1046.22	112.741
1049.11	28.4453
1052.01	63.272
1054.9	92.9377
1057.79	101.005
1060.68	63.6572
1063.58	22.7466
1066.47	13.3706
1069.36	18.0432
1072.26	50.5132
1075.15	30.6709
1078.04	1.79981
1080.93	17.9043
1083.83	30.6201
1086.72	10.8684
1089.61	2.16919
1092.51	36.5298
1095.4	26.189
1098.29	19.696
1101.18	49.1602
1104.08	6.16113
1106.97	19.1897
1109.86	0.485596
1112.75	35.6467
1115.65	8.9126
1118.54	4.85254
1121.43	21.9416
1124.32	44.3811
1127.22	22.5098
1130.11	61.5576
1133	28.218
1135.89	30.1328
1138.79	15.1189
1141.68	16.4067
1144.57	20.0391
1147.47	36.8826
1150.36	10.3438
1153.25	33.5056
1156.14	46.7835
1159.04	20.0266
1161.93	17.439
1164.82	10.8594
1167.71	24.9768
1170.61	12.2781
1173.5	43.5493
1176.39	30.3572
1179.29	45.8491
1182.18	22.1057
1185.07	13.1804
1187.96	2.36646
1190.86	9.7998
1193.75	30.4707
1196.64	32.8938
1199.54	2.06079
1202.43	2.8457
1205.32	44.3569
1208.21	47.7224
1211.11	32.551
1214	32.3562
1216.89	38.6428
1219.78	11.971
1222.68	7.32642
1225.57	27.1562
1228.46	52.0537
1231.35	41.3857
1234.25	20.2466
1237.14	31.054
1240.03	18.3984
1242.92	35.7522
1245.82	48.0042
1248.71	29.3975
1251.6	40.1804
1254.5	31.0818
1257.39	83.2734
1260.28	29.0303
1263.17	3.97315
1266.07	31.426
1268.96	51.0068
1271.85	65.5942
1274.74	32.1484
1277.64	33.5994
1280.53	36.4551
1283.42	69.967
1286.32	6.98828
