Measurement: Raman, 780 nm, unoriented, Raman Data Processed
Mineral: Alum-(K)
Rruff sample: R060528
Ideal chemistry: KAl(SO_4_)_2_12H_2_O
Locality: El Desierto mine fumaroles, Potos√≠, Bolivia
Source: Michael Scott
Description: Colorless thin tabular crystals associated with yellow sulfur and colorless tamarugite
Raman shift (cm-1)	intensity
90.5957	0
93.9705	81.4909
97.3453	8.85431
100.72	20.5967
104.095	61.9517
107.47	113.633
110.845	217.825
114.219	248.741
117.594	199.205
120.969	130.546
124.344	77.8493
127.719	25.5253
131.094	6.78192
134.468	6.30975
137.843	4.71335
141.218	3.23703
144.593	10.9343
147.968	28.0453
151.342	53.3694
154.717	76.4338
158.092	90.8338
161.467	97.4422
164.842	116.067
168.216	133.783
171.591	124.111
174.966	93.5772
178.341	77.0636
181.716	65.9101
185.09	56.4753
188.465	46.6441
191.84	34.5295
195.215	20.6096
198.59	12.1471
201.965	7.51015
205.339	5.88586
208.714	4.44176
212.089	6.83791
215.464	9.52165
218.839	9.96869
222.214	10.0943
225.588	8.4042
228.963	11.8281
232.338	13.206
235.713	13.3281
239.088	11.8719
242.462	13.4473
245.837	14.708
249.212	16.1914
252.587	13.4712
255.962	7.80798
259.336	2.51415
262.711	0.664902
266.086	1.25413
269.461	0.924591
272.836	0.124039
276.211	6.84831
279.585	14.5683
282.96	26.1387
286.335	39.6352
289.71	54.5608
293.085	83.9409
296.459	108.491
299.834	132.457
303.209	135.117
306.584	142.842
309.959	180.939
313.334	227.812
316.708	235.324
320.083	174.867
323.458	121.314
326.833	86.6279
330.207	57.4706
333.582	44.0873
336.957	51.5987
340.332	69.6747
343.707	73.487
347.082	57.5116
350.456	38.6241
353.831	23.0648
357.206	14.0432
360.581	6.79981
363.956	2.1627
367.33	0.800362
370.705	2.71878
374.08	4.89612
377.455	3.84625
380.83	4.0919
384.205	2.14933
387.579	1.9306
390.954	0.915527
394.329	3.75918
397.704	11.5565
401.079	19.3389
404.453	33.149
407.828	50.1148
411.203	66.5642
414.578	77.991
417.953	80.675
421.327	76.6426
424.702	79.0941
428.077	86.1874
431.452	102.151
434.827	130.322
438.202	173.533
441.576	233.82
444.951	295.796
448.326	366.892
451.701	468.1
455.076	599.058
458.45	687.575
461.825	651.672
465.2	517.702
468.575	378.374
471.95	289.692
475.325	240.401
478.699	222.367
482.074	209.841
485.449	175.957
488.824	128.782
492.199	84.6391
495.573	55.378
498.948	38.4822
502.323	35.0441
505.698	33.4823
509.073	36.7561
512.447	46.304
515.822	58.5473
519.197	73.0486
522.572	84.9442
525.947	85.2886
529.322	76.0369
532.696	56.4956
536.071	33.7208
539.446	16.212
542.821	4.6876
546.196	2.60054
549.57	6.69522
552.945	7.12923
556.32	6.29459
559.695	3.25148
563.07	0.618614
566.444	5.1216
569.819	11.0994
573.194	19.3807
576.569	31.3574
579.944	48.5148
583.319	70.9768
586.693	97.6394
590.068	129.749
593.443	167.996
596.818	215.981
600.193	272.696
603.567	294.876
606.942	274.728
610.317	246.329
613.692	222.823
617.067	215.238
620.442	223.497
623.816	236.141
627.191	232.354
630.566	218.934
633.941	210.513
637.316	179.817
640.69	126.001
644.065	84.832
647.44	66.5663
650.815	61.8742
654.19	64.9396
657.564	65.9207
660.939	56.8268
664.314	44.3115
667.689	33.3505
671.064	24.8941
674.439	15.8403
677.813	11.2489
681.188	7.10911
684.563	4.86164
687.938	1.97192
691.313	0.370987
694.688	0.310699
698.062	1.0848
701.437	0.944077
704.812	1.67299
708.187	0.778152
711.562	1.09097
714.936	0.014038
718.311	0.788025
721.686	1.00014
725.061	1.90811
728.436	2.06417
731.81	4.11006
735.185	5.39923
738.56	6.86616
741.935	6.73277
745.31	8.70226
748.684	10.2991
752.059	12.7029
755.434	13.1775
758.809	14.2839
762.184	13.6863
765.559	12.795
768.933	11.7522
772.308	10.9929
775.683	10.3352
779.058	8.31251
782.433	7.52394
785.808	5.74525
789.182	5.02556
792.557	4.38133
795.932	3.69328
799.307	2.6886
802.682	2.50817
806.056	2.16779
809.431	1.0481
812.806	0.546547
816.181	0.128777
819.556	0.80806
822.93	0.674835
826.305	0.561401
829.68	1.00585
833.055	2.08471
836.43	2.43857
839.804	3.89779
843.179	5.23917
846.554	5.89127
849.929	7.29752
853.304	7.52628
856.679	7.52438
860.053	7.34639
863.428	7.10489
866.803	6.79807
870.178	5.61139
873.553	5.05359
876.927	4.15239
880.302	2.86913
883.677	0.696037
887.052	0.984642
890.427	0.404724
893.802	1.13319
897.176	2.05811
900.551	1.60442
903.926	0.854012
907.301	0.360268
910.676	2.71716
914.05	4.95786
917.425	7.01103
920.8	11.0634
924.175	17.1084
927.55	23.9361
930.924	34.4601
934.299	49.9087
937.674	64.7211
941.049	83.2621
944.424	100.131
947.799	115.622
951.173	126.311
954.548	131.179
957.923	134.761
961.298	141.428
964.673	153.614
968.047	182.292
971.422	239.31
974.797	342.088
978.172	550.024
981.547	944.033
984.922	1616.85
988.296	3124.56
991.671	5465.89
995.046	4042.91
998.421	1341.68
1001.8	494.679
1005.17	231.091
1008.54	122.152
1011.92	65.1265
1015.29	35.9312
1018.67	16.423
1022.04	5.65098
1025.42	1.33109
1028.79	4.76309
1032.17	5.3158
1035.54	3.83438
1038.92	0.472343
1042.29	6.44565
1045.67	16.6614
1049.04	34.4871
1052.42	61.0042
1055.79	101.532
1059.17	153.793
1062.54	209.392
1065.92	247.657
1069.29	235.559
1072.67	186.959
1076.04	139.855
1079.42	106.965
1082.79	91.4432
1086.17	91.4495
1089.54	96.5603
1092.92	102.34
1096.29	102.209
1099.66	86.8575
1103.04	66.3407
1106.41	60.0403
1109.79	57.8951
1113.16	45.0531
1116.54	24.4278
1119.91	12.5661
1123.29	8.61871
1126.66	17.2053
1130.04	29.1457
1133.41	48.4753
1136.79	72.1255
1140.16	90.0019
1143.54	96.9053
1146.91	99.1115
1150.29	96.0341
1153.66	88.1138
1157.04	71.2738
1160.41	56.3521
1163.79	43.2732
1167.16	32.1596
1170.54	19.0113
1173.91	8.61015
1177.29	2.79191
1180.66	0.06427
1184.04	1.69457
1187.41	2.24435
1190.79	0.274334
1194.16	2.24162
1197.54	0.709732
1200.91	0.075573
1204.28	0.811836
1207.66	1.53464
1211.03	2.02181
1214.41	2.04243
1217.78	2.63879
1221.16	2.70932
1224.53	2.95693
1227.91	2.96509
1231.28	5.59709
1234.66	6.09501
1238.03	5.53757
1241.41	3.88502
1244.78	2.73081
1248.16	3.46094
1251.53	2.77157
1254.91	1.98333
1258.28	1.59721
1261.66	2.63542
1265.03	3.02854
1268.41	4.07365
1271.78	1.0389
1275.16	0.393543
1278.53	0.787876
1281.9	0.012951
