Measurement: Raman, 532 nm, unoriented, Raman Data Processed
Mineral: Alumoklyuchevskite
Rruff sample: R070041
Ideal chemistry: K_3_Cu^2+^_3_AlO_2_(SO_4_)_4_
Locality: main fracture, N breakthrough, Tolbachik Volcano, Kamchatka Peninsula, Russia
Source: Michael Scott
Description: Green blebs to prismatic or needle-like crystals associated with vergasovaite, co-type material
Raman shift (cm-1)	intensity
162.3	0
165.193	106.419
168.086	101.619
170.979	116.255
173.871	211.128
176.764	309.988
179.657	348.476
182.549	294.217
185.442	412.948
188.335	458.062
191.227	491.494
194.12	707.251
197.013	969.218
199.905	1270.57
202.798	1733.1
205.691	2012.85
208.584	2501.79
211.476	2800.75
214.369	3224.24
217.262	3353.99
220.154	3207.25
223.047	2890.78
225.94	2375.99
228.833	1855.79
231.725	1344.13
234.618	969.135
237.511	679.426
240.403	466.798
243.296	318.513
246.189	244.182
249.081	147.376
251.974	127.883
254.867	88.6626
257.76	103.87
260.652	17.7964
263.545	59.7627
266.438	17.0046
269.33	11.426
272.223	10.0691
275.116	50.8438
278.008	46.4961
280.901	8.26514
283.794	208.427
286.687	76.637
289.579	88.8855
292.472	49.6404
295.365	97.3892
298.257	96.9771
301.15	48.7224
304.043	134.567
306.935	66.7905
309.828	116.119
312.721	55.6543
315.613	175.062
318.506	83.0039
321.399	7.5769
324.292	164.884
327.184	93.8152
330.077	28.3342
332.97	37.98
335.862	25.4951
338.755	29.8738
341.648	17.0747
344.541	24.5544
347.433	36.9761
350.326	6.99829
353.219	11.3799
356.111	43.0007
359.004	4.08521
361.897	80.3438
364.789	19.7559
367.682	134.019
370.575	65.6709
373.467	128.093
376.36	36.9558
379.253	113.399
382.146	151.108
385.038	215.376
387.931	240.992
390.824	383.732
393.716	511.969
396.609	598.971
399.502	745.572
402.394	887.008
405.287	950.904
408.18	1059.8
411.072	984.519
413.965	857.696
416.858	725.267
419.751	573.814
422.643	422.498
425.536	261.185
428.429	200.137
431.321	169.818
434.214	150.169
437.107	110.737
440	118.642
442.892	131.102
445.785	90.8054
448.678	139.74
451.57	199.1
454.463	233.031
457.356	246.092
460.248	269.819
463.141	301.805
466.034	338.652
468.926	367.208
471.819	331.103
474.712	360.316
477.605	357.007
480.497	281.881
483.39	194.571
486.283	202.275
489.175	77.3735
492.068	113.66
494.961	30.0365
497.853	76.3519
500.746	150.097
503.639	133.951
506.532	86.4014
509.424	115.782
512.317	63.6047
515.21	28.3648
518.102	35.1318
520.995	2.62439
523.888	2.69885
526.78	25.8904
529.673	20.2753
532.566	7.21179
535.459	13.2275
538.351	21.1234
541.244	21.7115
544.137	6.53442
547.029	5.31689
549.922	13.3254
552.815	8.6781
555.707	4.72742
558.6	83.7543
561.493	41.2306
564.386	70.8769
567.278	20.4653
570.171	17.7601
573.064	136.741
575.956	119.805
578.849	134.268
581.742	193.253
584.634	183.305
587.527	177.413
590.42	280.071
593.312	185.536
596.205	209.824
599.098	265.454
601.991	179.418
604.883	145.178
607.776	87.2925
610.669	12.5131
613.561	53.9124
616.454	37.828
619.347	26.5742
622.24	31.9858
625.132	74.7308
628.025	81.9414
630.918	99.9995
633.81	128.476
636.703	160.46
639.596	186.211
642.488	260.901
645.381	306.546
648.274	269.06
651.167	125.78
654.059	174.771
656.952	107.266
659.845	49.8922
662.737	77.3381
665.63	93.928
668.523	99.4608
671.415	34.0826
674.308	59.3918
677.201	57.3706
680.093	82.078
682.986	22.4794
685.879	3.87036
688.771	26.0704
691.664	24.7134
694.557	8.44482
697.45	38.4895
700.342	73.8539
703.235	98.1585
706.128	117.616
709.02	81.0486
711.913	110.769
714.806	99.8447
717.698	91.7338
720.591	85.6736
723.484	66.0436
726.377	152.855
729.269	110.295
732.162	77.7118
735.055	117.647
737.947	81.2446
740.84	65.2884
743.733	91.4589
746.625	22.3595
749.518	51.417
752.411	26.7994
755.304	11.9359
758.196	42.706
761.089	32.0355
763.982	26.9498
766.874	43.5482
769.767	5.0874
772.66	28.5809
775.553	19.5902
778.445	22.7981
781.338	6.26819
784.231	10.1572
787.123	79.3962
790.016	2.8512
792.909	1.9021
795.801	62.4949
798.694	60.8165
801.587	61.6672
804.48	46.2133
807.372	56.447
810.265	27.1299
813.158	68.3176
816.05	58.0659
818.943	54.3091
821.836	80.4263
824.728	72.1812
827.621	123.224
830.514	120.73
833.407	78.5541
836.299	97.509
839.192	25.3657
842.085	62.6749
844.977	142.944
847.87	112.872
850.763	84.096
853.655	60.6339
856.548	54.7867
859.441	97.2192
862.333	141.878
865.226	87.3203
868.119	103.064
871.011	118.979
873.904	131.293
876.797	54.2921
879.69	90.835
882.582	142.677
885.475	50.5609
888.368	164.154
891.26	148.541
894.153	51.7446
897.046	67.9602
899.938	108.799
902.831	84.8612
905.724	70.8347
908.617	81.1272
911.509	28.6088
914.402	9.88977
917.295	92.8114
920.187	17.1882
923.08	39.0945
925.973	60.0155
928.865	3.07104
931.758	38.4076
934.651	5.5094
937.544	19.7478
940.436	28.8835
943.329	31.3209
946.222	10.2031
949.114	107.857
952.007	153.307
954.9	183.046
957.793	360.168
960.685	385.766
963.578	477.734
966.471	493.848
969.363	532.322
972.256	604.228
975.149	671.245
978.041	710.25
980.934	751.149
983.827	1012.86
986.72	931.15
989.612	918.089
992.505	813.465
995.398	646.524
998.29	644.572
1001.18	658.426
1004.08	665.404
1006.97	580.821
1009.86	581.668
1012.75	569.434
1015.65	456.483
1018.54	463.366
1021.43	308.884
1024.33	287.124
1027.22	212.596
1030.11	261.173
1033	274.719
1035.89	265.79
1038.79	309.645
1041.68	425.796
1044.57	448.838
1047.47	416.988
1050.36	427.023
1053.25	474.451
1056.14	556.808
1059.04	607.786
1061.93	728.169
1064.82	798.082
1067.71	802.513
1070.61	623.891
1073.5	496.063
1076.39	383.65
1079.29	184.741
1082.18	163.576
1085.07	36.6986
1087.96	14.635
1090.86	45.4795
1093.75	90.6726
1096.64	0.013428
1099.54	27.4805
1102.43	28.1145
1105.32	8.80884
1108.21	32.3317
1111.11	95.2917
1114	84.2948
1116.89	25.71
1119.78	44.8187
1122.68	25.5238
1125.57	56.5523
1128.46	78.1741
1131.35	56.0966
1134.25	63.6135
1137.14	74.915
1140.03	135.249
1142.92	115.265
1145.82	163.276
1148.71	73.811
1151.6	83.6477
1154.5	73.4206
1157.39	53.5743
1160.28	22.9988
1163.17	37.8998
1166.07	13.5455
1168.96	17.6538
1171.85	12.7925
1174.74	3.9198
1177.64	19.397
1180.53	19.535
1183.42	15.6797
1186.32	52.1459
1189.21	55.1362
1192.1	55.8051
1194.99	93.0021
1197.89	38.5726
1200.78	114.766
1203.67	102.439
1206.57	104.24
1209.46	131.981
1212.35	198.188
1215.24	199.89
1218.13	245.387
1221.03	241.939
1223.92	289.785
1226.81	261.779
1229.71	288.556
1232.6	312.42
1235.49	247.836
1238.38	287.23
1241.28	322.821
1244.17	317.846
1247.06	252.268
1249.95	222.869
1252.85	206.675
1255.74	220.591
1258.63	81.4974
1261.53	129.508
1264.42	193.761
1267.31	325.647
1270.2	359.839
1273.1	491.628
1275.99	523.399
1278.88	532.589
1281.78	352.965
1284.67	184.249
1287.56	116.237
1290.45	45.8117
1293.35	24.6141
1296.24	59.834
1299.13	0
