Measurement: Raman, 532 nm, unoriented, Raman Data Processed
Mineral: Alum-(Na)
Rruff sample: R110204
Ideal chemistry: NaAl(SO_4_)_2_12H_2_O
Locality: Flux mine, near Patagonia, Arizona
Source: Gordon W Downs
Description: Colorless ram's horn
Raman shift (cm-1)	intensity
169.077	0
171.97	4.46253
174.863	13.8825
177.755	30.8916
180.648	48.6915
183.541	63.1861
186.433	78.5181
189.326	86.1182
192.219	83.0449
195.112	75.1688
198.004	60.658
200.897	48.646
203.79	35.7141
206.682	24.5357
209.575	17.5564
212.468	15.8686
215.36	15.2366
218.253	15.4176
221.146	15.4037
224.038	14.6861
226.931	14.4062
229.824	13.6344
232.717	12.5595
235.609	10.7768
238.502	9.53963
241.395	7.48282
244.287	8.16066
247.18	3.79659
250.073	2.24506
252.965	0.019138
255.858	0.436829
258.751	1.86006
261.644	1.4582
264.536	1.00796
267.429	0.35202
270.322	2.32725
273.214	0.567989
276.107	1.39241
279	1.96002
281.892	4.40146
284.785	3.70583
287.678	6.26923
290.571	7.17268
293.463	8.7709
296.356	10.958
299.249	14.3515
302.141	16.4309
305.034	22.0982
307.927	25.4218
310.82	29.1732
313.712	32.4776
316.605	32.6845
319.498	34.4055
322.39	34.3882
325.283	32.8669
328.176	33.2776
331.068	30.3511
333.961	28.9139
336.854	25.2854
339.747	21.444
342.639	19.1142
345.532	14.1229
348.425	12.0071
351.317	11.4283
354.21	8.83171
357.103	5.36627
359.995	6.07334
362.888	3.55473
365.781	3.14192
368.673	3.00523
371.566	2.44721
374.459	0.635965
377.352	1.79016
380.244	0.052906
383.137	1.67709
386.03	0.152527
388.922	0.75061
391.815	0.666016
394.708	1.3713
397.601	0.577858
400.493	0.112024
403.386	0.839354
406.279	2.52606
409.171	2.94601
412.064	4.01512
414.957	7.19555
417.849	7.5281
420.742	12.4362
423.635	21.3208
426.527	30.9578
429.42	41.6673
432.313	59.262
435.206	73.7685
438.098	85.5411
440.991	97.1299
443.884	99.0042
446.776	103.406
449.669	108.107
452.562	116.313
455.454	116.694
458.347	113.208
461.24	103.58
464.133	86.8135
467.025	74.6134
469.918	61.1497
472.811	50.0266
475.703	40.4602
478.596	33.6407
481.489	25.9967
484.382	22.1948
487.274	17.3204
490.167	13.9347
493.06	11.3828
495.952	12.3777
498.845	9.48218
501.738	7.89215
504.63	10.9433
507.523	10.5159
510.416	10.3339
513.308	9.88833
516.201	10.2369
519.094	9.69763
521.987	9.45609
524.879	9.68472
527.772	10.5078
530.665	10.9627
533.557	11.6465
536.45	10.1556
539.343	10.4193
542.236	9.64813
545.128	6.83596
548.021	5.52165
550.914	1.92472
553.806	0.78804
556.699	1.95052
559.592	0.969791
562.484	2.02576
565.377	1.01714
568.27	0.854862
571.163	0.379345
574.055	2.42936
576.948	4.66196
579.841	7.53693
582.733	10.7962
585.626	15.0243
588.519	22.3479
591.411	27.408
594.304	35.3957
597.197	44.7968
600.09	54.4394
602.982	69.6182
605.875	86.5751
608.768	105.919
611.66	126.83
614.553	137.409
617.446	135.025
620.338	120.151
623.231	103.734
626.124	89.7974
629.016	76.9321
631.909	64.8367
634.802	53.4213
637.695	42.9759
640.587	32.7829
643.48	24.737
646.373	19.8834
649.265	14.8713
652.158	11.8198
655.051	9.31657
657.943	5.80152
660.836	3.88569
663.729	3.78832
666.622	2.12868
669.514	3.01174
672.407	0.902567
675.3	0.938681
678.192	1.14348
681.085	1.39945
683.978	0.076782
686.87	0.040016
689.763	2.13989
692.656	0.757854
695.549	0.456343
698.441	1.13359
701.334	0.40918
704.227	0.481615
707.119	0.404026
710.012	1.8458
712.905	0.090811
715.798	1.44267
718.69	0.253008
721.583	0.107046
724.476	1.96683
727.368	1.97686
730.261	0.818651
733.154	0.211191
736.046	1.17089
738.939	1.83554
741.832	1.17363
744.725	1.75021
747.617	2.50495
750.51	2.98103
753.403	2.6019
756.295	3.25466
759.188	2.48299
762.081	3.89543
764.973	3.1932
767.866	4.23673
770.759	3.23053
773.652	4.15192
776.544	3.42019
779.437	5.06389
782.33	4.14877
785.222	4.35516
788.115	4.32901
791.008	2.97164
793.9	2.15894
796.793	2.45957
799.686	1.60812
802.578	2.31745
805.471	2.38778
808.364	0.310764
811.257	1.98724
814.149	1.70743
817.042	0.245455
819.935	0.226061
822.827	1.02718
825.72	0.106543
828.613	1.1086
831.505	0.496279
834.398	1.0144
837.291	0.457249
840.184	2.27784
843.076	0.862459
845.969	1.76517
848.862	1.249
851.754	1.25099
854.647	1.75384
857.54	3.88307
860.433	1.46293
863.325	1.34338
866.218	2.36649
869.111	2.52086
872.003	4.29107
874.896	3.60199
877.789	1.39199
880.681	2.13656
883.574	1.79481
886.467	2.65746
889.36	2.44761
892.252	1.41745
895.145	1.48728
898.038	0.241068
900.93	0.861187
903.823	0.781422
906.716	0.262394
909.608	0.524969
912.501	0.386312
915.394	0.480047
918.287	0.270639
921.179	0.335615
924.072	0.240076
926.965	0.100597
929.857	2.81604
932.75	1.46869
935.643	1.46032
938.535	3.49428
941.428	4.90992
944.321	7.98593
947.213	10.8481
950.106	14.8194
952.999	20.932
955.892	30.4017
958.784	43.4327
961.677	66.5473
964.57	107.619
967.462	172.466
970.355	278.186
973.248	408.264
976.14	434.469
979.033	380.337
981.926	426.527
984.819	601.195
987.711	1024.66
990.604	1577.91
993.497	970.773
996.389	315.502
999.282	127.062
1002.17	63.6666
1005.07	37.5494
1007.96	21.8961
1010.85	14.314
1013.75	9.4019
1016.64	5.58184
1019.53	3.40777
1022.42	2.40247
1025.32	0.821033
1028.21	1.07717
1031.1	0.095003
1033.99	0.170359
1036.89	0.332766
1039.78	1.24194
1042.67	0.43376
1045.57	0.888639
1048.46	0.023573
1051.35	0.599239
1054.24	0.158234
1057.14	1.39215
1060.03	3.2974
1062.92	3.37403
1065.81	4.208
1068.71	5.03615
1071.6	7.50944
1074.49	8.08454
1077.38	10.5546
1080.28	12.7349
1083.17	15.6963
1086.06	19.751
1088.96	24.9128
1091.85	28.6739
1094.74	35.2936
1097.63	41.4503
1100.53	43.7505
1103.42	47.1805
1106.31	47.7159
1109.2	48.9
1112.1	51.2699
1114.99	53.7176
1117.88	63.0462
1120.78	72.3909
1123.67	87.3484
1126.56	99.9474
1129.45	114.199
1132.35	117.171
1135.24	108.367
1138.13	86.6483
1141.02	61.2894
1143.92	42.575
1146.81	28.6424
1149.7	18.9687
1152.6	12.9858
1155.49	8.86398
1158.38	4.39464
1161.27	2.87376
1164.17	0.704754
1167.06	1.02706
1169.95	0.049131
1172.84	1.53267
1175.74	1.13656
1178.63	0.359785
1181.52	0.436928
1184.41	1.91309
1187.31	2.27298
1190.2	2.24528
1193.09	3.28064
1195.99	4.30274
1198.88	2.81589
1201.77	3.14824
1204.66	2.1782
1207.56	1.26762
1210.45	0.371265
1213.34	1.46381
1216.23	0.739725
1219.13	0.706022
1222.02	0.328524
1224.91	0.230082
1227.81	0.364033
1230.7	1.09849
1233.59	0.526943
1236.48	0.401001
1239.38	1.52026
1242.27	0.590055
1245.16	0.639362
1248.05	0.750172
1250.95	1.20074
1253.84	2.8482
1256.73	1.47868
1259.62	1.18879
1262.52	1.77583
1265.41	2.69899
1268.3	0.477948
1271.2	1.79674
1274.09	1.50904
1276.98	2.67344
1279.87	2.75339
1282.77	0.821121
1285.66	2.26664
1288.55	2.31163
1291.44	3.83378
1294.34	2.91241
1297.23	2.42065
1300.12	2.59062
1303.02	0
