Measurement: Raman, 785 nm, unoriented, Raman Data Processed
Mineral: Alumotungstite
Rruff sample: R061044
Ideal chemistry: (H_2_O,Ca)_x_(W,Al)_2_(O,OH)_6_nH_2_O
Locality: Hemerdon mine, Sparkwell, Plympton, Devon, England
Source: Michael Scott
Description: Pale orange crust on ferberite with quartz
Raman shift (cm-1)	intensity
144.187	0
147.08	614.439
149.973	1096.29
152.865	1248.31
155.758	1263.87
158.651	1299.97
161.543	1554.74
164.436	1712.7
167.329	1440.39
170.221	909.043
173.114	454.068
176.007	80.9668
178.9	8.75652
181.792	-30.5663
184.685	-50.5161
187.578	-42.864
190.47	-6.42009
193.363	57.3931
196.256	219.177
199.149	394.016
202.041	559.5
204.934	758.375
207.827	859.188
210.719	965.129
213.612	995.898
216.505	1128.34
219.397	1213.71
222.29	1289.82
225.183	1290.86
228.076	1211.01
230.968	1145.75
233.861	1188.29
236.754	1173.77
239.646	1241.15
242.539	1346.2
245.432	1460.57
248.324	1722.49
251.217	2050.88
254.11	2322.87
257.002	2477.43
259.895	2597.41
262.788	2625.15
265.681	2582.54
268.573	2509.91
271.466	2576.11
274.359	2851.79
277.251	3171.6
280.144	3538.13
283.037	3573.38
285.93	3677.21
288.822	3634.82
291.715	3847.58
294.608	4166.25
297.5	4810.77
300.393	5787.55
303.286	6618.79
306.178	7167.29
309.071	6668.24
311.964	5285.99
314.856	4068.67
317.749	3219.21
320.642	2701.47
323.535	2377.43
326.427	2217.31
329.32	2003.31
332.213	1766.02
335.105	1474.19
337.998	1179.01
340.891	881.855
343.783	714.293
346.676	540.745
349.569	394.009
352.462	304.693
355.354	191.062
358.247	96.2402
361.14	3.62158
364.032	31.8345
366.925	78.9224
369.818	71.9712
372.71	78.6587
375.603	75.6235
378.496	56.9312
381.389	26.4644
384.281	59.4077
387.174	47.5088
390.067	7.03906
392.959	74.5264
395.852	159.356
398.745	256.018
401.637	345.275
404.53	473.525
407.423	613.67
410.315	829.895
413.208	873.854
416.101	1042.58
418.994	1018.96
421.886	974.87
424.779	836.598
427.672	691.342
430.564	621.822
433.457	525.882
436.35	445.692
439.243	389.131
442.135	350.45
445.028	327.301
447.921	215.673
450.813	185.919
453.706	139.053
456.599	125.644
459.491	128.253
462.384	113.753
465.277	134.813
468.17	101.464
471.062	92.7749
473.955	63.7405
476.848	97.1179
479.74	74.9741
482.633	61.7983
485.526	46.9006
488.418	34.1558
491.311	13.824
494.204	40.0515
497.096	40.6577
499.989	64.8645
502.882	53.4785
505.775	69.2114
508.667	76.958
511.56	111.498
514.453	156.56
517.345	158.81
520.238	153.168
523.131	171.481
526.024	172.887
528.916	143.551
531.809	90.3931
534.702	96.3572
537.594	103.385
540.487	118.001
543.38	116.88
546.272	68.8469
549.165	97.4351
552.058	46.6917
554.951	61.1943
557.843	57.8132
560.736	56.7891
563.629	48.2527
566.521	88.2165
569.414	58.1206
572.307	97.1025
575.199	103.509
578.092	162.492
580.985	194.663
583.877	248.581
586.77	274.524
589.663	300.893
592.556	313.871
595.448	409.823
598.341	391.434
601.234	380.604
604.126	382.813
607.019	392.797
609.912	356.42
612.804	304.875
615.697	281.491
618.59	262.807
621.482	218.908
624.375	176.301
627.268	156.856
630.161	127.277
633.053	82.6475
635.946	79.2097
638.839	43.6841
641.731	32.1443
644.624	2.37891
647.517	18.4724
650.409	24.6204
653.302	50.5662
656.195	6.0896
659.088	21.522
661.98	65.7844
664.873	5.26733
667.766	50.9705
670.658	100.369
673.551	212.233
676.444	291.44
679.337	460.953
682.229	635.025
685.122	797.212
688.015	1010.58
690.907	1226.51
693.8	1449.56
696.693	1649.96
699.585	1747.93
702.478	1763.9
705.371	1744.59
708.264	1621.52
711.156	1562.08
714.049	1523.89
716.942	1567.07
719.834	1558.69
722.727	1507.17
725.62	1433.35
728.512	1299.75
731.405	974.137
734.298	681.042
737.191	499.042
740.083	271.128
742.976	127.114
745.869	30.0142
748.761	27.7354
751.654	38.3379
754.547	11.729
757.439	151.647
760.332	175.859
763.225	403.661
766.117	560.907
769.01	835.186
771.903	1054.16
774.796	1308.86
777.688	1658.99
780.581	2081.36
783.474	2558.69
786.366	3121.53
789.259	3566.86
792.152	3854.07
795.044	3792.95
797.937	3582.6
800.83	3219.25
803.723	2877.95
806.615	2681.59
809.508	2540.79
812.401	2520.31
815.293	2582.28
818.186	2582.42
821.079	2490.98
823.971	2291.06
826.864	2086.28
829.757	1859.02
832.65	1584.2
835.542	1219.87
838.435	988.938
841.328	742.47
844.22	620.639
847.113	416.071
850.006	330.409
852.899	181.106
855.791	101.737
858.684	30.6699
861.577	20.7998
864.469	17.1465
867.362	4.68457
870.255	60.9253
873.147	185.557
876.04	277.127
878.933	388.315
881.825	377.116
884.718	300.58
887.611	141.892
890.504	46.9634
893.396	0.157715
896.289	38.6919
899.182	67.8235
902.074	31.5623
904.967	12.5403
907.86	9.82446
910.752	18.1245
913.645	0.390381
916.538	31.1904
919.431	35.2803
922.323	81.2412
925.216	106.344
928.109	140.286
931.001	172.737
933.894	214.633
936.787	219.636
939.679	265.341
942.572	279.741
945.465	356.732
948.357	342.862
951.25	402.688
954.143	379.716
957.036	337.776
959.928	363.794
962.821	330.79
965.714	282.351
968.606	273.101
971.499	241.405
974.392	233.909
977.284	204.617
980.177	148.855
983.07	94.0708
985.963	106.581
988.855	63.2634
991.748	34.8035
994.641	48.3411
997.533	66.8362
1000.43	51.0458
1003.32	52.7821
1006.21	53.5963
1009.1	54.6696
1012	47.9235
1014.89	47.7439
1017.78	29.0077
1020.67	71.4443
1023.57	63.7891
1026.46	50.3777
1029.35	67.5219
1032.25	46.3148
1035.14	57.3556
1038.03	56.3316
1040.92	49.3838
1043.82	49.2786
1046.71	53.9163
1049.6	38.1008
1052.49	17.8568
1055.39	20.5658
1058.28	56.5891
1061.17	37.4476
1064.07	54.1876
1066.96	36.0926
1069.85	4.81488
1072.74	24.5861
1075.64	30.9707
1078.53	39.181
1081.42	16.7632
1084.31	8.32263
1087.21	37.8198
1090.1	19.204
1092.99	8.5376
1095.88	37.8101
1098.78	0.968506
1101.67	29.343
1104.56	12.9892
1107.46	29.2717
1110.35	13.9628
1113.24	20.5326
1116.13	13.7288
1119.03	16.7351
1121.92	5.18024
1124.81	8.61517
1127.7	14.4232
1130.6	1.09601
1133.49	7.7868
1136.38	22.2726
1139.28	0.64502
1142.17	11.2866
1145.06	19.2409
1147.95	19.4597
1150.85	3.01703
1153.74	5.85632
1156.63	11.6925
1159.53	6.16626
1162.42	9.86407
1165.31	15.8778
1168.2	16.9258
1171.1	13.6398
1173.99	5.06287
1176.88	0.962769
1179.77	18.8441
1182.67	19.3404
1185.56	18.9676
1188.45	44.88
1191.34	30.5842
1194.24	39.613
1197.13	52.3994
1200.02	40.9633
1202.91	36.6404
1205.81	21.1544
1208.7	9.3678
1211.59	25.7805
1214.49	73.4437
1217.38	76.6603
1220.27	30.7057
1223.16	10.3732
1226.06	26.6462
1228.95	12.8065
1231.84	31.3178
1234.73	2.29468
1237.63	1.88501
1240.52	8.90918
1243.41	14.1438
1246.31	34.9673
1249.2	29.9802
1252.09	1.77393
1254.98	19.6939
1257.88	9.25659
1260.77	21.2194
1263.66	0
