Measurement: Raman, 532 nm, unoriented, Raman Data Processed
Mineral: Alunite
Rruff sample: R060430
Ideal chemistry: KAl_3_(SO_4_)_2_(OH)_6_
Locality: Wendy Pit, El Indio Gold mine, Tambo, Coquimbo District, Chile
Source: Michael Scott
Description: Colorless transparent hexagonal plates
Measured chemistry: (K_0.94_Na_0.06_)_Î£=1_Al_3.00_(S_1.00_O_4_)_2_(OH)_6_
Raman shift (cm-1)	intensity
181.673	0
184.566	0.088882
187.459	3.83353
190.351	14.7854
193.244	29.426
196.137	43.4889
199.029	61.4729
201.922	73.527
204.815	85.2536
207.708	85.9822
210.6	76.1454
213.493	67.5482
216.386	61.4573
219.278	75.4509
222.171	88.8879
225.064	102.112
227.956	131.978
230.849	210.879
233.742	340.846
236.635	336.193
239.527	117.513
242.42	47.6559
245.313	21.2507
248.205	16.5173
251.098	7.48288
253.991	8.91631
256.884	10.3056
259.776	11.0736
262.669	12.1898
265.562	17.3675
268.454	8.92357
271.347	1.2433
274.24	2.86816
277.132	0.864761
280.025	1.21663
282.918	1.20215
285.81	0.651276
288.703	4.70499
291.596	3.72472
294.489	1.17664
297.381	0.270874
300.274	0.261978
303.167	0.874878
306.059	1.08957
308.952	3.00857
311.845	3.13614
314.738	3.28976
317.63	6.93062
320.523	2.56995
323.416	7.22881
326.308	10.2668
329.201	15.3062
332.094	22.6757
334.986	26.5975
337.879	35.3601
340.772	46.0601
343.665	57.2852
346.557	64.7174
349.45	55.6374
352.343	43.5224
355.235	41.3071
358.128	28.4206
361.021	14.5162
363.913	13.4168
366.806	14.8952
369.699	23.06
372.592	28.5114
375.484	39.7786
378.377	56.0855
381.27	70.6931
384.162	62.903
387.055	31.4842
389.948	18.008
392.841	11.4327
395.733	14.6199
398.626	7.1371
401.519	7.57315
404.411	7.84459
407.304	1.13681
410.197	1.10185
413.089	1.28062
415.982	0.17215
418.875	0.356903
421.767	0.253616
424.66	0.433899
427.553	1.44464
430.446	3.93303
433.338	5.00279
436.231	4.17755
439.124	8.05469
442.017	13.4864
444.909	20.6547
447.802	35.859
450.695	62.2956
453.587	94.1584
456.48	141.946
459.373	216.095
462.265	326.61
465.158	407.889
468.051	318.521
470.943	182.552
473.836	127.733
476.729	110.584
479.622	121.255
482.514	148.73
485.407	168.789
488.3	119.388
491.192	55.7578
494.085	35.2694
496.978	41.4332
499.87	44.4569
502.763	62.3129
505.656	91.9272
508.549	124.898
511.441	118.076
514.334	42.0766
517.227	11.7442
520.119	4.38255
523.012	1.61412
525.905	1.11403
528.798	1.60652
531.69	2.81752
534.583	1.08539
537.476	3.56885
540.368	2.4649
543.261	4.31702
546.154	7.19476
549.047	15.0613
551.939	20.5042
554.832	29.1781
557.725	34.7775
560.617	37.2084
563.51	30.3731
566.403	23.2556
569.295	15.1723
572.188	9.17516
575.081	7.4514
577.973	3.19432
580.866	0.594757
583.759	2.10959
586.652	0.541504
589.544	1.34027
592.437	0.572479
595.33	0.258636
598.222	1.15881
601.115	3.84023
604.008	5.30061
606.901	8.79924
609.793	8.40067
612.686	5.05612
615.579	1.85013
618.471	0.738007
621.364	4.01015
624.257	1.44496
627.149	3.64627
630.042	6.57277
632.935	11.6953
635.828	16.7953
638.72	32.8966
641.613	76.1379
644.506	129.957
647.398	212.792
650.291	323.972
653.184	432.795
656.077	384.14
658.969	132.589
661.862	52.483
664.755	23.7257
667.647	13.207
670.54	8.71886
673.433	5.96619
676.325	4.43703
679.218	1.70271
682.111	2.4434
685.004	2.8448
687.896	4.32556
690.789	6.32404
693.682	4.72935
696.574	7.15033
699.467	6.43825
702.36	3.39682
705.253	1.45999
708.145	3.03508
711.038	0.806534
713.931	2.71028
716.823	5.19008
719.716	0.714539
722.609	2.69772
725.501	0.583069
728.394	0.626694
731.287	0.71904
734.179	0.174866
737.072	0.418182
739.965	1.17473
742.858	1.5181
745.75	1.93933
748.643	0.132431
751.536	2.0589
754.428	1.32544
757.321	0.272064
760.214	0.415848
763.107	4.70039
765.999	0.539597
768.892	1.82291
771.785	2.22017
774.677	3.87151
777.57	2.8781
780.463	5.65503
783.356	6.2981
786.248	9.68585
789.141	11.8337
792.034	16.9879
794.926	21.1721
797.819	24.2702
800.712	26.2542
803.604	25.5756
806.497	26.3025
809.39	26.0682
812.283	21.3406
815.175	15.7269
818.068	15.3166
820.961	9.75853
823.853	9.75725
826.746	4.73665
829.639	4.03111
832.531	4.43242
835.424	3.70068
838.317	0.100815
841.21	1.31624
844.102	1.61072
846.995	0.545502
849.888	0.704376
852.78	0.471176
855.673	0.527496
858.566	1.56381
861.458	0.967224
864.351	1.67366
867.244	3.34856
870.136	4.5087
873.029	1.15843
875.922	5.11125
878.815	5.21867
881.707	6.63206
884.6	5.58406
887.493	5.27899
890.385	6.06915
893.278	4.4464
896.171	6.48204
899.064	4.36128
901.956	5.73827
904.849	3.56439
907.742	3.27483
910.634	3.61301
913.527	2.76828
916.42	3.32433
919.312	2.87408
922.205	0.009369
925.098	0.447433
927.991	0.899185
930.883	1.6079
933.776	0.32756
936.669	0.936188
939.562	0.636078
942.454	0.170517
945.347	0.020447
948.24	2.16312
951.132	1.35062
954.025	0.507202
956.918	1.32315
959.81	0.848877
962.703	0.140778
965.596	2.50748
968.489	2.55499
971.381	3.80688
974.274	4.61972
977.167	5.83124
980.059	8.897
982.952	6.25989
985.845	10.9871
988.737	13.1435
991.63	11.7572
994.523	14.6599
997.415	20.2826
1000.31	26.0519
1003.2	36.6138
1006.09	49.7191
1008.99	68.3589
1011.88	105.926
1014.77	201.319
1017.66	391.023
1020.56	659.747
1023.45	1125.43
1026.34	1467.42
1029.23	825.35
1032.13	292.311
1035.02	126.173
1037.91	66.4532
1040.81	38.6758
1043.7	23.0142
1046.59	14.4565
1049.48	9.16629
1052.38	8.4039
1055.27	6.85068
1058.16	5.20279
1061.06	6.95175
1063.95	9.4646
1066.84	19.9444
1069.73	36.3174
1072.63	64.6823
1075.52	103.857
1078.41	145.147
1081.3	114.853
1084.2	51.309
1087.09	21.9595
1089.98	9.40185
1092.88	6.40695
1095.77	3.66257
1098.66	2.26898
1101.55	0.148285
1104.45	0.526245
1107.34	0.926605
1110.23	0.440216
1113.12	1.29965
1116.02	0.453705
1118.91	0.475464
1121.8	1.37131
1124.69	3.68478
1127.59	1.88495
1130.48	2.59815
1133.37	0.28598
1136.27	3.40738
1139.16	4.66602
1142.05	6.69775
1144.94	11.2756
1147.84	17.9356
1150.73	25.4976
1153.62	28.8034
1156.51	25.1421
1159.41	18.7125
1162.3	14.6107
1165.19	12.32
1168.09	8.599
1170.98	7.88025
1173.87	8.06766
1176.76	11.1246
1179.66	13.8776
1182.55	17.9897
1185.44	19.1183
1188.33	17.3998
1191.23	14.1866
1194.12	8.19696
1197.01	5.63107
1199.9	5.50702
1202.8	2.58237
1205.69	3.66913
1208.58	0.447754
1211.48	3.56448
1214.37	3.54691
1217.26	2.17792
1220.15	0.778046
1223.05	1.47604
1225.94	1.0333
1228.83	0.952972
1231.72	3.66348
1234.62	0.244537
1237.51	0.569
1240.4	2.44409
1243.3	2.52136
1246.19	2.94015
1249.08	1.24576
1251.97	1.99023
1254.87	2.21362
1257.76	2.21841
1260.65	2.83414
1263.54	2.6633
1266.44	1.97778
1269.33	1.34891
1272.22	1.22104
1275.12	3.92944
1278.01	2.43295
1280.9	1.89481
1283.79	1.29779
1286.69	1.06833
1289.58	1.93042
1292.47	1.80295
1295.36	0.637146
1298.26	3.71417
1301.15	0.042938
