Measurement: Raman, 785 nm, unoriented, Raman Data Processed
Mineral: Alunite
Rruff sample: R070448
Ideal chemistry: KAl_3_(SO_4_)_2_(OH)_6_
Locality: Veta del Medio, Inca del Oro, Chile
Source: Bob Jenkins
Description: Yellow tabular rhombohedra scattered over matrix
Raman shift (cm-1)	intensity
120.065	0
122.958	12.6043
125.85	9.45212
128.743	20.398
131.636	111.996
134.528	268.024
137.421	398.136
140.314	633.144
143.207	924.099
146.099	1298.72
148.992	1890.28
151.885	2534.91
154.777	2865.66
157.67	2581.52
160.563	1757.13
163.455	1010.51
166.348	607.378
169.241	400.289
172.133	287.927
175.026	228.383
177.919	178.448
180.812	107.197
183.704	75.8574
186.597	63.7976
189.49	62.8289
192.382	48.4499
195.275	98.6201
198.168	163.119
201.06	265.894
203.953	459.365
206.846	752.729
209.739	1151.73
212.631	1626.14
215.524	2223.27
218.417	2926.26
221.309	3675.9
224.202	4259.03
227.095	4444.15
229.988	4219.5
232.88	3841.45
235.773	3308.35
238.666	2591.74
241.558	1832.04
244.451	1308.93
247.344	926.278
250.236	582.465
253.129	376.875
256.022	213.388
258.915	80.2945
261.807	1.82727
264.7	39.4796
267.593	32.5309
270.485	49.0223
273.378	14.5906
276.271	41.4221
279.163	33.3179
282.056	58.4904
284.949	60.6985
287.842	66.9529
290.734	85.347
293.627	65.0231
296.52	32.2753
299.412	22.0881
302.305	19.0273
305.198	18.9629
308.09	28.7076
310.983	47.4894
313.876	77.4821
316.769	134.349
319.661	207.625
322.554	378.155
325.447	481.144
328.339	665.791
331.232	858.863
334.125	1099.21
337.017	1261.59
339.91	1258.07
342.803	999.72
345.695	748.346
348.588	508.787
351.481	421.56
354.374	399.831
357.266	515.614
360.159	693.236
363.052	960.699
365.944	1292.01
368.837	1620.43
371.73	1976.21
374.623	2142.6
377.515	1934.47
380.408	1406.03
383.301	861.449
386.193	520.755
389.086	339.451
391.979	184.486
394.871	125.599
397.764	57.5159
400.657	19.3949
403.55	7.14996
406.442	3.8468
409.335	0.099487
412.228	17.4485
415.12	24.5825
418.013	21.0688
420.906	9.95911
423.798	38.2842
426.691	44.9421
429.584	113.235
432.476	173.227
435.369	284.714
438.262	370.474
441.155	517.988
444.047	655.144
446.94	823.024
449.833	1000.94
452.725	1189.02
455.618	1401.17
458.511	1612.67
461.404	1907.88
464.296	2109.16
467.189	2352.04
470.082	2482.9
472.974	2461.55
475.867	2411.24
478.76	2292.03
481.652	2232.22
484.545	2119.53
487.438	1863.5
490.33	1649.09
493.223	1572.08
496.116	1517.63
499.009	1367.63
501.901	1052.3
504.794	647.365
507.687	256.841
510.579	72.1888
513.472	24.2462
516.365	20.5797
519.258	53.598
522.15	28.035
525.043	24.9134
527.936	39.8981
530.828	31.1849
533.721	123.733
536.614	195.591
539.506	259.917
542.399	349.967
545.292	453.191
548.184	527.473
551.077	635.225
553.97	639.593
556.863	703.879
559.755	693.457
562.648	646.04
565.541	585.255
568.433	499.433
571.326	455.731
574.219	404.665
577.111	380.034
580.004	323.909
582.897	348.48
585.79	354.327
588.682	360.202
591.575	343.887
594.468	395.894
597.36	377.054
600.253	329.558
603.146	267.89
606.038	225.852
608.931	168.98
611.824	127.598
614.717	154.585
617.609	161.735
620.502	178.584
623.395	260.839
626.287	384.468
629.18	554.983
632.073	763.352
634.966	1046.59
637.858	1362
640.751	1673.51
643.644	1948.28
646.536	2050.87
649.429	2046.11
652.322	1783.83
655.214	1292.58
658.107	795.997
661	449.02
663.893	288.498
666.785	162.447
669.678	108.127
672.571	74.5055
675.463	43.6847
678.356	11.6189
681.249	2.62994
684.141	5.42892
687.034	27.1322
689.927	11.8929
692.819	9.04657
695.712	0.107849
698.605	7.83167
701.498	0.142334
704.39	10.32
707.283	12.8996
710.176	3.3139
713.068	17.1307
715.961	1.77127
718.854	22.5115
721.746	22.8172
724.639	30.2096
727.532	30.5608
730.425	39.1606
733.317	40.1221
736.21	47.7396
739.103	27.2833
741.995	60.85
744.888	41.4009
747.781	46.5552
750.673	31.7588
753.566	24.5899
756.459	37.5562
759.352	23.9046
762.244	28.8893
765.137	11.8513
768.03	34.0695
770.922	32.1833
773.815	23.065
776.708	34.4919
779.601	38.4112
782.493	43.685
785.386	42.4436
788.279	52.7347
791.171	33.8773
794.064	48.1414
796.957	47.7246
799.849	35.8734
802.742	19.1266
805.635	14.3307
808.528	18.2372
811.42	0.482422
814.313	2.97058
817.206	24.8285
820.098	15.6886
822.991	27.5317
825.884	11.7673
828.776	21.8955
831.669	24.5734
834.562	5.89062
837.455	18.607
840.347	19.0479
843.24	6.63742
846.133	3.21756
849.025	1.11298
851.918	3.76584
854.811	1.75583
857.703	2.19614
860.596	2.29489
863.489	18.7434
866.381	26.1314
869.274	26.6535
872.167	27.7544
875.06	25.5772
877.952	31.8181
880.845	15.0445
883.738	38.2615
886.63	30.647
889.523	24.0302
892.416	27.0315
895.308	35.9111
898.201	48.9547
901.094	42.6626
903.987	67.627
906.879	43.2902
909.772	65.0348
912.665	74.8029
915.557	57.0437
918.45	43.3599
921.343	49.0788
924.236	69.0549
927.128	59.5934
930.021	40.746
932.914	54.785
935.806	52.5661
938.699	41.2263
941.592	51.3288
944.484	17.5492
947.377	30.2625
950.27	27.3698
953.163	21.4364
956.055	4.78336
958.948	17.4868
961.841	18.7754
964.733	9.0607
967.626	11.4186
970.519	9.85236
973.411	0.062866
976.304	18.3131
979.197	49.2307
982.09	80.7244
984.982	128.368
987.875	201.33
990.768	276.684
993.66	399.36
996.553	584.692
999.446	856.466
1002.34	1203.84
1005.23	1865.17
1008.12	2890.02
1011.02	4560.1
1013.91	6628.97
1016.8	8786.87
1019.7	9624.81
1022.59	8451.45
1025.48	5493.9
1028.37	2603.24
1031.27	1126.06
1034.16	467.675
1037.05	199.158
1039.94	94.5512
1042.84	18.8699
1045.73	31.6344
1048.62	23.717
1051.51	45.0452
1054.41	48.0189
1057.3	37.3949
1060.19	42.0828
1063.09	53.8582
1065.98	69.9647
1068.87	115.301
1071.76	174.549
1074.66	246.903
1077.55	222.989
1080.44	137.588
1083.33	65.5633
1086.23	32.1083
1089.12	29.3041
1092.01	43.5073
1094.9	11.7012
1097.8	45.0093
1100.69	86.9589
1103.58	128.827
1106.48	170.074
1109.37	231.931
1112.26	255.492
1115.15	311.424
1118.05	332.857
1120.94	298.136
1123.83	298.965
1126.72	262.99
1129.62	250.032
1132.51	281.305
1135.4	299.977
1138.3	340.107
1141.19	377.888
1144.08	372.666
1146.97	383.231
1149.87	292.705
1152.76	244.665
1155.65	230.43
1158.54	236.129
1161.44	254.15
1164.33	349.348
1167.22	485.217
1170.12	604.236
1173.01	746.939
1175.9	874.851
1178.79	930.523
1181.69	913.93
1184.58	840.111
1187.47	689.559
1190.36	467.934
1193.26	355.049
1196.15	196.415
1199.04	122.262
1201.93	64.3895
1204.83	18.4891
1207.72	2.28583
1210.61	6.75623
1213.51	5.61304
1216.4	1.07538
1219.29	7.23016
1222.18	17.4139
1225.08	32.6296
1227.97	51.8145
1230.86	68.8885
1233.75	37.5232
1236.65	41.1209
1239.54	11.5495
1242.43	5.86832
