Measurement: Raman, 780 nm, unoriented, Raman Data Processed
Mineral: Alunite
Rruff sample: R060430
Ideal chemistry: KAl_3_(SO_4_)_2_(OH)_6_
Locality: Wendy Pit, El Indio Gold mine, Tambo, Coquimbo District, Chile
Source: Michael Scott
Description: Colorless transparent hexagonal plates
Measured chemistry: (K_0.94_Na_0.06_)_Î£=1_Al_3.00_(S_1.00_O_4_)_2_(OH)_6_
Raman shift (cm-1)	intensity
127.246	0
130.621	2.76945
133.996	1.31525
137.371	7.24085
140.746	27.1932
144.12	60.8903
147.495	60.6959
150.87	84.6302
154.245	119.617
157.62	183.152
160.994	352.269
164.369	143.993
167.744	23.5096
171.119	4.62126
174.494	2.6238
177.869	0.37141
181.243	0.398968
184.618	0.177013
187.993	1.26151
191.368	3.88215
194.743	6.21939
198.117	9.13738
201.492	11.2233
204.867	16.7249
208.242	25.0944
211.617	48.2568
214.992	115.519
218.366	156.177
221.741	194.761
225.116	261.928
228.491	365.647
231.866	547.028
235.24	495.072
238.615	193.754
241.99	84.1019
245.365	46.1813
248.74	35.1918
252.114	30.4642
255.489	27.9455
258.864	20.1884
262.239	9.83803
265.614	5.481
268.988	4.19872
272.363	1.22946
275.738	2.58913
279.113	0.481417
282.488	0.374361
285.863	0.145216
289.237	0.801516
292.612	1.19959
295.987	0.136877
299.362	0.425098
302.737	1.09462
306.111	0.440794
309.486	2.65089
312.861	1.82465
316.236	6.00663
319.611	6.81784
322.986	15.0242
326.36	24.3515
329.735	34.7888
333.11	46.508
336.485	60.3413
339.86	78.1222
343.234	89.7773
346.609	79.6947
349.984	53.9021
353.359	36.7273
356.734	32.2433
360.108	35.8423
363.483	52.9827
366.858	67.8469
370.233	82.8552
373.608	107.376
376.983	140.438
380.357	169.756
383.732	121.93
387.107	59.4062
390.482	31.7511
393.857	19.3521
397.231	12.1074
400.606	8.23402
403.981	5.54172
407.356	3.34927
410.731	1.23894
414.106	0.735491
417.48	0.74297
420.855	0.701191
424.23	0.700243
427.605	0.275043
430.98	0.085377
434.354	0.337923
437.729	0.625666
441.104	2.30218
444.479	3.41198
447.854	6.6359
451.228	11.2668
454.603	15.707
457.978	22.8652
461.353	37.225
464.728	56.4048
468.103	79.6889
471.477	97.6927
474.852	126.384
478.227	172.53
481.602	247.088
484.977	260.489
488.351	118.86
491.726	72.1223
495.101	65.1288
498.476	65.7956
501.851	85.9647
505.226	125.88
508.6	147.773
511.975	52.7837
515.35	13.7604
518.725	2.7968
522.1	1.03127
525.474	0.098057
528.849	0.183289
532.224	2.57192
535.599	6.30101
538.974	15.1814
542.348	24.4667
545.723	39.1736
549.098	53.98
552.473	71.6844
555.848	86.7232
559.222	92.9618
562.597	73.7281
565.972	49.827
569.347	31.3625
572.722	20.2014
576.097	12.4855
579.471	6.88772
582.846	3.23556
586.221	0.580811
589.596	1.19225
592.971	0.801743
596.346	3.06092
599.72	4.14519
603.095	6.17204
606.47	7.60703
609.845	5.62542
613.22	0.861996
616.594	1.55055
619.969	0.06599
623.344	2.7868
626.719	7.25911
630.094	17.5483
633.468	37.6144
636.843	95.1644
640.218	174.623
643.593	223.388
646.968	324.378
650.342	476.717
653.717	507.554
657.092	190.896
660.467	69.8829
663.842	32.5603
667.217	16.8923
670.591	9.17064
673.966	5.5072
677.341	2.86425
680.716	1.57098
684.091	0.747782
687.466	0.510458
690.84	0.196573
694.215	0.752691
697.59	0.079733
700.965	0.448912
704.34	0.056614
707.714	0.53326
711.089	0.233484
714.464	0.165075
717.839	1.97739
721.214	1.95901
724.588	0.927105
727.963	0.792196
731.338	2.1664
734.713	1.94358
738.088	0.287109
741.462	1.49791
744.837	0.317606
748.212	0.877451
751.587	1.39238
754.962	0.788811
758.337	1.11312
761.711	0.287109
765.086	0.805597
768.461	1.39612
771.836	1.18703
775.211	2.96569
778.586	2.42076
781.96	3.20589
785.335	3.59673
788.71	3.09008
792.085	3.62088
795.46	4.99905
798.834	4.5363
802.209	6.05982
805.584	6.67694
808.959	5.63546
812.334	5.15737
815.708	5.49865
819.083	2.61594
822.458	2.39514
825.833	2.71286
829.208	1.84031
832.582	1.02714
835.957	1.65283
839.332	1.87698
842.707	1.8746
846.082	0.609549
849.457	1.37666
852.831	2.10509
856.206	1.41855
859.581	0.785089
862.956	0.826038
866.331	0.453554
869.706	1.10736
873.08	1.88788
876.455	1.02133
879.83	0.846838
883.205	1.50808
886.58	1.76322
889.954	1.54371
893.329	3.07313
896.704	2.99325
900.079	3.64164
903.454	3.47151
906.828	2.35221
910.203	1.23142
913.578	0.81809
916.953	1.95714
920.328	1.24783
923.702	0.511608
927.077	0.085609
930.452	0.0975
933.827	1.28688
937.202	0.042152
940.577	0.004366
943.951	0.093254
947.326	0.858488
950.701	0.29236
954.076	1.22669
957.451	0.013437
960.825	1.43946
964.2	2.73126
967.575	3.44654
970.95	4.79683
974.325	5.7842
977.699	8.96324
981.074	10.9316
984.449	12.8436
987.824	13.9273
991.199	17.537
994.574	22.6294
997.948	31.7489
1001.32	45.2649
1004.7	72.4902
1008.07	122.534
1011.45	272.318
1014.82	496.923
1018.2	704.14
1021.57	1029.25
1024.95	1215.15
1028.32	530.756
1031.7	177.275
1035.07	74.9573
1038.45	38.858
1041.82	21.4022
1045.2	12.009
1048.57	7.68987
1051.94	5.28764
1055.32	6.04503
1058.69	8.78617
1062.07	21.4426
1065.44	51.9843
1068.82	87.8656
1072.19	130.4
1075.57	185.112
1078.94	167.944
1082.32	74.8889
1085.69	30.8986
1089.07	14.0475
1092.44	5.70029
1095.82	4.22734
1099.19	1.30651
1102.57	0.054588
1105.94	0.406296
1109.32	1.13321
1112.69	0.804392
1116.07	0.785381
1119.44	1.26
1122.82	0.112402
1126.19	0.245678
1129.57	0.644012
1132.94	2.57701
1136.32	6.99687
1139.69	12.5201
1143.07	21.4752
1146.44	30.7062
1149.82	39.6817
1153.19	37.2204
1156.57	24.5119
1159.94	16.0914
1163.31	14.3873
1166.69	13.3413
1170.06	17.0703
1173.44	22.4341
1176.81	28.1883
1180.19	38.5158
1183.56	44.3753
1186.94	43.299
1190.31	35.114
1193.69	23.4119
1197.06	14.2158
1200.44	8.28268
1203.81	5.36649
1207.19	3.49944
1210.56	2.98783
1213.94	1.62514
1217.31	1.35675
1220.69	0.045311
1224.06	1.08563
1227.44	1.33422
1230.81	0.183559
1234.18	0.572853
1237.56	1.17418
1240.93	0.645472
1244.31	1.31376
1247.68	1.18085
1251.06	0.620314
1254.43	0.512728
1257.81	2.1744
1261.18	0.409187
1264.56	1.74375
1267.93	0.439297
1271.31	1.06167
1274.68	0.728718
1278.06	0.220833
1281.43	0.314457
1284.81	0
