Measurement: Raman, 532 nm, unoriented, Raman Data Processed
Mineral: Alunite
Rruff sample: R070448
Ideal chemistry: KAl_3_(SO_4_)_2_(OH)_6_
Locality: Veta del Medio, Inca del Oro, Chile
Source: Bob Jenkins
Description: Yellow tabular rhombohedra scattered over matrix
Raman shift (cm-1)	intensity
135.941	0
139.316	141.091
142.691	454.272
146.066	850.337
149.441	1314.12
152.815	1738.54
156.19	2074.73
159.565	1642.86
162.94	834.853
166.315	372.173
169.69	141.005
173.064	64.9822
176.439	47.9568
179.814	21.5524
183.189	4.26953
186.564	39.249
189.939	18.2701
193.313	10.8547
196.688	55.4264
200.063	175.79
203.438	392.133
206.813	662.429
210.187	1054.93
213.562	1672.87
216.937	2322.74
220.312	3122.22
223.687	3865.04
227.061	4208.26
230.436	4147.56
233.811	3835.25
237.186	3245.49
240.561	2328.56
243.936	1630.29
247.31	1124.97
250.685	671.825
254.06	419.721
257.435	176.731
260.81	85.1954
264.185	17.7859
267.559	20.2646
270.934	24.3728
274.309	41.236
277.684	59.1204
281.059	56.5735
284.433	64.7507
287.808	32.2627
291.183	47.7047
294.558	0.579224
297.933	2.16724
301.308	18.3297
304.682	0.323486
308.057	16.6522
311.432	6.89844
314.807	15.1819
318.182	65.8919
321.556	196.807
324.931	315.836
328.306	483.4
331.681	737.635
335.056	934.381
338.43	1077.4
341.805	903.845
345.18	649.07
348.555	372.763
351.93	309.165
355.305	285.091
358.679	481.212
362.054	710.062
365.429	1061.72
368.804	1588.85
372.179	1934.69
375.553	2045.36
378.928	1575.61
382.303	966.106
385.678	570.049
389.053	301.514
392.428	192.237
395.802	67.6888
399.177	25.1748
402.552	16.123
405.927	20.5043
409.302	14.8185
412.676	40.8565
416.051	21.1096
419.426	24.7623
422.801	55.6668
426.176	159.859
429.551	276.001
432.925	401.414
436.3	603.418
439.675	822.936
443.05	1112.54
446.425	1337.53
449.8	1625.37
453.174	1891.71
456.549	2187.4
459.924	2484.72
463.299	2846.33
466.674	3160.21
470.048	3389.46
473.423	3447.49
476.798	3358.72
480.173	3205.18
483.548	3030.94
486.923	2759.82
490.297	2422.67
493.672	2125.31
497.047	1915.43
500.422	1516.71
503.797	887.138
507.171	355.503
510.546	59.3829
513.921	4.70081
517.296	64.3862
520.671	64.2772
524.045	34.4228
527.42	13.958
530.795	61.1677
534.17	141.929
537.545	272.243
540.92	383.907
544.294	538.476
547.669	675.32
551.044	739.29
554.419	827.242
557.794	882.571
561.168	870.747
564.543	780.692
567.918	739.983
571.293	654.474
574.668	560.809
578.043	507.673
581.417	480.029
584.792	510.301
588.167	507.551
591.542	655.196
594.917	673.673
598.292	650.443
601.666	587.409
605.041	492.05
608.416	461.877
611.791	429.803
615.166	531.915
618.54	534.42
621.915	749.852
625.29	1086.84
628.665	1560.67
632.04	2216.95
635.414	3017.64
638.789	3753.6
642.164	4291.53
645.539	4551.62
648.914	4254.53
652.289	3434.68
655.663	2377.15
659.038	1400.88
662.413	818.272
665.788	448.731
669.163	323.441
672.538	178.113
675.912	66.969
679.287	45.255
682.662	15.9331
686.037	11.6825
689.412	11.6389
692.786	17.1803
696.161	20.2398
699.536	41.2539
702.911	26.9403
706.286	25.275
709.66	6.79785
713.035	4.50012
716.41	15.3583
719.785	25.8567
723.16	61.3206
726.535	69.8625
729.909	62.1639
733.284	39.2937
736.659	84.0098
740.034	34.3239
743.409	52.9675
746.784	72.7789
750.158	96.0914
753.533	104.41
756.908	65.9293
760.283	62.3768
763.658	45.2692
767.032	52.5894
770.407	47.306
773.782	73.3501
777.157	94.516
780.532	69.6019
783.907	57.2312
787.281	62.2696
790.656	49.9692
794.031	65.8904
797.406	73.8169
800.781	80.0196
804.155	68.1775
807.53	66.2776
810.905	49.2659
814.28	43.853
817.655	34.0236
821.029	39.456
824.404	5.48157
827.779	34.416
831.154	20.0905
834.529	0.023682
837.904	26.4898
841.278	21.2405
844.653	26.1672
848.028	48.9346
851.403	44.8558
854.778	49.9493
858.153	24.6741
861.527	22.3105
864.902	45.2543
868.277	50.938
871.652	53.161
875.027	45.931
878.401	69.3324
881.776	75.8031
885.151	134.023
888.526	75.9156
891.901	112.511
895.275	111.136
898.65	112.598
902.025	106.318
905.4	108.776
908.775	112.02
912.15	134.625
915.524	129.065
918.899	153.038
922.274	126.285
925.649	112.025
929.024	120.149
932.399	119.639
935.773	81.8133
939.148	69.53
942.523	40.4804
945.898	49.3827
949.273	28.0383
952.647	0.953979
956.022	9.27307
959.397	6.04895
962.772	17.8892
966.147	17.9851
969.521	35.8678
972.896	8.73828
976.271	17.9467
979.646	3.06653
983.021	66.9303
986.396	110.076
989.77	285.397
993.145	513.626
996.52	864.424
999.895	1300.63
1003.27	2036.63
1006.64	3464.82
1010.02	6169.3
1013.39	10215.6
1016.77	14210.3
1020.14	15422.4
1023.52	11848.3
1026.89	5891.31
1030.27	2071.15
1033.64	639.543
1037.02	102.436
1040.39	33.6367
1043.77	21.2153
1047.14	13.8533
1050.52	84.0137
1053.89	132.394
1057.27	62.0757
1060.64	101.096
1064.02	136.107
1067.39	274.92
1070.77	453.709
1074.14	598.258
1077.52	651.614
1080.89	433.332
1084.27	336.666
1087.64	170.055
1091.02	111.027
1094.39	163.527
1097.77	218.238
1101.14	319.331
1104.51	495.205
1107.89	680.487
1111.26	864.394
1114.64	1023.22
1118.01	1089.97
1121.39	1117.33
1124.76	1030.12
1128.14	930.64
1131.51	887.471
1134.89	870.164
1138.26	891.459
1141.64	913.881
1145.01	845.222
1148.39	680.365
1151.76	438.8
1155.14	286.309
1158.51	163.362
1161.89	146.046
1165.26	212.083
1168.64	437.63
1172.01	561.971
1175.38	737.134
1178.76	829.394
1182.13	753.235
1185.51	669.119
1188.88	457.863
1192.26	297.844
1195.63	146.676
1199.01	36.0607
1202.38	24.3625
1205.76	34.2375
1209.13	10.3267
1212.51	10.5292
1215.88	16.9885
1219.26	6.34778
1222.63	4.18543
1226.01	0.889771
1229.38	8.65442
1232.76	9.20398
1236.13	35.3665
1239.51	22.8821
1242.88	41.511
1246.26	44.6501
1249.63	53.8555
1253.01	104.108
1256.38	82.6946
1259.76	122.356
1263.13	109.133
1266.51	100.204
1269.88	122.471
1273.26	141.412
1276.63	160.522
1280.01	87.9232
1283.38	112.223
1286.75	130.818
1290.13	60.8628
1293.5	64.2123
1296.88	26.1045
1300.25	17.2082
1303.63	36.4172
