Measurement: Raman, 780 nm, unoriented, Raman Data Processed
Mineral: Alunogen
Rruff sample: R060015
Ideal chemistry: Al_2_(SO_4_)_3_(H_2_O)_12_5H_2_O
Locality: Saxony, Germany
Source: American Museum of Natural History
Description: Colorless compact mass of fibers, along with some sprays of acicular single crystals
Measured chemistry: (Al_1.77_Fe^3+^_0.23_)_Σ=2_(S_1.00_O_4_)_3_·17H_2_O
Raman shift (cm-1)	intensity
110.902	0
114.277	0.222734
117.652	0.483362
121.026	0.826616
124.401	1.14748
127.776	1.53616
131.151	1.62145
134.526	1.30962
137.901	1.69
141.275	1.02197
144.65	0.895956
148.025	0.510445
151.4	0.592623
154.775	0.491385
158.149	0.440104
161.524	0.180037
164.899	0.201111
168.274	0.279501
171.649	0.47106
175.024	0.288826
178.398	0.479097
181.773	0.235088
185.148	0.128622
188.523	0.086597
191.898	0.07198
195.272	0.122486
198.647	0.040808
202.022	0.071791
205.397	0.191183
208.772	0.415375
212.147	0.563765
215.521	0.592394
218.896	0.514704
222.271	0.430809
225.646	0.498707
229.021	0.547653
232.395	0.448267
235.77	0.630419
239.145	0.717804
242.52	0.705597
245.895	0.579376
249.269	0.258972
252.644	0.280693
256.019	0.376276
259.394	0.511417
262.769	0.2661
266.144	0.444273
269.518	0.508322
272.893	0.456993
276.268	0.617556
279.643	0.795742
283.018	0.964695
286.392	1.15663
289.767	1.25369
293.142	1.40628
296.517	1.63693
299.892	1.92223
303.267	1.95009
306.641	2.13604
310.016	1.94975
313.391	1.79637
316.766	1.622
320.141	1.58587
323.515	1.19751
326.89	1.06062
330.265	0.952106
333.64	0.8374
337.015	0.875597
340.39	0.65737
343.764	0.569072
347.139	0.476148
350.514	0.320312
353.889	0.322004
357.264	0.039412
360.638	0.024052
364.013	0.100713
367.388	0.027565
370.763	0.179726
374.138	0.113971
377.512	0.080419
380.887	0.047647
384.262	0.196815
387.637	0.068444
391.012	0.362988
394.387	0.74854
397.761	0.85673
401.136	1.20958
404.511	1.60085
407.886	1.63576
411.261	1.86
414.635	2.15332
418.01	2.59453
421.385	2.95617
424.76	3.12015
428.135	3.4713
431.51	3.6076
434.884	4.16015
438.259	4.36225
441.634	5.0062
445.009	5.24707
448.384	5.53123
451.759	5.96671
455.133	6.28044
458.508	6.51675
461.883	6.99856
465.258	7.49152
468.633	7.83575
472.007	7.97535
475.382	7.59115
478.757	7.03368
482.132	6.08602
485.507	5.29141
488.882	4.33642
492.256	3.38855
495.631	2.73803
499.006	2.0452
502.381	1.69654
505.756	1.29461
509.13	0.875186
512.505	0.74899
515.88	0.554405
519.255	0.503914
522.63	0.442259
526.005	0.598103
529.379	0.30213
532.754	0.194492
536.129	0.115539
539.504	0.021713
542.879	0.245756
546.253	0.155324
549.628	0.12133
553.003	0.08531
556.378	0.134827
559.753	0.07919
563.127	0.210411
566.502	0.271171
569.877	0.428644
573.252	0.69848
576.627	0.848504
580.001	1.06119
583.376	1.50282
586.751	1.74263
590.126	2.16436
593.501	2.65464
596.875	3.13994
600.25	3.41522
603.625	3.7807
607	3.67609
610.375	3.60906
613.75	3.49716
617.125	2.96687
620.499	2.82988
623.874	2.43169
627.249	2.26371
630.624	1.98905
633.999	1.79634
637.373	1.48609
640.748	1.301
644.123	0.989477
647.498	0.861416
650.873	0.724288
654.247	0.706374
657.622	0.579754
660.997	0.472211
664.372	0.544796
667.747	0.28406
671.121	0.566972
674.496	0.328546
677.871	0.326053
681.246	0.237708
684.621	0.277476
687.996	0.216537
691.37	0.143309
694.745	0.158343
698.12	0.043448
701.495	0.032927
704.87	0.001947
708.245	0.064442
711.619	0.107724
714.994	0.000585
718.369	0.012036
721.744	0.067717
725.119	0.049914
728.493	0.025641
731.868	0.018954
735.243	0.002005
738.618	0.072982
741.993	0.134576
745.367	0.097921
748.742	0.127328
752.117	0.155127
755.492	0.087797
758.867	0.227105
762.242	0.034578
765.616	0.20764
768.991	0.156099
772.366	0.238431
775.741	0.172256
779.116	0.089689
782.49	0.125104
785.865	0.191111
789.24	0.17662
792.615	0.158577
795.99	0.255054
799.365	0.179505
802.739	0.163331
806.114	0.191023
809.489	0.265303
812.864	0.23142
816.239	0.345366
819.614	0.518445
822.988	0.520096
826.363	0.576306
829.738	0.719409
833.113	0.551619
836.487	0.686584
839.862	0.604182
843.237	0.687317
846.612	0.748449
849.987	0.740665
853.362	0.637
856.736	0.755328
860.111	0.713121
863.486	0.694875
866.861	0.698117
870.236	0.882922
873.611	0.641003
876.985	0.582108
880.36	0.738589
883.735	0.596973
887.11	0.565989
890.485	0.481085
893.859	0.35733
897.234	0.332524
900.609	0.249843
903.984	0.198478
907.359	0.097113
910.734	0.133871
914.108	0.012174
917.483	0.040488
920.858	0.026939
924.233	0.055814
927.607	0.010698
930.982	0.168083
934.357	0.012955
937.732	0.004103
941.107	0.001115
944.482	0.021187
947.856	0.140801
951.231	0.211546
954.606	0.444492
957.981	0.498034
961.356	0.72342
964.731	1.21352
968.105	2.13064
971.48	3.35924
974.855	5.23054
978.23	7.51766
981.605	10.9701
984.979	14.7773
988.354	18.5599
991.729	21.6943
995.104	22.8676
998.479	20.4675
1001.85	11.8654
1005.23	5.20878
1008.6	2.94254
1011.98	2.32746
1015.35	2.09963
1018.73	2.03974
1022.1	1.87793
1025.48	1.75975
1028.85	1.82707
1032.23	1.56112
1035.6	1.42168
1038.98	1.25029
1042.35	1.20632
1045.73	1.09566
1049.1	0.946603
1052.48	0.82138
1055.85	0.760719
1059.22	0.745447
1062.6	0.760205
1065.97	0.678145
1069.35	0.771426
1072.72	0.671382
1076.1	0.661925
1079.47	0.673841
1082.85	0.64629
1086.22	0.573604
1089.6	0.374573
1092.97	0.17033
1096.35	0.04669
1099.72	0.147525
1103.1	0.06317
1106.47	0.067612
1109.85	0.019648
1113.22	0.020648
1116.6	0.22391
1119.97	0.129094
1123.35	0.316833
1126.72	0.203377
1130.1	0.302779
1133.47	0.179173
1136.85	0.033841
1140.22	0.004087
1143.6	0.179082
1146.97	0.035974
1150.35	0.025078
1153.72	0.041218
1157.1	0.129769
1160.47	0.092164
1163.85	0.240445
1167.22	0.109457
1170.59	0.145319
1173.97	0.082001
1177.34	0.185901
1180.72	0.046449
1184.09	0.082009
1187.47	0.197399
1190.84	0.167041
1194.22	0.167778
1197.59	0.159863
1200.97	0.200783
1204.34	0.146036
1207.72	0.302318
1211.09	0.172358
1214.47	0.102901
1217.84	0.101941
1221.22	0.155769
1224.59	0.2001
1227.97	0.135221
1231.34	0.144792
1234.72	0.159441
1238.09	0.192347
1241.46	0.092682
1244.84	0.130494
1248.21	0.209703
1251.59	0.041531
1254.96	0.205772
1258.34	0.186882
1261.71	0.127634
1265.09	0.07706
1268.46	0.095856
1271.84	0.099836
1275.21	0.000729
1278.59	0.007827
1281.96	0.097043
