Measurement: Raman, 780 nm, unoriented, Raman Data Processed
Mineral: Alunogen
Rruff sample: R070601
Ideal chemistry: Al_2_(SO_4_)_3_(H_2_O)_12_5H_2_O
Locality: Alum Grotto, Vulcano Island, Aeolian Islands, Messina, Sicily, Italy
Source: James Shigley
Description: Granular aggregates of white microcrystals associated with light tan to light purple coquimbite.
Raman shift (cm-1)	intensity
140.479	0
143.372	89.207
146.265	64.5635
149.157	132.107
152.05	210.043
154.943	234.001
157.836	280.795
160.728	130.748
163.621	133.211
166.514	55.6397
169.406	52.146
172.299	49.5308
175.192	39.3706
178.084	101.925
180.977	63.9194
183.87	145.845
186.763	145.253
189.655	209.177
192.548	207.013
195.441	185.258
198.333	174.712
201.226	210.742
204.119	188.737
207.012	161.636
209.904	190.337
212.797	225.999
215.69	115.965
218.582	131.199
221.475	164.766
224.368	109.287
227.261	122.642
230.153	21.1191
233.046	65.188
235.939	14.4512
238.831	26.6108
241.724	26.5273
244.617	90.5654
247.509	80.6333
250.402	61.8809
253.295	96.541
256.188	108.064
259.08	161.803
261.973	214.733
264.866	281.914
267.758	237.898
270.651	216.206
273.544	263.144
276.436	309.607
279.329	387.06
282.222	375.385
285.115	417.289
288.007	441.539
290.9	497.447
293.793	475.044
296.685	498.399
299.578	563.148
302.471	685.367
305.363	736.289
308.256	706.504
311.149	650.934
314.041	638.881
316.934	566.705
319.827	490.567
322.72	359.93
325.612	288.372
328.505	264.361
331.398	216.426
334.29	271.929
337.183	276.809
340.076	197.821
342.969	228.61
345.861	120.038
348.754	210.955
351.647	118.533
354.539	49.6445
357.432	38.1973
360.325	66.0298
363.217	11.4834
366.11	31.501
369.003	33.7583
371.896	33.7671
374.788	46.2329
377.681	10.1616
380.574	46.273
383.466	61.769
386.359	18.8535
389.252	5.72998
392.144	39.647
395.037	13.3569
397.93	43.5786
400.822	86.209
403.715	135.642
406.608	157.289
409.501	264.71
412.393	332.894
415.286	329.077
418.179	330.42
421.071	401.062
423.964	449.753
426.857	439.503
429.75	560.139
432.642	664.178
435.535	731.121
438.428	812.491
441.32	1028.12
444.213	1038.57
447.106	1092.16
449.998	1142.46
452.891	1342.55
455.784	1505.67
458.676	1631.97
461.569	1810.76
464.462	1888.28
467.355	1999.85
470.247	1972.92
473.14	1951.42
476.033	1722.52
478.925	1520.15
481.818	1174.35
484.711	893.512
487.603	626.618
490.496	493.749
493.389	275.577
496.282	235.958
499.174	257.692
502.067	179.599
504.96	203.293
507.852	173.929
510.745	190.822
513.638	190.854
516.53	237.904
519.423	210.238
522.316	223.642
525.209	264.903
528.101	192.038
530.994	170.992
533.887	171.352
536.779	95.3516
539.672	54.8643
542.565	25.7974
545.457	21.9932
548.35	11.4888
551.243	57.3301
554.136	45.6265
557.028	24.4326
559.921	28.8477
562.814	28.2163
565.706	24.687
568.599	38.2012
571.492	73.3706
574.385	5.36865
577.277	112.185
580.17	140.026
583.063	154.855
585.955	235.964
588.848	276.526
591.741	378.372
594.633	486.768
597.526	568.587
600.419	633.13
603.312	726.107
606.204	840.897
609.097	940.222
611.99	904.805
614.882	839.707
617.775	735.648
620.668	653.101
623.56	481.033
626.453	413.328
629.346	379.87
632.239	359.857
635.131	297.729
638.024	261.329
640.917	217.559
643.809	168.145
646.702	162.541
649.595	145.892
652.487	88.1787
655.38	77.5396
658.273	102.939
661.165	53.3276
664.058	80.1582
666.951	7.15771
669.844	54.9463
672.736	48.1992
675.629	37.4365
678.522	26.8428
681.414	7.8667
684.307	14.0132
687.2	28.8198
690.092	37.2964
692.985	47.1025
695.878	22.7856
698.771	25.6025
701.663	32.2417
704.556	15.4419
707.449	48.8555
710.341	47.3257
713.234	51.8569
716.127	34.5405
719.019	43.7515
721.912	70.1108
724.805	97.375
727.698	61.2241
730.59	87.5977
733.483	73.4956
736.376	34.9756
739.268	77.3384
742.161	1.90674
745.054	33.6846
747.947	11.7095
750.839	33.4937
753.732	45.4619
756.625	45.7275
759.517	76.1621
762.41	44.4795
765.303	103.879
768.195	76.9712
771.088	66.7798
773.981	44.6992
776.874	17.9136
779.766	45.9053
782.659	1.88574
785.552	55.6035
788.444	55.9873
791.337	7.14209
794.23	46.5063
797.122	59.0215
800.015	56.0454
802.908	73.5122
805.801	26.2212
808.693	6.68604
811.586	85.9834
814.479	32.7256
817.371	48.79
820.264	34.0869
823.157	20.5557
826.049	61.6455
828.942	32.8843
831.835	85.686
834.728	60.4702
837.62	66.4448
840.513	59.855
843.406	27.7637
846.298	2.61377
849.191	71.0347
852.084	80.6538
854.976	91.6743
857.869	69.4761
860.762	56.2559
863.655	26.9185
866.547	41.9399
869.44	36.1982
872.333	40.9932
875.225	14.7617
878.118	71.5845
881.011	26.6221
883.904	53.3633
886.796	34.0039
889.689	27.6284
892.582	28.1841
895.474	34.1211
898.367	29.5361
901.26	17.8325
904.152	34.2246
907.045	3.61621
909.938	20.3433
912.831	36.3672
915.723	39.0151
918.616	32.1089
921.509	9.10449
924.401	2.67627
927.294	43.3179
930.187	4.08057
933.079	80.353
935.972	107.509
938.865	149.634
941.758	221.041
944.65	149.86
947.543	238.292
950.436	261.158
953.328	294.092
956.221	355.334
959.114	354.271
962.006	420.723
964.899	452.356
967.792	439.277
970.684	650.263
973.577	830.541
976.47	1177.85
979.363	1904.12
982.255	3254.19
985.148	5642.72
988.041	8832.69
990.933	11377.4
993.826	10486.1
996.719	6871.92
999.611	3411.48
1002.5	1503.37
1005.4	725.281
1008.29	390.101
1011.18	287.847
1014.08	267.625
1016.97	277.128
1019.86	341.634
1022.75	408.487
1025.65	446.97
1028.54	320.373
1031.43	158.774
1034.32	91.2446
1037.22	50.293
1040.11	3.4751
1043	2.50195
1045.89	45.8545
1048.79	34.5898
1051.68	4.44092
1054.57	17.4883
1057.46	115.749
1060.36	133.822
1063.25	130.698
1066.14	177.332
1069.04	195.442
1071.93	157.292
1074.82	280.086
1077.71	252.713
1080.61	284.559
1083.5	340.375
1086.39	330.195
1089.29	386.146
1092.18	299.857
1095.07	240.713
1097.96	231.911
1100.86	202.652
1103.75	171.069
1106.64	161.146
1109.53	195.755
1112.43	245.808
1115.32	264.383
1118.21	246.91
1121.11	287.91
1124	294.002
1126.89	375.662
1129.78	334.275
1132.68	189.467
1135.57	226.599
1138.46	145.812
1141.35	107.457
1144.25	98.7993
1147.14	59.812
1150.03	28.4521
1152.92	39.1621
1155.82	15.4238
1158.71	2.75879
1161.6	30.2803
1164.49	21.144
1167.39	26.9898
1170.28	14.0161
1173.17	2.63232
1176.07	50.106
1178.96	65.1709
1181.85	23.3755
1184.74	42.2715
1187.64	28.103
1190.53	41.1773
1193.42	84.4111
1196.32	79.083
1199.21	123.87
1202.1	91.9893
1204.99	44.8452
1207.89	99.4385
1210.78	102.907
1213.67	78.5903
1216.56	97.269
1219.46	45.5742
1222.35	82.6538
1225.24	51.7788
1228.13	55.1465
1231.03	6.94434
1233.92	22.2114
1236.81	61.644
1239.71	22.8477
1242.6	24.915
1245.49	27.5742
1248.38	18.1616
1251.28	25.7148
1254.17	1.74853
1257.06	10.8027
1259.95	19.3481
1262.85	7.04102
1265.74	59.0122
1268.63	73.2026
1271.53	35.084
1274.42	46.2573
1277.31	27.5483
1280.2	24.646
1283.1	0
