Measurement: Raman, 532 nm, unoriented, Raman Data Processed
Mineral: Alunogen
Rruff sample: R070601
Ideal chemistry: Al_2_(SO_4_)_3_(H_2_O)_12_5H_2_O
Locality: Alum Grotto, Vulcano Island, Aeolian Islands, Messina, Sicily, Italy
Source: James Shigley
Description: Granular aggregates of white microcrystals associated with light tan to light purple coquimbite.
Raman shift (cm-1)	intensity
156.119	0
159.012	80.0772
161.905	22.8154
164.797	0.561035
167.69	28.8857
170.583	72.8975
173.475	48.3208
176.368	53.2783
179.261	78.5566
182.154	235.065
185.046	347.424
187.939	285.981
190.832	323.295
193.724	364.478
196.617	400.483
199.51	444.49
202.402	269.858
205.295	221.511
208.188	86.5947
211.081	4.26465
213.973	38.2681
216.866	65.0918
219.759	39.417
222.651	127.452
225.544	0.177734
228.437	16.2012
231.329	21.999
234.222	70.5723
237.115	6.44824
240.007	109.239
242.9	24.5288
245.793	227.987
248.685	199.769
251.578	196.522
254.471	314.858
257.364	473.404
260.256	357.573
263.149	426.231
266.042	423.766
268.934	395.688
271.827	510.856
274.72	541.346
277.613	679.801
280.505	848.104
283.398	954.286
286.291	1090.83
289.183	1069.42
292.076	1213.34
294.969	1288.68
297.861	1358.61
300.754	1471.72
303.647	1831.55
306.539	1592.22
309.432	1592.35
312.325	1500.65
315.218	1331.91
318.11	1169.52
321.003	991.582
323.896	925.681
326.788	762.801
329.681	733.481
332.574	600.824
335.466	577.469
338.359	547.222
341.252	448.571
344.145	348.716
347.037	291.759
349.93	219.762
352.823	171.676
355.715	114.31
358.608	59.228
361.501	25.5308
364.394	30.0498
367.286	3.12744
370.179	26.5444
373.072	8.97559
375.964	26.2485
378.857	0.496094
381.75	14.6304
384.642	83.3574
387.535	18.6343
390.428	28.2949
393.32	61.3721
396.213	85.5942
399.106	122.592
401.999	238.938
404.891	324.347
407.784	432.407
410.677	559.919
413.569	679.475
416.462	702.123
419.355	784.593
422.247	752.651
425.14	827.659
428.033	927.332
430.925	1111.22
433.818	1124.01
436.711	1224.12
439.604	1304.71
442.496	1471.89
445.389	1531.74
448.282	1558.12
451.174	1771.97
454.067	1843.06
456.96	2099.02
459.853	2341.23
462.745	2532.09
465.638	2799.38
468.531	2992.25
471.423	2964.54
474.316	2782.22
477.209	2517.26
480.101	2120.17
482.994	1716.91
485.887	1183.01
488.779	827.699
491.672	615.347
494.565	528.027
497.458	378.065
500.35	465.757
503.243	304.924
506.136	323.204
509.028	367.332
511.921	357.013
514.814	410.692
517.707	381.984
520.599	309.906
523.492	438.908
526.385	432.456
529.277	366.734
532.17	303.096
535.063	232.361
537.955	140.07
540.848	85.4014
543.741	53.5977
546.634	47.3193
549.526	8.3252
552.419	27.7979
555.312	63.1543
558.204	30.4658
561.097	58.5322
563.99	90.5371
566.882	24.6729
569.775	114.787
572.668	225.241
575.56	203.348
578.453	307.31
581.346	377.451
584.239	419.522
587.131	501.889
590.024	700.027
592.917	833.244
595.809	978.859
598.702	1171.34
601.595	1373.96
604.487	1525.16
607.38	1667.75
610.273	1564.66
613.165	1485.19
616.058	1350.52
618.951	1079.31
621.844	906.496
624.736	838.385
627.629	698.431
630.522	628.747
633.414	569.322
636.307	655.763
639.2	509.097
642.092	455.695
644.985	323.967
647.878	283.024
650.771	214.535
653.663	222.042
656.556	154.29
659.449	106.154
662.341	138.83
665.234	27.2432
668.127	103.797
671.019	95.2334
673.912	10.2285
676.805	66.9951
679.698	29.0488
682.59	60.2227
685.483	32.585
688.376	13.5098
691.268	31.6895
694.161	14.9775
697.054	54.2471
699.947	86.7549
702.839	13.8535
705.732	27.6104
708.625	52.2315
711.517	58.1982
714.41	63.9902
717.303	17.4336
720.195	76.9844
723.088	83.2852
725.981	8.46777
728.874	77.0371
731.766	79.7109
734.659	80.4189
737.552	33.7353
740.444	52.3926
743.337	9.68848
746.23	51.0459
749.122	71.6699
752.015	29.7646
754.908	33.6084
757.8	61.3223
760.693	0.896484
763.586	4.01172
766.479	57.958
769.371	43.335
772.264	72.8506
775.157	7.69434
778.049	126.361
780.942	111.368
783.835	86.4238
786.727	74.2227
789.62	105.858
792.513	70.5547
795.405	115.796
798.298	5.74121
801.191	71.9609
804.084	17.3799
806.976	53.3389
809.869	92.6885
812.762	63.1299
815.654	40.8506
818.547	83.3848
821.44	51.5098
824.332	33.5596
827.225	54.3984
830.118	53.0156
833.011	42.7393
835.903	2.14844
838.796	103.958
841.689	23.7109
844.581	128.71
847.474	56.084
850.367	107.938
853.26	39.5801
856.152	45.3057
859.045	74.8379
861.938	8.43164
864.83	172.621
867.723	30.7393
870.616	21.25
873.508	17.9209
876.401	37.7324
879.294	15.7607
882.187	57.5703
885.079	48.3877
887.972	41.6719
890.865	2.18945
893.757	39.6562
896.65	62.2363
899.543	34.3467
902.435	20.0078
905.328	67.2197
908.221	21.5293
911.114	1.56055
914.006	11.3682
916.899	67.0811
919.792	114.956
922.684	120.321
925.577	118.431
928.47	128.717
931.362	172.059
934.255	289.592
937.148	326.693
940.04	568.048
942.933	695.942
945.826	937.393
948.718	1042.06
951.611	1223.47
954.504	1314.53
957.397	1319.69
960.289	1335.77
963.182	1149.74
966.075	1251.44
968.967	1405.42
971.86	1766.1
974.753	2539.01
977.645	3939.33
980.538	6634.63
983.431	10139.8
986.324	14471.9
989.216	19041
992.109	21089.4
995.002	16820.8
997.894	9829.91
1000.79	4413.87
1003.68	2144.39
1006.57	1047.42
1009.47	700.787
1012.36	663.61
1015.25	523.89
1018.14	591.903
1021.04	615.957
1023.93	677.619
1026.82	539.349
1029.71	368.238
1032.61	115.072
1035.5	121.154
1038.39	47.1904
1041.29	63.1699
1044.18	95.1289
1047.07	117.514
1049.96	33.3916
1052.86	38.5469
1055.75	115.411
1058.64	134.455
1061.53	286.75
1064.43	423.752
1067.32	509.882
1070.21	653.769
1073.1	894.323
1076	1033.41
1078.89	974.784
1081.78	889.865
1084.67	793.98
1087.57	771.662
1090.46	720.938
1093.35	650.396
1096.25	527.383
1099.14	447.84
1102.03	390.269
1104.92	323.338
1107.82	322.169
1110.71	352.288
1113.6	372.639
1116.49	445.428
1119.39	504.488
1122.28	606.583
1125.17	565.64
1128.07	627.581
1130.96	520.061
1133.85	454.136
1136.74	394.692
1139.64	337.921
1142.53	221.249
1145.42	157.659
1148.32	118.875
1151.21	82.5293
1154.1	112.623
1156.99	58.6699
1159.88	123.615
1162.78	46.5772
1165.67	67.3477
1168.56	90.2041
1171.46	71.3359
1174.35	39.7363
1177.24	45.7217
1180.13	14.0762
1183.03	74.1123
1185.92	4.06152
1188.81	104.5
1191.7	83.1494
1194.6	50.0352
1197.49	62.7441
1200.38	122.539
1203.28	67.9668
1206.17	110.78
1209.06	159.888
1211.95	214.043
1214.85	200.99
1217.74	135.901
1220.63	287.647
1223.53	129.242
1226.42	89.3877
1229.31	141.831
1232.2	79.0098
1235.1	33.1055
1237.99	55.1172
1240.88	55.6611
1243.77	102.627
1246.67	43.5654
1249.56	41.5215
1252.45	122.564
1255.34	183.41
1258.24	301.223
1261.13	337.928
1264.02	368.664
1266.91	325.377
1269.81	341.19
1272.7	242.319
1275.59	104.666
1278.49	38.6523
1281.38	88.0293
1284.27	138.921
1287.16	0
