Measurement: Raman, 532 nm, unoriented, Raman Data Processed
Mineral: Alunogen
Rruff sample: R060015
Ideal chemistry: Al_2_(SO_4_)_3_(H_2_O)_12_5H_2_O
Locality: Saxony, Germany
Source: American Museum of Natural History
Description: Colorless compact mass of fibers, along with some sprays of acicular single crystals
Measured chemistry: (Al_1.77_Fe^3+^_0.23_)_Σ=2_(S_1.00_O_4_)_3_·17H_2_O
Raman shift (cm-1)	intensity
143.218	0
146.111	75.3852
149.003	21.9102
151.896	7.05859
154.789	34.4927
157.681	12.9673
160.574	119.009
163.467	175.295
166.36	173.859
169.252	216.885
172.145	266.384
175.038	329.812
177.93	404.753
180.823	365.567
183.716	337.701
186.608	326.701
189.501	187.183
192.394	178.073
195.286	17.8911
198.179	9.41504
201.072	42.8843
203.965	89.7085
206.857	131.605
209.75	157.205
212.643	175.042
215.535	166.083
218.428	148.487
221.321	104.106
224.214	40.123
227.106	33.542
229.999	65.3208
232.892	46.96
235.784	56.5552
238.677	39.5498
241.57	63.0991
244.462	82.3843
247.355	126.537
250.248	71.4614
253.141	51.6299
256.033	14.3389
258.926	27.9531
261.819	27.7891
264.711	1.80371
267.604	240.843
270.497	33.5942
273.389	12.6738
276.282	83.1416
279.175	110.533
282.067	392.197
284.96	470.343
287.853	356.536
290.746	407.363
293.638	415.67
296.531	534.686
299.424	742.932
302.316	864.97
305.209	996.325
308.102	1036.65
310.995	1036.09
313.887	976.533
316.78	987.079
319.673	925.97
322.565	853.15
325.458	822.336
328.351	682.548
331.243	611.877
334.136	618.296
337.029	630.946
339.921	548.376
342.814	498.328
345.707	404.456
348.599	300.628
351.492	177.814
354.385	122.626
357.278	48.0129
360.17	22.1719
363.063	3.08472
365.956	45.1511
368.848	67.0659
371.741	61.5125
374.634	87.6494
377.526	56.6248
380.419	19.5237
383.312	29.8066
386.205	112.652
389.097	164.987
391.99	191.717
394.883	273.101
397.775	360.633
400.668	521.362
403.561	630.868
406.454	864.91
409.346	1106.82
412.239	1355.78
415.132	1566.38
418.024	1816.04
420.917	1946.89
423.81	2085.89
426.702	2049.17
429.595	2044.9
432.488	2035.51
435.38	2118.23
438.273	2167.83
441.166	2372
444.059	2466.22
446.951	2571.43
449.844	2613.95
452.737	2736.81
455.629	2922.34
458.522	3180.88
461.415	3445.07
464.308	3950.22
467.2	4315.14
470.093	4699.66
472.986	4843.93
475.878	4727.86
478.771	4499.64
481.664	4143.05
484.556	3686.31
487.449	3086.82
490.342	2510.19
493.235	2008.48
496.127	1524.3
499.02	1203.6
501.913	915.046
504.805	708.928
507.698	565.745
510.591	392.37
513.483	348.604
516.376	296.025
519.269	307.143
522.161	238.384
525.054	238.566
527.947	190.511
530.84	147.96
533.732	48.2051
536.625	26.8716
539.518	19.4141
542.41	45.3064
545.303	86.8796
548.196	42.085
551.088	32.4131
553.981	63.2773
556.874	62.0315
559.766	2.6687
562.659	43.7339
565.552	132.907
568.445	212.416
571.337	250.568
574.23	341.047
577.123	448.599
580.015	558.96
582.908	740.318
585.801	880.054
588.693	1114.24
591.586	1343.51
594.479	1582.14
597.372	1844.27
600.264	2064.91
603.157	2251.79
606.05	2391.81
608.942	2389.97
611.835	2364.43
614.728	2220.73
617.62	2043.91
620.513	1957.38
623.406	1797.82
626.299	1620.13
629.191	1468.66
632.084	1317.04
634.977	1194.45
637.869	1044.86
640.762	951.159
643.655	781.698
646.548	666.199
649.44	600.077
652.333	504.435
655.226	389.962
658.118	357.821
661.011	259.166
663.904	167.945
666.796	179.829
669.689	185.513
672.582	87.9575
675.474	69.5405
678.367	67.7915
681.26	2.06372
684.153	55.1597
687.045	6.87622
689.938	31.148
692.831	0.277832
695.723	9.36572
698.616	25.2036
701.509	3.28565
704.401	35.3303
707.294	2.08106
710.187	58.9365
713.08	11.9451
715.972	84.9629
718.865	72.7483
721.758	95.8198
724.65	92.3352
727.543	117.368
730.436	103.179
733.328	91.6067
736.221	100.022
739.114	87.3477
742.006	105.628
744.899	96.3391
747.792	64.6785
750.685	75.387
753.577	74.2781
756.47	42.4707
759.363	7.58374
762.255	19.8767
765.148	4.5105
768.041	19.1367
770.933	41.6404
773.826	42.3674
776.719	4.9668
779.612	21.4038
782.504	13.3328
785.397	47.2385
788.29	52.6982
791.182	63.6333
794.075	131.722
796.968	131.764
799.861	169.507
802.753	177.565
805.646	197.185
808.539	233.983
811.431	261.952
814.324	289.033
817.217	305.792
820.109	365.708
823.002	438.217
825.895	460.099
828.788	488.205
831.68	530.332
834.573	591.789
837.466	585.403
840.358	574.795
843.251	569.502
846.144	532.716
849.036	590.646
851.929	532.142
854.822	579.924
857.714	501.525
860.607	529.271
863.5	528.388
866.393	529.463
869.285	459.49
872.178	465.161
875.071	478.709
877.963	487.572
880.856	422.898
883.749	393.317
886.641	410.425
889.534	359.317
892.427	324.527
895.319	302.577
898.212	283.781
901.105	188.641
903.998	181.814
906.89	149.196
909.783	133.003
912.676	32.5727
915.568	64.3301
918.461	5.09253
921.354	26.9277
924.246	30.2678
927.139	7.45142
930.032	13.6387
932.925	28.3181
935.817	89.2861
938.71	40.5129
941.603	6.79053
944.495	27.3814
947.388	50.1333
950.281	79.4993
953.173	161.322
956.066	215.566
958.959	314.106
961.852	544.766
964.744	844.762
967.637	1195.71
970.53	1840.84
973.422	2730.58
976.315	4104.06
979.208	6020.73
982.101	8334.41
984.993	10799.4
987.886	13198.9
990.779	15805.5
993.671	17386.9
996.564	17315.6
999.457	14369.2
1002.35	7486.98
1005.24	3467.01
1008.13	1876.26
1011.03	1228.95
1013.92	930.656
1016.81	750.302
1019.71	667.849
1022.6	608.378
1025.49	533.357
1028.38	512.865
1031.28	453.796
1034.17	325.799
1037.06	267.616
1039.95	153.525
1042.85	104.513
1045.74	60.5571
1048.63	43.8882
1051.53	63.4434
1054.42	133.38
1057.31	195.185
1060.2	278.128
1063.1	350.352
1065.99	490.392
1068.88	557.378
1071.77	854.359
1074.67	830.23
1077.56	967.555
1080.45	1041.92
1083.35	1082.17
1086.24	864.349
1089.13	636.366
1092.02	457.512
1094.92	332.996
1097.81	185.605
1100.7	161.841
1103.59	117.512
1106.49	117.128
1109.38	180.112
1112.27	233.392
1115.16	314.703
1118.06	442.11
1120.95	542.532
1123.84	585.799
1126.73	559.125
1129.63	422.406
1132.52	248.258
1135.41	162.038
1138.31	126.048
1141.2	39.8469
1144.09	44.95
1146.98	58.3767
1149.88	52.7844
1152.77	49.741
1155.66	24.8662
1158.56	23.1572
1161.45	5.65527
1164.34	16.8342
1167.23	56.6787
1170.13	49.6685
1173.02	87.3599
1175.91	155.849
1178.8	189.718
1181.7	229.481
1184.59	216.539
1187.48	233.248
1190.38	281.393
1193.27	258.281
1196.16	335.467
1199.05	318.512
1201.95	327.134
1204.84	325.194
1207.73	317.651
1210.62	302.654
1213.52	274.873
1216.41	254.903
1219.3	225.035
1222.19	232.889
1225.09	210.883
1227.98	181.899
1230.87	190.161
1233.77	167.385
1236.66	170.705
1239.55	162.367
1242.44	130.916
1245.34	100.431
1248.23	94.3418
1251.12	71.0149
1254.01	57.9102
1256.91	50.3406
1259.8	28.1819
1262.69	55.5042
1265.59	17.0581
1268.48	71.5081
1271.37	78.0852
1274.26	113.721
1277.16	26.5664
1280.05	56.2217
1282.94	45.1248
