Measurement: Raman, 780 nm, unoriented, Raman Data Processed
Mineral: Amarantite
Rruff sample: R050153
Ideal chemistry: Fe^3+^_2_O(SO_4_)_2_7H_2_O
Locality: Paposo, Antofagasta, Chile
Source: Jim McGlasson
Description: Aggregate of red radiating platy crystals
Measured chemistry: Fe^3+^_2.00_(S_1.00_O_4_)_2_OÂ·7H_2_O
Raman shift (cm-1)	intensity
118.537	0
121.912	10.9207
125.287	23.7435
128.661	35.2107
132.036	11.0223
135.411	2.67263
138.786	0.250031
142.161	2.39722
145.535	5.66651
148.91	15.8766
152.285	22.6362
155.66	35.0933
159.035	44.0438
162.41	50.7874
165.784	48.7626
169.159	56.1789
172.534	86.2393
175.909	96.9696
179.284	100.302
182.658	121.348
186.033	138.374
189.408	172.44
192.783	238.53
196.158	216.008
199.532	156.072
202.907	151.184
206.282	121.244
209.657	90.0237
213.032	77.6667
216.406	76.0818
219.781	85.1283
223.156	100.84
226.531	112.859
229.906	108.228
233.281	86.3634
236.655	70.6082
240.03	67.2626
243.405	70.7995
246.78	66.8004
250.155	55.7717
253.53	40.7018
256.904	32.3621
260.279	23.9304
263.654	15.9591
267.029	11.8373
270.404	10.8657
273.778	8.76955
277.153	8.90173
280.528	9.53229
283.903	11.2141
287.278	12.1343
290.652	10.1007
294.027	4.48529
297.402	0.224117
300.777	1.2039
304.152	1.06116
307.527	0.062805
310.901	1.24307
314.276	2.22171
317.651	3.14583
321.026	2.90833
324.401	1.44148
327.776	0.535172
331.15	1.56962
334.525	3.80291
337.9	6.65913
341.275	9.66788
344.649	11.5573
348.024	10.3933
351.399	11.7742
354.774	13.8211
358.149	16.0204
361.524	18.8405
364.898	23.6381
368.273	30.3247
371.648	36.854
375.023	44.065
378.398	53.1186
381.772	66.4542
385.147	81.8046
388.522	101.673
391.897	121.273
395.272	141.489
398.647	162.609
402.021	176.218
405.396	179.904
408.771	165.689
412.146	135.225
415.521	102.335
418.896	74.827
422.27	53.8328
425.645	39.172
429.02	30.1675
432.395	26.9889
435.77	22.8457
439.144	19.4977
442.519	16.7045
445.894	15.9203
449.269	16.9255
452.644	14.9326
456.019	9.55288
459.393	4.73117
462.768	0.521255
466.143	0.317163
469.518	0.088226
472.893	0.650047
476.267	3.07503
479.642	6.06534
483.017	8.93425
486.392	10.2759
489.767	10.4604
493.142	10.1813
496.516	6.81827
499.891	4.18174
503.266	0.784714
506.641	0.188786
510.015	0.735876
513.39	1.37299
516.765	0.753386
520.14	0.560084
523.515	0.18625
526.89	0.317277
530.264	0.871588
533.639	0.996712
537.014	1.66631
540.389	1.89447
543.764	1.7878
547.139	1.83317
550.513	1.30814
553.888	1.97232
557.263	2.30149
560.638	2.85045
564.013	3.02607
567.388	3.09692
570.762	2.81323
574.137	2.72815
577.512	3.04084
580.887	2.76657
584.261	3.72958
587.636	3.88446
591.011	6.14002
594.386	6.92574
597.761	7.77452
601.136	8.87701
604.51	9.57099
607.885	9.88831
611.26	9.46068
614.635	8.92558
618.01	9.00819
621.385	7.97073
624.759	7.44213
628.134	6.14541
631.509	4.52569
634.884	3.71407
638.259	3.45404
641.633	2.7863
645.008	2.12055
648.383	1.85604
651.758	1.63769
655.133	0.700994
658.507	0.423483
661.882	0.184559
665.257	0.079205
668.632	0.481376
672.007	0.114172
675.381	0.063314
678.756	0.106256
682.131	0.215539
685.506	0.615195
688.881	1.17653
692.256	2.3616
695.63	3.28364
699.005	4.78328
702.38	5.70585
705.755	7.35155
709.13	9.25334
712.505	10.394
715.879	10.3231
719.254	9.40028
722.629	7.30325
726.004	5.12435
729.379	3.43869
732.753	1.93755
736.128	1.97858
739.503	1.26325
742.878	0.840837
746.253	0.530554
749.628	0.471507
753.002	0.266479
756.377	0.115996
759.752	0.04379
763.127	0.114155
766.502	0.390625
769.876	0.1443
773.251	0.312476
776.626	0.511614
780.001	0.18192
783.376	0.185138
786.75	0.310916
790.125	0.403178
793.5	0.623353
796.875	0.85317
800.25	0.542601
803.625	0.595083
806.999	0.649532
810.374	1.00515
813.749	1.06828
817.124	0.730843
820.499	0.902306
823.874	1.42956
827.248	1.31528
830.623	0.992978
833.998	1.75747
837.373	1.15095
840.748	1.58859
844.122	1.19187
847.497	1.3393
850.872	1.27261
854.247	1.11026
857.622	0.466942
860.996	0.296961
864.371	0.652074
867.746	0.829338
871.121	0.573499
874.496	0.619615
877.87	1.19132
881.245	0.521504
884.62	0.46043
887.995	0.363739
891.37	0.696529
894.745	0.789131
898.119	0.829978
901.494	0.912555
904.869	0.758233
908.244	0.914821
911.619	1.51386
914.994	1.68343
918.368	2.1764
921.743	1.26154
925.118	1.46192
928.493	0.99518
931.868	1.56468
935.242	1.17632
938.617	1.00092
941.992	0.82779
945.367	0.964175
948.742	0.636731
952.116	0.465289
955.491	0.818704
958.866	0.089585
962.241	0.035164
965.616	0.094604
968.99	0.642348
972.365	0.745343
975.74	0.473094
979.115	0.432705
982.49	0.097486
985.865	0.572416
989.239	2.88866
992.614	6.7874
995.989	11.7669
999.364	21.0696
1002.74	42.758
1006.11	65.0321
1009.49	80.8694
1012.86	113.873
1016.24	154.171
1019.61	88.1922
1022.99	29.4453
1026.36	15.0203
1029.74	12.3593
1033.11	15.323
1036.49	22.5637
1039.86	30.6425
1043.24	39.3531
1046.61	49.2856
1049.99	59.1547
1053.36	56.8206
1056.74	31.7261
1060.11	13.5029
1063.48	4.64246
1066.86	1.66587
1070.23	0.915951
1073.61	1.50023
1076.98	6.0898
1080.36	13.5696
1083.73	27.3811
1087.11	45.6984
1090.48	66.9468
1093.86	93.4501
1097.23	105.367
1100.61	66.8138
1103.98	32.2575
1107.36	16.1946
1110.73	11.6679
1114.11	11.6979
1117.48	15.934
1120.86	20.2992
1124.23	25.0939
1127.61	27.7146
1130.98	25.4937
1134.36	19.5673
1137.73	12.2772
1141.11	6.38617
1144.48	3.69875
1147.86	0.89106
1151.23	0.214325
1154.61	0.179597
1157.98	0.90395
1161.36	1.21371
1164.73	0.437739
1168.11	0.107323
1171.48	0.561775
1174.85	1.07695
1178.23	1.95983
1181.6	3.0118
1184.98	4.03047
1188.35	5.27251
1191.73	6.28068
1195.1	6.94665
1198.48	5.82067
1201.85	5.69836
1205.23	5.71718
1208.6	6.15169
1211.98	7.21426
1215.35	9.78215
1218.73	12.0877
1222.1	16.8691
1225.48	22.1521
1228.85	27.9054
1232.23	29.2233
1235.6	25.5685
1238.98	17.0747
1242.35	10.4964
1245.72	6.65058
1249.1	3.53123
1252.47	2.6096
1255.85	1.79673
1259.22	1.03463
1262.6	0.684639
1265.97	0.200201
1269.35	0.390349
1272.72	0.564838
1276.1	0
