Measurement: Raman, 532 nm, unoriented, Raman Data Processed
Mineral: Amarantite
Rruff sample: R050153
Ideal chemistry: Fe^3+^_2_O(SO_4_)_2_7H_2_O
Locality: Paposo, Antofagasta, Chile
Source: Jim McGlasson
Description: Aggregate of red radiating platy crystals
Measured chemistry: Fe^3+^_2.00_(S_1.00_O_4_)_2_OÂ·7H_2_O
Raman shift (cm-1)	intensity
121.709	0
125.084	5.46184
128.458	10.5836
131.833	11.0541
135.208	2.27393
138.583	5.7708
141.958	2.05586
145.333	3.47114
148.707	15.5034
152.082	24.6304
155.457	41.5772
158.832	58.0266
162.207	53.7644
165.582	43.756
168.956	32.1155
172.331	44.3457
175.706	65.4159
179.081	81.2553
182.456	106.467
185.83	106.679
189.205	91.4502
192.58	121.722
195.955	141.534
199.33	92.9967
202.704	83.6277
206.079	78.04
209.454	49.2926
212.829	36.8402
216.204	37.0395
219.578	46.1596
222.953	60.2263
226.328	83.7456
229.703	91.439
233.078	73.6689
236.453	56.7254
239.827	60.3859
243.202	70.0042
246.577	76.7953
249.952	68.3491
253.327	45.3382
256.702	28.1671
260.076	14.9561
263.451	6.58974
266.826	0.576576
270.201	0.333168
273.576	0.071457
276.95	2.69138
280.325	7.67602
283.7	16.24
287.075	28.2377
290.45	34.4309
293.825	27.8354
297.199	16.7172
300.574	8.0052
303.949	4.34969
307.324	2.76314
310.699	1.28938
314.073	0.351711
317.448	2.8681
320.823	3.06218
324.198	2.31652
327.573	0.847895
330.947	1.01331
334.322	3.59599
337.697	6.43998
341.072	10.6788
344.447	13.0706
347.822	13.786
351.196	11.1214
354.571	10.4631
357.946	10.4154
361.321	13.0066
364.696	16.7284
368.07	22.2795
371.445	28.605
374.82	36.0788
378.195	42.9098
381.57	53.5863
384.945	65.0367
388.319	79.2455
391.694	95.7447
395.069	107.136
398.444	120.688
401.819	130.209
405.193	136.76
408.568	133.914
411.943	114.702
415.318	88.9147
418.693	63.8028
422.067	45.2971
425.442	32.4282
428.817	22.6336
432.192	15.7014
435.567	12.54
438.942	11.4837
442.316	10.7653
445.691	10.8289
449.066	11.2508
452.441	11.8519
455.816	8.37549
459.19	3.00983
462.565	0.419025
465.94	2.41429
469.315	0.076138
472.69	7.1814
476.065	17.1956
479.439	31.8449
482.814	42.368
486.189	47.0549
489.564	49.7261
492.939	47.3993
496.313	42.3053
499.688	28.6509
503.063	18.0506
506.438	10.4241
509.813	4.9193
513.188	2.13675
516.562	0.342806
519.937	0.00819
523.312	0.035297
526.687	0.005548
530.062	0.991755
533.436	0.841209
536.811	0.996853
540.186	0.674805
543.561	0.069643
546.936	0.247366
550.311	0.040087
553.685	0.341822
557.06	0.437016
560.435	0.293571
563.81	0.238173
567.185	0.583622
570.559	0.361557
573.934	0.718298
577.309	1.87715
580.684	2.20872
584.059	2.41043
587.433	3.1967
590.808	4.79513
594.183	6.3616
597.558	7.63828
600.933	9.64077
604.308	11.1941
607.682	11.1396
611.057	10.5074
614.432	8.18852
617.807	6.14229
621.182	4.67532
624.556	3.99952
627.931	3.33054
631.306	1.75689
634.681	1.48576
638.056	1.61835
641.431	1.00789
644.805	1.50924
648.18	1.24359
651.555	2.78101
654.93	2.53161
658.305	1.91827
661.679	2.74558
665.054	3.10635
668.429	2.59683
671.804	1.93022
675.179	1.526
678.553	0.176807
681.928	0.266014
685.303	0.16191
688.678	1.58081
692.053	2.78722
695.428	4.14666
698.802	7.37055
702.177	11.5459
705.552	15.6638
708.927	21.0029
712.302	23.6835
715.677	27.7886
719.051	25.6084
722.426	21.2136
725.801	15.5122
729.176	10.2721
732.551	6.65506
735.925	4.01006
739.3	2.75208
742.675	1.84351
746.05	0.463482
749.425	0.151142
752.799	0.463206
756.174	0.411129
759.549	0.530579
762.924	0.079521
766.299	0.172573
769.673	0.390231
773.048	0.55286
776.423	0.7251
779.798	0.765472
783.173	1.16403
786.548	0.312769
789.922	0.383496
793.297	0.195844
796.672	0.252123
800.047	0.32626
803.422	0.083751
806.796	0.308261
810.171	0.499443
813.546	0.576784
816.921	0.461505
820.296	0.424167
823.67	0.128469
827.045	0.052459
830.42	0.71927
833.795	0.80965
837.17	0.674876
840.545	0.887987
843.919	0.371781
847.294	1.06862
850.669	0.428115
854.044	0.846933
857.419	0.821591
860.793	0.552693
864.168	0.541341
867.543	0.8004
870.918	0.995317
874.293	0.926728
877.668	1.34958
881.042	1.12424
884.417	1.43969
887.792	1.28265
891.167	1.51106
894.542	1.36333
897.917	1.16379
901.291	1.57202
904.666	1.74494
908.041	1.63055
911.416	1.67508
914.791	2.06857
918.165	2.22301
921.54	2.82855
924.915	3.34214
928.29	3.92031
931.665	4.22848
935.039	3.2558
938.414	3.30077
941.789	3.59466
945.164	2.34134
948.539	2.51486
951.914	2.15117
955.288	1.47923
958.663	1.24744
962.038	1.18989
965.413	0.614505
968.788	0.617786
972.163	0.4179
975.537	0.802134
978.912	1.29891
982.287	1.81085
985.662	1.71484
989.037	0.509364
992.411	1.41365
995.786	6.0958
999.161	12.8311
1002.54	25.793
1005.91	47.6454
1009.28	61.2106
1012.66	82.0142
1016.03	148.649
1019.41	157.088
1022.78	58.7637
1026.16	26.2826
1029.53	22.7472
1032.91	28.1405
1036.28	45.6262
1039.66	67.9596
1043.03	90.7634
1046.41	124.296
1049.78	178.66
1053.16	228.227
1056.53	177.978
1059.91	89.071
1063.28	39.4252
1066.66	20.9829
1070.03	10.8127
1073.41	8.17253
1076.78	8.81968
1080.16	15.5979
1083.53	30.3036
1086.91	57.2925
1090.28	97.548
1093.66	153.167
1097.03	218.415
1100.4	189.735
1103.78	91.3335
1107.15	38.4858
1110.53	18.7747
1113.9	11.8937
1117.28	11.0875
1120.65	16.4184
1124.03	25.011
1127.4	32.9731
1130.78	39.3564
1134.15	34.191
1137.53	22.6308
1140.9	12.8229
1144.28	5.61028
1147.65	1.70494
1151.03	1.23677
1154.4	1.94133
1157.78	1.84047
1161.15	1.39253
1164.53	1.06316
1167.9	0.002815
1171.28	1.94692
1174.65	3.7049
1178.03	6.02275
1181.4	9.23972
1184.78	14.0111
1188.15	17.8234
1191.53	22.0181
1194.9	24.6606
1198.28	22.5332
1201.65	21.0898
1205.03	19.2104
1208.4	20.0368
1211.77	21.803
1215.15	26.9854
1218.52	35.9275
1221.9	49.4092
1225.27	71.4777
1228.65	98.5385
1232.02	123.737
1235.4	122.829
1238.77	90.9937
1242.15	56.6465
1245.52	35.1859
1248.9	22.4584
1252.27	14.3901
1255.65	8.81022
1259.02	5.98071
1262.4	3.92545
1265.77	2.70497
1269.15	1.95135
1272.52	1.00789
1275.9	0.822869
1279.27	0.322316
1282.65	0.026867
1286.02	0.225781
1289.39	0.385448
1292.77	0.266975
1296.14	0.496689
1299.52	0.066121
