Measurement: Raman, 780 nm, unoriented, Raman Data Processed
Mineral: Amber
Rruff sample: R060569
Locality: Baltic Sea Region, Poland
Source: Michael Scott
Description: Reddish-brown amorphous fragment
Raman shift (cm-1)	intensity
102.692	0
106.067	23.2939
109.442	21.4629
112.817	46.8623
116.192	67.9287
119.566	66.7812
122.941	75.1611
126.316	61.4297
129.691	55.2568
133.066	57.1787
136.44	44.8877
139.815	47.165
143.19	18.3711
146.565	25.1279
149.94	6.85059
153.315	7.0332
156.689	8.52637
160.064	9.16211
163.439	4.42285
166.814	32.1914
170.189	29.7715
173.563	44.7188
176.938	66.1562
180.313	68.0732
183.688	72.2666
187.063	76.5391
190.437	79.9756
193.812	96.5742
197.187	91.8594
200.562	70.7041
203.937	60.9141
207.311	70.3184
210.686	56.2949
214.061	62.9395
217.436	52.5244
220.811	42.5156
224.186	36.958
227.56	43.0772
230.935	20.2998
234.31	20.7764
237.685	19.752
241.06	9.25488
244.435	19.1973
247.809	34.2109
251.184	15.9297
254.559	2.65137
257.934	11.3994
261.309	18.5859
264.683	24.0039
268.058	10.459
271.433	2.01953
274.808	3.92871
278.183	4.54004
281.558	13.9219
284.932	0.990234
288.307	6.08691
291.682	33.6934
295.057	46.0947
298.432	53.8926
301.806	57.5859
305.181	69.2978
308.556	79.5879
311.931	89.4228
315.306	91.9619
318.68	78.8125
322.055	74.0273
325.43	62.4922
328.805	65.6592
332.18	56.0049
335.555	70.5537
338.929	74.9951
342.304	61.8506
345.679	62.4941
349.054	82.4629
352.429	90.8799
355.803	119.918
359.178	127.266
362.553	141.683
365.928	151.542
369.303	174.574
372.678	163.26
376.052	111.798
379.427	86.6787
382.802	62.1899
386.177	43.1148
389.552	31.3345
392.926	5.9834
396.301	10.4126
399.676	2.60205
403.051	7.31494
406.426	9.68555
409.801	16.2051
413.175	2.65967
416.55	14.7153
419.925	40.166
423.3	70.2798
426.675	77.0781
430.05	110.333
433.424	138.781
436.799	176.066
440.174	198.326
443.549	216.478
446.924	194.538
450.298	181.774
453.673	173.921
457.048	148.974
460.423	122.918
463.798	85.7109
467.173	70.1367
470.547	56.3555
473.922	65.9297
477.297	43.2891
480.672	47.6445
484.046	56.6279
487.421	54.2432
490.796	56.8047
494.171	52.2817
497.546	49.0239
500.921	47.4541
504.295	67.4058
507.67	85.0371
511.045	88.4077
514.42	102.661
517.795	121.31
521.169	140.371
524.544	126.059
527.919	131.401
531.294	122.132
534.669	116.407
538.044	124.101
541.418	133.166
544.793	131.602
548.168	137.329
551.543	183.698
554.918	180.736
558.293	139.628
561.667	91.5854
565.042	37.5156
568.417	13.4053
571.792	2.14062
575.167	1.85205
578.541	3.15674
581.916	1.12939
585.291	1.46777
588.666	9.35303
592.041	13.3843
595.415	15.8662
598.79	25.646
602.165	11.1963
605.54	13.7485
608.915	10.3281
612.29	8.86768
615.664	0.506836
619.039	4.8042
622.414	3.04541
625.789	7.51025
629.164	12.3227
632.538	20.1392
635.913	25.7246
639.288	35.2861
642.663	43.0151
646.038	23.3477
649.413	22.9277
652.787	12.3164
656.162	1.25391
659.537	10.5938
662.912	8.58252
666.287	0.438477
669.662	5.6665
673.036	4.87256
676.411	15.0381
679.786	33.5503
683.161	48.9395
686.536	85.4561
689.91	132.183
693.285	205.154
696.66	216.075
700.035	201.848
703.41	172.217
706.784	203.699
710.159	247.197
713.534	273.663
716.909	281.586
720.284	302.018
723.659	291.441
727.033	232.551
730.408	219.355
733.783	221.58
737.158	237.306
740.533	267.063
743.908	291.508
747.282	250.246
750.657	191.284
754.032	123.87
757.407	85.9785
760.782	75.0005
764.156	48.7988
767.531	45.9971
770.906	28.3506
774.281	27.1758
777.656	16.5996
781.03	10.6148
784.405	2.01221
787.78	11.5664
791.155	1.51367
794.53	29.2617
797.904	0.039551
801.279	1.14746
804.654	0.167969
808.029	14.5649
811.404	21.665
814.779	17.5425
818.153	52.6626
821.528	51.1143
824.903	45.4253
828.278	37.1465
831.653	25.8936
835.028	34.6704
838.402	24.5723
841.777	20.5645
845.152	25.0044
848.527	42.9009
851.902	60.9292
855.276	63.874
858.651	75.3779
862.026	56.626
865.401	53.9653
868.776	55.206
872.15	77.0303
875.525	100.996
878.9	115.816
882.275	131.345
885.65	114.716
889.025	62.791
892.399	36.7602
895.774	8.7124
899.149	0.855957
902.524	7.44824
905.899	4.02441
909.274	1.64062
912.648	3.34522
916.023	7.88135
919.398	31.6001
922.773	53.5996
926.148	78.999
929.522	113.4
932.897	157.178
936.272	181.89
939.647	169.43
943.022	167.552
946.396	181.517
949.771	132.233
953.146	81.9917
956.521	57.8213
959.896	47.2046
963.271	65.1699
966.645	69.6484
970.02	83.0679
973.395	110.885
976.77	126.06
980.145	121.487
983.519	86.5542
986.894	37.6338
990.269	18.4678
993.644	9.24463
997.019	15.4702
1000.39	29.9292
1003.77	32.0483
1007.14	38.0112
1010.52	46.1011
1013.89	40.7656
1017.27	42.8154
1020.64	28.4426
1024.02	21.0969
1027.39	13.4316
1030.77	22.0623
1034.14	17.8669
1037.52	31.4875
1040.89	16.3271
1044.27	19.4673
1047.64	27.2502
1051.02	28.3394
1054.39	47.959
1057.77	57.5759
1061.14	72.5828
1064.52	72.7944
1067.89	49.0232
1071.27	28.978
1074.64	11.0605
1078.01	0.081299
1081.39	0.494141
1084.76	10.7332
1088.14	1.68262
1091.51	1.78101
1094.89	11.8606
1098.26	9.34741
1101.64	15.0156
1105.01	25.8035
1108.39	43.2422
1111.76	26.7541
1115.14	12.8667
1118.51	5.62866
1121.89	0.07373
1125.26	20.4248
1128.64	35.529
1132.01	46.3105
1135.39	65.0159
1138.76	60.9514
1142.14	57.4749
1145.51	35.2082
1148.88	25.7327
1152.26	11.2275
1155.63	3.07104
1159.01	4.93286
1162.38	15.207
1165.76	26.8118
1169.13	33.1829
1172.51	55.8272
1175.88	72.6304
1179.26	91.3333
1182.63	114.724
1186.01	149.063
1189.38	185.272
1192.76	232.327
1196.13	269.991
1199.51	316.5
1202.88	343.751
1206.26	310.486
1209.63	237.675
1213.01	168.129
1216.38	115.84
1219.76	68.3508
1223.13	42.0774
1226.51	45.8953
1229.88	18.8931
1233.26	26.4739
1236.63	43.675
1240.01	55.0928
1243.38	64.2683
1246.76	71.4883
1250.13	23.075
1253.51	3.78442
1256.88	0.4729
1260.26	5.45752
1263.63	19.5554
1267	36.8718
1270.38	50.7273
1273.75	24.2617
1277.13	23.7944
1280.5	11.54
1283.88	15.6912
