Measurement: Raman, 532 nm, unoriented, Raman Data Processed
Mineral: Amblygonite
Rruff sample: R040006
Ideal chemistry: LiAlPO_4_F
Locality: Pala, San Diego County, California, USA
Source: University of Arizona Mineral Museum
Description: Light gray coarsely crystalline massive
Measured chemistry: LiAl_1.00_(P_1.00_O_4_)(F_0.73_(OH)_0.27_)_Î£=1_; Li assumed by stoichiometry; OH estimated by charge balance
Raman shift (cm-1)	intensity
121.04	0
124.415	352.344
127.79	1161.52
131.165	1124.83
134.54	453.865
137.914	173.733
141.289	113.193
144.664	224.073
148.039	411.892
151.414	737.532
154.788	1217.99
158.163	1979.5
161.538	2800.26
164.913	3004.75
168.288	2433.38
171.662	1652.16
175.037	1112.48
178.412	796.489
181.787	532.789
185.162	426.091
188.537	284.408
191.911	222.459
195.286	134.458
198.661	119.583
202.036	123.054
205.411	173.316
208.786	138.795
212.16	113.804
215.535	107.16
218.91	81.3628
222.285	34.5996
225.66	25.7082
229.034	6.99072
232.409	37.1472
235.784	37.1511
239.159	69.2098
242.534	60.7656
245.908	62.5115
249.283	17.1108
252.658	52.8167
256.033	206.666
259.408	388.13
262.783	773.281
266.157	1120.87
269.532	1486.78
272.907	1615.15
276.282	1541.03
279.657	1572.2
283.031	1778.24
286.406	2445.65
289.781	3770.17
293.156	6190.51
296.531	9740.39
299.906	14562.1
303.28	16671.6
306.655	12594.6
310.03	8996.7
313.405	6601.07
316.779	4093.19
320.154	2498.26
323.529	1832.17
326.904	1519.53
330.279	1195.78
333.654	908.303
337.028	647.182
340.403	508.142
343.778	408.815
347.153	446.522
350.528	475.86
353.902	552.979
357.277	574.16
360.652	650.445
364.027	677.842
367.402	737.963
370.777	708.56
374.151	618.995
377.526	487.005
380.901	295.796
384.276	192.009
387.651	60.6052
391.026	57.9016
394.4	24.8125
397.775	37.0713
401.15	59.8823
404.525	87.4844
407.899	45.8667
411.274	17.4744
414.649	276.012
418.024	799.704
421.399	1651.91
424.774	2928.49
428.148	2107.28
431.523	746.092
434.898	318.19
438.273	143.668
441.648	62.5498
445.022	59.8618
448.397	67.4929
451.772	141.74
455.147	207.346
458.522	325.38
461.897	458.879
465.271	671.74
468.646	1016.67
472.021	1528.51
475.396	2241.11
478.771	2801.18
482.145	3120.82
485.52	3065.78
488.895	2748.92
492.27	2403.16
495.645	2055.18
499.019	1699.78
502.394	1352.96
505.769	1009.08
509.144	697.412
512.519	527.096
515.894	319.383
519.268	193.653
522.643	99.4827
526.018	87.2832
529.393	34.1143
532.768	15.8765
536.143	53.9297
539.517	21.1543
542.892	53.3318
546.267	5.66211
549.642	24.8938
553.016	6.74146
556.391	48.5237
559.766	40.043
563.141	39.9077
566.516	50.1345
569.891	121.869
573.265	187.276
576.64	268.018
580.015	414.789
583.39	585.378
586.765	972.385
590.139	1543.89
593.514	2494.44
596.889	4093.91
600.264	6728.97
603.639	8218.06
607.014	5057.95
610.388	2704.7
613.763	1855
617.138	1542.45
620.513	1615.77
623.888	2090.04
627.263	2523.17
630.637	3469.04
634.012	4270.25
637.387	5201.6
640.762	7385.68
644.136	11403.7
647.511	11692.1
650.886	6160.89
654.261	2896.08
657.636	1546.18
661.011	950.224
664.385	566.658
667.76	368.744
671.135	234.14
674.51	144.921
677.885	89.6387
681.26	59.9228
684.634	44.1755
688.009	27.5703
691.384	17.7085
694.759	29.0916
698.134	8.46045
701.508	49.1453
704.883	7.36853
708.258	5.00635
711.633	24.4733
715.008	12.2565
718.382	18.5858
721.757	21.469
725.132	30.7748
728.507	47.4542
731.882	45.8746
735.256	17.7208
738.631	8.12964
742.006	27.6058
745.381	32.2667
748.756	50.7471
752.131	76.8157
755.505	47.0122
758.88	28.8667
762.255	8.62158
765.63	49.8481
769.005	41.9338
772.38	50.2959
775.754	78.5571
779.129	98.6382
782.504	164.021
785.879	235.08
789.254	361.07
792.628	558.024
796.003	758.028
799.378	972.802
802.753	1282.1
806.128	1563.99
809.502	1903.16
812.877	1988.62
816.252	1453.48
819.627	1108.62
823.002	891.192
826.376	746.332
829.751	607.399
833.126	454.465
836.501	356.277
839.876	308.212
843.251	279.723
846.625	176.285
850	98.4893
853.375	71.8599
856.75	69.6875
860.125	74.1265
863.5	74.3845
866.874	8.30371
870.249	53.0356
873.624	60.4702
876.999	115.631
880.374	96.7517
883.748	144.648
887.123	210.888
890.498	187.707
893.873	216.33
897.248	223.092
900.622	182.978
903.997	191.02
907.372	203.49
910.747	158.538
914.122	130.761
917.496	95.0186
920.871	68.293
924.246	71.7585
927.621	25.2915
930.996	13.9131
934.371	2.61597
937.745	30.6448
941.12	46.7024
944.495	53.2581
947.87	48.7732
951.245	58.5825
954.619	34.6343
957.994	40.311
961.369	68.0056
964.744	129.268
968.119	124.882
971.494	162.241
974.868	275.265
978.243	467.54
981.618	779.146
984.993	1149.84
988.368	1838.19
991.742	2965.03
995.117	4810.63
998.492	7315.32
1001.87	10434.5
1005.24	14192.3
1008.62	16810.9
1011.99	16833.3
1015.37	13728.4
1018.74	9743.24
1022.12	6529.76
1025.49	4425.79
1028.87	3262.71
1032.24	2899.22
1035.62	3048.38
1038.99	3702.86
1042.37	4397.74
1045.74	5517.94
1049.11	7249.64
1052.49	9945.14
1055.86	14345.2
1059.24	20470.1
1062.61	25109.8
1065.99	21409
1069.36	12272
1072.74	6189.35
1076.11	2990.41
1079.49	1374.5
1082.86	551.922
1086.24	116.445
1089.61	103.368
1092.99	158.781
1096.36	114.186
1099.74	125.864
1103.11	450.267
1106.49	918.265
1109.86	1366.82
1113.24	1814.03
1116.61	2126.93
1119.98	2332.14
1123.36	2309.2
1126.73	2186.09
1130.11	2008.96
1133.48	1737.14
1136.86	1373.24
1140.23	900.029
1143.61	514.452
1146.98	294.466
1150.36	91.4004
1153.73	0.179443
1157.11	69.6985
1160.48	18.8171
1163.86	4.5564
1167.23	0.42627
1170.61	44.6519
1173.98	150.052
1177.36	205.702
1180.73	265.087
1184.11	380.405
1187.48	418.304
1190.86	489.31
1194.23	603.428
1197.61	584.352
1200.98	570.453
1204.36	553.842
1207.73	496.955
1211.11	424.648
1214.48	348.607
1217.86	224.718
1221.23	161.35
1224.61	110.629
1227.98	49.4016
1231.35	33.8142
1234.73	5.94238
1238.1	36.8452
1241.48	27.9973
1244.85	4.271
1248.23	22.8157
1251.6	19.262
1254.98	21.5732
1258.35	35.0898
1261.73	2.60352
1265.1	3.42383
1268.48	35.3359
1271.85	76.5918
1275.23	33.0637
1278.6	42.2102
1281.98	29.4575
1285.35	33.7417
1288.73	38.6414
1292.1	11.583
