Measurement: Raman, 514 nm, unoriented, Raman Data Processed
Mineral: Amblygonite
Rruff sample: R040067
Ideal chemistry: LiAlPO_4_F
Locality: Montebras, France
Source: University of Arizona Mineral Museum
Description: Pale blue fine-grained massive
Measured chemistry: (Li_0.76_Na_0.24_)Al(PO_4_)(F_0.80_(OH)_0.20_)
Raman shift (cm-1)	intensity
140.63	0
144.787	3.723
148.942	198.507
153.096	207.665
157.247	255.996
161.396	382.087
165.544	322.075
169.689	373.368
173.833	251.712
177.974	246.528
182.114	252.5
186.251	381.281
190.387	310.644
194.52	520.574
198.652	495.039
202.782	453.621
206.909	621.178
211.035	294.042
215.159	97.977
219.281	100.907
223.4	124.861
227.518	158.665
231.634	5.889
235.748	25.083
239.86	105.591
243.97	54.858
248.079	11.777
252.185	77.049
256.289	90.255
260.391	215.727
264.492	157.829
268.59	288.936
272.687	378.606
276.781	166.72
280.874	299.384
284.964	612.943
289.053	907.506
293.14	1613.07
297.225	2747.85
301.308	4430
305.389	4536.83
309.468	3674.58
313.545	2594.6
317.62	1842
321.693	1369.69
325.765	966.585
329.834	888.734
333.902	508.157
337.967	231.997
342.031	277.75
346.093	287.896
350.153	163.752
354.21	365.391
358.267	281.198
362.321	155.447
366.373	365.421
370.423	501.196
374.471	406.604
378.518	278.805
382.563	122.647
386.605	105.696
390.646	128.876
394.685	1.897
398.722	272.865
402.757	190.051
406.79	351.701
410.821	506.009
414.851	1403.7
418.878	3196.43
422.904	5649.77
426.927	4725.34
430.949	2501.5
434.969	1216.53
438.987	581.217
443.003	280.354
447.018	267.612
451.03	192.902
455.041	232.232
459.049	44.576
463.056	256.833
467.061	457.182
471.064	693.343
475.065	1041.49
479.064	1608.08
483.062	2036.64
487.057	1962
491.051	1591.18
495.043	1334.16
499.032	1046.96
503.02	927.606
507.007	644.08
510.991	428.1
514.973	220.25
518.954	121.605
522.933	108.142
526.91	79.954
530.885	168.59
534.858	53.244
538.829	85.81
542.799	212.214
546.766	154.079
550.732	142.584
554.696	98.175
558.658	107.743
562.618	203.749
566.576	214.893
570.533	215.178
574.488	38.412
578.44	311.734
582.391	393.643
586.341	223.07
590.288	412.986
594.233	410.373
598.177	952.883
602.119	1157.11
606.059	1296.55
609.997	814.178
613.933	1086.96
617.868	1257.99
621.801	1950.55
625.731	1863.5
629.66	2265.95
633.588	3017.1
637.513	3869.55
641.437	7406.51
645.358	10447.1
649.278	7712.67
653.196	3516.64
657.113	2011.21
661.027	2002.8
664.94	997.762
668.851	637.49
672.76	408.84
676.667	453.434
680.572	316.008
684.476	355.291
688.378	210.197
692.278	128.441
696.176	278.885
700.072	53.785
703.967	21.447
707.86	267.908
711.751	443.797
715.64	51.705
719.527	20.012
723.413	134.73
727.297	185.09
731.179	201.879
735.059	151.549
738.937	139.961
742.814	52.389
746.689	275.246
750.562	5.379
754.433	32.488
758.303	163.145
762.17	129.527
766.036	184.803
769.901	75.559
773.763	2.967
777.624	254.957
781.482	220.678
785.339	223.613
789.195	148.75
793.048	174.469
796.9	207.961
800.75	115.242
804.598	88.303
808.445	301.145
812.289	236.783
816.132	371.229
819.973	214.484
823.813	208.564
827.65	187.471
831.486	478.85
835.32	152.156
839.152	218.492
842.983	417.15
846.812	326.16
850.639	98.771
854.464	335.672
858.288	315.219
862.11	141.598
865.93	301.553
869.748	156.123
873.564	50.98
877.379	131.229
881.192	165.559
885.004	124.689
888.813	18.268
892.621	266.188
896.427	310.699
900.232	427.395
904.034	249.996
907.835	421.734
911.634	225.066
915.432	369.328
919.227	147.943
923.021	196.492
926.813	237.658
930.604	26.559
934.393	57.842
938.18	21.445
941.965	137.01
945.749	192.375
949.53	247.023
953.311	263.291
957.089	285.814
960.866	166.193
964.641	117.574
968.414	384.674
972.185	350.219
975.955	275.785
979.723	544.508
983.49	941.348
987.254	1271.33
991.017	2159.46
994.779	3256.74
998.538	4708.17
1002.3	6512.38
1006.05	8075.24
1009.81	9280.59
1013.56	8553.28
1017.31	6419.65
1021.06	4476.98
1024.81	3413.08
1028.55	3358.46
1032.3	3299.05
1036.04	4134.66
1039.78	5279.45
1043.52	5722.61
1047.26	5504.38
1050.99	5527.87
1054.73	4808.77
1058.46	5116.83
1062.19	6452.53
1065.92	7143.37
1069.65	5925.08
1073.37	3685.99
1077.1	2082.23
1080.82	1155.9
1084.54	841.781
1088.26	655.664
1091.97	573.613
1095.69	309.963
1099.4	248.123
1103.12	9.832
1106.83	459.168
1110.54	14.229
1114.24	359.088
1117.95	427.025
1121.65	641.182
1125.35	825.195
1129.06	482.273
1132.75	445.531
1136.45	300.357
1140.15	723.938
1143.84	403.01
1147.53	336.314
1151.22	187.928
1154.91	156.207
1158.6	96.066
1162.28	270.393
1165.97	286.977
1169.65	184.105
1173.33	61.346
1177.01	155.525
1180.69	245.375
1184.36	428.109
1188.04	133.85
1191.71	312.303
1195.38	171.422
1199.05	475.143
1202.71	323.248
1206.38	503.787
1210.04	21.24
1213.71	300.883
1217.37	407.803
1221.03	406.268
1224.68	149.846
1228.34	321.441
1231.99	286.26
1235.65	358.52
1239.3	398.102
1242.95	261.916
1246.59	137.17
1250.24	49.348
1253.88	46.225
1257.53	80.439
1261.17	200.475
1264.81	195.512
1268.45	95.598
1272.08	206.824
1275.72	182.781
1279.35	6.988
1282.98	41.426
1286.61	83.082
1290.24	127.66
1293.87	73.484
1297.49	86.547
1301.11	106.188
1304.73	160.992
1308.36	95.566
1311.97	211.785
1315.59	70.938
1319.2	9.109
1322.82	31.219
1326.43	92.836
1330.04	11.973
1333.65	85.219
1337.26	372.25
1340.86	218.078
1344.47	116.328
1348.07	283.352
1351.67	160.527
1355.27	309.898
1358.87	344.043
1362.46	367.809
1366.06	482.434
1369.65	469.469
1373.24	453.613
1376.83	468.617
1380.42	474.426
1384	664.211
1387.59	506.18
1391.17	304
1394.75	463.512
1398.33	594.238
1401.91	409.777
1405.49	471.227
1409.06	238.566
1412.64	462.441
1416.21	440.301
1419.78	161.074
1423.35	318.59
1426.91	578.312
1430.48	447.918
1434.05	492.371
1437.61	679.441
1441.17	374.262
1444.73	396.852
1448.29	463.043
1451.84	264.625
1455.4	351.957
1458.95	648.902
1462.5	579.383
1466.05	665.621
1469.6	219.945
1473.15	501.344
1476.69	945.508
1480.24	473.152
1483.78	169.461
1487.32	219.211
1490.86	219.727
1494.39	598.07
1497.93	747.449
1501.46	4.809
