Measurement: Raman, 785 nm, unoriented, Raman Data Processed
Mineral: Amblygonite
Rruff sample: X050012
Ideal chemistry: LiAlPO_4_F
Locality: Minas Gerais, Brazil
Source: RD Shannon 56163-
Raman shift (cm-1)	intensity
206	0
210	6.424
214	3.566
218	1.321
222	7.886
226	15.601
230	18.605
234	16.642
238	10.611
242	5.323
246	2.033
250	0.007
254	1.029
258	0.365
262	1.185
266	4.455
270	15.934
274	58.163
278	130.06
282	91.439
286	77.569
290	168.117
294	551.558
298	906.286
302	462.158
306	202.709
310	193.646
314	184.286
318	101.511
322	134.438
326	140.513
330	66.886
334	31.082
338	16.684
342	10.915
346	7.528
350	5.385
354	4.613
358	2.622
362	2.53
366	3.075
370	3.306
374	5.928
378	8.696
382	14.589
386	22.972
390	35.57
394	47.115
398	50.593
402	42.744
406	36.239
410	42.929
414	69.934
418	53.565
422	48.642
426	156.915
430	177.011
434	54.334
438	15.792
442	8.053
446	4.841
450	4.211
454	4.053
458	4.929
462	4.616
466	5.01
470	6.383
474	8.214
478	13.175
482	20.512
486	28.84
490	40.55
494	51.204
498	50.302
502	36.789
506	23.121
510	13.631
514	7.467
518	3.333
522	1.824
526	0.119
530	0.972
534	1.226
538	0.849
542	0.297
546	4.658
550	6.819
554	2.902
558	0.117
562	0.737
566	0.417
570	0.395
574	1.515
578	3.471
582	5.732
586	10.499
590	21.548
594	53.709
598	127.854
602	145.994
606	71.756
610	32.264
614	18.909
618	16.08
622	20.749
626	31.358
630	30.236
634	30.455
638	53.409
642	137.065
646	207.41
650	123.628
654	48.423
658	23.155
662	13.981
666	10.007
670	6.933
674	4.436
678	3.942
682	3.437
686	2.525
690	1.607
694	0.755
698	0.755
702	0.124
706	0.124
710	0.076
714	0.038
718	0.007
722	0.014
726	0.026
730	0.03
734	0.027
738	0.016
742	0.002
746	0.522
750	0.408
754	0.935
758	1.914
762	3.078
766	3.965
770	5.85
774	8.673
778	12.482
782	19.862
786	30.66
790	52.204
794	85.943
798	108.134
802	90.038
806	53.776
810	30.182
814	18.528
818	11.047
822	7.224
826	5.147
830	3.096
834	2.011
838	1.871
842	1.764
846	1.661
850	2.351
854	2.471
858	4.111
862	6.696
866	12.22
870	19.075
874	23.181
878	17.897
882	10.946
886	6.011
890	3.495
894	1.939
898	0.895
902	0.148
906	0.191
910	0.233
914	0.276
918	0.319
922	0.359
926	0.397
930	0.026
934	0.535
938	1.093
942	0.915
946	1.476
950	2.467
954	2.927
958	3.945
962	5.969
966	7.476
970	9.034
974	12.075
978	16.121
982	21.441
986	28.897
990	39.806
994	60.507
998	96.619
1002	169.937
1006	320.945
1010	490.249
1014	396.465
1018	211.714
1022	118.149
1026	83.261
1030	80.976
1034	106.155
1038	190.603
1042	373.382
1046	426.232
1050	337.664
1054	448.055
1058	489.287
1062	256.842
1066	108.922
1070	52.577
1074	30.064
1078	18.9
1082	12.902
1086	9.086
1090	9.086
1094	9.028
1098	12.375
1102	27.52
1106	48.554
1110	37.265
1114	16.049
1118	6.819
1122	3.053
1126	1.408
1130	0.558
1134	0.301
1138	0.168
1142	0.056
1146	0.057
1150	0.711
1154	0.278
1158	0.615
1162	0.486
1166	0.417
1170	0.675
1174	0.766
1178	0.994
1182	3.239
1186	5.033
1190	4.505
1194	2.427
1198	0.346
1202	1.377
1206	0.462
1210	0.546
1214	0.629
1218	0.71
1222	0.79
1226	0.678
1230	0.945
1234	0.022
1238	0.095
1242	0.124
1246	0.297
1250	1.167
1254	0.796
1258	0.074
1262	0.169
1266	0.137
1270	0.139
1274	0.764
1278	0.157
1282	0.213
1286	1.263
1290	0.754
1294	0.569
1298	0.412
1302	1.19
1306	0.563
1310	0.658
1314	0.701
1318	0.742
1322	0.783
1326	0.823
1330	0.86
1334	0.897
1338	0.922
1342	0.802
1346	0.955
1350	0.983
1354	0.993
1358	1.021
1362	1.046
1366	1.069
1370	0.765
1374	0.971
1378	0.124
1382	0.143
1386	0.163
1390	0.533
1394	0.872
1398	0.268
1402	0.294
1406	0.333
1410	0.579
1414	0.129
1418	0.444
1422	0.477
1426	0.515
1430	1.183
1434	0.623
1438	0.555
1442	0.575
1446	0.604
1450	0.032
1454	0.081
1458	0.467
1462	0.441
1466	0.444
1470	0.442
1474	0.435
1478	0.168
1482	0.51
1486	1.492
1490	1.973
1494	0.936
1498	0.005
