Measurement: Raman, 785 nm, unoriented, Raman Data Processed
Mineral: Amblygonite
Rruff sample: R040067
Ideal chemistry: LiAlPO_4_F
Locality: Montebras, France
Source: University of Arizona Mineral Museum
Description: Pale blue fine-grained massive
Measured chemistry: (Li_0.76_Na_0.24_)Al(PO_4_)(F_0.80_(OH)_0.20_)
Raman shift (cm-1)	intensity
117.671	0
120.564	10.6113
123.457	21.8001
126.349	78.893
129.242	170.055
132.135	178.091
135.027	80.2165
137.92	35.1561
140.813	63.5481
143.706	142.996
146.598	178.425
149.491	197.54
152.384	181.916
155.276	168.473
158.169	149.183
161.062	176.159
163.954	214.522
166.847	237.37
169.74	228.003
172.632	195.182
175.525	168.286
178.418	148.596
181.311	127.679
184.203	115.83
187.096	90.8928
189.989	88.606
192.881	79.0825
195.774	56.6932
198.667	68.1988
201.56	46.825
204.452	49.3289
207.345	49.0294
210.238	59.6029
213.13	31.9404
216.023	40.2649
218.916	20.3165
221.808	34.9781
224.701	22.9681
227.594	8.06531
230.487	1.19562
233.379	0.773987
236.272	6.77655
239.165	8.29672
242.057	12.1746
244.95	9.99045
247.843	1.65036
250.735	25.1252
253.628	3.28317
256.521	19.6232
259.413	32.3138
262.306	48.1232
265.199	63.7448
268.092	89.1102
270.984	87.2888
273.877	128.382
276.77	106.171
279.662	117.689
282.555	147.609
285.448	193.48
288.341	259.346
291.233	414.446
294.126	622.906
297.019	926.034
299.911	1208.72
302.804	1273.82
305.697	1027.66
308.589	743.43
311.482	536.314
314.375	419.515
317.267	308.029
320.16	235.761
323.053	196.21
325.946	158.12
328.838	125.561
331.731	87.2905
334.624	47.4973
337.516	34.9399
340.409	24.9912
343.302	30.9229
346.195	22.6523
349.087	32.2206
351.98	19.4626
354.873	14.8726
357.765	15.5631
360.658	32.2968
363.551	29.7155
366.443	33.0497
369.336	37.4741
372.229	36.6803
375.122	42.4259
378.014	24.9436
380.907	3.57126
383.8	9.31577
386.692	3.50986
389.585	5.55191
392.478	1.84882
395.37	9.87451
398.263	1.19077
401.156	1.17291
404.048	0.439545
406.941	0.226746
409.834	19.8986
412.727	88.8004
415.619	181.988
418.512	378.387
421.405	645.971
424.297	871.298
427.19	683.398
430.083	317.856
432.976	138.172
435.868	67.7584
438.761	60.7494
441.654	36.5938
444.546	27.6778
447.439	13.3132
450.332	25.1857
453.224	7.91461
456.117	26.4817
459.01	29.5645
461.902	36.7457
464.795	62.6191
467.688	70.1672
470.581	87.6408
473.473	141.654
476.366	178.64
479.259	232.523
482.151	230.314
485.044	247.735
487.937	234.603
490.829	213.456
493.722	205.192
496.615	166.135
499.508	133.903
502.4	103.576
505.293	78.3686
508.186	60.3308
511.078	33.0457
513.971	40.0708
516.864	24.7828
519.756	18.8909
522.649	15.7035
525.542	7.33041
528.435	11.0584
531.327	1.8075
534.22	2.83273
537.113	9.85895
540.005	0.079041
542.898	14.9132
545.791	10.558
548.683	11.206
551.576	13.3313
554.469	3.57285
557.362	6.60529
560.254	2.03003
563.147	13.9863
566.04	3.55237
568.932	22.7383
571.825	10.7056
574.718	30.8559
577.611	28.5839
580.503	27.2964
583.396	45.7974
586.289	48.2283
589.181	63.5093
592.074	98.8872
594.967	149.628
597.859	245.441
600.752	351.624
603.645	356.096
606.538	239.1
609.43	178.026
612.323	147.237
615.216	154.059
618.108	176.32
621.001	223.966
623.894	287.358
626.786	370.885
629.679	468.786
632.572	518.42
635.465	599.95
638.357	729.646
641.25	1052.3
644.143	1341.8
647.035	1226.42
649.928	726.132
652.821	419.447
655.713	224.674
658.606	137.586
661.499	92.9266
664.391	77.7751
667.284	50.7732
670.177	31.2627
673.07	30.1668
675.962	20.9698
678.855	0.673859
681.748	3.17245
684.64	1.60812
687.533	20.1101
690.426	6.06885
693.318	6.79428
696.211	6.80435
699.104	25.4509
701.997	3.87524
704.889	0.671326
707.782	3.75604
710.675	10.8369
713.567	6.22391
716.46	3.20749
719.353	9.80133
722.245	19.6201
725.138	15.9707
728.031	9.28665
730.924	12.3438
733.816	23.1544
736.709	14.3235
739.602	22.3616
742.494	10.0177
745.387	5.57556
748.28	10.3891
751.173	6.19013
754.065	12.6043
756.958	11.4915
759.851	20.7361
762.743	11.1759
765.636	0.933319
768.529	0.873108
771.421	7.84866
774.314	9.33389
777.207	11.6264
780.1	22.3061
782.992	24.7314
785.885	32.6829
788.778	31.249
791.67	51.4634
794.563	69.2569
797.456	58.8284
800.348	64.5403
803.241	88.0121
806.134	99.7547
809.027	122.512
811.919	106.762
814.812	110.759
817.705	96.0488
820.597	79.3276
823.49	86.2489
826.383	61.8394
829.275	46.7963
832.168	32.474
835.061	25.3389
837.953	15.766
840.846	11.3764
843.739	20.1791
846.631	21.0805
849.524	10.6484
852.417	10.9999
855.31	13.3891
858.202	14.2804
861.095	11.5668
863.988	6.27554
866.88	19.1706
869.773	14.4307
872.666	26.8197
875.558	22.6533
878.451	9.4288
881.344	35.7351
884.237	31.4482
887.129	10.5064
890.022	36.8087
892.915	40.5667
895.807	44.5779
898.7	39.5598
901.593	56.9148
904.486	48.0615
907.378	32.0579
910.271	36.1489
913.164	20.6164
916.056	25.7516
918.949	10.021
921.842	15.1649
924.734	22.0202
927.627	5.4368
930.52	21.3113
933.413	8.35327
936.305	14.3211
939.198	8.92865
942.091	2.30798
944.983	1.10666
947.876	2.91101
950.769	1.35983
953.661	1.69614
956.554	5.75159
959.447	8.14014
962.34	0.806702
965.232	5.44861
968.125	12.805
971.018	15.9276
973.91	22.542
976.803	17.565
979.696	43.1249
982.588	56.2391
985.481	78.36
988.374	108.457
991.266	151.827
994.159	274.893
997.052	402.532
999.945	525.411
1002.84	677.87
1005.73	813.823
1008.62	902.791
1011.51	850.817
1014.41	722.26
1017.3	561.721
1020.19	393.154
1023.09	288.524
1025.98	249.834
1028.87	246.988
1031.76	272.119
1034.66	339.029
1037.55	415.057
1040.44	497.626
1043.34	535.071
1046.23	516.325
1049.12	544.609
1052.01	567.503
1054.91	598.079
1057.8	735.197
1060.69	795.072
1063.58	777.069
1066.48	587.251
1069.37	364.934
1072.26	214.122
1075.15	107.43
1078.05	80.2534
1080.94	37.4957
1083.83	21.8699
1086.73	2.1994
1089.62	0.599579
1092.51	11.2986
1095.4	7.51474
1098.3	3.42984
1101.19	0.50592
1104.08	17.8507
1106.97	29.6541
1109.87	56.3899
1112.76	71.5624
1115.65	78.3536
1118.55	82.1084
1121.44	89.3159
1124.33	92.7629
1127.22	61.7514
1130.12	85.7629
1133.01	79.9854
1135.9	68.6597
1138.79	46.9547
1141.69	31.668
1144.58	33.5339
1147.47	20.6305
1150.37	17.6626
1153.26	13.2579
1156.15	21.497
1159.04	15.7865
1161.94	13.6447
1164.83	4.37842
1167.72	7.77568
1170.61	18.1797
1173.51	7.31294
1176.4	16.7159
1179.29	27.1604
1182.18	3.24779
1185.08	18.5817
1187.97	35.7341
1190.86	33.0688
1193.76	22.8956
1196.65	24.7019
1199.54	29.6472
1202.43	30.7068
1205.33	17.4654
1208.22	26.1762
1211.11	21.8859
1214	22.2116
1216.9	18.4374
1219.79	26.6691
1222.68	11.3626
1225.58	14.6589
1228.47	29.5371
1231.36	16.4476
1234.25	19.0941
1237.15	2.57008
1240.04	19.9338
1242.93	28.9422
1245.82	42.9614
1248.72	2.2412
1251.61	17.3663
1254.5	14.2506
1257.39	5.56081
