Measurement: Raman, 785 nm, unoriented, Raman Data Processed
Mineral: Amblygonite
Rruff sample: X050012
Ideal chemistry: LiAlPO_4_F
Locality: Minas Gerais, Brazil
Source: RD Shannon 56163-
Raman shift (cm-1)	intensity
206	0
210	0.615
214	1.253
218	7.839
222	25.868
226	42.553
230	53.998
234	48.455
238	31.703
242	17.364
246	7.416
250	2.495
254	0.313
258	0.965
262	1.638
266	8.248
270	30.562
274	121.216
278	282.656
282	163.099
286	81.491
290	135.259
294	446.784
298	791.161
302	410.192
306	157.762
310	138.703
314	142.612
318	71.764
322	52.061
326	39.337
330	17.404
334	7.158
338	4.25
342	1.688
346	0.207
350	0.277
354	0.243
358	1.086
362	0.024
366	0.639
370	0.682
374	2.505
378	4.518
382	10.186
386	17.349
390	26.586
394	37.277
398	39.035
402	30.856
406	23.758
410	21.618
414	34.092
418	37.204
422	41.844
426	126.266
430	142.737
434	44.105
438	14.433
442	9.917
446	7.446
450	7.51
454	7.094
458	8.131
462	10.302
466	14.641
470	24.382
474	49.972
478	108.752
482	159.396
486	144.308
490	114.06
494	95.78
498	72.547
502	44.935
506	24.017
510	12.394
514	5.641
518	1.482
522	0.078
526	1.131
530	0.751
534	0.479
538	1.726
542	7.173
546	20.656
550	26.922
554	14.007
558	3.978
562	0.588
566	0.123
570	0.196
574	1.039
578	1.435
582	4.485
586	7.564
590	16.545
594	40.921
598	100.376
602	122.104
606	64.996
610	35.027
614	32.277
618	48.283
622	106.008
626	201.106
630	164.868
634	88.009
638	91.742
642	213.348
646	333.71
650	202.718
654	75.911
658	33.341
662	17.672
666	10.989
670	7.202
674	5.108
678	4.219
682	2.733
686	2.686
690	1.94
694	1.116
698	0.427
702	0.354
706	0.464
710	0.568
714	0.308
718	0.243
722	0.162
726	0.091
730	0.029
734	0.025
738	0.072
742	0.473
746	0.158
750	0.201
754	1.24
758	1.315
762	2.481
766	2.67
770	4.667
774	6.677
778	8.87
782	14.389
786	22.594
790	39.704
794	68.722
798	91.592
802	77.222
806	46.313
810	26.891
814	16.986
818	10.531
822	6.711
826	4.665
830	3.5
834	3.352
838	2.22
842	1.226
846	0.993
850	0.914
854	0.812
858	0.713
862	0.047
866	0.087
870	0.096
874	0.012
878	0.681
882	0.306
886	0.359
890	0.027
894	0.076
898	0.182
902	0.154
906	0.172
910	0.495
914	0.387
918	0.28
922	0.174
926	0.478
930	0.974
934	1.293
938	1.798
942	2.145
946	2.645
950	3.574
954	5.043
958	5.925
962	6.884
966	8.849
970	11.805
974	14.739
978	19.201
982	26.421
986	35.058
990	48.923
994	72.736
998	119.213
1002	220.033
1006	445.324
1010	713.37
1014	585.38
1018	292.495
1022	142.63
1026	87.521
1030	69.085
1034	76.163
1038	119.137
1042	223.092
1046	265.015
1050	231.127
1054	336.576
1058	390.172
1062	206.733
1066	82.75
1070	38.477
1074	21.375
1078	12.195
1082	8.373
1086	5.926
1090	6.748
1094	9.266
1098	19.544
1102	51.959
1106	106.636
1110	84.046
1114	33.43
1118	14.126
1122	6.498
1126	3.519
1130	0.563
1134	0.242
1138	0.57
1142	0.397
1146	1.223
1150	0.968
1154	0.047
1158	0.67
1162	2.089
1166	3.441
1170	5.56
1174	9.995
1178	21.267
1182	43.829
1186	67.694
1190	58.189
1194	32.133
1198	15.16
1202	8.747
1206	4.835
1210	3.801
1214	2.397
1218	2.526
1222	1.648
1226	0.778
1230	0.902
1234	1.025
1238	0.146
1242	0.261
1246	0.303
1250	0.324
1254	0.288
1258	0.132
1262	0.208
1266	0.096
1270	0.178
1274	0.127
1278	0.561
1282	0.642
1286	0.72
1290	0.798
1294	0.874
1298	0.947
1302	1.017
1306	0.57
1310	0.153
1314	0.217
1318	0.277
1322	1.336
1326	0.611
1330	1.407
1334	1.507
1338	0.979
1342	0.608
1346	0.617
1350	1.012
1354	0.618
1358	0.64
1362	0.673
1366	0.715
1370	0.765
1374	0.723
1378	0.614
1382	0.628
1386	0.696
1390	0.741
1394	0.774
1398	0.807
1402	0.173
1406	0.895
1410	0.036
1414	0.672
1418	0.986
1422	1.017
1426	1.051
1430	1.088
1434	0.125
1438	0.163
1442	0.889
1446	1.265
1450	1.312
1454	1.359
1458	1.407
1462	1.465
1466	1.389
1470	1.337
1474	1.023
1478	0.715
1482	0.797
1486	1.107
1490	0.009
1494	1.102
1498	0.017
