Measurement: Raman, 785 nm, unoriented, Raman Data Processed
Mineral: Amblygonite
Rruff sample: R040006
Ideal chemistry: LiAlPO_4_F
Locality: Pala, San Diego County, California, USA
Source: University of Arizona Mineral Museum
Description: Light gray coarsely crystalline massive
Measured chemistry: LiAl_1.00_(P_1.00_O_4_)(F_0.73_(OH)_0.27_)_Î£=1_; Li assumed by stoichiometry; OH estimated by charge balance
Raman shift (cm-1)	intensity
112.85	0
115.743	95.1236
118.635	74.5048
121.528	14.964
124.421	47.2152
127.314	337.197
130.206	824.778
133.099	1077.97
135.992	572.536
138.884	268.296
141.777	299.192
144.67	551.149
147.562	1076.09
150.455	1213
153.348	1179.9
156.24	1386.73
159.133	1769.33
162.026	2347.52
164.919	2841.15
167.811	2768.97
170.704	2461.3
173.597	1947.88
176.489	1503.59
179.382	1205.73
182.275	950.619
185.167	748.014
188.06	576.784
190.953	410.349
193.846	277.79
196.738	196.598
199.631	146.848
202.524	179.999
205.416	198.956
208.309	206.384
211.202	212.453
214.095	223.465
216.987	182.089
219.88	177.713
222.773	136.155
225.665	109.137
228.558	85.0541
231.451	62.821
234.343	21.1853
237.236	5.20667
240.129	17.9691
243.022	31.8284
245.914	36.7278
248.807	23.9905
251.7	8.84247
254.592	98.0752
257.485	254.828
260.378	472.091
263.27	798.053
266.163	1177.05
269.056	1514.88
271.949	1670.86
274.841	1597.22
277.734	1402.31
280.627	1310.41
283.519	1335.35
286.412	1431.35
289.305	1830.73
292.197	2535.57
295.09	3755.55
297.983	5593.39
300.875	7560.32
303.768	7718.77
306.661	5758.85
309.554	4065.74
312.446	3039.39
315.339	2137.08
318.232	1290.64
321.124	806.301
324.017	588.412
326.91	443.306
329.803	324.959
332.695	224.189
335.588	96.1225
338.481	38.5703
341.373	30.6454
344.266	23.0638
347.159	19.3139
350.051	34.7673
352.944	90.6851
355.837	152.505
358.729	177.97
361.622	221.117
364.515	276.664
367.408	332.14
370.3	338.011
373.193	348.578
376.086	293.858
378.978	237.367
381.871	154.676
384.764	90.2214
387.656	49.7945
390.549	23.6093
393.442	16.6622
396.335	3.81513
399.227	18.0382
402.12	13.2454
405.013	25.7033
407.905	20.8932
410.798	10.5702
413.691	36.7922
416.584	181.686
419.476	406.324
422.369	868.329
425.262	1350.39
428.154	1014.99
431.047	451.834
433.94	207.288
436.832	128.994
439.725	96.6102
442.618	118.168
445.51	93.2654
448.403	100.675
451.296	161.56
454.189	161.931
457.081	214.68
459.974	261.759
462.867	301.194
465.759	429.578
468.652	561.459
471.545	780.884
474.438	1076.33
477.33	1377.6
480.223	1628.19
483.116	1786.27
486.008	1765.89
488.901	1703.68
491.794	1562.32
494.686	1401.28
497.579	1249.44
500.472	1018.33
503.365	871.316
506.257	683.336
509.15	508.581
512.043	387.482
514.935	302.109
517.828	190.99
520.721	164.495
523.613	102.973
526.506	79.4792
529.399	41.5617
532.292	16.0505
535.184	7.8974
538.077	9.25736
540.97	17.7172
543.862	8.39578
546.755	10.5975
549.648	9.46329
552.54	10.0121
555.433	1.96353
558.326	7.18137
561.218	3.32605
564.111	3.00436
567.004	4.96503
569.897	18.4374
572.789	35.9424
575.682	68.1909
578.575	102.197
581.467	132.188
584.36	175.156
587.253	264.168
590.145	435.403
593.038	722.609
595.931	1268.3
598.823	2195.68
601.716	3321.69
604.609	3307.85
607.502	2019.6
610.394	1189.57
613.287	837.513
616.18	726.243
619.072	716.772
621.965	823.02
624.858	1078.71
627.75	1442.88
630.643	1804.7
633.536	2067.8
636.429	2003.41
639.321	2143.03
642.214	2884.09
645.107	3950.37
648	3715.56
650.892	2148.03
653.785	1162.91
656.678	683.389
659.57	444.701
662.463	287.132
665.356	221.66
668.248	158.347
671.141	102.688
674.034	100.947
676.927	77.9895
679.819	67.6166
682.712	35.6465
685.605	33.1161
688.497	23.9612
691.39	12.0496
694.283	6.04892
697.175	2.66361
700.068	3.85138
702.961	1.40909
705.854	7.38315
708.746	9.34622
711.639	4.60873
714.532	3.77066
717.424	12.1248
720.317	3.28113
723.21	1.57886
726.102	22.5807
728.995	0.400726
731.888	17.7815
734.78	14.0987
737.673	15.2777
740.566	11.6982
743.459	12.7809
746.351	7.52856
749.244	11.8744
752.137	4.04913
755.029	20.7181
757.922	14.5495
760.815	29.3079
763.707	34.7303
766.6	9.33731
769.493	22.3013
772.386	44.4788
775.278	58.2085
778.171	89.9365
781.064	96.7057
783.956	174.599
786.849	230.842
789.742	334.271
792.635	448.42
795.527	601.015
798.42	721.832
801.313	876.054
804.205	981.975
807.098	1114.35
809.991	1221.49
812.883	1232.21
815.776	1085.54
818.669	923.022
821.562	789.798
824.454	654.413
827.347	513.062
830.24	401.194
833.132	308.772
836.025	222.994
838.918	160.466
841.81	112.059
844.703	84.9258
847.596	68.5455
850.489	37.1016
853.381	35.6687
856.274	22.0885
859.167	26.8483
862.059	0.526245
864.952	1.71609
867.845	0.951019
870.737	5.6597
873.63	15.1954
876.523	8.50345
879.415	21.9219
882.308	7.41498
885.201	34.0023
888.094	38.2471
890.986	32.8272
893.879	50.0564
896.772	57.7778
899.664	62.3593
902.557	63.797
905.45	59.9312
908.342	48.4635
911.235	47.9088
914.128	46.4138
917.02	42.1807
919.913	35.7078
922.806	23.8073
925.699	22.5113
928.591	12.6836
931.484	8.43722
934.377	14.6779
937.269	6.85138
940.162	14.8151
943.055	13.3296
945.947	11.2362
948.84	38.4703
951.733	23.7797
954.626	11.3791
957.518	5.84454
960.411	0.147705
963.304	12.0882
966.196	10.7096
969.089	37.0452
971.982	50.8893
974.875	68.8837
977.767	113.769
980.66	178.528
983.553	226.956
986.445	310.747
989.338	502.2
992.231	760.024
995.123	1197.11
998.016	1732.85
1000.91	2335.95
1003.8	3071.52
1006.69	3858.88
1009.59	4121.4
1012.48	3897.72
1015.37	3127.9
1018.26	2282.18
1021.16	1561.11
1024.05	1134.05
1026.94	958.625
1029.84	931.235
1032.73	1099.02
1035.62	1363.15
1038.51	1724.18
1041.41	2003.2
1044.3	2241.84
1047.19	2406.12
1050.09	2529.95
1052.98	2768.7
1055.87	3323.06
1058.76	4038.52
1061.66	4720.45
1064.55	4520.31
1067.44	3170.37
1070.33	1781.82
1073.23	969.844
1076.12	490.86
1079.01	198.582
1081.9	81.8024
1084.8	12.7824
1087.69	39.4317
1090.58	35.9976
1093.47	16.2867
1096.37	42.6984
1099.26	112.774
1102.15	237.265
1105.05	406.676
1107.94	627.908
1110.83	810.648
1113.72	1004.6
1116.62	1151.18
1119.51	1271.29
1122.4	1308.59
1125.3	1265.53
1128.19	1178.7
1131.08	1097.15
1133.97	941.307
1136.87	751.867
1139.76	568.044
1142.65	389.926
1145.54	200.383
1148.44	91.1279
1151.33	52.7374
1154.22	20.8007
1157.12	11.5822
1160.01	5.63934
1162.9	10.1994
1165.79	2.11224
1168.68	8.36252
1171.58	0.246216
1174.47	5.32007
1177.36	16.8548
1180.26	4.26166
1183.15	45.8582
1186.04	44.5469
1188.93	82.0468
1191.83	100.01
1194.72	161.059
1197.61	144.2
1200.51	181.796
1203.4	185.288
1206.29	160.157
1209.18	182.923
1212.08	144.287
1214.97	128.678
1217.86	110.182
1220.75	99.9692
1223.65	74.4224
1226.54	40.1412
1229.43	32.4138
1232.33	15.153
1235.22	4.51218
1238.11	5.52475
1241	4.0134
1243.9	15.0177
1246.79	7.14716
