Measurement: Raman, 532 nm, unoriented, Raman Data Processed
Mineral: Ameghinite
Rruff sample: R060643
Ideal chemistry: NaB_3_O_3_(OH)_4_
Locality: Tinkalayu mine, Salar del Hombre Muerto, Salta province, Argentina
Source: Michael Scott
Description: Colorless glassy
Raman shift (cm-1)	intensity
104.647	0
108.022	8.565
111.397	479.691
114.772	1010.76
118.147	1426.9
121.521	1502.22
124.896	1912.7
128.271	2389.09
131.646	2878.14
135.021	5506.76
138.396	4055.29
141.77	7663.12
145.145	6349.78
148.52	2943.53
151.895	410.047
155.27	261.695
158.645	270.989
162.019	896.057
165.394	2276.62
168.769	4416.76
172.144	4888.71
175.519	1696.54
178.893	1339.8
182.268	1999.24
185.643	2229.76
189.018	2000.76
192.393	2019.88
195.768	2629
199.142	3312.2
202.517	2404.65
205.892	1120.72
209.267	543.451
212.642	302.491
216.016	310.616
219.391	410.759
222.766	501.647
226.141	353.304
229.516	185.54
232.891	92.002
236.265	26.459
239.64	6.858
243.015	41.088
246.39	48.305
249.765	22.957
253.139	43.648
256.514	39.707
259.889	25.41
263.264	3.932
266.639	4.552
270.013	14.744
273.388	10.672
276.763	29.965
280.138	62.901
283.513	79.28
286.888	151.67
290.263	149.711
293.637	152.359
297.012	191.145
300.387	192.6
303.762	172.79
307.137	181.256
310.511	167.965
313.886	144.331
317.261	165.503
320.636	193.553
324.011	253.375
327.385	412.131
330.76	556.12
334.135	913.966
337.51	1398.14
340.885	2057.97
344.26	2358.01
347.634	2463.38
351.009	2378.74
354.384	2161.08
357.759	2751.69
361.134	3695.75
364.509	3758.99
367.883	3253.79
371.258	2466.26
374.633	1621.69
378.008	1012.83
381.383	683.877
384.757	560.489
388.132	531.329
391.507	551.276
394.882	714.16
398.257	859.654
401.632	1213.02
405.006	1439.13
408.381	1407.24
411.756	1141.9
415.131	692.351
418.506	393.03
421.88	151.15
425.255	61.041
428.63	13.559
432.005	34.645
435.38	29.308
438.754	35.022
442.129	0.63
445.504	63.684
448.879	83.066
452.254	410.438
455.629	865.339
459.003	1795.26
462.378	4217.54
465.753	5497.02
469.128	1551.48
472.503	726.227
475.878	606.906
479.252	615.3
482.627	716.519
486.002	1017.48
489.377	1592.65
492.752	2993.31
496.126	5780.71
499.501	11742.8
502.876	18356.2
506.251	13165.7
509.626	4469.84
513	1767.65
516.375	1307.72
519.75	1596.4
523.125	2796.23
526.5	5774.52
529.875	6430.82
533.25	2292.37
536.624	863.825
539.999	339.484
543.374	136.136
546.749	2.285
550.124	11.15
553.498	5.134
556.873	21.715
560.248	66.732
563.623	22.688
566.998	82.481
570.372	233.182
573.747	557.445
577.122	238.384
580.497	246.539
583.872	325.449
587.247	466.553
590.621	672.192
593.996	904.124
597.371	1277.07
600.746	1624.99
604.121	2386.03
607.495	3991
610.87	7287.61
614.245	14077.1
617.62	30522.7
620.995	37945.3
624.37	17013.6
627.744	5819.5
631.119	2703.09
634.494	1500.88
637.869	1073.37
641.244	553.614
644.619	359.49
647.993	265.89
651.368	238.546
654.743	299.136
658.118	163.912
661.493	73.684
664.867	0.974
668.242	39.795
671.617	52.113
674.992	38.333
678.367	25.27
681.742	22.98
685.116	6.058
688.491	57.267
691.866	144.663
695.241	240.104
698.616	510.663
701.99	665.741
705.365	673.267
708.74	682.622
712.115	679.415
715.49	673.625
718.865	673.761
722.239	736.036
725.614	754.217
728.989	689.936
732.364	598.145
735.739	603.332
739.114	761.778
742.488	1331.48
745.863	2539.27
749.238	5095.76
752.613	10914.6
755.988	15169.8
759.362	6241.05
762.737	3283.31
766.112	2648.45
769.487	2328.71
772.862	1712.52
776.237	1063.37
779.611	658.622
782.986	418.773
786.361	265.753
789.736	173.893
793.111	93.623
796.485	188.779
799.86	323.984
803.235	655.76
806.61	943.654
809.985	1363.65
813.359	1719.7
816.734	759.096
820.109	205.288
823.484	30.163
826.859	45.395
830.234	8.33
833.609	27.453
836.983	21.509
840.358	64.122
843.733	120.939
847.108	238.359
850.482	333.847
853.857	457.708
857.232	613.245
860.607	831.113
863.982	938.569
867.357	1201.12
870.731	1300.77
874.106	1987.47
877.481	2882.73
880.856	3615.11
884.231	3711.62
887.606	3045.5
890.98	2071.63
894.355	1285.34
897.73	740.4
901.105	424.415
904.48	234.901
907.854	189.925
911.229	84.544
914.604	92.841
917.979	33.407
921.354	7.563
924.729	11.599
928.103	0.065
931.478	24.588
934.853	15.224
938.228	13.735
941.603	42.852
944.977	82.426
948.352	121.156
951.727	216.722
955.102	240.06
958.477	417.016
961.852	554.955
965.226	658.97
968.601	705.743
971.976	782.474
975.351	891.252
978.726	1084.36
982.101	1114.75
985.475	981.309
988.85	825.467
992.225	760.787
995.6	662.617
998.975	587.287
1002.35	604.044
1005.72	770.864
1009.1	809.043
1012.47	890.307
1015.85	1176.77
1019.22	1539.51
1022.6	1539.83
1025.97	1178.89
1029.35	768.229
1032.72	444.417
1036.1	133.897
1039.47	51.416
1042.85	27.471
1046.22	23.637
1049.6	27.113
1052.97	62.147
1056.35	181.984
1059.72	259.684
1063.1	195.138
1066.47	86.442
1069.85	19.616
1073.22	0.205
1076.6	14.673
1079.97	54.977
1083.35	72.155
1086.72	96.019
1090.1	31.41
1093.47	69.762
1096.84	31.595
1100.22	29.102
1103.59	37.39
1106.97	36.114
1110.34	42.817
1113.72	103.157
1117.09	154.518
1120.47	149.532
1123.84	156.354
1127.22	109.93
1130.59	39.625
1133.97	13.22
1137.34	32.306
1140.72	4.513
1144.09	6.673
1147.47	25.27
1150.84	36.588
1154.22	100.607
1157.59	77.828
1160.97	67.637
1164.34	87.222
1167.72	83.495
1171.09	100.342
1174.46	244.96
1177.84	400.175
1181.21	481.869
1184.59	387.925
1187.96	283.369
1191.34	216.784
1194.71	221.238
1198.09	142.507
1201.46	95.061
1204.84	119.195
1208.21	113.095
1211.59	203.604
1214.96	240.712
1218.34	162.799
1221.71	165.844
1225.09	101.232
1228.46	198.536
1231.84	279.527
1235.21	463.83
1238.59	673.15
1241.96	943.531
1245.34	987.686
1248.71	761.05
1252.09	449.617
1255.46	259.176
1258.84	119.218
1262.21	45.132
1265.59	3.618
1268.96	5.519
1272.34	19.425
1275.71	69.344
1279.09	129.184
1282.46	94.954
1285.83	47.389
1289.21	48.347
1292.58	10.175
