Measurement: Raman, 780 nm, unoriented, Raman Data Processed
Mineral: Ameghinite
Rruff sample: R060643
Ideal chemistry: NaB_3_O_3_(OH)_4_
Locality: Tinkalayu mine, Salar del Hombre Muerto, Salta province, Argentina
Source: Michael Scott
Description: Colorless glassy
Raman shift (cm-1)	intensity
111.809	0
115.184	90.3301
118.558	139.457
121.933	163.476
125.308	43.4412
128.683	120.828
132.058	118.341
135.433	312.731
138.807	286.881
142.182	298.012
145.557	555.47
148.932	386.007
152.307	46.1075
155.681	23.3206
159.056	6.09564
162.431	58.9863
165.806	166.958
169.181	349.957
172.555	478.21
175.93	418.592
179.305	509.061
182.68	462.131
186.055	343.888
189.43	256.538
192.804	214.762
196.179	227.493
199.554	276.448
202.929	246.931
206.304	137.705
209.678	64.5001
213.053	25.2501
216.428	4.33142
219.803	2.37262
223.178	6.10407
226.553	8.36499
229.927	5.00763
233.302	4.54553
236.677	5.24652
240.052	8.47583
243.427	13.9565
246.801	13.198
250.176	14.5399
253.551	13.7457
256.926	10.9338
260.301	11.7448
263.675	12.6422
267.05	8.97205
270.425	11.7636
273.8	2.32574
277.175	1.06116
280.55	3.41309
283.924	0.484009
287.299	2.93249
290.674	4.15399
294.049	2.43243
297.424	2.3822
300.798	0.39032
304.173	1.51337
307.548	8.00293
310.923	10.5099
314.298	18.6212
317.673	31.1962
321.047	42.408
324.422	55.4941
327.797	75.0328
331.172	99.6921
334.547	134.962
337.921	175.596
341.296	229.446
344.671	272.099
348.046	262.073
351.421	244.097
354.796	232.907
358.17	278.697
361.545	369.324
364.92	409.552
368.295	383.836
371.67	323.635
375.044	223.566
378.419	141.642
381.794	104.798
385.169	94.0628
388.544	104.375
391.918	127.571
395.293	155.448
398.668	194.509
402.043	253.862
405.418	305.317
408.793	291.855
412.167	218.212
415.542	129.985
418.917	61.074
422.292	27.3637
425.667	8.13013
429.041	0.586151
432.416	7.3392
435.791	9.05182
439.166	7.80566
442.541	0.405914
445.915	11.6122
449.29	50.3324
452.665	86.3682
456.04	139.419
459.415	245.335
462.789	465.149
466.164	712.799
469.539	333.911
472.914	115.74
476.289	63.1884
479.664	54.9778
483.038	73.1815
486.413	132.9
489.788	221.708
493.163	342.629
496.538	567.288
499.913	1029.24
503.287	1624.1
506.662	1256.03
510.037	507.452
513.412	206.674
516.787	140.734
520.161	148.716
523.536	218.169
526.911	393.042
530.286	541.952
533.661	268.803
537.035	95.0163
540.41	33.4284
543.785	5.89798
547.16	5.27158
550.535	8.45651
553.909	6.52725
557.284	0.153229
560.659	18.1506
564.034	57.4274
567.409	100.133
570.784	163.727
574.158	282.399
577.533	422.948
580.908	439.874
584.283	207.47
587.658	111.134
591.033	99.8334
594.407	96.5509
597.782	89.9101
601.157	117.468
604.532	235.143
607.907	435.969
611.281	704.746
614.656	1240.32
618.031	2458.38
621.406	3732.72
624.781	2254.9
628.155	777.217
631.53	315.101
634.905	159.118
638.28	88.5678
641.655	50.2427
645.029	29.3415
648.404	20.8051
651.779	13.6487
655.154	13.3856
658.529	8.81973
661.904	0.424866
665.278	3.12558
668.653	3.84619
672.028	4.42886
675.403	0.731567
678.778	3.56262
682.153	6.27057
685.527	2.89731
688.902	2.67221
692.277	7.88324
695.652	12.9502
699.027	23.7084
702.401	37.814
705.776	37.3265
709.151	44.7817
712.526	53.5524
715.901	63.4134
719.275	68.9348
722.65	76.2877
726.025	77.9134
729.4	70.4162
732.775	62.898
736.149	64.812
739.524	89.1992
742.899	160.781
746.274	258.55
749.649	453.644
753.024	902.048
756.398	1452.57
759.773	802.564
763.148	354.236
766.523	247.497
769.898	200.264
773.273	141.397
776.647	85.8774
780.022	52.1881
783.397	30.2365
786.772	20.1657
790.146	13.3212
793.521	6.08737
796.896	2.11246
800.271	1.38028
803.646	1.35779
807.021	1.12839
810.395	0.783051
813.77	1.60294
817.145	0.259979
820.52	0.383789
823.895	1.98816
827.269	4.22104
830.644	4.58417
834.019	5.77997
837.394	7.9884
840.769	14.5048
844.144	22.325
847.518	33.7156
850.893	48.7275
854.268	67.6591
857.643	88.3048
861.018	120.901
864.393	142.71
867.767	144.411
871.142	152.202
874.517	187.31
877.892	250.229
881.266	315.769
884.641	352.238
888.016	315.514
891.391	228.669
894.766	147.945
898.141	88.2574
901.515	52.1263
904.89	32.143
908.265	17.3188
911.64	8.5882
915.015	2.25906
918.389	0.047424
921.764	0.234314
925.139	1.21536
928.514	1.59122
931.889	0.166901
935.264	3.77429
938.638	10.7791
942.013	17.2767
945.388	21.7807
948.763	19.4001
952.138	13.6805
955.512	6.89786
958.887	4.60992
962.262	1.1738
965.637	0.42276
969.012	3.27158
972.386	7.41061
975.761	13.4175
979.136	20.1531
982.511	24.2386
985.886	24.1605
989.261	24.1592
992.635	26.5742
996.01	29.7434
999.385	34.1857
1002.76	37.8184
1006.13	54.2086
1009.51	70.4354
1012.88	87.803
1016.26	109.83
1019.63	134.026
1023.01	135.438
1026.38	116.119
1029.76	84.9514
1033.13	49.8533
1036.51	28.2469
1039.88	14.4181
1043.26	6.97736
1046.63	2.53537
1050.01	1.47879
1053.38	1.28833
1056.76	3.92069
1060.13	3.71396
1063.51	3.97357
1066.88	4.48471
1070.26	2.9623
1073.63	4.2912
1077.01	4.08408
1080.38	6.02782
1083.76	6.98256
1087.13	6.99947
1090.51	5.51617
1093.88	4.67053
1097.26	4.19721
1100.63	2.44182
1104	1.91463
1107.38	0.461487
1110.75	0.53627
1114.13	1.42657
1117.5	1.65155
1120.88	0.958191
1124.25	2.55705
1127.63	0.943665
1131	2.27138
1134.38	2.64172
1137.75	2.92654
1141.13	2.20293
1144.5	1.97867
1147.88	1.46803
1151.25	2.90955
1154.63	2.54903
1158	1.42445
1161.38	2.37938
1164.75	1.39278
1168.13	2.649
1171.5	3.81747
1174.88	4.34206
1178.25	6.84822
1181.62	12.8113
1185	7.34863
1188.38	4.76936
1191.75	3.96108
1195.12	4.40033
1198.5	5.90482
1201.87	3.43237
1205.25	2.00253
1208.62	4.55241
1212	8.40703
1215.37	9.66725
1218.75	5.78479
1222.12	3.31128
1225.5	0.599838
1228.87	1.55368
1232.25	5.09395
1235.62	10.8449
1239	18.0031
1242.37	31.3006
1245.75	41.2687
1249.12	35.8862
1252.5	22.5163
1255.87	11.6222
1259.25	5.01485
1262.62	4.69035
1265.99	1.48767
1269.37	1.11381
1272.74	1.01337
1276.12	4.19383
1279.49	3.94232
1282.87	2.35889
