Measurement: Raman, 785 nm, unoriented, Raman Data Processed
Mineral: Amesite
Rruff sample: R070132
Ideal chemistry: Mg_2_Al(AlSiO_5_)(OH)_4_
Locality: Saranovskii mine, Saranovskaya Village, Gornozavodskii area, Permskaya Oblast', Middle Urals, Russia
Source: Michael Scott
Description: Purple transparent hexagonal prisms, polytype 2H2
Measured chemistry: (Mg_1.87_[box]_0.05_Cr_0.05_Fe^2+^_0.03_)_Σ=2_(Al_0.98_Cr_0.02_)_Σ=1_(Si_1.05_Al_0.95_)O_5_(OH)_4_ ; OH estimated by difference
Raman shift (cm-1)	intensity
122.756	0
125.649	24.8312
128.542	107.693
131.435	243.032
134.327	246.834
137.22	77.8558
140.113	13.6916
143.005	0.853271
145.898	90.5991
148.791	157.733
151.683	159.783
154.576	87.9173
157.469	42.94
160.362	14.0693
163.254	6.11487
166.147	12.8494
169.04	43.6116
171.932	29.5067
174.825	63.869
177.718	138.973
180.61	260.355
183.503	483.155
186.396	833.073
189.288	1273.66
192.181	1766.3
195.074	2273.23
197.967	2531.25
200.859	2700.92
203.752	2529.31
206.645	2013.49
209.537	1329.83
212.43	688.643
215.323	296.675
218.215	109.415
221.108	9.37732
224.001	12.8715
226.894	109.529
229.786	374.587
232.679	692.672
235.572	1143
238.464	1876.41
241.357	3121.08
244.25	4226.94
247.143	2684.91
250.035	1229.84
252.928	898.263
255.821	1093.38
258.713	1346.58
261.606	1704.26
264.499	2232.39
267.391	3078.39
270.284	4142.52
273.177	4858.75
276.07	4472.47
278.962	3853.47
281.855	3593.49
284.748	2945.83
287.64	1886.9
290.533	1043.75
293.426	439.634
296.318	109.608
299.211	41.5054
302.104	-19.2312
304.996	34.481
307.889	44.0024
310.782	203.53
313.675	334.29
316.567	432.791
319.46	428.175
322.353	558.586
325.245	834.364
328.138	945.815
331.031	773.266
333.923	630.92
336.816	703.474
339.709	892.071
342.601	932.536
345.494	862.645
348.387	674.271
351.28	363.216
354.172	130.72
357.065	0.311035
359.958	48.015
362.85	80.4718
365.743	314.457
368.636	569.005
371.529	885.444
374.421	1439.88
377.314	1896.05
380.207	1762.14
383.099	1449.2
385.992	1318.96
388.885	1342.29
391.777	1684.31
394.67	1974.63
397.563	2342.65
400.455	3235.71
403.348	4620.88
406.241	5454.52
409.134	4961.63
412.026	4385.16
414.919	3160.97
417.812	1707.85
420.704	762.475
423.597	282.749
426.49	42.2407
429.382	-8.42896
432.275	12.8199
435.168	16.5745
438.061	89.8746
440.953	152.748
443.846	145.799
446.739	200.913
449.631	267.326
452.524	294.692
455.417	312.263
458.31	326.18
461.202	386.964
464.095	457.886
466.988	683.389
469.88	1064.2
472.773	1585.31
475.666	2040.46
478.558	1903.19
481.451	1542.06
484.344	1172.41
487.236	1069.94
490.129	1006.51
493.022	812.334
495.915	524.557
498.807	206.94
501.7	-23.3898
504.593	0.975283
507.485	32.1148
510.378	68.3435
513.271	216.381
516.163	440.642
519.056	705.574
521.949	1098.72
524.842	1435.94
527.734	1701.83
530.627	1713.73
533.52	1468.24
536.412	1092.01
539.305	834.027
542.198	620.991
545.091	510.587
547.983	438.715
550.876	430.925
553.769	366.943
556.661	333.528
559.554	275.642
562.447	209.916
565.339	161.76
568.232	155.422
571.125	67.0557
574.018	52.8735
576.91	53.9853
579.803	12.7565
582.696	39.8915
585.588	27.3711
588.481	25.7557
591.374	18.2666
594.266	3.0769
597.159	12.2631
600.052	3.05078
602.944	14.9586
605.837	3.4314
608.73	36.344
611.623	8.4884
614.515	39.0847
617.408	30.0492
620.301	38.3645
623.193	37.5374
626.086	69.0399
628.979	57.3332
631.871	47.5178
634.764	59.7571
637.657	71.2305
640.55	79.1942
643.442	85.2207
646.335	136.232
649.228	116.991
652.12	115.793
655.013	132.271
657.906	174.689
660.798	215.59
663.691	244.163
666.584	306.765
669.477	427.253
672.369	594.432
675.262	873.847
678.155	1162.59
681.047	1426.34
683.94	1560.98
686.833	1376.09
689.726	1185.34
692.618	1222.21
695.511	1493.49
698.404	1964.91
701.296	2501.61
704.189	3060.82
707.082	3243.29
709.974	2722.53
712.867	1873.47
715.76	1250.78
718.653	808.881
721.545	538.261
724.438	373.821
727.331	246.815
730.223	143.63
733.116	128.329
736.009	98.0188
738.901	57.5
741.794	30.0186
744.687	24.8325
747.579	15.47
750.472	10.5761
753.365	26.785
756.258	10.5604
759.15	12.4624
762.043	5.96497
764.936	28.58
767.828	38.3108
770.721	51.533
773.614	45.2378
776.506	131.457
779.399	132.527
782.292	168.703
785.184	166.659
788.077	186.013
790.97	200.718
793.863	187.253
796.755	228.52
799.648	274.821
802.541	324.5
805.433	406.773
808.326	528.278
811.219	659.847
814.111	837.933
817.004	1055.81
819.897	1221.87
822.79	1392.29
825.682	1362.55
828.575	1157.06
831.468	872.094
834.36	615.212
837.253	400.264
840.146	303.879
843.038	208.901
845.931	153.459
848.824	67.8144
851.717	62.0568
854.609	60.4357
857.502	97.0786
860.395	12.73
863.287	11.4259
866.18	9.11499
869.073	3.99622
871.966	42.911
874.858	50.0887
877.751	35.0232
880.644	58.4684
883.536	60.0903
886.429	39.1622
889.322	29.6334
892.214	9.04675
895.107	13.6834
898	4.06165
900.893	3.21887
903.785	16.4061
906.678	15.7593
909.571	7.39404
912.463	13.762
915.356	0.859497
918.249	21.7533
921.141	28.6186
924.034	1.31128
926.927	21.5704
929.819	32.3918
932.712	56.1749
935.605	77.1428
938.498	47.1556
941.39	130.195
944.283	203.458
947.176	310.465
950.068	444.3
952.961	599.189
955.854	740.785
958.746	790.789
961.639	845.955
964.532	938.514
967.425	931.949
970.317	923.13
973.21	949.1
976.103	997.523
978.995	1056.53
981.888	952.941
984.781	715.966
987.673	486.947
990.566	326.104
993.459	213.615
996.352	162.69
999.244	175.248
1002.14	287.548
1005.03	356.852
1007.92	443.751
1010.82	491.661
1013.71	427.082
1016.6	318.369
1019.49	205.828
1022.39	152.273
1025.28	96.0419
1028.17	65.804
1031.06	42.4738
1033.96	38.7585
1036.85	43.2064
1039.74	30.6041
1042.63	58.9017
1045.53	16.8208
1048.42	13.5139
1051.31	3.43384
1054.21	6.94446
1057.1	14.8361
1059.99	51.7579
1062.88	30.2667
1065.78	14.6469
1068.67	20.2014
1071.56	5.62897
1074.45	46.703
1077.35	33.5683
1080.24	43.3246
1083.13	50.9322
1086.03	5.85657
1088.92	17.8449
1091.81	27.1684
1094.7	1.62622
1097.6	26.6579
1100.49	2.06659
1103.38	20.3589
1106.27	26.3112
1109.17	21.5631
1112.06	33.9587
1114.95	12.8862
1117.85	27.2725
1120.74	60.8346
1123.63	19.9999
1126.52	16.4383
1129.42	56.1742
1132.31	45.9429
1135.2	43.4122
1138.09	48.7333
1140.99	52.1763
1143.88	41.9134
1146.77	32.8278
1149.66	32.2008
1152.56	27.6263
1155.45	32.8019
1158.34	31.3867
1161.23	20.3589
1164.13	50.5074
1167.02	45.7577
1169.91	10.5824
1172.81	57.4532
1175.7	31.0153
1178.59	46.9061
1181.48	54.0354
1184.38	16.2955
1187.27	8.65344
1190.16	37.3878
1193.06	40.3502
1195.95	33.1138
1198.84	13.9359
1201.73	25.7789
1204.63	49.8644
1207.52	28.0111
1210.41	15.7604
1213.3	30.101
1216.2	6.78638
1219.09	33.4742
1221.98	44.0486
1224.88	29.4416
1227.77	19.5231
1230.66	19.348
1233.55	5.07178
1236.45	0
