Measurement: Raman, 532 nm, unoriented, Raman Data Processed
Mineral: Amesite
Rruff sample: R070116
Ideal chemistry: Mg_2_Al(AlSiO_5_)(OH)_4_
Locality: Saranovskii Mine (Saranovskoye), Saranovskaya (Sarany; Saranje) Village, Gorozavod area, Permskaya Oblast', Urais Region, Russia
Source: Michael Scott
Description: Purple thin micaceous crystals, not a standard polytype, see Wiewiora et al (Am Min 76 (1991) 647-652)
Measured chemistry: (Mg_1.88_[box]_0.05_Cr_0.04_Fe^2+^_0.03_)_Σ=2_(Al_0.96_Cr_0.04_)_Σ=1_(Si_1.06_Al_0.94_)O_5_(OH)_4_ ; OH estimated by difference
Raman shift (cm-1)	intensity
136.682	0
139.575	109.516
142.468	80.9131
145.361	7.50879
148.253	87.5449
151.146	10.5166
154.039	46.8076
156.931	72.4785
159.824	22.2324
162.717	39.2256
165.609	51.8496
168.502	117.098
171.395	230.318
174.287	375.269
177.18	640.316
180.073	1084.55
182.966	1595.81
185.858	2258.52
188.751	2920.44
191.644	3603.1
194.536	4111.28
197.429	4901.22
200.322	5672.23
203.214	6568.25
206.107	7558.75
209	8788.59
211.893	9664.48
214.785	8466.69
217.678	5541.02
220.571	2970.58
223.463	1624.17
226.356	999.113
229.249	633.877
232.142	639.153
235.034	582.294
237.927	756.717
240.82	898.89
243.712	993.806
246.605	926.056
249.498	816.203
252.39	750.366
255.283	919.813
258.176	1001.65
261.068	1012.55
263.961	1017.84
266.854	900.922
269.747	959.642
272.639	1039.8
275.532	1180.06
278.425	1264.7
281.317	1156.06
284.21	1034.17
287.103	992.752
289.996	849.94
292.888	575.719
295.781	137.102
298.674	48.0762
301.566	73.8779
304.459	71.0342
307.352	93.4609
310.245	13.0645
313.137	81.0107
316.03	133.079
318.923	143.203
321.815	324.279
324.708	669.46
327.601	574.484
330.493	436.447
333.386	403.066
336.279	526.256
339.171	673.307
342.064	926.628
344.957	749.41
347.85	473.265
350.742	71.8809
353.635	14.2334
356.528	21.9766
359.42	20.334
362.313	45.4688
365.206	193.35
368.099	286.373
370.991	173.814
373.884	182.155
376.777	289.875
379.669	466.842
382.562	776.631
385.455	1027.7
388.347	1482.26
391.24	1730.98
394.133	1806.63
397.026	1595.28
399.918	2118.97
402.811	2926.12
405.704	3735.29
408.596	3745.31
411.489	4026.53
414.382	4772.47
417.274	4801.74
420.167	3083.03
423.06	1497.21
425.952	795.781
428.845	584.278
431.738	613.219
434.631	702.588
437.523	708.395
440.416	337.512
443.309	195.715
446.201	22.9766
449.094	70.3174
451.987	53.7324
454.88	31.4258
457.772	54.3877
460.665	17.2871
463.558	195.999
466.45	560.449
469.343	1071.97
472.236	1979
475.128	2912.75
478.021	3348.49
480.914	3374.74
483.807	3388.67
486.699	3278.07
489.592	2768.27
492.485	2069.13
495.377	1169.72
498.27	628.59
501.163	401.723
504.055	208.629
506.948	225.452
509.841	353.746
512.734	639.851
515.626	1047.2
518.519	1673.32
521.412	2559.23
524.304	3634.39
527.197	4572.81
530.09	5031.31
532.982	4566.73
535.875	3916.24
538.768	3317.76
541.661	2743.79
544.553	2374.82
547.446	2252.21
550.339	2004.42
553.231	1772.03
556.124	1311.85
559.017	851.333
561.909	620.411
564.802	329.602
567.695	304.593
570.588	139.207
573.48	177.594
576.373	8.53809
579.266	45.956
582.158	124.883
585.051	94.5947
587.944	63.6504
590.837	19.085
593.729	109.078
596.622	52.3779
599.515	11.7998
602.407	49.3623
605.3	69.8916
608.193	36.1123
611.085	126.241
613.978	249.476
616.871	426.587
619.764	513.559
622.656	482.677
625.549	422.408
628.442	238.693
631.334	198.106
634.227	152.761
637.12	68.3613
640.013	21.877
642.905	92.6572
645.798	5.33691
648.691	116.516
651.583	120.511
654.476	179.48
657.369	187.924
660.261	277.282
663.154	403.398
666.047	592.406
668.939	696.8
671.832	1103.4
674.725	1453.17
677.618	1848.17
680.51	2357.39
683.403	2732.15
686.296	2715.92
689.188	2389.9
692.081	2485.14
694.974	3237.5
697.866	4157.16
700.759	5301.41
703.652	5961.37
706.545	5569.04
709.437	4295.1
712.33	2903.12
715.223	2017.68
718.115	1444.51
721.008	1076.72
723.901	836.471
726.793	654.992
729.686	547.367
732.579	508.823
735.472	436.799
738.364	370.497
741.257	303.526
744.15	304.934
747.042	209.612
749.935	264.351
752.828	251.278
755.721	189.601
758.613	123.901
761.506	50.0781
764.399	55.877
767.291	38.6338
770.184	115.051
773.077	21.0078
775.969	10.2012
778.862	179.12
781.755	200.21
784.648	450.333
787.54	441.649
790.433	517.246
793.326	413.753
796.218	320.555
799.111	301.394
802.004	317.295
804.896	385.791
807.789	542.163
810.682	652.084
813.574	761.235
816.467	767.053
819.36	756.736
822.253	880.038
825.145	826.398
828.038	759.938
830.931	611.011
833.823	444.627
836.716	476.201
839.609	356.996
842.501	211.14
845.394	172.185
848.287	69.4961
851.18	9.13379
854.072	5.19043
856.965	96.5889
859.858	102.042
862.75	38.7832
865.643	47.3193
868.536	5.15332
871.428	1.78027
874.321	67.2607
877.214	157.321
880.107	122.863
882.999	98.8838
885.892	95.7969
888.785	73.9688
891.678	5.70117
894.57	34.0527
897.463	51.3252
900.356	150.921
903.248	84.7119
906.141	89.0752
909.034	80.4072
911.926	23.4932
914.819	12.0479
917.712	17.0117
920.605	6.39844
923.497	30.9414
926.39	56.2959
929.283	153.214
932.175	222.449
935.068	360.06
937.961	348.316
940.853	368.733
943.746	325.841
946.639	400.075
949.532	554.403
952.424	689.646
955.317	815.365
958.21	913.119
961.102	1093.68
963.995	1357.15
966.888	1496.96
969.78	1719.22
972.673	1904.26
975.566	2108.78
978.458	2247.18
981.351	2292.1
984.244	1909.49
987.137	1399.55
990.029	941.233
992.922	691.15
995.815	493.558
998.707	506.898
1001.6	677.058
1004.49	680.633
1007.38	1059.16
1010.28	1298.12
1013.17	1473.74
1016.06	1385.24
1018.96	1117.02
1021.85	799.047
1024.74	508.343
1027.63	225.758
1030.53	133.798
1033.42	19.3135
1036.31	9.32617
1039.2	6.24512
1042.1	32.1992
1044.99	41.6065
1047.88	31.3828
1050.78	14.1641
1053.67	73.5293
1056.56	80.5986
1059.45	47.585
1062.35	96.3213
1065.24	96.0176
1068.13	98.1875
1071.03	115.743
1073.92	51.8379
1076.81	61.5654
1079.7	4.87109
1082.6	81.7481
1085.49	87.0156
1088.38	61.7637
1091.27	34.1797
1094.17	70.6934
1097.06	19.1777
1099.95	15.623
1102.85	29.9395
1105.74	62.5801
1108.63	22.6865
1111.52	53.752
1114.42	30.9365
1117.31	73.6172
1120.2	36.043
1123.09	129.435
1125.99	51.8301
1128.88	111.733
1131.77	22.9287
1134.66	103.742
1137.56	25.5674
1140.45	19.6621
1143.34	55.3935
1146.23	64.9863
1149.13	129.234
1152.02	140.315
1154.91	18.2959
1157.81	107.155
1160.7	92.5371
1163.59	168.275
1166.48	16.0488
1169.38	145.591
1172.27	96.3545
1175.16	112.675
1178.06	156.919
1180.95	86.9893
1183.84	22.8584
1186.73	72.7803
1189.63	130.959
1192.52	47.1279
1195.41	111.744
1198.3	67.7676
1201.2	145.79
1204.09	41.4307
1206.98	26.4648
1209.88	55.8408
1212.77	107.175
1215.66	121.474
1218.55	50.5342
1221.44	137.119
1224.34	61.9639
1227.23	136.848
1230.12	50.7685
1233.02	131.685
1235.91	59.6777
1238.8	105.002
1241.69	49.0615
1244.59	43.6074
1247.48	70.0996
1250.37	65.1943
1253.27	6.94531
1256.16	31.6582
