Measurement: Raman, 785 nm, unoriented, Raman Data Processed
Mineral: Amesite
Rruff sample: R070116
Ideal chemistry: Mg_2_Al(AlSiO_5_)(OH)_4_
Locality: Saranovskii Mine (Saranovskoye), Saranovskaya (Sarany; Saranje) Village, Gorozavod area, Permskaya Oblast', Urais Region, Russia
Source: Michael Scott
Description: Purple thin micaceous crystals, not a standard polytype, see Wiewiora et al (Am Min 76 (1991) 647-652)
Measured chemistry: (Mg_1.88_[box]_0.05_Cr_0.04_Fe^2+^_0.03_)_Σ=2_(Al_0.96_Cr_0.04_)_Σ=1_(Si_1.06_Al_0.94_)O_5_(OH)_4_ ; OH estimated by difference
Raman shift (cm-1)	intensity
168.075	0
170.968	95.8467
173.861	32.3027
176.753	10.9136
179.646	284.451
182.539	588.205
185.431	827.715
188.324	1200.93
191.217	1531.27
194.11	1985.16
197.002	2508.89
199.895	3132.07
202.788	3813.49
205.68	4397.2
208.573	4890.44
211.466	5271.31
214.358	4911.64
217.251	3420.18
220.144	1686.14
223.037	700
225.929	171.054
228.822	21.7786
231.715	41.7932
234.607	3.198
237.5	81.8706
240.393	201.71
243.286	303.472
246.178	222.331
249.071	166.41
251.964	138.882
254.856	261.347
257.749	344.581
260.642	394.13
263.534	444.581
266.427	424.7
269.32	522.505
272.212	601.408
275.105	646.146
277.998	708.351
280.891	771.898
283.783	758.723
286.676	900.566
289.569	795.392
292.461	472.928
295.354	161.777
298.247	22.1404
301.139	9.64404
304.032	6.87085
306.925	11.9502
309.817	37.4492
312.71	85.6916
315.603	109.513
318.496	96.103
321.388	109.484
324.281	170.072
327.174	250.508
330.066	218.421
332.959	190.119
335.852	218.629
338.745	335.058
341.637	513.404
344.53	462.001
347.423	263.608
350.315	109.298
353.208	3.82422
356.101	12.1365
358.993	27.0842
361.886	16.0169
364.779	76.1655
367.671	100.228
370.564	96.887
373.457	84.541
376.35	192.154
379.242	283.029
382.135	319.989
385.028	373.951
387.92	522.37
390.813	651.812
393.706	756.496
396.599	969.243
399.491	1203.98
402.384	1845.12
405.277	2440.61
408.169	2726.08
411.062	2903.36
413.955	3516.77
416.847	3756.95
419.74	2714.33
422.633	1476.96
425.526	764.807
428.418	434.406
431.311	319.279
434.204	348.963
437.096	302.17
439.989	246.887
442.882	140.028
445.774	17.3447
448.667	18.9507
451.56	47.2017
454.452	51.5801
457.345	15.6001
460.238	48.4722
463.131	214.193
466.023	452.898
468.916	802.523
471.809	1296.13
474.701	1851.7
477.594	2062.57
480.487	2090.96
483.38	2087.24
486.272	2030.4
489.165	1669.29
492.058	1199.04
494.95	746.425
497.843	434.045
500.736	188.904
503.628	131.925
506.521	88.2449
509.414	143.035
512.307	248.365
515.199	413.971
518.092	637.803
520.985	1059.55
523.877	1474.41
526.77	1935.01
529.663	2141.86
532.555	2059.51
535.448	1745.05
538.341	1437.98
541.234	1190.33
544.126	949.673
547.019	859.048
549.912	713.427
552.804	667.319
555.697	487.943
558.59	327.477
561.482	216.124
564.375	152.047
567.268	97.5776
570.16	45.8549
573.053	41.059
575.946	23.292
578.838	19.2845
581.731	35.9203
584.624	16.5382
587.517	0.10498
590.409	15.0261
593.302	20.4839
596.195	30.9529
599.087	44.187
601.98	35.6636
604.873	14.214
607.765	10.8047
610.658	61.9216
613.551	111.345
616.444	179.708
619.336	194.566
622.229	245.437
625.122	229.12
628.014	131.42
630.907	121.341
633.8	84.0396
636.692	103.924
639.585	78.4769
642.478	108.858
645.371	107.551
648.263	133.746
651.156	127.79
654.049	124.904
656.941	132.205
659.834	146.417
662.727	181.829
665.619	258.318
668.512	340.139
671.405	459.625
674.298	721.477
677.19	917.602
680.083	1119.84
682.976	1346.66
685.868	1390.07
688.761	1262.01
691.654	1255.48
694.546	1415.19
697.439	1773.32
700.332	2276.14
703.225	2591.91
706.117	2525.04
709.01	1928.23
711.903	1385.86
714.795	887.884
717.688	629.852
720.581	415.226
723.473	293.891
726.366	183.491
729.259	146.139
732.152	98.3657
735.044	71.139
737.937	67.8174
740.83	56.7484
743.722	9.31812
746.615	7.63196
749.508	9.29199
752.4	3.07288
755.293	8.22571
758.186	2.38098
761.079	20.1876
763.971	0.570801
766.864	5.03589
769.757	2.77258
772.649	29.7429
775.542	66.9269
778.435	96.0817
781.327	139.846
784.22	155.508
787.113	150.465
790.005	198.141
792.898	151.733
795.791	166.378
798.684	185.564
801.576	201.435
804.469	261.663
807.362	316.747
810.254	326.822
813.147	324.564
816.04	298.41
818.933	293.226
821.825	302.171
824.718	306.828
827.611	288.418
830.503	258.076
833.396	204.015
836.289	135.146
839.181	127.711
842.074	123.688
844.967	41.8718
847.86	33.4913
850.752	18.9603
853.645	6.67627
856.538	10.1841
859.43	31.6859
862.323	23.2195
865.216	1.19507
868.108	18.4434
871.001	52.7227
873.894	34.0737
876.787	53.5525
879.679	9.30041
882.572	0.161133
885.465	27.6046
888.357	77.7161
891.25	30.6073
894.143	32.3387
897.035	36.2378
899.928	44.0114
902.821	65.2305
905.713	68.9685
908.606	54.5115
911.499	15.5637
914.391	0.868164
917.284	7.00964
920.177	31.1371
923.07	6.4325
925.962	2.44153
928.855	30.0142
931.748	53.6968
934.64	59.6162
937.533	71.5632
940.426	80.4232
943.318	94.8352
946.211	118.432
949.104	128.536
951.997	155.769
954.889	224.448
957.782	257.359
960.675	325.04
963.567	388.267
966.46	470.773
969.353	551.576
972.245	656.359
975.138	692.249
978.031	814.726
980.924	840.187
983.816	733.819
986.709	557.721
989.602	366.363
992.494	261.547
995.387	188.377
998.28	181.872
1001.17	220.641
1004.07	286.922
1006.96	388.141
1009.85	521.898
1012.74	593.679
1015.64	605.607
1018.53	479.953
1021.42	341.849
1024.31	197.817
1027.21	102.451
1030.1	25.0117
1032.99	46.7683
1035.88	7.2334
1038.78	4.87524
1041.67	5.3075
1044.56	27.5994
1047.46	8.91382
1050.35	0.115967
1053.24	12.0033
1056.13	49.0919
1059.03	42.5835
1061.92	41.8746
1064.81	32.0974
1067.7	51.0746
1070.6	31.9863
1073.49	34.2231
1076.38	42.359
1079.28	27.1838
1082.17	15.1497
1085.06	27.7104
1087.95	3.3346
1090.85	32.8595
1093.74	33.9468
1096.63	21.0397
1099.52	25.0831
1102.42	32.976
1105.31	5.8233
1108.2	6.98541
1111.1	13.8209
1113.99	19.0648
1116.88	47.9085
1119.77	50.981
1122.67	6.0946
1125.56	21.8668
1128.45	10.5761
1131.34	78.2188
1134.24	58.0327
1137.13	26.5627
1140.02	12.9048
1142.91	43.7261
1145.81	62.8982
1148.7	7.55829
1151.59	61.956
1154.48	22.1763
1157.38	68.7536
1160.27	30.1808
1163.16	23.5926
1166.06	74.0122
1168.95	63.0109
1171.84	50.0853
1174.73	47.8385
1177.63	21.9905
1180.52	57.7294
1183.41	42.1481
1186.31	68.2906
1189.2	55.3492
1192.09	76.411
1194.98	62.5359
1197.88	54.9311
1200.77	3.1319
1203.66	8.80975
1206.55	19.6167
1209.45	50.0613
1212.34	12.6714
1215.23	31.389
1218.12	57.9492
1221.02	22.7121
1223.91	27.9521
1226.8	37.1422
1229.7	49.0443
1232.59	17.6963
1235.48	41.9781
1238.37	25.5919
1241.27	3.97766
1244.16	0
