Measurement: Raman, 532 nm, unoriented, Raman Data Processed
Mineral: Amesite
Rruff sample: R070132
Ideal chemistry: Mg_2_Al(AlSiO_5_)(OH)_4_
Locality: Saranovskii mine, Saranovskaya Village, Gornozavodskii area, Permskaya Oblast', Middle Urals, Russia
Source: Michael Scott
Description: Purple transparent hexagonal prisms, polytype 2H2
Measured chemistry: (Mg_1.87_[box]_0.05_Cr_0.05_Fe^2+^_0.03_)_Σ=2_(Al_0.98_Cr_0.02_)_Σ=1_(Si_1.05_Al_0.95_)O_5_(OH)_4_ ; OH estimated by difference
Raman shift (cm-1)	intensity
108.72	0
112.094	52.5576
115.469	32.1577
118.844	50.2026
122.219	136.996
125.594	174.574
128.969	425.935
132.343	696.537
135.718	776.3
139.093	421.447
142.468	266.682
145.843	210.699
149.217	164.38
152.592	83.1279
155.967	81.1348
159.342	15.5083
162.717	36.8989
166.091	83.3501
169.466	90.4741
172.841	22.0884
176.216	55.125
179.591	307.191
182.966	688.952
186.34	1352.36
189.715	2284.13
193.09	3447.9
196.465	3757.12
199.84	3979.68
203.214	3727.29
206.589	2717.24
209.964	1511.25
213.339	670.58
216.714	240.331
220.089	54.7895
223.463	124.3
226.838	644.795
230.213	1806.27
233.588	3355.52
236.963	6103.52
240.338	10931.4
243.712	15726.4
247.087	7767.9
250.462	3785.71
253.837	3711.67
257.212	4960.94
260.586	6655.85
263.961	9629.74
267.336	14359.1
270.711	19623.8
274.086	20547.7
277.461	16897.4
280.835	14873.6
284.21	11746.3
287.585	6746.4
290.96	3168.14
294.335	896.003
297.709	-53.8789
301.084	-12.1648
304.459	41.9297
307.834	241.314
311.209	804.862
314.584	1423.19
317.958	1383.07
321.333	1860.15
324.708	3080.87
328.083	3093.27
331.458	2350.31
334.832	1824.34
338.207	2355.32
341.582	2947.86
344.957	2757.21
348.332	2289.2
351.707	748.15
355.081	65.4121
358.456	50.956
361.831	219.84
365.206	1102.63
368.581	2419.38
371.955	4245.21
375.33	6853.04
378.705	7180.79
382.08	5477.03
385.455	4899.94
388.829	5043.5
392.204	6345.06
395.579	7682.76
398.954	10404.6
402.329	15447.1
405.704	19633
409.078	16849.9
412.453	14570.3
415.828	8054.33
419.203	3470.06
422.578	1043.15
425.952	194.729
429.327	49.3394
432.702	84.6424
436.077	129.555
439.452	475.556
442.827	571.101
446.201	855.386
449.576	1072.2
452.951	1106.84
456.326	1199.63
459.701	1287.81
463.075	1490.68
466.45	2196.75
469.825	3731.24
473.2	5452.58
476.575	6185.8
479.95	4836.89
483.324	3722.71
486.699	3187.99
490.074	2870.28
493.449	2206.84
496.824	981.095
500.199	163.352
503.573	18.5443
506.948	31.305
510.323	209.241
513.698	729.901
517.073	1586.95
520.447	2804.9
523.822	4083.9
527.197	5127.85
530.572	4906.31
533.947	3945.44
537.322	2903.55
540.696	2161.39
544.071	1789.97
547.446	1541.41
550.821	1465.01
554.196	1309.63
557.57	1018.95
560.945	692.238
564.32	564.481
567.695	459.788
571.07	441.701
574.444	343.773
577.819	243.171
581.194	245.21
584.569	160.526
587.944	96.4512
591.319	55.1582
594.693	24.2085
598.068	15.1953
601.443	4.63379
604.818	56.9009
608.193	22.6919
611.568	40.0928
614.942	6.38867
618.317	69.8735
621.692	110.569
625.067	111.785
628.442	153.178
631.817	137.421
635.191	156.928
638.566	160.632
641.941	224.921
645.316	244.973
648.691	396.568
652.065	426.725
655.44	587.848
658.815	741.194
662.19	847.642
665.565	1110.36
668.939	1630.03
672.314	2430.8
675.689	3511.58
679.064	4533.11
682.439	5325.06
685.813	4941.51
689.188	4258.02
692.563	4593.53
695.938	6198.77
699.313	8683.07
702.688	11332.9
706.062	13026.9
709.437	10761.6
712.812	6850.11
716.187	4078.28
719.562	2455.64
722.937	1531.89
726.311	1001.25
729.686	677.472
733.061	438.084
736.436	288.524
739.811	233.124
743.186	104.577
746.56	73.9238
749.935	5.15674
753.31	35.2065
756.685	37.4316
760.06	57.148
763.434	10.292
766.809	19.5703
770.184	64.1533
773.559	193.875
776.934	388.786
780.308	614.137
783.683	708.355
787.058	720.571
790.433	863.519
793.808	825.893
797.183	903.251
800.557	1122.23
803.932	1521.96
807.307	2195.19
810.682	2999.91
814.057	4128.86
817.432	5291.32
820.806	6419.22
824.181	6735.73
827.556	5906.63
830.931	4097.84
834.306	2701.46
837.68	1859.1
841.055	1330.15
844.43	876.776
847.805	565.668
851.18	346.308
854.554	187.78
857.929	201.778
861.304	109.501
864.679	39.4629
868.054	57.998
871.428	109.358
874.803	162.489
878.178	128.215
881.553	138.683
884.928	41.4463
888.303	37.2319
891.678	4.52246
895.052	36.8081
898.427	28.2715
901.802	2.79883
905.177	27.8784
908.552	4.08691
911.926	2.75098
915.301	3.33838
918.676	22.2432
922.051	49.9351
925.426	115.993
928.801	209.531
932.175	265.275
935.55	408.44
938.925	544.811
942.3	1052.34
945.675	1844.07
949.049	2860.37
952.424	3835.01
955.799	3989.95
959.174	3388.81
962.549	3053.01
965.923	2991.55
969.298	3071.59
972.673	3231.21
976.048	3396.5
979.423	3437.18
982.798	2999.12
986.172	2060.16
989.547	1109.2
992.922	635.101
996.297	497.691
999.672	663.279
1003.05	941.221
1006.42	1300.68
1009.8	1688.02
1013.17	1530.27
1016.55	1090.68
1019.92	631.486
1023.29	267.699
1026.67	113.249
1030.05	109.859
1033.42	138.891
1036.8	197.107
1040.17	191.319
1043.54	154.478
1046.92	38.8638
1050.29	48.9072
1053.67	21.998
1057.04	23.229
1060.42	24.3901
1063.79	9.91797
1067.17	14.374
1070.54	74.8223
1073.92	91.6367
1077.29	116.747
1080.67	106.222
1084.04	74.8023
1087.42	54.2429
1090.79	1.18262
1094.17	15.1365
1097.54	27.4641
1100.92	10.5901
1104.29	45.8428
1107.67	43.2893
1111.04	1.54883
1114.42	25.2144
1117.79	14.4702
1121.16	64.2361
1124.54	100.5
1127.91	83.8606
1131.29	12.7703
1134.66	88.5671
1138.04	69.3264
1141.41	108.128
1144.79	84.2161
1148.16	77.4077
1151.54	132.776
1154.91	89.0369
1158.29	133.068
1161.66	67.8223
1165.04	102.397
1168.41	95.74
1171.79	64.5012
1175.16	21.2512
1178.54	21.2661
1181.91	79.6616
1185.29	45.1292
1188.66	68.5623
1192.04	33.8638
1195.41	20.3662
1198.79	46.9746
1202.16	59.4624
1205.54	84.7183
1208.91	79.1445
1212.29	39.9351
1215.66	67.2622
1219.04	44.7256
1222.41	34.0742
1225.78	18.938
1229.16	56.1255
1232.53	51.0503
1235.91	51.7837
1239.28	57.1367
1242.66	0.049805
1246.03	42.7827
1249.41	23.4512
1252.78	53.9507
1256.16	50.5908
1259.53	14.7231
1262.91	11.0342
1266.28	38.3291
1269.66	73.0439
1273.03	40.0576
1276.41	42.3247
1279.78	74.8716
1283.16	33.6421
1286.53	30.4141
1289.91	7.89404
1293.28	0.694824
1296.66	4.2124
1300.03	36.062
