Measurement: Raman, 780 nm, unoriented, Raman Data Processed
Mineral: Amicite
Rruff sample: R080066
Ideal chemistry: K_2_Na_2_(Si_4_Al_4_O_16_)5H_2_O
Locality: Kirovski Drive, Khibiny, Kola Peninsula, Russia
Source: Michael Scott
Description: Colorless pseudo-octahedral crystals
Raman shift (cm-1)	intensity
124.825	0
128.2	26.2794
131.575	1.92557
134.95	7.94958
138.325	48.4039
141.699	72.1829
145.074	90.4377
148.449	120.18
151.824	163.679
155.199	220.298
158.573	264.541
161.948	260.119
165.323	201.687
168.698	156.048
172.073	145.278
175.447	151.028
178.822	159.178
182.197	173.483
185.572	199.125
188.947	232.715
192.322	251.157
195.696	232.782
199.071	182.902
202.446	139.464
205.821	107.275
209.196	82.9015
212.571	62.8317
215.945	49.062
219.32	44.4502
222.695	45.6326
226.07	46.3895
229.445	39.1868
232.819	22.7004
236.194	7.82596
239.569	0.904572
242.944	5.33255
246.319	2.84579
249.694	1.87395
253.068	4.37062
256.443	11.2621
259.818	17.4585
263.193	24.354
266.567	32.4832
269.942	38.9841
273.317	39.0718
276.692	34.1371
280.067	28.7654
283.442	22.2844
286.816	15.3158
290.191	13.25
293.566	10.9795
296.941	11.4491
300.316	5.71224
303.69	4.34589
307.065	2.26847
310.44	3.14638
313.815	4.67849
317.19	4.44102
320.565	3.72417
323.939	6.63702
327.314	7.99875
330.689	7.63621
334.064	2.9523
337.439	1.25201
340.813	0.019363
344.188	0.738403
347.563	2.43948
350.938	2.06357
354.313	2.12518
357.688	0.396355
361.062	2.90221
364.437	6.03159
367.812	10.0125
371.187	17.6368
374.562	25.4546
377.937	25.1954
381.311	17.1564
384.686	19.4023
388.061	26.1088
391.436	30.9169
394.81	29.3799
398.185	27.9261
401.56	35.3805
404.935	45.7249
408.31	63.1121
411.685	76.5589
415.059	56.8026
418.434	24.436
421.809	8.11153
425.184	0.31823
428.559	1.08944
431.933	10.1434
435.308	25.3571
438.683	50.0496
442.058	84.752
445.433	136.41
448.808	199.607
452.182	270.442
455.557	355.401
458.932	452.562
462.307	544.034
465.682	584.961
469.057	507.718
472.431	371.332
475.806	268.544
479.181	189.487
482.556	119.801
485.931	72.6724
489.305	47.0138
492.68	28.7597
496.055	25.4451
499.43	24.3548
502.805	28.0166
506.18	33.2205
509.554	35.0596
512.929	34.2518
516.304	24.6095
519.679	11.0695
523.054	4.09511
526.428	0.194504
529.803	1.11396
533.178	2.9716
536.553	2.09237
539.928	1.75478
543.303	1.00113
546.677	0.887299
550.052	0.032734
553.427	0.66843
556.802	0.797596
560.177	0.310837
563.551	1.20573
566.926	2.73431
570.301	3.7977
573.676	3.7475
577.051	4.37015
580.426	3.17002
583.8	3.55592
587.175	2.60231
590.55	2.29628
593.925	3.58994
597.299	2.16638
600.674	2.38703
604.049	1.76213
607.424	2.38283
610.799	0.63324
614.174	3.56293
617.548	4.41356
620.923	4.91559
624.298	7.13588
627.673	8.1618
631.048	8.86304
634.423	6.0773
637.797	3.90994
641.172	3.106
644.547	2.77426
647.922	2.75586
651.297	0.165371
654.671	2.4876
658.046	3.14227
661.421	2.82492
664.796	3.69315
668.171	3.62006
671.545	2.69628
674.92	3.55474
678.295	3.73913
681.67	2.3746
685.045	3.79933
688.42	5.20961
691.794	6.11696
695.169	8.38239
698.544	13.2927
701.919	18.2007
705.294	23.7502
708.668	23.4345
712.043	20.8536
715.418	17.6139
718.793	18.072
722.168	18.1869
725.543	19.1202
728.917	19.4952
732.292	16.7263
735.667	10.5486
739.042	7.62326
742.417	3.60991
745.791	2.47245
749.166	1.80462
752.541	1.42571
755.916	0.402973
759.291	1.62669
762.665	0.006538
766.04	0.307301
769.415	1.36971
772.79	1.42659
776.165	0.608791
779.54	1.53145
782.914	1.9216
786.289	0.049347
789.664	1.09988
793.039	0.669643
796.414	1.72206
799.788	2.2316
803.163	1.71376
806.538	2.22013
809.913	3.11299
813.288	2.78527
816.663	2.78296
820.037	3.7443
823.412	5.33315
826.787	4.13811
830.162	5.23308
833.537	4.43095
836.912	4.75605
840.286	7.45051
843.661	7.38359
847.036	4.81706
850.411	6.01554
853.786	6.42143
857.16	7.05732
860.535	6.49651
863.91	4.50832
867.285	5.5134
870.66	4.18504
874.034	4.28135
877.409	3.15252
880.784	2.85648
884.159	3.14421
887.534	2.2677
890.909	2.94412
894.283	3.33197
897.658	1.66952
901.033	1.59916
904.408	1.24738
907.783	0.312325
911.158	2.12625
914.532	0.181416
917.907	0.308979
921.282	0.874428
924.657	1.03251
928.032	0.729218
931.406	0.133354
934.781	0.266331
938.156	0.10894
941.531	0.588009
944.906	0.129505
948.28	2.145
951.655	2.67925
955.03	4.49721
958.405	4.70927
961.78	6.69508
965.154	9.91224
968.529	13.3475
971.904	15.7982
975.279	19.7832
978.654	18.482
982.029	14.5726
985.403	18.0139
988.778	26.7786
992.153	34.9531
995.528	51.8921
998.903	70.6959
1002.28	81.355
1005.65	70.0431
1009.03	56.8674
1012.4	51.2126
1015.78	54.2897
1019.15	59.6184
1022.53	51.1588
1025.9	32.0379
1029.28	20.5762
1032.65	14.3189
1036.03	14.1686
1039.4	16.7743
1042.78	18.9292
1046.15	17.9165
1049.53	12.6956
1052.9	6.98807
1056.28	2.26455
1059.65	0.229794
1063.02	0.478943
1066.4	1.17965
1069.77	0.109558
1073.15	1.82469
1076.52	4.2529
1079.9	9.13438
1083.27	13.7539
1086.65	17.2185
1090.02	22.7519
1093.4	22.8734
1096.77	17.425
1100.15	10.8647
1103.52	5.0148
1106.9	3.30448
1110.27	2.6827
1113.65	0.913517
1117.02	0.088802
1120.4	0.487827
1123.77	0.401508
1127.15	0.400457
1130.52	0.65132
1133.89	0.50456
1137.27	0.321527
1140.64	0.510719
1144.02	0.060854
1147.39	0.720142
1150.77	1.16037
1154.14	0.150055
1157.52	1.03283
1160.89	2.26918
1164.27	1.72822
1167.64	1.33845
1171.02	2.27504
1174.39	2.61725
1177.77	1.90948
1181.14	1.73312
1184.52	1.70623
1187.89	2.36509
1191.27	1.3983
1194.64	1.85817
1198.02	1.45961
1201.39	1.75076
1204.77	2.18032
1208.14	2.40598
1211.52	1.89044
1214.89	1.35918
1218.27	1.89438
1221.64	1.50788
1225.02	1.27783
1228.39	2.65108
1231.77	0.379015
1235.14	2.16383
1238.52	2.57869
1241.89	1.47108
1245.26	1.25305
1248.64	1.44805
1252.01	1.29174
1255.39	0.39444
1258.76	0.232601
1262.14	2.56423
1265.51	1.13839
1268.89	1.03985
1272.26	1.33205
1275.64	0.069368
1279.01	1.23809
1282.39	0.835155
1285.76	0.690697
