Measurement: Raman, 532 nm, unoriented, Raman Data Processed
Mineral: Amicite
Rruff sample: R080066
Ideal chemistry: K_2_Na_2_(Si_4_Al_4_O_16_)5H_2_O
Locality: Kirovski Drive, Khibiny, Kola Peninsula, Russia
Source: Michael Scott
Description: Colorless pseudo-octahedral crystals
Raman shift (cm-1)	intensity
126.102	0
129.476	8.65509
132.851	15.8444
136.226	94.8616
139.601	169.213
142.976	174.246
146.351	155.504
149.725	181.997
153.1	254.056
156.475	345.462
159.85	360.445
163.225	306.028
166.6	242.324
169.974	236.61
173.349	282.202
176.724	322.245
180.099	361.86
183.474	409.925
186.848	500.862
190.223	566.763
193.598	548.044
196.973	449.274
200.348	350.808
203.722	275.416
207.097	220.04
210.472	166.647
213.847	112.829
217.222	85.0152
220.596	84.8074
223.971	68.3005
227.346	58.1379
230.721	50.3643
234.096	32.8432
237.471	8.25854
240.845	7.14267
244.22	10.7319
247.595	7.77927
250.97	0.968414
254.345	8.18091
257.719	21.1916
261.094	40.2621
264.469	57.9829
267.844	76.8615
271.219	87.3057
274.594	80.8789
277.968	70.3308
281.343	50.4974
284.718	35.8867
288.093	28.568
291.468	22.3155
294.842	17.0663
298.217	12.1933
301.592	7.93546
304.967	5.45425
308.342	5.11047
311.717	11.6109
315.091	15.1869
318.466	15.3102
321.841	18.6118
325.216	26.2346
328.591	24.8963
331.966	14.2807
335.34	6.06403
338.715	1.13535
342.09	3.86118
345.465	5.29636
348.84	2.36346
352.214	1.6051
355.589	2.84177
358.964	9.40411
362.339	19.399
365.714	31.3271
369.089	57.3698
372.463	92.4768
375.838	124.123
379.213	136.499
382.588	149.468
385.963	184.45
389.337	207.928
392.712	188.244
396.087	134.584
399.462	109.706
402.837	124.344
406.212	167.953
409.586	218.053
412.961	206.34
416.336	115.621
419.711	39.1606
423.086	5.55591
426.46	6.98764
429.835	2.53921
433.21	19.5273
436.585	52.4725
439.96	95.1777
443.334	157.709
446.709	252.22
450.084	383.397
453.459	556.861
456.834	781.212
460.209	1080.39
463.583	1341.63
466.958	1371.32
470.333	1138.68
473.708	935.183
477.083	756.305
480.457	508.147
483.832	301.885
487.207	177.512
490.582	114.385
493.957	82.7999
497.332	77.9753
500.706	86.4712
504.081	104.228
507.456	112.037
510.831	104.166
514.206	81.1214
517.58	45.2953
520.955	17.7875
524.33	5.88669
527.705	2.25796
531.08	1.51196
534.455	3.82834
537.829	4.41818
541.204	3.06271
544.579	0.773834
547.954	2.64255
551.329	0.322174
554.703	1.74698
558.078	3.76981
561.453	5.00662
564.828	6.88449
568.203	8.66742
571.577	8.80652
574.952	11.369
578.327	12.3514
581.702	8.29831
585.077	5.5575
588.452	4.6864
591.826	4.98163
595.201	3.30881
598.576	0.401642
601.951	3.23856
605.326	0.346161
608.7	0.782227
612.075	1.01425
615.45	1.87787
618.825	7.57047
622.2	7.94522
625.574	11.1805
628.949	17.8642
632.324	17.4199
635.699	16.9236
639.074	17.2155
642.449	14.1967
645.823	16.8287
649.198	17.1867
652.573	19.8641
655.948	22.1339
659.323	22.9769
662.697	21.0115
666.072	20.7016
669.447	19.1995
672.822	17.9106
676.197	16.1971
679.572	14.9887
682.946	12.1548
686.321	11.9697
689.696	12.7249
693.071	15.8879
696.446	25.455
699.821	36.3881
703.195	49.6467
706.57	56.8762
709.945	45.8727
713.32	35.7992
716.695	34.3606
720.069	39.1625
723.444	42.7069
726.819	45.0936
730.194	51.5162
733.569	42.5886
736.943	30.3236
740.318	20.5044
743.693	11.2928
747.068	6.35642
750.443	4.40356
753.818	0.279938
757.192	1.49432
760.567	0.719086
763.942	1.86847
767.317	0.90863
770.692	0.708252
774.067	0.143585
777.441	2.29889
780.816	2.15054
784.191	0.806732
787.566	1.87903
790.941	0.445496
794.315	0.960114
797.69	0.197449
801.065	1.86581
804.44	4.517
807.815	2.81351
811.189	3.62946
814.564	4.47351
817.939	4.79871
821.314	6.93579
824.689	7.50967
828.063	6.54703
831.438	8.52744
834.813	9.78397
838.188	7.06357
841.563	11.5101
844.938	13.5754
848.312	12.1506
851.687	12.8163
855.062	10.9633
858.437	9.25452
861.812	8.8981
865.187	6.58292
868.561	9.39066
871.936	8.10468
875.311	7.04211
878.686	3.88641
882.061	3.8035
885.435	6.65384
888.81	3.95557
892.185	5.27435
895.56	5.56906
898.935	4.03653
902.309	2.83539
905.684	0.708496
909.059	0.575531
912.434	0.82251
915.809	1.84595
919.184	3.60779
922.558	1.16226
925.933	0.126038
929.308	1.92862
932.683	0.740295
936.058	0.804169
939.433	0.239868
942.807	2.06674
946.182	4.23575
949.557	10.5357
952.932	15.862
956.307	22.9126
959.681	21.6865
963.056	24.4743
966.431	31.5857
969.806	48.9582
973.181	64.9412
976.556	70.1131
979.93	58.5749
983.305	56.7264
986.68	68.7299
990.055	101.426
993.43	152.007
996.804	234.81
1000.18	325.627
1003.55	322.735
1006.93	235.365
1010.3	176.889
1013.68	153.038
1017.05	161.874
1020.43	167.624
1023.8	124.486
1027.18	73.2855
1030.55	52.5805
1033.93	49.7352
1037.3	59.178
1040.68	70.3455
1044.05	79.7711
1047.43	67.6337
1050.8	43.0549
1054.18	24.2388
1057.55	9.97089
1060.93	3.60587
1064.3	0.2547
1067.68	2.22406
1071.05	1.5849
1074.42	3.41095
1077.8	10.0997
1081.17	22.8008
1084.55	42.1197
1087.92	60.3437
1091.3	76.4066
1094.67	63.7349
1098.05	43.8785
1101.42	28.7517
1104.8	16.6171
1108.17	10.5709
1111.55	7.00458
1114.92	2.57956
1118.3	2.35086
1121.67	2.28198
1125.05	0.141602
1128.42	1.26446
1131.8	1.1318
1135.17	0.702332
1138.55	0.663208
1141.92	0.41684
1145.3	2.83575
1148.67	0.851135
1152.05	4.49591
1155.42	1.98224
1158.8	1.36041
1162.17	2.79523
1165.55	3.61661
1168.92	4.47754
1172.3	7.25775
1175.67	6.24893
1179.04	4.35391
1182.42	4.65845
1185.79	4.50607
1189.17	7.94351
1192.54	8.33731
1195.92	5.24609
1199.29	2.80484
1202.67	3.82156
1206.04	4.51788
1209.42	3.69736
1212.79	3.87231
1216.17	2.86807
1219.54	4.8747
1222.92	4.1918
1226.29	1.20947
1229.67	0.306824
1233.04	6.8746
1236.42	0.953339
1239.79	1.11783
1243.17	1.77051
1246.54	3.39047
1249.92	0.394104
1253.29	2.55322
1256.66	2.22086
1260.04	2.46704
1263.41	2.46411
1266.79	1.72138
1270.16	1.39035
1273.54	0.026703
1276.91	0.035889
1280.29	0.389435
1283.66	4.75949
1287.04	3.49139
1290.41	1.45084
1293.79	0.259644
1297.16	5.31741
1300.54	4.19434
1303.91	0.369659
