Measurement: Raman, 780 nm, unoriented, Raman Data Processed
Mineral: Aminoffite
Rruff sample: R100055
Ideal chemistry: Ca_3_(BeOH)_2_Si_3_O_10_
Locality: Langban, Filipstad, Varmland, Sweden
Source: William W Pinch
Description: Colorless transparent tetragonal pyramids with basal terminations, co-type sample from Harvard
Raman shift (cm-1)	intensity
91.5332	0
94.908	19.9454
98.2828	5.24573
101.658	0.625839
105.032	9.49129
108.407	7.11156
111.782	6.40787
115.157	2.32745
118.532	0.277435
121.907	5.12026
125.281	18.7171
128.656	13.5968
132.031	18.1656
135.406	23.1991
138.781	23.4782
142.155	15.9285
145.53	19.2493
148.905	35.8873
152.28	50.1107
155.655	61.6935
159.03	37.145
162.404	3.85461
165.779	2.9182
169.154	0.231827
172.529	0.054848
175.904	0.109711
179.278	6.70892
182.653	13.8034
186.028	23.0685
189.403	23.4812
192.778	29.9058
196.153	48.3338
199.527	68.0084
202.902	86.573
206.277	64.3406
209.652	45.4952
213.027	49.4159
216.401	46.1685
219.776	40.3776
223.151	39.8613
226.526	35.9309
229.901	34.0635
233.275	33.4468
236.65	24.1702
240.025	16.5059
243.4	19.131
246.775	24.926
250.15	22.9489
253.524	37.8573
256.899	25.7275
260.274	5.78165
263.649	0.716896
267.024	1.8515
270.399	5.58719
273.773	11.3451
277.148	12.415
280.523	10.0223
283.898	0.931328
287.273	1.51631
290.647	1.53344
294.022	0.144371
297.397	0.477516
300.772	7.30405
304.147	20.3261
307.522	42.3739
310.896	58.9627
314.271	86.0172
317.646	120.905
321.021	174.468
324.396	208.864
327.77	144.981
331.145	82.6116
334.52	42.081
337.895	18.8089
341.27	9.91995
344.644	6.53884
348.019	2.11045
351.394	0.209358
354.769	0.871796
358.144	0.977875
361.519	0.369041
364.893	0.126953
368.268	0.763985
371.643	2.48892
375.018	4.49628
378.393	8.62749
381.767	9.06461
385.142	6.0177
388.517	7.8962
391.892	13.5601
395.267	18.2252
398.642	25.5475
402.016	31.4323
405.391	40.658
408.766	54.2399
412.141	52.1451
415.516	41.7258
418.89	39.4927
422.265	24.4468
425.64	8.61552
429.015	2.54504
432.39	0.85714
435.765	0.446945
439.139	0.168137
442.514	1.13998
445.889	6.91649
449.264	14.9681
452.639	28.1782
456.014	41.9173
459.388	57.5725
462.763	79.9172
466.138	105.164
469.513	117.219
472.887	84.1796
476.262	40.42
479.637	20.4408
483.012	15.944
486.387	17.8755
489.762	23.8348
493.136	20.6065
496.511	8.19108
499.886	1.0783
503.261	0.659691
506.636	1.27709
510.01	1.48648
513.385	4.19441
516.76	12.1496
520.135	20.6638
523.51	28.4584
526.885	41.9701
530.259	55.7287
533.634	53.6952
537.009	32.8169
540.384	17.0739
543.759	8.92563
547.134	8.14149
550.508	10.8722
553.883	21.3302
557.258	30.5156
560.633	44.6559
564.008	64.2957
567.382	96.8765
570.757	113.59
574.132	78.5218
577.507	38.8511
580.882	20.3546
584.256	13.2301
587.631	10.2616
591.006	9.35778
594.381	8.86049
597.756	6.56929
601.131	7.45053
604.505	6.16783
607.88	5.18511
611.255	3.24358
614.63	1.0754
618.005	1.31082
621.38	0.12611
624.754	0.67955
628.129	1.10347
631.504	0.91943
634.879	0.139786
638.254	0.043335
641.628	0.001324
645.003	0.959515
648.378	0.623249
651.753	1.15327
655.128	0.567619
658.503	1.03788
661.877	1.27078
665.252	2.73925
668.627	4.82221
672.002	6.34859
675.377	9.23909
678.751	12.8789
682.126	13.6755
685.501	21.6879
688.876	30.5865
692.251	36.5797
695.625	46.032
699	58.4877
702.375	57.6168
705.75	32.3865
709.125	17.5074
712.5	14.7182
715.874	14.3126
719.249	21.6343
722.624	40.8016
725.999	82.3129
729.374	128.898
732.749	186.978
736.123	269.083
739.498	367.109
742.873	318.725
746.248	160.758
749.623	79.7888
752.997	46.4023
756.372	29.3542
759.747	19.0757
763.122	9.14451
766.497	5.50521
769.871	2.19891
773.246	1.51946
776.621	0.045807
779.996	1.38003
783.371	0.516396
786.745	1.4809
790.12	0.023949
793.495	2.64762
796.87	5.27769
800.245	9.03541
803.62	14.5582
806.994	26.0602
810.369	38.3347
813.744	49.2448
817.119	63.7113
820.494	62.5474
823.869	42.2289
827.243	26.5379
830.618	16.0218
833.993	11.9798
837.368	10.677
840.743	11.4856
844.117	16.0822
847.492	20.0081
850.867	24.8756
854.242	23.2692
857.617	16.21
860.991	9.78077
864.366	6.22407
867.741	8.49318
871.116	9.87981
874.491	14.619
877.866	20.4643
881.24	22.0614
884.615	26.5286
887.99	25.3397
891.365	17.6081
894.74	11.8771
898.115	4.91951
901.489	0.762268
904.864	0.330608
908.239	1.16745
911.614	9.85928
914.989	22.0439
918.363	35.411
921.738	49.6437
925.113	61.6981
928.488	53.3859
931.863	25.1635
935.237	7.09008
938.612	0.6889
941.987	1.19718
945.362	0.229527
948.737	0.88652
952.112	4.62312
955.486	9.72094
958.861	14.8589
962.236	30.3302
965.611	54.2309
968.986	65.1763
972.361	75.0892
975.735	92.9271
979.11	121.234
982.485	132.352
985.86	86.8295
989.235	45.9455
992.609	26.1428
995.984	20.5303
999.359	19.9971
1002.73	20.4143
1006.11	21.655
1009.48	25.771
1012.86	32.4917
1016.23	33.8792
1019.61	30.1447
1022.98	22.7518
1026.36	15.054
1029.73	9.37439
1033.11	5.46516
1036.48	1.78276
1039.86	3.17191
1043.23	1.81838
1046.61	1.83957
1049.98	1.4914
1053.36	0.885479
1056.73	1.36541
1060.11	1.24266
1063.48	0.626213
1066.86	0.359859
1070.23	1.21536
1073.61	1.25689
1076.98	0.084213
1080.36	1.44931
1083.73	0.342339
1087.1	0.832146
1090.48	1.28595
1093.85	0.820198
1097.23	1.77276
1100.6	0.812065
1103.98	1.92142
1107.35	2.91899
1110.73	0.795418
1114.1	1.86099
1117.48	0.786167
1120.85	2.20223
1124.23	2.31986
1127.6	2.75797
1130.98	3.50634
1134.35	2.13321
1137.73	3.47834
1141.1	3.4365
1144.48	1.7296
1147.85	3.65867
1151.23	3.3956
1154.6	1.60461
1157.97	3.10561
1161.35	3.64022
1164.72	2.69273
1168.1	0.767689
1171.47	1.9287
1174.85	1.69672
1178.22	0.000645
1181.6	1.54879
1184.97	2.25132
1188.35	0.733074
1191.72	0.311539
1195.1	0.253502
1198.47	1.19109
1201.85	1.42737
1205.22	1.10224
1208.6	0.09584
1211.97	1.05395
1215.35	0.578407
1218.72	1.38208
1222.1	1.11844
1225.47	1.75471
1228.85	0.455196
1232.22	0.465637
1235.6	1.52031
1238.97	0.321072
1242.35	0.474792
1245.72	3.23331
1249.1	3.3507
1252.47	1.90926
1255.85	4.35901
1259.22	3.64442
1262.6	5.3123
1265.97	6.17557
1269.34	4.9786
1272.72	5.47523
1276.09	2.99153
1279.47	0.615948
1282.84	0.464634
