Measurement: Raman, 532 nm, unoriented, Raman Data Processed
Mineral: Ammineite
Rruff sample: R120155
Ideal chemistry: CuCl_2_(NH_3_)_2_
Locality: Caleta Pabellon de Pica, Punta Colina, Iquique, I Region, Chile
Source: Marcus Origlieri
Description: Blue massive to granular associated with colorless halite
Raman shift (cm-1)	intensity
163.125	0
166.018	0.340767
168.911	6.48777
171.804	48.5835
174.696	138.52
177.589	246.271
180.482	297.454
183.374	281.901
186.267	263.461
189.16	266.537
192.053	282.253
194.945	279.723
197.838	251.615
200.731	223.448
203.623	207.188
206.516	209.513
209.409	235.982
212.301	287.627
215.194	344.916
218.087	405.038
220.98	476.202
223.872	580.614
226.765	703.271
229.658	718.888
232.55	516.195
235.443	289.108
238.336	155.617
241.228	87.1522
244.121	53.3748
247.014	31.6292
249.906	19.7476
252.799	11.3261
255.692	6.5302
258.585	3.37473
261.477	1.0723
264.37	1.26777
267.263	1.71762
270.155	3.1933
273.048	2.67924
275.941	1.97709
278.834	1.25823
281.726	0.035805
284.619	0.146446
287.512	0.088005
290.404	0.234169
293.297	0.405495
296.19	0.372986
299.082	0.564995
301.975	1.89823
304.868	0.833572
307.76	1.20566
310.653	1.41119
313.546	2.28593
316.439	2.62634
319.331	3.49381
322.224	2.43422
325.117	1.92515
328.009	0.222569
330.902	0.654964
333.795	0.355064
336.688	0.047497
339.58	0.657257
342.473	0.133717
345.366	0.196808
348.258	0.805874
351.151	1.23219
354.044	2.99438
356.936	3.77253
359.829	5.69914
362.722	7.65173
365.615	10.1808
368.507	11.4637
371.4	16.3627
374.293	20.9826
377.185	24.6054
380.078	30.2092
382.971	36.3223
385.863	43.4181
388.756	50.5634
391.649	62.5431
394.541	74.9495
397.434	92.6582
400.327	117.589
403.22	152.353
406.112	207.214
409.005	279.052
411.898	356.89
414.79	454.326
417.683	586.055
420.576	709.977
423.469	706.845
426.361	489.416
429.254	249.321
432.147	124.175
435.039	68.2123
437.932	41.6197
440.825	27.0614
443.717	18.3952
446.61	12.1378
449.503	8.13405
452.396	5.78352
455.288	4.17103
458.181	3.1237
461.074	2.30779
463.966	2.27028
466.859	1.79067
469.752	1.88751
472.644	1.8648
475.537	1.4329
478.43	1.18928
481.322	0.310974
484.215	0.927864
487.108	0.314602
490.001	0.36084
492.893	0.173338
495.786	0.213428
498.679	0.299902
501.571	0.69433
504.464	0.419056
507.357	0.34763
510.25	0.5061
513.142	0.129423
516.035	0.380459
518.928	0.440008
521.82	0.264767
524.713	0.182756
527.606	0.105854
530.498	0.074923
533.391	0.283976
536.284	0.076763
539.177	0.342854
542.069	0.643559
544.962	0.98699
547.855	0.469006
550.747	0.672199
553.64	0.775566
556.533	1.43535
559.425	0.905836
562.318	0.020237
565.211	0.432888
568.104	0.480408
570.996	0.694597
573.889	0.423122
576.782	0.008762
579.674	0.066128
582.567	0.462803
585.46	0.493496
588.352	0.304203
591.245	0.046282
594.138	0.404079
597.03	0.683151
599.923	0.586872
602.816	0.94359
605.709	1.23073
608.601	1.86273
611.494	2.56826
614.387	3.30031
617.279	4.10858
620.172	5.05452
623.065	6.17454
625.957	7.23865
628.85	8.82881
631.743	10.8047
634.636	12.4907
637.528	13.9656
640.421	15.1759
643.314	16.4704
646.206	16.5779
649.099	17.2698
651.992	17.8389
654.885	20.9041
657.777	24.1024
660.67	29.2026
663.563	36.1439
666.455	43.7589
669.348	53.0057
672.241	60.2688
675.133	62.5082
678.026	58.9024
680.919	50.2922
683.812	39.9068
686.704	30.2251
689.597	21.8463
692.49	16.2254
695.382	12.0066
698.275	9.36336
701.168	6.74865
704.06	5.29155
706.953	4.22582
709.846	3.15774
712.739	2.30802
715.631	1.48929
718.524	0.94899
721.417	0.679266
724.309	0.306282
727.202	0.389105
730.095	0.017338
732.987	0.061357
735.88	0.41898
738.773	0.375675
741.665	0.00564
744.558	0.484123
747.451	0.206726
750.344	0.675291
753.236	0.088507
756.129	0.42107
759.022	0.424549
761.914	1.08429
764.807	0.586447
767.7	0.889402
770.592	0.6119
773.485	0.702261
776.378	0.841091
779.271	0.66328
782.163	0.319134
785.056	0.952538
787.949	0.443893
790.841	0.847633
793.734	0.558794
796.627	0.297613
799.519	0.334238
802.412	0.010351
805.305	0.055485
808.198	0.381329
811.09	0.556925
813.983	0.057516
816.876	0.460726
819.768	0.747898
822.661	1.02964
825.554	0.84955
828.447	1.59797
831.339	1.24581
834.232	1.32784
837.125	1.02483
840.017	0.910147
842.91	1.11803
845.803	0.751844
848.695	0.842413
851.588	0.609028
854.481	0.877449
857.374	1.19088
860.266	1.22928
863.159	1.18802
866.052	1.34943
868.944	1.31289
871.837	1.05185
874.73	1.14842
877.622	0.721998
880.515	1.17676
883.408	0.796442
886.301	0.654037
889.193	0.753591
892.086	0.81537
894.979	0.786819
897.871	0.506595
900.764	0.676269
903.657	0.809499
906.549	1.30716
909.442	0.843903
912.335	1.04265
915.227	0.746827
918.12	1.35729
921.013	1.48602
923.906	1.25832
926.798	1.47679
929.691	0.806432
932.584	0.951973
935.476	1.11735
938.369	0.805904
941.262	0.174234
944.154	0.242424
947.047	0.508856
949.94	0.175512
952.833	0.157068
955.725	0.519755
958.618	0.312842
961.511	0.011992
964.403	0.142348
967.296	0.150948
970.189	0.084296
973.082	0.29466
975.974	0.048719
978.867	0.030301
981.76	0.428733
984.652	0.112158
987.545	0.214838
990.438	0.145551
993.33	0.147558
996.223	0.271533
999.116	0.609368
1002.01	0.438093
1004.9	0.659086
1007.79	0.434874
1010.69	0.254896
1013.58	0.522573
1016.47	0.231985
1019.37	0.961473
1022.26	0.032423
1025.15	0.58358
1028.04	0.487243
1030.94	0.420066
1033.83	0.551914
1036.72	0.519562
1039.61	0.742241
1042.51	0.659452
1045.4	1.16868
1048.29	1.29699
1051.18	1.50225
1054.08	0.955112
1056.97	0.605602
1059.86	0.144539
1062.76	0.125603
1065.65	0.23951
1068.54	0.533969
1071.43	0.215872
1074.33	0.259053
1077.22	0.434025
1080.11	0.069471
1083	0.135375
1085.9	0.104799
1088.79	0.165975
1091.68	0.313206
1094.58	0.131437
1097.47	0.15767
1100.36	0.230813
1103.25	0.600453
1106.15	0.408545
1109.04	0.124636
1111.93	0.009226
1114.82	0.143525
1117.72	0.072315
1120.61	0.351708
1123.5	0.314173
1126.39	0.443081
1129.29	0.550901
1132.18	0.273087
1135.07	0.550088
1137.96	0.687631
1140.86	0.689858
1143.75	0.632275
1146.64	1.23631
1149.54	1.17881
1152.43	1.16976
1155.32	1.68296
1158.21	1.26526
1161.11	1.77801
1164	1.80471
1166.89	1.88594
1169.79	2.49554
1172.68	2.00924
1175.57	2.58283
1178.46	3.21925
1181.36	3.00054
1184.25	2.74203
1187.14	3.02376
1190.03	3.18865
1192.93	3.22826
1195.82	3.71285
1198.71	4.13992
1201.61	4.94042
1204.5	5.28929
1207.39	6.28772
1210.28	6.07435
1213.18	5.89248
1216.07	6.24622
1218.96	5.61001
1221.85	5.03645
1224.75	4.73894
1227.64	4.01796
1230.53	3.46889
1233.42	2.45322
1236.32	1.6361
1239.21	0.922571
1242.1	1.01843
1244.99	1.36104
1247.89	1.62215
1250.78	0.503653
1253.67	0.737571
1256.57	1.04867
1259.46	1.14512
1262.35	0.824737
1265.24	0.258945
1268.14	1.03894
1271.03	3.88183
1273.92	8.59847
1276.82	17.9631
1279.71	30.9395
1282.6	51.739
1285.49	82.8706
1288.39	118.064
1291.28	117.43
1294.17	71.2612
1297.06	27.5487
1299.96	3.01679
