Measurement: Raman, 532 nm, unoriented, Raman Data Processed
Mineral: Ammineite
Rruff sample: R120154
Ideal chemistry: CuCl_2_(NH_3_)_2_
Locality: Rowley mine, Maricopa County, Arizona, USA
Source: Ron Gibbs
Description: Blue massive coating
Raman shift (cm-1)	intensity
161.679	0
164.572	0.692795
167.464	8.91147
170.357	91.0952
173.25	308.706
176.143	691.476
179.035	1038.62
181.928	1094.93
184.821	961.983
187.713	875.722
190.606	883.984
193.499	915.797
196.392	864.571
199.284	787.091
202.177	709.951
205.07	680.82
207.962	702.511
210.855	795.129
213.748	955.969
216.64	1140.33
219.533	1344.97
222.426	1614.45
225.319	2018.08
228.211	2431.41
231.104	2303.41
233.997	1486.12
236.889	779.311
239.782	413.861
242.675	236.4
245.567	144.808
248.46	90.6207
251.353	58.1357
254.245	35.2221
257.138	21.2595
260.031	12.5871
262.924	4.28215
265.816	0.168243
268.709	3.62093
271.602	6.90888
274.494	7.17966
277.387	6.33984
280.28	6.21356
283.173	4.56367
286.065	2.36928
288.958	0.054184
291.851	0.31752
294.743	2.68161
297.636	2.63251
300.529	4.36084
303.421	5.23303
306.314	6.8667
309.207	6.16032
312.099	8.18506
314.992	11.6676
317.885	12.0998
320.778	9.6676
323.67	9.80784
326.563	9.03452
329.456	6.50082
332.348	4.5846
335.241	2.64866
338.134	0.860115
341.027	0.008797
343.919	0.068954
346.812	0.691139
349.705	0.298447
352.597	2.59139
355.49	4.51537
358.383	6.79983
361.276	8.91544
364.168	12.1851
367.061	18.1498
369.954	24.2999
372.846	30.4202
375.739	39.667
378.632	48.0648
381.524	56.342
384.417	66.1749
387.31	77.9349
390.202	94.3386
393.095	113.013
395.988	138.497
398.881	170.627
401.773	218.629
404.666	289.475
407.559	402.127
410.451	550.871
413.344	714.958
416.237	942.311
419.13	1275.91
422.022	1574.37
424.915	1473.02
427.808	848.347
430.7	373.129
433.593	174.804
436.486	89.9473
439.378	52.6355
442.271	32.434
445.164	19.8129
448.057	13.0336
450.949	8.98904
453.842	7.6372
456.735	6.00306
459.627	6.0193
462.52	5.48357
465.413	4.91253
468.305	4.5721
471.198	4.37559
474.091	5.11069
476.983	3.49242
479.876	2.79219
482.769	2.30482
485.662	1.12122
488.554	1.4885
491.447	0.292282
494.34	1.1724
497.232	0.531696
500.125	0.931683
503.018	0.395294
505.911	0.267906
508.803	0.278416
511.696	0.734303
514.589	0.138386
517.481	0.199707
520.374	0.102657
523.267	0.378456
526.159	0.264233
529.052	0.127926
531.945	0.324562
534.837	0.570564
537.73	1.2566
540.623	0.909683
543.516	1.59824
546.408	1.19227
549.301	0.715698
552.194	1.65797
555.086	1.51556
557.979	1.97114
560.872	1.29499
563.764	1.80505
566.657	1.48292
569.55	1.27997
572.443	1.84093
575.335	1.32638
578.228	1.12027
581.121	1.99167
584.013	0.263531
586.906	0.654259
589.799	0.819794
592.692	0.011765
595.584	0.699635
598.477	0.862503
601.37	0.453308
604.262	0.692101
607.155	1.7232
610.048	2.01006
612.94	4.71665
615.833	4.87243
618.726	7.45741
621.619	8.86248
624.511	12.3678
627.404	13.8452
630.297	17.0358
633.189	20.2044
636.082	23.5001
638.975	28.0155
641.867	31.6702
644.76	34.7625
647.653	38.0829
650.545	42.1856
653.438	47.1542
656.331	56.5352
659.224	73.1879
662.116	96.0084
665.009	125.527
667.902	164.169
670.794	206.017
673.687	240.145
676.58	251.004
679.472	226.692
682.365	178.23
685.258	128.031
688.151	90.8228
691.043	64.1921
693.936	45.3889
696.829	34.2036
699.721	25.9933
702.614	20.1997
705.507	15.6642
708.399	13.2407
711.292	9.55782
714.185	7.12406
717.078	4.32678
719.97	3.15246
722.863	1.20535
725.756	1.04382
728.648	0.044411
731.541	0.737049
734.434	1.15155
737.327	0.34676
740.219	0.798428
743.112	0.100574
746.005	0.936752
748.897	0.04155
751.79	0.7481
754.683	0.840157
757.575	0.02853
760.468	1.20375
763.361	0.870079
766.254	1.72199
769.146	1.43192
772.039	0.86869
774.932	1.71892
777.824	2.13492
780.717	0.52457
783.61	1.29493
786.502	0.306095
789.395	0.899174
792.288	0.048145
795.181	0.316597
798.073	0.442898
800.966	0.759739
803.859	0.054001
806.751	0.552601
809.644	0.257347
812.537	1.17421
815.429	0.522888
818.322	1.62881
821.215	1.68033
824.107	1.96063
827	3.44429
829.893	2.91569
832.786	3.25124
835.678	2.59635
838.571	3.13908
841.464	3.46657
844.356	3.89801
847.249	3.51645
850.142	3.15321
853.034	3.65112
855.927	3.2342
858.82	3.44207
861.713	4.5948
864.605	5.03555
867.498	4.68775
870.391	4.75978
873.283	5.34371
876.176	4.89452
879.069	4.48268
881.962	4.15025
884.854	3.31393
887.747	4.21534
890.64	3.95445
893.532	4.10471
896.425	3.43519
899.318	4.70843
902.21	4.7295
905.103	4.69459
907.996	3.92918
910.889	4.71565
913.781	4.70911
916.674	5.02871
919.567	5.72956
922.459	5.75561
925.352	5.75494
928.245	5.89953
931.137	5.04614
934.03	4.11484
936.923	4.14815
939.816	2.74204
942.708	2.53015
945.601	1.37262
948.494	0.884115
951.386	1.22742
954.279	0.306145
957.172	0.983751
960.064	0.287273
962.957	0.328081
965.85	0.135693
968.742	0.484602
971.635	0.001026
974.528	0.198076
977.421	0.262821
980.313	0.358562
983.206	0.432278
986.099	0.543905
988.991	0.026367
991.884	0.682484
994.777	0.832891
997.669	0.301474
1000.56	0.542362
1003.46	0.152399
1006.35	0.279018
1009.24	1.18795
1012.13	0.940212
1015.03	1.24192
1017.92	0.8839
1020.81	0.696999
1023.7	0.787771
1026.6	1.02429
1029.49	0.825272
1032.38	0.269787
1035.28	0.528957
1038.17	1.04292
1041.06	1.74219
1043.95	1.27016
1046.85	1.13376
1049.74	1.21914
1052.63	1.22829
1055.52	1.22005
1058.42	0.642322
1061.31	0.501995
1064.2	0.424585
1067.09	0.060122
1069.99	0.538652
1072.88	0.8509
1075.77	0.18646
1078.66	0.518305
1081.56	0.795899
1084.45	0.017622
1087.34	0.632265
1090.24	0.124822
1093.13	0.00227
1096.02	0.544457
1098.91	0.051534
1101.81	0.255988
1104.7	0.438902
1107.59	0.63474
1110.48	0.133834
1113.38	0.275031
1116.27	0.24325
1119.16	0.061543
1122.06	0.52741
1124.95	0.028339
1127.84	0.025305
1130.73	0.682361
1133.63	0.608336
1136.52	0.629432
1139.41	0.330985
1142.3	0.170958
1145.2	0.809916
1148.09	0.933864
1150.98	1.71232
1153.88	1.95715
1156.77	1.86418
1159.66	2.58771
1162.55	2.6221
1165.45	3.18203
1168.34	3.08805
1171.23	3.47688
1174.12	4.14215
1177.02	4.52014
1179.91	5.44401
1182.8	5.20724
1185.69	6.29204
1188.59	5.43231
1191.48	6.16349
1194.37	6.249
1197.27	6.65188
1200.16	7.06539
1203.05	8.85175
1205.94	9.97516
1208.84	11.5026
1211.73	12.5572
1214.62	13.7632
1217.52	13.9519
1220.41	12.9883
1223.3	12.6073
1226.19	12.1999
1229.09	10.8308
1231.98	9.00666
1234.87	7.21115
1237.76	5.92144
1240.66	5.22854
1243.55	5.53225
1246.44	11.2337
1249.33	8.8685
1252.23	2.79717
1255.12	0.207047
1258.01	1.72775
1260.9	2.01164
1263.8	2.68301
1266.69	2.40187
1269.58	0.786396
1272.48	1.92474
1275.37	9.06107
1278.26	23.7682
1281.15	44.2225
1284.05	78.6505
1286.94	133.072
1289.83	207.469
1292.72	215.702
1295.62	124.096
1298.51	39.6698
1301.4	0.394539
