Measurement: Raman, 780 nm, unoriented, Raman Data Processed
Mineral: Ammineite
Rruff sample: R120154
Ideal chemistry: CuCl_2_(NH_3_)_2_
Locality: Rowley mine, Maricopa County, Arizona, USA
Source: Ron Gibbs
Description: Blue massive coating
Raman shift (cm-1)	intensity
145.765	0
149.622	0.0653
153.479	0.7369
157.336	3.16183
161.193	7.69552
165.05	14.4435
168.906	22.4728
172.763	29.7012
176.62	33.0187
180.477	29.9775
184.334	24.0932
188.191	20.5664
192.048	20.2336
195.905	21.9836
199.762	24.4422
203.619	26.881
207.476	30.9863
211.333	40.3158
215.19	54.0854
219.047	72.3498
222.904	95.0835
226.761	101.811
230.617	80.1963
234.474	42.435
238.331	19.3426
242.188	9.45511
246.045	5.47058
249.902	3.77702
253.759	2.62324
257.616	1.65023
261.473	1.1163
265.33	0.981062
269.187	0.442717
273.044	0.219236
276.901	0.19183
280.758	0.116699
284.615	0.09857
288.471	0.253027
292.328	0.360088
296.185	0.163185
300.042	0.13386
303.899	0.499191
307.756	0.035597
311.613	0.421684
315.47	0.317076
319.327	0.535767
323.184	0.416056
327.041	0.484308
330.898	0.332172
334.755	0.150831
338.612	0.611723
342.469	1.03105
346.325	0.736942
350.182	0.476728
354.039	0.075722
357.896	0.017591
361.753	0.020277
365.61	0.518919
369.467	1.26701
373.324	1.79585
377.181	2.78734
381.038	4.21869
384.895	6.40683
388.752	9.55231
392.609	13.5899
396.466	16.8109
400.322	19.7772
404.179	24.3587
408.036	32.8559
411.893	43.3341
415.75	56.5685
419.607	68.4145
423.464	57.2936
427.321	33.876
431.178	16.5001
435.035	8.41475
438.892	5.12554
442.749	3.76054
446.606	2.61328
450.463	2.60324
454.32	1.97345
458.176	2.0419
462.033	1.65125
465.89	1.47718
469.747	1.64579
473.604	1.67619
477.461	1.46511
481.318	1.39403
485.175	1.51735
489.032	1.38253
492.889	1.37788
496.746	1.14595
500.603	1.02905
504.46	1.32587
508.317	1.05495
512.174	1.18237
516.03	1.24985
519.888	1.46238
523.744	1.24836
527.601	0.783422
531.458	1.21032
535.315	1.65811
539.172	1.3658
543.029	0.88705
546.886	1.31292
550.743	0.810614
554.6	0.575174
558.457	0.631791
562.314	0.536065
566.171	0.483781
570.028	0.398641
573.885	0.123253
577.741	0.049217
581.598	0.464478
585.455	0.62591
589.312	0.117167
593.169	0.527176
597.026	0.344543
600.883	0.619623
604.74	0.269642
608.597	0.683027
612.454	1.41267
616.311	1.6122
620.168	1.44916
624.025	1.5507
627.882	1.98531
631.739	2.74376
635.596	3.57493
639.452	3.74532
643.309	4.01634
647.166	5.19162
651.023	5.6403
654.88	5.74508
658.737	7.21847
662.594	8.6885
666.451	11.0811
670.308	12.9646
674.165	13.0251
678.022	11.5494
681.879	8.69174
685.736	6.3906
689.592	5.01117
693.449	4.065
697.306	3.31505
701.163	2.20242
705.02	2.27034
708.877	2.18567
712.734	2.20684
716.591	1.3699
720.448	1.52889
724.305	2.07043
728.162	1.49856
732.019	1.68329
735.876	1.76077
739.733	1.63413
743.59	1.6125
747.447	1.75896
751.303	1.61541
755.16	1.58229
759.017	1.7898
762.874	1.80914
766.731	1.7437
770.588	1.80631
774.445	1.85006
778.302	1.89694
782.159	1.91284
786.016	1.96503
789.873	2.31479
793.73	1.86531
797.587	2.37256
801.444	2.6308
805.301	2.53767
809.158	2.52669
813.014	2.45873
816.871	2.81818
820.728	3.52898
824.585	2.93749
828.442	3.09045
832.299	2.84306
836.156	3.0249
840.013	3.30683
843.87	3.33936
847.727	3.37822
851.584	3.06093
855.441	2.98677
859.298	2.94124
863.154	2.8936
867.011	3.19109
870.868	3.04862
874.725	2.53238
878.582	2.11407
882.439	1.44421
886.296	1.26448
890.153	1.49944
894.01	1.32707
897.867	1.46863
901.724	1.43704
905.581	1.34744
909.438	0.972447
913.295	1.09007
917.152	0.998724
921.009	0.665977
924.865	0.691974
928.722	0.587661
932.579	0.328234
936.436	0.080704
940.293	0.295996
944.15	0.016524
948.007	0.195835
951.864	0.082019
955.721	0.107141
959.578	0.349887
963.435	0.067886
967.292	0.03194
971.149	0.238058
975.006	0.5567
978.862	0.260521
982.72	0.060558
986.576	0.470643
990.433	0.690846
994.29	0.529249
998.147	0.279133
1002	0.163235
1005.86	0.11553
1009.72	0.090968
1013.58	0.541093
1017.43	0.159295
1021.29	0.220828
1025.15	0.132238
1029	0.061604
1032.86	0.299001
1036.72	0.432245
1040.57	0.549191
1044.43	0.032309
1048.29	0.021566
1052.14	0.192723
1056	0.345345
1059.86	0.089138
1063.71	0.121513
1067.57	0.103473
1071.43	0.277278
1075.29	0.197402
1079.14	0.112059
1083	0.331825
1086.86	0.36985
1090.71	0.122821
1094.57	0.044219
1098.43	0.280334
1102.28	0.411849
1106.14	0.136802
1110	0.135024
1113.86	0.438461
1117.71	0.550475
1121.57	0.443777
1125.43	0.103599
1129.28	0.042134
1133.14	0.019423
1137	0.35218
1140.85	0.193516
1144.71	0.204212
1148.57	0.01548
1152.42	0.035256
1156.28	0.023942
1160.14	0.05786
1163.99	0.071888
1167.85	0.046305
1171.71	0.03901
1175.57	0.113199
1179.42	0.006117
1183.28	0.257191
1187.14	0.042479
1190.99	0.210625
1194.85	0.282451
1198.71	0.051092
1202.57	0.209323
1206.42	0.019472
1210.28	0.690534
1214.13	0.139926
1217.99	0.148126
1221.85	0.64492
1225.71	0.984996
1229.56	0.530109
1233.42	0.524076
1237.28	1.18974
1241.13	1.23962
1244.99	0.886369
1248.85	1.62755
1252.7	1.74342
1256.56	1.59501
1260.42	2.47145
1264.28	3.24004
1268.13	4.20319
1271.99	5.93001
1275.85	8.44557
1279.7	12.1597
1283.56	18.2108
1287.42	21.8839
1291.27	18.3982
1295.13	12.4675
1298.99	8.04314
1302.85	5.34634
1306.7	3.40778
1310.56	1.88911
1314.42	1.52389
1318.27	0.96603
1322.13	0.856672
1325.99	1.24543
1329.84	1.04277
1333.7	0.935268
1337.56	0.528292
1341.41	0.398276
1345.27	0.204188
1349.13	0.340364
1352.98	0.007956
