Measurement: Raman, 780 nm, unoriented, Raman Data Processed
Mineral: Ammineite
Rruff sample: R120155
Ideal chemistry: CuCl_2_(NH_3_)_2_
Locality: Caleta Pabellon de Pica, Punta Colina, Iquique, I Region, Chile
Source: Marcus Origlieri
Description: Blue massive to granular associated with colorless halite
Raman shift (cm-1)	intensity
145.765	0
149.622	0.106256
153.479	1.29219
157.336	6.26058
161.193	15.4309
165.05	30.1283
168.906	49.3043
172.763	68.259
176.62	79.1356
180.477	70.1863
184.334	51.3488
188.191	39.5317
192.048	33.423
195.905	30.5599
199.762	30.2926
203.619	31.6474
207.476	35.1243
211.333	44.476
215.19	58.6789
219.047	76.9289
222.904	97.7781
226.761	103.692
230.617	82.8012
234.474	43.5893
238.331	19.0607
242.188	8.01554
246.045	3.13946
249.902	1.8766
253.759	1.64618
257.616	1.05852
261.473	0.192432
265.33	0.060757
269.187	0.161293
273.044	0.121819
276.901	0.044604
280.758	0.127201
284.615	0.065959
288.471	0.283247
292.328	0.031832
296.185	0.245652
300.042	0.398499
303.899	0.07419
307.756	0.274995
311.613	0.157232
315.47	0.059395
319.327	0.027452
323.184	0.448747
327.041	0.220243
330.898	0.257776
334.755	0.094915
338.612	0.098837
342.469	0.720474
346.325	0.668167
350.182	0.31446
354.039	0.06834
357.896	0.274881
361.753	0.50261
365.61	0.65037
369.467	0.550045
373.324	0.310221
377.181	1.67707
381.038	2.71121
384.895	4.08613
388.752	8.34181
392.609	12.6847
396.466	15.6038
400.322	18.3069
404.179	22.7339
408.036	30.4502
411.893	40.0289
415.75	52.6587
419.607	64.3719
423.464	53.9365
427.321	31.6916
431.178	15.9972
435.035	8.78508
438.892	5.78974
442.749	5.11004
446.606	4.14472
450.463	4.36928
454.32	4.06433
458.176	3.75432
462.033	3.33191
465.89	3.43137
469.747	3.6925
473.604	3.44517
477.461	3.234
481.318	3.42297
485.175	3.35765
489.032	2.80406
492.889	3.1573
496.746	3.00071
500.603	3.02457
504.46	2.78332
508.317	2.6421
512.174	2.48651
516.03	2.54268
519.888	2.44339
523.744	2.49957
527.601	2.39743
531.458	2.11015
535.315	2.24411
539.172	2.15045
543.029	1.81199
546.886	1.96713
550.743	1.83657
554.6	1.49783
558.457	1.39974
562.314	0.96027
566.171	0.878028
570.028	0.685082
573.885	0.399876
577.741	0.425228
581.598	0.625308
585.455	1.1242
589.312	0.063444
593.169	0.39284
597.026	0.208856
600.883	0.028389
604.74	0.305347
608.597	0.484795
612.454	0.790989
616.311	1.37286
620.168	1.30296
624.025	1.11375
627.882	1.47812
631.739	2.64118
635.596	3.81536
639.452	4.04252
643.309	4.57694
647.166	5.5983
651.023	6.1482
654.88	6.14923
658.737	7.52948
662.594	10.1674
666.451	12.3366
670.308	15.2576
674.165	15.6484
678.022	13.7093
681.879	9.99874
685.736	6.73385
689.592	4.71498
693.449	3.6782
697.306	2.96322
701.163	1.51278
705.02	1.60221
708.877	1.99001
712.734	1.98181
716.591	0.592769
720.448	0.628586
724.305	0.896317
728.162	0.378762
732.019	1.1798
735.876	1.23793
739.733	0.936482
743.59	0.945989
747.447	0.933084
751.303	0.76097
755.16	1.11825
759.017	1.07945
762.874	0.696485
766.731	0.871148
770.588	0.987584
774.445	0.88127
778.302	1.24971
782.159	1.40666
786.016	1.49342
789.873	1.43213
793.73	1.39746
797.587	1.7933
801.444	2.28928
805.301	2.08181
809.158	1.77762
813.014	1.90935
816.871	2.14581
820.728	2.48068
824.585	2.44736
828.442	2.21146
832.299	2.58067
836.156	2.19626
840.013	2.52375
843.87	3.09347
847.727	2.94384
851.584	2.50074
855.441	2.78622
859.298	2.5785
863.154	2.29311
867.011	2.57832
870.868	2.69707
874.725	2.22762
878.582	1.57732
882.439	0.768677
886.296	0.54877
890.153	1.24491
894.01	1.04249
897.867	1.08479
901.724	1.45503
905.581	1.0236
909.438	0.517276
913.295	0.649949
917.152	0.611044
921.009	0.302272
924.865	0.113124
928.722	0.078147
932.579	0.079426
936.436	0.278435
940.293	0.248274
944.15	0.333805
948.007	0.136853
951.864	0.338255
955.721	0.357519
959.578	0.097923
963.435	0.271007
967.292	0.051995
971.149	0.077436
975.006	0.355432
978.862	0.050048
982.72	0.151782
986.576	0.285338
990.433	0.836818
994.29	0.266349
998.147	0.128491
1002	0.071266
1005.86	0.109352
1009.72	0.143077
1013.58	0.644079
1017.43	0.104775
1021.29	0.061879
1025.15	0.250882
1029	0.008538
1032.86	0.09254
1036.72	0.827232
1040.57	0.855756
1044.43	0.57101
1048.29	0.898632
1052.14	0.778853
1056	0.556961
1059.86	0.065514
1063.71	0.511622
1067.57	0.077493
1071.43	0.059535
1075.29	0.32825
1079.14	0.077933
1083	0.499696
1086.86	0.6023
1090.71	0.308668
1094.57	0.314233
1098.43	0.09573
1102.28	0.317673
1106.14	0.084855
1110	0.037921
1113.86	0.050534
1117.71	0.484793
1121.57	0.285654
1125.43	0.635077
1129.28	0.269942
1133.14	0.463051
1137	0.644022
1140.85	0.259848
1144.71	0.557565
1148.57	0.395559
1152.42	0.049062
1156.28	0.025464
1160.14	0.161026
1163.99	0.045753
1167.85	0.010968
1171.71	0.011088
1175.57	0.100933
1179.42	0.066326
1183.28	0.60488
1187.14	0.538224
1190.99	0.526084
1194.85	0.362403
1198.71	0.149362
1202.57	0.414371
1206.42	0.551583
1210.28	0.681276
1214.13	0.140545
1217.99	0.075372
1221.85	0.863951
1225.71	1.1763
1229.56	0.639381
1233.42	0.191806
1237.28	0.969782
1241.13	1.06915
1244.99	0.686097
1248.85	1.91169
1252.7	1.85888
1256.56	1.60824
1260.42	2.07022
1264.28	2.62971
1268.13	4.00352
1271.99	5.62883
1275.85	8.0174
1279.7	10.173
1283.56	15.6997
1287.42	20.5181
1291.27	18.9553
1295.13	13.469
1298.99	8.51721
1302.85	5.46784
1306.7	3.27634
1310.56	1.54989
1314.42	1.27448
1318.27	0.641627
1322.13	0.40266
1325.99	1.06749
1329.84	0.06037
1333.7	0.892905
1337.56	0.701481
