Measurement: Raman, 785 nm, unoriented, Raman Data Processed
Mineral: Ammonioleucite
Rruff sample: R060104
Ideal chemistry: (NH_4_)AlSi_2_O_6_
Locality: Tatarazawa Quarry, Fujioka Gunma Prefecture, Hunho Island, Japan
Source: University of Arizona Mineral Museum
Description: White powder associated with colorless analcime
Raman shift (cm-1)	intensity
144.96	0
147.852	1210.32
150.745	1367.56
153.638	633.213
156.53	20.361
159.423	141.77
162.316	965.92
165.208	1620.87
168.101	2257.86
170.994	2179.72
173.887	1881.78
176.779	1610.69
179.672	1414.79
182.565	1081.68
185.457	1045.56
188.35	853.604
191.243	1012.1
194.135	1235.87
197.028	1402.12
199.921	1582.89
202.814	1645.34
205.706	1577.31
208.599	1522.43
211.492	1450.14
214.384	1420
217.277	1122.7
220.17	967.705
223.062	716.453
225.955	522.326
228.848	460.137
231.741	386.527
234.633	492.609
237.526	416.02
240.419	412.273
243.311	247.52
246.204	28.377
249.097	9.539
251.989	66.945
254.882	13.309
257.775	171.449
260.668	176.129
263.56	337.752
266.453	169.721
269.346	101.049
272.238	23.223
275.131	320.082
278.024	214.492
280.916	677.211
283.809	764.717
286.702	759.836
289.595	813.275
292.487	865.549
295.38	905.508
298.273	788.883
301.165	994.092
304.058	1002.6
306.951	1014.93
309.843	745.373
312.736	530.668
315.629	205.436
318.522	95.492
321.414	31.768
324.307	97.977
327.2	323.1
330.092	414.537
332.985	331.77
335.878	255.594
338.77	252.652
341.663	257.842
344.556	341.596
347.448	337.512
350.341	387.875
353.234	429.729
356.127	368.023
359.019	14.303
361.912	59.457
364.805	33.352
367.697	167.219
370.59	121.953
373.483	372.221
376.375	359.486
379.268	286.471
382.161	226.85
385.054	243.389
387.946	282.111
390.839	286.412
393.732	314.879
396.624	265.338
399.517	225.055
402.41	213.99
405.302	109.711
408.195	61.721
411.088	103.15
413.981	1.652
416.873	108.818
419.766	254.873
422.659	587.234
425.551	99.908
428.444	228.74
431.337	105.98
434.229	13.111
437.122	46.561
440.015	20.793
442.908	7.533
445.8	248.742
448.693	384.627
451.586	602.396
454.478	858.438
457.371	1739.42
460.264	3063.3
463.156	3929.28
466.049	4230.11
468.942	3382.82
471.835	3301.91
474.727	4166.3
477.62	5430.56
480.513	6791.82
483.405	7893.23
486.298	8714.1
489.191	9492.9
492.083	10648.7
494.976	12097.1
497.869	12595.2
500.762	11451.1
503.654	9450.7
506.547	7953.61
509.44	7182.43
512.332	7121.76
515.225	7290.35
518.118	8077.38
521.01	8651.61
523.903	8187.07
526.796	6756.64
529.688	4646.97
532.581	2922.64
535.474	1988.44
538.367	1326.92
541.259	1201.53
544.152	717.312
547.045	563.518
549.937	266.564
552.83	207.404
555.723	98.215
558.615	226.996
561.508	58.99
564.401	63.67
567.294	0.414
570.186	139.852
573.079	57.572
575.972	95.227
578.864	63.164
581.757	154.334
584.65	107.484
587.542	137.832
590.435	106.281
593.328	179.516
596.221	245.207
599.113	82.039
602.006	94.219
604.899	220.623
607.791	204.596
610.684	335.92
613.577	447.822
616.469	504.664
619.362	459.244
622.255	314.703
625.148	361.5
628.04	281.732
630.933	292.473
633.826	261.965
636.718	189.82
639.611	259.152
642.504	289.152
645.396	313.02
648.289	281.945
651.182	250.705
654.075	189.771
656.967	64.787
659.86	166.994
662.753	90.779
665.645	46.154
668.538	11.693
671.431	46.418
674.323	90.84
677.216	87.271
680.109	36.932
683.002	29.389
685.894	141.223
688.787	12.307
691.68	190.553
694.572	147.631
697.465	167.199
700.358	269.818
703.25	181.494
706.143	137.895
709.036	123.021
711.929	165.174
714.821	187.129
717.714	303.789
720.607	204.342
723.499	296.689
726.392	196.596
729.285	44.102
732.177	47.994
735.07	146.17
737.963	31.283
740.856	37.801
743.748	178.729
746.641	43.436
749.534	21.859
752.426	140.328
755.319	48.939
758.212	66.576
761.104	112.24
763.997	107.471
766.89	130.096
769.783	191.496
772.675	125.449
775.568	112.67
778.461	79.338
781.353	210.373
784.246	187.279
787.139	185.918
790.031	244.543
792.924	200.412
795.817	220.889
798.71	157.311
801.602	126.328
804.495	45.984
807.388	147.203
810.28	102.168
813.173	12.635
816.066	35.65
818.958	39.818
821.851	28.619
824.744	41.098
827.637	28.814
830.529	40.855
833.422	26.457
836.315	130.432
839.207	127.387
842.1	111.9
844.993	156.48
847.885	69.277
850.778	107.877
853.671	59.186
856.563	89.843
859.456	92.132
862.349	155.906
865.242	93.75
868.134	143.889
871.027	57.523
873.92	103.628
876.812	71.257
879.705	207.23
882.598	174.013
885.49	125.266
888.383	142.43
891.276	30.061
894.169	85.859
897.061	161.89
899.954	172.555
902.847	277.28
905.739	70.701
908.632	118.513
911.525	168.832
914.417	116.974
917.31	106.57
920.203	65.008
923.096	8.245
925.988	42.703
928.881	49.444
931.774	88.656
934.666	55.417
937.559	31.862
940.452	104.12
943.344	73.891
946.237	30.372
949.13	6.371
952.023	55.143
954.915	20.97
957.808	164.815
960.701	73.876
963.593	133.101
966.486	208.001
969.379	173.465
972.271	281.631
975.164	267.783
978.057	225.073
980.95	208.609
983.842	133.102
986.735	80.609
989.628	72.912
992.52	52.807
995.413	7.752
998.306	49.771
1001.2	55.518
1004.09	195.958
1006.98	149.662
1009.88	75.523
1012.77	62.157
1015.66	11.643
1018.55	21.262
1021.45	23.537
1024.34	3.52
1027.23	33.15
1030.12	70.241
1033.02	35.064
1035.91	186.771
1038.8	113.419
1041.7	64.29
1044.59	139.844
1047.48	224.983
1050.37	194.995
1053.27	192.716
1056.16	150.854
1059.05	243.454
1061.94	202.904
1064.84	217.357
1067.73	157.355
1070.62	164.344
1073.52	125.507
1076.41	174.994
1079.3	283.114
1082.19	393.537
1085.09	555.608
1087.98	815.334
1090.87	1096.39
1093.77	1195.84
1096.66	874.161
1099.55	542.156
1102.44	376.931
1105.34	184.331
1108.23	183.951
1111.12	154.296
1114.01	244.314
1116.91	247.822
1119.8	221.629
1122.69	155.127
1125.59	213.664
1128.48	127.081
1131.37	150.071
1134.26	112.271
1137.15	58.755
1140.05	67.175
1142.94	100.983
1145.83	50.411
1148.73	101.946
1151.62	136.974
1154.51	124.466
1157.4	156.591
1160.3	168.642
1163.19	183.485
1166.08	149.387
1168.97	104.208
1171.87	44.076
1174.76	28.748
1177.65	6.059
1180.55	9.048
1183.44	43.916
1186.33	50.948
1189.22	109.12
1192.12	100.973
1195.01	107.207
1197.9	75.69
1200.8	124.14
1203.69	114.159
1206.58	94.893
1209.47	88.859
1212.37	37.146
1215.26	94.055
1218.15	76.554
1221.04	191.742
1223.94	138.549
1226.83	128.772
1229.72	146.666
1232.62	107.983
1235.51	105.816
1238.4	109.16
1241.29	52.955
1244.18	78.468
1247.08	122.46
1249.97	19.777
1252.86	34.909
1255.76	35.223
1258.65	92.085
1261.54	63.062
1264.43	56.586
1267.33	94.637
1270.22	0.422
