Measurement: Raman, 532 nm, unoriented, Raman Data Processed
Mineral: Ammoniojarosite
Rruff sample: R060408
Ideal chemistry: NH_4_Fe^3+^_3_(SO_4_)_2_(OH)_6_
Locality: Wamsutter, Sweetwater County, Wyoming, USA
Source: American Museum of Natural History
Description: Tan colored fine-grained massive, intimately associated with quartz
Raman shift (cm-1)	intensity
129.236	0
132.129	3136.88
135.021	7670.81
137.914	6488.56
140.807	1129.6
143.699	11.78
146.592	368.083
149.485	393.72
152.378	109.38
155.27	160.421
158.163	234.362
161.056	18.117
163.948	339.94
166.841	846.902
169.734	864.44
172.626	726.174
175.519	958.682
178.412	1662.4
181.305	1596.85
184.197	2288.37
187.09	2976.82
189.983	4067.64
192.875	5108.06
195.768	6971.8
198.661	9204.9
201.553	12787.6
204.446	17458.3
207.339	23328.5
210.232	29491.4
213.124	34463.4
216.017	35439.6
218.91	30657.9
221.802	21865.2
224.695	13920.1
227.588	8956.57
230.48	6059.83
233.373	4087.3
236.266	2769.69
239.159	1958.24
242.051	1110.65
244.944	1236.7
247.837	1031.8
250.729	672.127
253.622	96.3
256.515	162.62
259.408	90.023
262.3	93.45
265.193	86.529
268.086	62.149
270.978	44.826
273.871	121.942
276.764	465.566
279.656	935.016
282.549	1945.94
285.442	3543.85
288.335	4547.22
291.227	6341.74
294.12	7550.48
297.013	7809.82
299.905	7356.49
302.798	6333.38
305.691	5277.15
308.583	4109.29
311.476	2999.77
314.369	1818.75
317.262	1415.01
320.154	505.081
323.047	1243.15
325.94	1499.37
328.832	2246.13
331.725	2862.4
334.618	3429.51
337.51	3539.05
340.403	3607.8
343.296	3438.3
346.189	2642.09
349.081	2333.82
351.974	1853.91
354.867	1240.12
357.759	473.796
360.652	158.569
363.545	115.992
366.437	126.458
369.33	36.033
372.223	193.879
375.116	10.388
378.008	5.991
380.901	53.219
383.794	101.94
386.686	702.853
389.579	1418.88
392.472	2086.42
395.364	2298
398.257	2936.89
401.15	3972.53
404.043	5670.84
406.935	8389.93
409.828	11810.5
412.721	16578.3
415.613	21586.2
418.506	27177.8
421.399	30183.8
424.291	29692.2
427.184	26484.8
430.077	21209.9
432.97	15851.1
435.862	12439.1
438.755	10896
441.648	11398
444.54	12062.6
447.433	13070
450.326	12878.3
453.218	10634.5
456.111	8265.36
459.004	5888.61
461.897	4187.75
464.789	3025.18
467.682	1942.72
470.575	1216.48
473.467	984.78
476.36	834.058
479.253	191.154
482.146	856.473
485.038	178.982
487.931	366.097
490.824	13.009
493.716	174.463
496.609	93.999
499.502	114.183
502.394	206.252
505.287	73.739
508.18	5.287
511.073	157.758
513.965	224.335
516.858	628.051
519.751	869.073
522.643	1587.2
525.536	1508.58
528.429	1919.45
531.321	1709.59
534.214	1685.28
537.107	1905.24
540	2258.15
542.892	2895.89
545.785	4091.98
548.678	4981.13
551.57	5108.24
554.463	5519.26
557.356	5762.88
560.248	5969.71
563.141	6410.03
566.034	5844.1
568.927	5258.39
571.819	4166.29
574.712	2810
577.605	2000.44
580.497	967.011
583.39	357.436
586.283	668.334
589.175	228.576
592.068	167.855
594.961	63.356
597.854	136.189
600.746	711.603
603.639	600.011
606.532	1872.69
609.424	3089.21
612.317	5112.58
615.21	7206.3
618.102	10532.8
620.995	14155
623.888	11877.7
626.781	5853.27
629.673	3310.31
632.566	1997.73
635.459	1253.59
638.351	927.743
641.244	333.215
644.137	60.871
647.029	126.131
649.922	167.483
652.815	731.304
655.708	897.066
658.6	542.924
661.493	257.608
664.386	13.358
667.278	81.993
670.171	431.838
673.064	610.675
675.956	85.295
678.849	16.115
681.742	206.162
684.635	426.201
687.527	819.889
690.42	551.523
693.313	777.423
696.205	1051.69
699.098	876.963
701.991	367.449
704.883	206.145
707.776	212.399
710.669	163.462
713.562	323.004
716.454	347.713
719.347	791.608
722.24	794.785
725.132	685.843
728.025	762.108
730.918	611.668
733.81	656.474
736.703	573.377
739.596	242.21
742.489	698.013
745.381	954.905
748.274	1138.52
751.167	1152.46
754.059	737.928
756.952	499.898
759.845	340.003
762.737	44.599
765.63	137.512
768.523	95.037
771.416	736.892
774.308	821.94
777.201	336.324
780.094	258.651
782.986	854.717
785.879	475.639
788.772	509.457
791.664	622.789
794.557	1159.51
797.45	982.448
800.343	863.44
803.235	724.294
806.128	621.343
809.021	433.764
811.913	440.888
814.806	471.638
817.699	150.406
820.591	22.708
823.484	79.07
826.377	230.321
829.27	462.962
832.162	309.867
835.055	269.759
837.948	57.504
840.841	17.455
843.733	242.249
846.626	475.869
849.519	699.045
852.411	649.851
855.304	101.331
858.197	216.938
861.089	644.251
863.982	985.826
866.875	940.245
869.768	690.203
872.66	195.809
875.553	258.178
878.446	280.044
881.338	581.676
884.231	709.648
887.124	853.876
890.016	828.304
892.909	1336.14
895.802	1862.34
898.695	2459.91
901.587	1684.47
904.48	1007.8
907.373	436.567
910.265	445.226
913.158	305.531
916.051	155.815
918.943	25.232
921.836	330.061
924.729	893.349
927.622	1777.31
930.514	1405.83
933.407	967.96
936.3	783.775
939.192	884.495
942.085	627.594
944.978	139.961
947.87	191.102
950.763	9.157
953.656	71.096
956.549	116.591
959.441	218.506
962.334	207.319
965.227	407.304
968.119	178.34
971.012	111.377
973.905	136.505
976.797	1210.04
979.69	1366.09
982.583	2000.32
985.476	2670.36
988.368	3154.41
991.261	5535.75
994.154	7893.19
997.046	11843.6
999.939	16308.3
1002.83	20605.6
1005.72	15746.7
1008.62	7664.39
1011.51	3529.5
1014.4	1958.3
1017.29	894.859
1020.19	589.833
1023.08	141.254
1025.97	686.39
1028.87	506.479
1031.76	219.181
1034.65	37.288
1037.54	114.041
1040.44	757.872
1043.33	105.29
1046.22	79.347
1049.12	129.514
1052.01	53.68
1054.9	680.445
1057.79	1552.85
1060.69	2078.78
1063.58	2247.94
1066.47	2573.01
1069.36	3953.12
1072.26	6255
1075.15	9670.5
1078.04	12943.3
1080.93	16632.8
1083.83	20392.8
1086.72	22948.8
1089.61	23190.1
1092.51	20943.6
1095.4	17309.3
1098.29	13974.2
1101.18	9813.72
1104.08	6895.8
1106.97	4948.82
1109.86	3391.99
1112.75	1998.9
1115.65	1050.03
1118.54	943.209
1121.43	234.939
1124.33	201.574
1127.22	130.644
1130.11	905.752
1133	1906.81
1135.9	1945.31
1138.79	2060.53
1141.68	2853.17
1144.57	3595.16
1147.47	4307.22
1150.36	5397.92
1153.25	6930.52
1156.14	8250.57
1159.04	8435.94
1161.93	7555.5
1164.82	6496.38
1167.72	4848.84
1170.61	3130.28
1173.5	2838.23
1176.39	2837.13
1179.29	2427.39
1182.18	2070.89
1185.07	1827.97
1187.96	1466.43
1190.86	685.188
1193.75	22.582
1196.64	44.923
1199.54	86.967
1202.43	96.576
1205.32	59.593
1208.21	105.765
1211.11	548.358
1214	788.984
1216.89	815.271
1219.78	357.647
1222.68	149.913
1225.57	1081.77
1228.46	2172.02
1231.36	1452.95
1234.25	1240.64
1237.14	1862.93
1240.03	1623.86
1242.93	717.666
1245.82	803.401
1248.71	1291.98
1251.6	1329.71
1254.5	307.102
1257.39	309.798
1260.28	383.376
