Measurement: Raman, 780 nm, unoriented, Raman Data Processed
Mineral: Analcime
Rruff sample: R060023
Ideal chemistry: NaAlSi_2_O_6_H_2_O
Locality: Dallas, Oregon, USA
Source: Bob Downs
Description: White trapezohedral crystal associated with levyne-Na, R060021
Measured chemistry: (Na_0.98_[box]_0.02_)_Σ=1_(Si_2.02_Al_0.98_)O_6_·H_2_O
Raman shift (cm-1)	intensity
152.306	0
155.199	0.132706
158.091	2.08382
160.984	1.93967
163.877	1.839
166.77	2.61364
169.662	1.43122
172.555	0.29744
175.448	0.805138
178.34	0.337471
181.233	1.03684
184.126	1.75006
187.018	3.23328
189.911	4.59296
192.804	3.83753
195.697	3.41032
198.589	3.48076
201.482	4.32707
204.375	4.76061
207.267	4.09844
210.16	6.22436
213.053	5.91845
215.946	8.23395
218.838	8.16346
221.731	9.34785
224.624	9.73852
227.516	10.549
230.409	9.67049
233.302	8.59779
236.194	7.55176
239.087	5.40153
241.98	3.90821
244.873	2.5932
247.765	0.877113
250.658	0.557983
253.551	0.05444
256.443	0.237331
259.336	0.327763
262.229	0.439487
265.121	1.16444
268.014	0.360744
270.907	0.249809
273.8	0.038288
276.692	0.821964
279.585	1.11158
282.478	2.69896
285.37	5.82
288.263	10.0127
291.156	18.1859
294.048	30.6112
296.941	43.2987
299.834	42.2136
302.726	26.4774
305.619	14.1665
308.512	6.46107
311.405	2.81081
314.297	1.46285
317.19	0.987499
320.083	0.522854
322.975	0.747791
325.868	0.051456
328.761	0.68927
331.654	0.431602
334.546	0.516678
337.439	2.10488
340.332	4.31142
343.224	5.99368
346.117	7.83784
349.01	9.45506
351.902	13.0198
354.795	14.3631
357.688	16.4322
360.58	19.7477
363.473	22.8254
366.366	29.174
369.259	33.3372
372.151	37.8017
375.044	40.8994
377.937	46.5399
380.829	48.6223
383.722	52.5817
386.615	54.8592
389.507	56.9415
392.4	55.138
395.293	52.7544
398.185	49.5592
401.078	42.6235
403.971	37.3445
406.864	29.039
409.756	20.0969
412.649	14.1711
415.542	8.2578
418.434	2.46671
421.327	0.59269
424.22	0.979179
427.113	2.11296
430.005	0.614601
432.898	0.244904
435.791	1.17075
438.683	4.93485
441.576	7.72757
444.469	12.9311
447.361	19.771
450.254	28.8606
453.147	42.1038
456.039	62.048
458.932	90.4273
461.825	127.487
464.718	178.135
467.61	238.658
470.503	316.557
473.396	416.477
476.288	538.241
479.181	647.539
482.074	681.556
484.966	602.816
487.859	462.425
490.752	329.008
493.645	233.68
496.537	165.307
499.43	120.286
502.323	85.7427
505.215	63.6281
508.108	48.3482
511.001	37.6947
513.894	30.3058
516.786	23.4249
519.679	19.135
522.572	14.8224
525.464	12.5977
528.357	8.75536
531.25	6.97327
534.142	5.4014
537.035	4.75806
539.928	2.93394
542.821	2.59338
545.713	2.12208
548.606	0.045177
551.499	0.686462
554.391	0.241302
557.284	0.516026
560.177	0.423393
563.069	1.07186
565.962	0.495277
568.855	0.339085
571.747	0.465488
574.64	0.24254
577.533	1.39794
580.426	1.64268
583.318	2.44067
586.211	3.66418
589.104	4.1574
591.996	5.41343
594.889	6.69308
597.782	6.84811
600.674	7.38216
603.567	7.33163
606.46	9.0034
609.352	9.78391
612.245	10.3679
615.138	12.0537
618.031	13.6598
620.923	13.6722
623.816	14.3048
626.709	12.266
629.601	9.97467
632.494	8.96253
635.387	7.33408
638.279	6.48562
641.172	6.52323
644.065	5.81642
646.958	4.93457
649.85	5.36268
652.743	5.28142
655.636	5.61439
658.528	6.55576
661.421	6.42997
664.314	6.53642
667.207	6.91897
670.099	7.11097
672.992	7.2126
675.885	6.09035
678.777	5.92532
681.67	3.87552
684.563	3.48654
687.455	1.78969
690.348	1.37755
693.241	0.750303
696.134	0.533945
699.026	0.366184
701.919	0.527666
704.812	0.864563
707.704	0.70715
710.597	0.07424
713.49	0.686502
716.382	0.686159
719.275	0.608768
722.168	0.089775
725.061	0.285927
727.953	0.393358
730.846	0.238588
733.739	0.228344
736.631	0.420124
739.524	0.358204
742.417	0.148033
745.309	0.264465
748.202	0.202318
751.095	0.347212
753.987	0.203255
756.88	0.060843
759.773	0.146896
762.666	0.767658
765.558	1.12204
768.451	1.01498
771.344	1.49891
774.236	1.06041
777.129	1.85313
780.022	1.74779
782.914	3.00898
785.807	2.60231
788.7	2.66377
791.593	2.19642
794.485	3.41399
797.378	2.2769
800.271	2.01389
803.163	2.22919
806.056	2.08894
808.949	2.24259
811.841	1.7442
814.734	1.80377
817.627	1.72393
820.52	1.73613
823.412	1.55231
826.305	1.12401
829.198	1.44984
832.09	1.46528
834.983	1.94039
837.876	0.959936
840.769	1.19808
843.661	1.15704
846.554	0.983551
849.447	1.55899
852.339	1.92115
855.232	1.97518
858.125	1.19558
861.017	1.06989
863.91	0.865011
866.803	1.17114
869.696	1.48692
872.588	1.87352
875.481	1.20347
878.374	0.979412
881.266	0.652126
884.159	1.65136
887.052	1.20362
889.944	0.504467
892.837	0.604094
895.73	0.347342
898.622	0.571985
901.515	0.592335
904.408	0.005497
907.301	0.814684
910.193	0.755686
913.086	0.026569
915.979	0.202024
918.871	0.75733
921.764	0.924317
924.657	0.541455
927.549	0.166386
930.442	1.19249
933.335	0.416438
936.227	0.459458
939.12	0.547872
942.013	1.21086
944.906	0.860935
947.798	0.32143
950.691	0.24104
953.584	0.115561
956.476	0.333241
959.369	0.384304
962.262	0.105217
965.154	0.034687
968.047	0.495213
970.94	0.416843
973.833	0.257067
976.725	0.686415
979.618	0.658493
982.511	0.786213
985.403	1.33515
988.296	1.52373
991.189	2.56267
994.082	2.2022
996.974	2.55985
999.867	2.69998
1002.76	3.07033
1005.65	2.40072
1008.54	3.17005
1011.44	2.00161
1014.33	2.02571
1017.22	1.43772
1020.12	0.187641
1023.01	0.667116
1025.9	0.223894
1028.79	0.532537
1031.69	0.238665
1034.58	0.234068
1037.47	0.081331
1040.37	0.123856
1043.26	1.01305
1046.15	1.772
1049.04	2.74281
1051.94	3.18221
1054.83	3.86883
1057.72	5.07865
1060.61	5.95113
1063.51	7.16182
1066.4	7.74823
1069.29	10.5478
1072.18	12
1075.08	13.9695
1077.97	17.7192
1080.86	20.1496
1083.76	23.8362
1086.65	25.9631
1089.54	29.238
1092.43	32.4819
1095.33	37.0205
1098.22	39.2486
1101.11	40.6347
1104	41.2011
1106.9	39.1067
1109.79	38.0701
1112.68	34.5838
1115.58	30.9651
1118.47	28.319
1121.36	25.0182
1124.25	22.019
1127.15	19.2737
1130.04	15.8135
1132.93	13.3958
1135.82	12.2224
1138.72	10.1692
1141.61	9.05952
1144.5	7.61981
1147.39	6.61063
1150.29	4.78157
1153.18	3.91115
1156.07	3.03574
1158.96	2.58142
1161.86	1.77587
1164.75	1.77705
1167.64	0.79805
1170.54	0.57459
1173.43	0.236932
1176.32	0.678189
1179.21	0.086303
1182.11	0.588844
1185	0.395422
1187.89	0.0494
1190.79	0.416779
1193.68	0.238853
1196.57	0.388742
1199.46	0.424164
1202.36	0.766431
1205.25	0.516469
1208.14	0.08941
1211.03	0.628024
1213.93	0.618921
1216.82	0.685078
1219.71	1.35498
1222.61	1.27724
1225.5	1.27282
1228.39	1.24371
1231.28	1.80933
1234.18	1.18766
1237.07	1.80551
1239.96	1.05628
1242.85	1.90897
1245.75	1.07138
1248.64	0.726427
1251.53	0.634574
1254.42	1.35757
1257.32	0.40516
1260.21	1.13308
1263.1	0.342528
1265.99	0.676179
1268.89	0.293887
1271.78	0.026293
