Measurement: Raman, 532 nm, unoriented, Raman Data Processed
Mineral: Analcime
Rruff sample: R050094
Ideal chemistry: NaAlSi_2_O_6_H_2_O
Locality: Springfield, Oregon, USA
Source: Rock Currier
Description: Clear colorless single crystals associated with gmelinite
Measured chemistry: (Na_0.99_[box]_0.01_)_Σ=1_(Si_2.01_Al_0.99_)O_6_·H_2_O
Raman shift (cm-1)	intensity
126.395	0
129.77	74.7488
133.144	71.5869
136.519	158.822
139.894	266.517
143.269	275.411
146.644	205.625
150.018	178.299
153.393	205.131
156.768	120.24
160.143	26.5095
163.518	20.1628
166.893	12.5671
170.267	23.6335
173.642	39.5836
177.017	12.6897
180.392	2.76526
183.767	74.6378
187.142	56.7041
190.516	107.177
193.891	140.429
197.266	186.958
200.641	162.86
204.016	203.492
207.39	179.345
210.765	132.141
214.14	165.784
217.515	148.266
220.89	166.968
224.264	125.193
227.639	121.934
231.014	149.05
234.389	90.9383
237.764	50.0327
241.138	65.8502
244.513	44.3621
247.888	40.0814
251.263	2.61108
254.638	35.9064
258.013	13.1697
261.387	4.35205
264.762	15.4011
268.137	28.8522
271.512	11.0121
274.887	28.1186
278.262	9.72058
281.636	52.4126
285.011	95.9735
288.386	193.601
291.761	368.852
295.136	574.263
298.51	672.624
301.885	498.472
305.26	255.238
308.635	160
312.01	54.7944
315.385	13.032
318.759	7.39929
322.134	12.9893
325.509	4.08521
328.884	31.4325
332.259	8.85156
335.633	49.8258
339.008	68.1693
342.383	66.8549
345.758	69.0196
349.133	121.797
352.507	170.313
355.882	158.786
359.257	217.462
362.632	290.479
366.007	335.965
369.382	431.363
372.756	510.232
376.131	597.437
379.506	757.22
382.881	829.302
386.256	913.26
389.63	911.941
393.005	843.012
396.38	726.463
399.755	580.868
403.13	419.474
406.505	300.908
409.879	162.911
413.254	108.604
416.629	69.2716
420.004	3.1416
423.379	11.907
426.753	27.7894
430.128	11.8874
433.503	4.19446
436.878	9.76062
440.253	90.1851
443.627	125.441
447.002	193.116
450.377	316.092
453.752	480.192
457.127	753.415
460.502	1168.93
463.876	1744.22
467.251	2618.26
470.626	3826.19
474.001	5417.93
477.376	7327.7
480.75	8852.57
484.125	8908.56
487.5	7343.02
490.875	5230.16
494.25	3570.79
497.625	2383.69
500.999	1703.98
504.374	1234.14
507.749	874.558
511.124	643.138
514.499	495.478
517.873	383.801
521.248	275.486
524.623	235.95
527.998	201.392
531.373	110.867
534.747	98.8766
538.122	117.636
541.497	46.6465
544.872	57.7902
548.247	23.6804
551.622	14.9186
554.996	2.17456
558.371	3.25488
561.746	17.2812
565.121	19.7628
568.496	17.1733
571.87	10.9812
575.245	37.2779
578.62	26.2734
581.995	42.6299
585.37	75.7811
588.745	56.7358
592.119	64.1173
595.494	59.4085
598.869	78.0355
602.244	132.076
605.619	114.942
608.994	69.4556
612.368	101.514
615.743	108.263
619.118	100.034
622.493	78.0972
625.868	39.389
629.242	62.3832
632.617	58.3163
635.992	77.0215
639.367	66.4254
642.742	48.5312
646.116	52.9929
649.491	50.9917
652.866	58.8422
656.241	75.9275
659.616	85.0715
662.99	121.868
666.365	97.701
669.74	142.057
673.115	140.174
676.49	131.077
679.865	103.247
683.239	55.8695
686.614	59.8689
689.989	16.9373
693.364	2.45691
696.739	7.48657
700.114	22.8518
703.488	26.498
706.863	14.6465
710.238	0.356445
713.613	19.9354
716.987	20.6531
720.362	24.9103
723.737	1.05762
727.112	13.1077
730.487	4.5083
733.862	3.56274
737.236	25.9763
740.611	29.2493
743.986	10.3556
747.361	45.0975
750.736	41.9209
754.111	2.08997
757.485	27.2468
760.86	29.1542
764.235	58.441
767.61	130.333
770.985	65.3915
774.359	44.3455
777.734	45.452
781.109	63.219
784.484	130.074
787.859	55.5951
791.234	50.9744
794.608	54.4233
797.983	61.7191
801.358	43.2256
804.733	57.8121
808.108	13.5864
811.482	110.765
814.857	20.0924
818.232	30.4189
821.607	4.39661
824.982	49.5851
828.356	23.5263
831.731	22.2124
835.106	2.96606
838.481	31.8894
841.856	28.0021
845.231	7.88025
848.605	12.0267
851.98	39.9288
855.355	8.50195
858.73	75.3903
862.105	44.7607
865.479	33.4281
868.854	33.2363
872.229	22.4468
875.604	40.1122
878.979	20.3594
882.354	29.8487
885.728	43.1234
889.103	14.8099
892.478	0.489746
895.853	35.4669
899.228	14.4616
902.602	25.4916
905.977	50.302
909.352	37.2393
912.727	50.5605
916.102	61.9912
919.476	52.0413
922.851	41.4911
926.226	40.1737
929.601	52.4585
932.976	34.187
936.351	32.8551
939.725	7.22986
943.1	44.4482
946.475	50.2703
949.85	19.3308
953.225	22.3117
956.6	31.1029
959.974	7.65149
963.349	10.8253
966.724	30.7832
970.099	9.20605
973.474	1.00403
976.848	0.866333
980.223	29.3467
983.598	46.0015
986.973	39.1488
990.348	31.8722
993.722	31.072
997.097	15.335
1000.47	24.1201
1003.85	49.3719
1007.22	27.2101
1010.6	30.1411
1013.97	9.31653
1017.35	21.2639
1020.72	27.6855
1024.1	17.1519
1027.47	9.57251
1030.85	20.9243
1034.22	8.6593
1037.6	4.85315
1040.97	29.576
1044.35	56.375
1047.72	49.5962
1051.09	39.295
1054.47	41.6543
1057.84	68.9917
1061.22	74.4419
1064.59	101.941
1067.97	119.549
1071.34	190.629
1074.72	224.123
1078.09	306.47
1081.47	379.406
1084.84	423.259
1088.22	514.388
1091.59	550.019
1094.97	560.507
1098.34	612.565
1101.72	601.792
1105.09	563.14
1108.47	567.808
1111.84	539.489
1115.22	502.866
1118.59	436.898
1121.96	376.85
1125.34	335.958
1128.71	306.575
1132.09	298.905
1135.46	217.41
1138.84	187.829
1142.21	160.145
1145.59	159
1148.96	125.507
1152.34	59.1469
1155.71	62.8191
1159.09	61.1329
1162.46	47.4175
1165.84	19.981
1169.21	21.3076
1172.59	9.42127
1175.96	22.6952
1179.34	6.66614
1182.71	18.1534
1186.09	27.5564
1189.46	25.3617
1192.84	1.94849
1196.21	23.5721
1199.59	7.81372
1202.96	45.8824
1206.34	48.2313
1209.71	28.2496
1213.09	25.2692
1216.46	34.5453
1219.84	39.5562
1223.21	31.1517
1226.59	28.9645
1229.96	56.5363
1233.33	42.1603
1236.71	35.052
1240.08	42.6268
1243.46	39.3481
1246.83	55.8214
1250.21	31.7373
1253.58	26.7528
1256.96	45.491
1260.33	6.84827
1263.71	44.5651
1267.08	26.394
1270.46	47.0144
1273.83	53.8279
1277.21	39.8221
1280.58	28.3344
1283.96	0.627197
