Measurement: Raman, 514 nm, unoriented, Raman Data Processed
Mineral: Analcime
Rruff sample: R040128
Ideal chemistry: NaAlSi_2_O_6_H_2_O
Locality: Mont Saint-Hilaire, Rouville County, Quebec, Canada
Source: Bob Downs
Description: White trapezohedra associated with black arfvedsonite, R040127
Measured chemistry: Na_0.93_(Si_2.04_Al_0.99_)O_6_Â·H_2_O
Raman shift (cm-1)	intensity
111.473	0
115.644	335.646
119.813	446.457
123.981	493.174
128.146	551.836
132.309	914.271
136.47	1026.09
140.63	1462.48
144.787	1190.06
148.942	897.697
153.096	501.116
157.247	273.569
161.396	81.346
165.544	92.644
169.689	33.671
173.833	121.829
177.974	141.111
182.114	176.172
186.251	457.962
190.387	524.23
194.52	769.751
198.652	881.951
202.782	857.671
206.909	1042.99
211.035	575.198
215.159	463.788
219.281	463.652
223.4	440.016
227.518	541.027
231.634	470.15
235.748	242.401
239.86	141.464
243.97	109.066
248.079	28.16
252.185	83.207
256.289	67.966
260.391	174.13
264.492	77.019
268.59	63.599
272.687	48.17
276.781	128.245
280.874	55.905
284.964	316.945
289.053	819.492
293.14	1898.43
297.225	1776.58
301.308	1599.82
305.389	1044.64
309.468	628.173
313.545	493.263
317.62	427.222
321.693	442.037
325.765	583.688
329.834	577.285
333.902	746.788
337.967	713.641
342.031	878.707
346.093	1023.88
350.153	964.922
354.21	1122.96
358.267	1364.59
362.321	1510.16
366.373	1927.49
370.423	2341.72
374.471	2558.84
378.518	2732.78
382.563	2926.62
386.605	2976.95
390.646	2712.22
394.685	2423.42
398.722	2539.99
402.757	2119.18
406.79	1673.41
410.821	1611.02
414.851	1145.38
418.878	1126.12
422.904	1014.52
426.927	971.652
430.949	779.358
434.969	1091.51
438.987	909.12
443.003	955.596
447.018	1215.9
451.03	1454.61
455.041	1857.17
459.049	2575.11
463.056	3892.04
467.061	5882.76
471.064	9245.23
475.065	15514.4
479.064	21098.4
483.062	22706.8
487.057	18494.3
491.051	12739.2
495.043	8186.32
499.032	5224.55
503.02	3638.97
507.007	2580.22
510.991	1877.79
514.973	1480.76
518.954	1371.58
522.933	877.352
526.91	526.227
530.885	457.904
534.858	287.152
538.829	312.24
542.799	289.836
546.766	280.116
550.732	218.869
554.696	52.223
558.658	204.568
562.618	40.115
566.576	178.33
570.533	162.33
574.488	56.764
578.44	13.037
582.391	221.293
586.341	160.289
590.288	215.072
594.233	174.898
598.177	457.748
602.119	627.25
606.059	487.072
609.997	510.643
613.933	538.33
617.868	651.947
621.801	470.904
625.731	327.26
629.66	582.52
633.588	789.264
637.513	442.945
641.437	448.826
645.358	574.912
649.278	363.848
653.196	244.76
657.113	376.861
661.027	580.422
664.94	209.791
668.851	472.193
672.76	350.102
676.667	433.283
680.572	270.439
684.476	305.451
688.378	166.051
692.278	75.1
696.176	51.4
700.072	65.279
703.967	104.412
707.86	171.166
711.751	336.992
715.64	31.742
719.527	56.271
723.413	199.352
727.297	77.768
731.179	71.363
735.059	59.84
738.937	180.979
742.814	77.402
746.689	206.467
750.562	140.699
754.433	41.781
758.303	88.607
762.17	115.791
766.036	119.158
769.901	29.91
773.763	146.637
777.624	237.73
781.482	206.543
785.339	321.104
789.195	186.504
793.048	285.629
796.9	345.529
800.75	180.201
804.598	146.928
808.445	279.035
812.289	101.279
816.132	143.471
819.973	8.479
823.813	37.842
827.65	30.539
831.486	331.869
835.32	47.07
839.152	262.875
842.983	409.59
846.812	308.898
850.639	128.576
854.464	65.658
858.288	396.801
862.11	153.354
865.93	396.912
869.748	244.062
873.564	51.195
877.379	175.402
881.192	79.803
885.004	181.762
888.813	46.898
892.621	98.389
896.427	47.051
900.232	1.646
904.034	228.787
907.835	121.049
911.634	51.385
915.432	89.289
919.227	55.188
923.021	227.238
926.813	198.604
930.604	115.424
934.393	18.326
938.18	60.846
941.965	111.211
945.749	254.506
949.53	138.578
953.311	206.809
957.089	134.418
960.866	133.076
964.641	89.697
968.414	247.33
972.185	496.693
975.955	174.633
979.723	257.441
983.49	412.1
987.254	511.514
991.017	624.117
994.779	498.336
998.538	586.945
1002.3	794.098
1006.05	601.992
1009.81	547.943
1013.56	645.344
1017.31	763.023
1021.06	555.406
1024.81	629.666
1028.55	881.988
1032.3	620.551
1036.04	960.684
1039.78	758.66
1043.52	756.508
1047.26	818.293
1050.99	1201.11
1054.73	1135.16
1058.46	1247.37
1062.19	1219.7
1065.92	1090.64
1069.65	1409.43
1073.37	1756.69
1077.1	1618.34
1080.82	1646.77
1084.54	2098.73
1088.26	2469.12
1091.97	2674.2
1095.69	2553.03
1099.4	2644.55
1103.12	2313.12
1106.83	2703.44
1110.54	1987.45
1114.24	1841.62
1117.95	1788.99
1121.65	1661.55
1125.35	1728.59
1129.06	1280.12
1132.75	1093.69
1136.45	736.635
1140.15	900.639
1143.84	582.691
1147.53	701.076
1151.22	391.143
1154.91	619.945
1158.6	281.908
1162.28	310.16
1165.97	162.797
1169.65	433.475
1173.33	41.861
1177.01	127.168
1180.69	192.4
1184.36	289.389
1188.04	266.357
1191.71	30.447
1195.38	496.139
1199.05	161.076
1202.71	28.92
1206.38	343.312
1210.04	90.617
1213.71	59.02
1217.37	328.033
1221.03	237.506
1224.68	53.08
1228.34	104.916
1231.99	341.23
1235.65	319.232
1239.3	303.684
1242.95	329.77
1246.59	179.027
1250.24	111.146
1253.88	7.719
1257.53	36.801
1261.17	131.1
1264.81	84.574
1268.45	116.516
1272.08	106.775
1275.72	1.932
1279.35	6.498
1282.98	35.916
1286.61	133.637
1290.24	195.361
1293.87	469.244
1297.49	33.395
1301.11	185.77
1304.73	107.32
1308.36	283.365
1311.97	293.164
1315.59	94.152
1319.2	32.918
1322.82	70.875
1326.43	116.902
1330.04	90.141
1333.65	281.641
1337.26	122.316
1340.86	294.957
1344.47	97.652
1348.07	296.277
1351.67	174.203
1355.27	366.801
1358.87	406.254
1362.46	447.277
1366.06	569.328
1369.65	585.043
1373.24	406.641
1376.83	496.184
1380.42	441.84
1384	308.086
1387.59	513.289
1391.17	333.109
1394.75	356.633
1398.33	552.379
1401.91	561.016
1405.49	412.98
1409.06	207.219
1412.64	394.555
1416.21	400.059
1419.78	556.07
1423.35	525.43
1426.91	483.922
1430.48	558.812
1434.05	443.574
1437.61	613.473
1441.17	488.934
1444.73	513.312
1448.29	413.25
1451.84	157.469
1455.4	634.633
1458.95	675.477
1462.5	803.109
1466.05	632.547
1469.6	417.613
1473.15	642.152
1476.69	502.449
1480.24	339.762
1483.78	84.617
1487.32	428.383
1490.86	256.656
1494.39	590.48
1497.93	471.738
1501.46	152.516
1505	239.082
1508.53	89.773
1512.06	52.91
1515.59	444.48
1519.11	238.359
