Measurement: Raman, 532 nm, unoriented, Raman Data Processed
Mineral: Analcime
Rruff sample: R120095
Ideal chemistry: NaAlSi_2_O_6_H_2_O
Locality: Daye area, Hubei, China
Source: Robert Lavinsky
Description: Colorless trapezohedra
Raman shift (cm-1)	intensity
177.273	0
180.166	1.49659
183.059	2.11043
185.951	7.39305
188.844	11.1881
191.737	14.6291
194.629	19.4599
197.522	20.4015
200.415	18.957
203.308	14.9691
206.2	13.9254
209.093	14.3959
211.986	16.1026
214.878	15.0356
217.771	15.5693
220.664	14.9541
223.556	14.2664
226.449	14.0668
229.342	13.3962
232.234	11.6073
235.127	8.77634
238.02	6.22312
240.913	6.17855
243.805	3.95781
246.698	2.25867
249.591	0.497662
252.483	0.295784
255.376	0.642448
258.269	0.505749
261.161	0.46241
264.054	2.78941
266.947	4.8898
269.84	7.93949
272.732	8.63224
275.625	6.80154
278.518	5.27745
281.41	5.59274
284.303	7.33431
287.196	12.4617
290.089	20.7904
292.981	36.6461
295.874	56.9457
298.767	63.5717
301.659	44.2971
304.552	22.574
307.445	12.1478
310.337	7.0948
313.23	3.79111
316.123	1.40763
319.015	0.114719
321.908	0.085316
324.801	0.439339
327.694	1.04748
330.586	0.814995
333.479	1.89313
336.372	2.56722
339.264	4.78812
342.157	6.05156
345.05	7.46866
347.942	8.15946
350.835	12.1747
353.728	15.4943
356.621	18.6627
359.513	22.6006
362.406	26.671
365.299	33.9871
368.191	42.7404
371.084	55.8217
373.977	67.1352
376.87	77.5028
379.762	86.5947
382.655	92.2464
385.548	94.0357
388.44	89.8168
391.333	82.4815
394.226	72.4518
397.118	64.0198
400.011	55.6947
402.904	48.5516
405.796	39.5808
408.689	30.7634
411.582	20.4712
414.475	12.7545
417.367	5.76382
420.26	0.332764
423.153	1.56265
426.045	1.65097
428.938	2.04184
431.831	0.616234
434.724	2.46126
437.616	5.15987
440.509	9.95001
443.402	12.5777
446.294	16.4984
449.187	22.7764
452.08	33.2777
454.972	47.982
457.865	68.4767
460.758	101.212
463.651	149.1
466.543	217.527
469.436	309.174
472.329	439.508
475.221	610.385
478.114	811.766
481.007	975.424
483.899	983.009
486.792	805.788
489.685	579.878
492.577	399.882
495.47	278.139
498.363	196.662
501.256	142.016
504.148	103.528
507.041	78.6991
509.934	58.5956
512.826	45.552
515.719	34.515
518.612	26.8356
521.505	21.5737
524.397	16.6399
527.29	13.9691
530.183	10.0864
533.075	8.15147
535.968	5.68743
538.861	5.60213
541.753	2.98553
544.646	1.60235
547.539	1.77514
550.432	0.9729
553.324	0.140198
556.217	0.043613
559.11	1.32943
562.002	1.54599
564.895	0.714062
567.788	1.05297
570.68	0.248222
573.573	0.300892
576.466	0.150734
579.359	0.746002
582.251	1.82138
585.144	2.5007
588.037	3.5216
590.929	5.84815
593.822	7.27976
596.715	9.04668
599.607	13.3664
602.5	17.4807
605.393	22.0034
608.285	25.378
611.178	23.9956
614.071	19.5516
616.964	15.1429
619.856	12.0724
622.749	11.5897
625.642	11.851
628.534	13.8754
631.427	16.0833
634.32	19.3685
637.212	23.0368
640.105	24.1735
642.998	22.0812
645.891	18.163
648.783	13.1557
651.676	9.82761
654.569	8.17985
657.461	7.1216
660.354	5.67115
663.247	6.72399
666.139	6.89501
669.032	7.28692
671.925	6.95623
674.818	6.55604
677.71	6.62581
680.603	5.84266
683.496	4.35807
686.388	3.24388
689.281	2.92983
692.174	1.24829
695.067	1.31138
697.959	0.733116
700.852	0.080362
703.745	0.306988
706.637	0.431612
709.53	0.334553
712.423	0.644266
715.315	0.164312
718.208	0.598888
721.101	0.261837
723.994	0.670677
726.886	0.515127
729.779	0.351694
732.672	0.351788
735.564	0.194229
738.457	0.022255
741.35	0.392626
744.242	0.234236
747.135	0.055325
750.028	0.170809
752.92	0.53447
755.813	0.296618
758.706	0.326561
761.599	0.95784
764.491	1.2255
767.384	2.02488
770.277	1.48805
773.169	1.54952
776.062	2.81957
778.955	2.75882
781.847	3.42066
784.74	4.352
787.633	5.40788
790.526	5.72464
793.418	5.66761
796.311	5.66322
799.204	3.73162
802.096	3.22977
804.989	2.44239
807.882	2.5539
810.774	2.61451
813.667	2.10814
816.56	1.32413
819.453	1.96979
822.345	1.47734
825.238	0.953575
828.131	1.36645
831.023	1.4087
833.916	1.35075
836.809	1.13953
839.702	2.0275
842.594	1.75911
845.487	2.02775
848.38	1.68915
851.272	1.48008
854.165	1.31624
857.058	1.5869
859.95	1.42743
862.843	1.3208
865.736	1.05005
868.629	1.11692
871.521	0.992373
874.414	0.783001
877.307	1.47297
880.199	1.23879
883.092	0.308346
885.985	0.572161
888.877	1.01906
891.77	0.469568
894.663	0.836964
897.556	0.368952
900.448	0.014438
903.341	0.332519
906.234	0.920079
909.126	0.957035
912.019	0.278939
914.912	0.573556
917.804	1.08422
920.697	1.40844
923.59	1.97204
926.482	1.22474
929.375	1.26413
932.268	1.15477
935.161	0.931463
938.053	1.21114
940.946	1.31261
943.839	1.39468
946.731	0.520277
949.624	0.985927
952.517	1.13703
955.409	0.628204
958.302	0.779505
961.195	0.4571
964.088	0.680346
966.98	0.050747
969.873	0.173859
972.766	0.251925
975.658	0.36438
978.551	0.264185
981.444	1.10214
984.337	0.428812
987.229	0.904491
990.122	0.857325
993.015	1.28976
995.907	2.34633
998.8	1.98257
1001.69	2.7119
1004.59	3.0532
1007.48	3.20514
1010.37	3.55202
1013.26	3.56284
1016.16	2.15604
1019.05	2.56949
1021.94	0.853281
1024.83	0.518425
1027.73	0.470991
1030.62	0.56764
1033.51	0.795195
1036.4	0.249813
1039.3	0.576233
1042.19	0.571667
1045.08	1.36747
1047.98	1.67094
1050.87	1.86431
1053.76	0.986599
1056.65	1.81015
1059.55	1.6632
1062.44	2.20053
1065.33	5.3963
1068.22	8.3558
1071.12	13.1587
1074.01	19.7993
1076.9	26.3024
1079.8	35.4552
1082.69	45.0292
1085.58	55.2861
1088.47	63.0343
1091.37	67.0967
1094.26	70.4363
1097.15	71.6473
1100.04	71.4969
1102.94	69.7493
1105.83	63.8363
1108.72	58.7637
1111.62	52.5675
1114.51	46.6186
1117.4	40.1855
1120.29	34.8144
1123.19	30.4518
1126.08	26.8239
1128.97	22.6684
1131.86	19.9251
1134.76	15.9261
1137.65	14.559
1140.54	11.5082
1143.43	10.0344
1146.33	8.40915
1149.22	6.93577
1152.11	4.53056
1155.01	3.45344
1157.9	3.63535
1160.79	2.6942
1163.68	1.88556
1166.58	1.00635
1169.47	0.952934
1172.36	0.575224
1175.26	0.069324
1178.15	0.316328
1181.04	0.009455
1183.93	0.208964
1186.83	0.45799
1189.72	0.655327
1192.61	0.391577
1195.5	0.408813
1198.4	0.414192
1201.29	0.09188
1204.18	0.0672
1207.07	0.625772
1209.97	0.257426
1212.86	0.661428
1215.75	1.49451
1218.64	1.45796
1221.54	1.35415
1224.43	1.72582
1227.32	1.92179
1230.22	2.07877
1233.11	2.59211
1236	2.33998
1238.89	2.66697
1241.79	2.26967
1244.68	1.87805
1247.57	2.12743
1250.46	1.92792
1253.36	1.73758
1256.25	1.95808
1259.14	2.31696
1262.04	1.84594
1264.93	1.24175
1267.82	1.75586
1270.71	1.53889
1273.61	1.53912
1276.5	0.9786
1279.39	0.928533
1282.29	1.34565
1285.18	0.405684
1288.07	0.783227
1290.96	1.00491
1293.86	0.928434
1296.75	0.676126
1299.64	0.02005
1302.53	0.107278
