Measurement: Raman, 785 nm, unoriented, Raman Data Processed
Mineral: Analcime
Rruff sample: R040128
Ideal chemistry: NaAlSi_2_O_6_H_2_O
Locality: Mont Saint-Hilaire, Rouville County, Quebec, Canada
Source: Bob Downs
Description: White trapezohedra associated with black arfvedsonite, R040127
Measured chemistry: Na_0.93_(Si_2.04_Al_0.99_)O_6_Â·H_2_O
Raman shift (cm-1)	intensity
131.144	0
134.037	25.2306
136.929	0.611267
139.822	17.1251
142.715	61.9508
145.607	159.065
148.5	260.221
151.393	295.339
154.286	314.319
157.178	244.29
160.071	203.716
162.964	205.333
165.856	232.771
168.749	245.251
171.642	235.626
174.534	233.529
177.427	230.473
180.32	238.033
183.212	231.05
186.105	240.859
188.998	265.191
191.891	259.47
194.783	257.499
197.676	246.504
200.569	223.624
203.461	231.747
206.354	220.083
209.247	224.264
212.139	219.032
215.032	227.228
217.925	247.637
220.818	273.94
223.71	287.301
226.603	280.731
229.496	269.942
232.388	233.357
235.281	199.043
238.174	162.907
241.066	136.829
243.959	114.1
246.852	69.0189
249.745	50.2525
252.637	32.9647
255.53	13.4512
258.423	17.4233
261.315	7.40454
264.208	4.64893
267.101	2.74646
269.993	8.24573
272.886	19.5811
275.779	24.691
278.672	9.17316
281.564	39.5843
284.457	63.6168
287.35	135.108
290.242	268.459
293.135	404.47
296.028	588.231
298.921	594.917
301.813	392.302
304.706	223.601
307.599	126.817
310.491	53.9074
313.384	40.2636
316.277	27.2488
319.169	4.62671
322.062	25.2112
324.955	11.4575
327.847	36.0797
330.74	16.4529
333.633	26.2766
336.526	14.8869
339.418	47.8508
342.311	45.3625
345.204	45.2568
348.096	78.0601
350.989	72.1006
353.882	100.834
356.774	151.142
359.667	181.705
362.56	206.584
365.452	280.173
368.345	371.876
371.238	465.236
374.131	522.603
377.023	606.541
379.916	655.594
382.809	652.491
385.701	622.55
388.594	595.524
391.487	522.391
394.38	472
397.272	422.161
400.165	343.185
403.058	276.988
405.95	218.46
408.843	151.03
411.736	88.8156
414.628	64.8522
417.521	34.1796
420.414	13.8737
423.307	12.1585
426.199	16.898
429.092	13.8853
431.985	17.3749
434.877	7.07037
437.77	20.5292
440.663	34.4404
443.555	61.869
446.448	112.088
449.341	153.47
452.234	233.15
455.126	365.094
458.019	534.445
460.912	761.534
463.804	1114.63
466.697	1580.88
469.59	2234.66
472.483	3168.74
475.375	4192.29
478.268	5356.47
481.161	5929.17
484.053	5665.47
486.946	4563.35
489.839	3348.13
492.731	2363.79
495.624	1706.34
498.517	1214.3
501.409	865.814
504.302	678.653
507.195	514.786
510.088	389.402
512.98	289.233
515.873	238.217
518.766	186.203
521.658	148.069
524.551	102.666
527.444	80.9078
530.337	57.4513
533.229	60.2778
536.122	37.813
539.015	23.6991
541.907	22.0618
544.8	15.1108
547.693	12.4176
550.585	2.28522
553.478	9.17426
556.371	7.19684
559.263	10.2513
562.156	2.71808
565.049	16.6422
567.942	17.4138
570.834	16.6274
573.727	10.4801
576.62	0.784637
579.512	6.91226
582.405	17.9863
585.298	44.9371
588.19	33.1082
591.083	54.5234
593.976	63.1077
596.869	80.3195
599.761	101.814
602.654	129.349
605.547	119.478
608.439	136.316
611.332	128.839
614.225	124.455
617.117	113.284
620.01	114.541
622.903	122.93
625.795	110.678
628.688	100.072
631.581	102.096
634.474	73.7437
637.366	73.5612
640.259	77.0582
643.152	87.6468
646.044	65.4075
648.937	71.988
651.83	56.5275
654.722	46.8207
657.615	51.4556
660.508	47.8278
663.401	63.702
666.293	61.4479
669.186	63.7559
672.079	47.8541
674.971	45.6004
677.864	47.4341
680.757	36.0095
683.649	25.9494
686.542	8.08444
689.435	9.86681
692.328	1.59222
695.22	18.808
698.113	9.01718
701.006	15.2286
703.898	5.56961
706.791	9.84395
709.684	3.68481
712.577	7.21492
715.469	8.60509
718.362	9.8817
721.255	6.11592
724.147	5.9418
727.04	13.0394
729.933	3.42893
732.825	10.4275
735.718	8.77708
738.611	7.59
741.504	8.92288
744.396	3.714
747.289	19.0067
750.182	16.3412
753.074	3.92554
755.967	0.371124
758.86	0.38623
761.752	4.52409
764.645	4.06133
767.538	15.0756
770.431	27.813
773.323	20.0379
776.216	23.8932
779.109	20.9764
782.001	19.3814
784.894	41.4518
787.787	41.2627
790.679	47.887
793.572	52.2127
796.465	46.2061
799.357	45.2666
802.25	30.7977
805.143	29.9224
808.036	14.3497
810.928	24.3158
813.821	24.3085
816.714	13.6486
819.606	5.35027
822.499	9.74585
825.392	18.614
828.284	7.67776
831.177	17.9498
834.07	13.1641
836.963	20.874
839.855	4.74254
842.748	13.8528
845.641	7.09433
848.533	13.1949
851.426	3.95801
854.319	8.16669
857.212	15.7245
860.104	4.49489
862.997	25.0939
865.89	20.139
868.782	10.1194
871.675	13.2527
874.568	10.0845
877.46	13.7831
880.353	19.5828
883.246	23.021
886.139	3.83038
889.031	20.7909
891.924	14.6364
894.817	6.00952
897.709	21.7007
900.602	19.9413
903.495	11.7688
906.388	16.5644
909.28	17.7
912.173	8.7879
915.066	19.7178
917.958	30.5295
920.851	12.1479
923.744	14.7245
926.636	5.08173
929.529	20.8339
932.422	2.49382
935.314	20.2578
938.207	7.13197
941.1	15.488
943.993	7.02924
946.885	22.1065
949.778	10.0587
952.671	11.9392
955.563	6.3732
958.456	2.03838
961.349	3.10257
964.241	6.94911
967.134	1.40077
970.027	1.40524
972.92	10.7504
975.812	4.44591
978.705	5.37013
981.598	0.463409
984.49	11.6542
987.383	0.751663
990.276	18.7481
993.168	15.5821
996.061	20.2755
998.954	17.2816
1001.85	10.5894
1004.74	7.70267
1007.63	24.0128
1010.52	5.27234
1013.42	0.689026
1016.31	4.51126
1019.2	10.0395
1022.1	9.38025
1024.99	15.5425
1027.88	3.03809
1030.77	8.42474
1033.67	1.89224
1036.56	10.2755
1039.45	5.02069
1042.34	3.06714
1045.24	34.0308
1048.13	10.2021
1051.02	16.8151
1053.91	22.5309
1056.81	36.2253
1059.7	49.3895
1062.59	47.9886
1065.49	72.3492
1068.38	76.2419
1071.27	107.63
1074.16	116.728
1077.06	140.205
1079.95	185.541
1082.84	212.8
1085.73	273.729
1088.63	278.94
1091.52	308.089
1094.41	306.931
1097.31	317.06
1100.2	301.17
1103.09	276.79
1105.98	282.976
1108.88	254.589
1111.77	217.059
1114.66	221.686
1117.56	195.043
1120.45	176.875
1123.34	158.103
1126.23	141.525
1129.12	103.562
1132.02	101.605
1134.91	72.7496
1137.8	72.8578
1140.7	57.4831
1143.59	45.2362
1146.48	32.7782
1149.37	17.9437
1152.27	31.0724
1155.16	12.3645
1158.05	12.9631
1160.94	23.0469
1163.84	8.62543
1166.73	18.5772
1169.62	3.38236
1172.52	32.1916
1175.41	0.313339
1178.3	2.32427
1181.19	8.69875
1184.09	12.5403
1186.98	14.5392
1189.87	6.56883
1192.77	23.279
1195.66	28.8255
1198.55	25.7421
1201.44	22.4812
1204.34	23.5111
1207.23	14.8827
1210.12	25.4135
1213.01	16.088
1215.91	11.6307
1218.8	0.981018
1221.69	4.5519
