Measurement: Raman, 532 nm, unoriented, Raman Data Processed
Mineral: Analcime
Rruff sample: R040128
Ideal chemistry: NaAlSi_2_O_6_H_2_O
Locality: Mont Saint-Hilaire, Rouville County, Quebec, Canada
Source: Bob Downs
Description: White trapezohedra associated with black arfvedsonite, R040127
Measured chemistry: Na_0.93_(Si_2.04_Al_0.99_)O_6_Â·H_2_O
Raman shift (cm-1)	intensity
134.716	0
138.091	87.144
141.466	114.813
144.841	135.359
148.215	274.135
151.59	410.229
154.965	439.277
158.34	397.681
161.715	383.326
165.09	374.422
168.464	404.702
171.839	413.28
175.214	464.794
178.589	495.871
181.964	479.19
185.339	593.394
188.713	578.682
192.088	631.09
195.463	598.037
198.838	572.897
202.213	497.934
205.587	498.063
208.962	401.33
212.337	374.481
215.712	363.092
219.087	444.012
222.462	450.993
225.836	484.752
229.211	446.661
232.586	442.088
235.961	323.207
239.336	195.67
242.71	180.292
246.085	152.275
249.46	123.545
252.835	42.7114
256.21	35.0234
259.584	18.0269
262.959	14.8369
266.334	2.01856
269.709	5.20557
273.084	16.1201
276.459	46.8242
279.833	22.9233
283.208	55.7134
286.583	104.551
289.958	244.947
293.333	453.679
296.707	718.903
300.082	593.625
303.457	328.147
306.832	145.25
310.207	66.2881
313.582	56.7983
316.956	49.6851
320.331	22.3179
323.706	86.0518
327.081	12.1206
330.456	62.8916
333.83	42.6167
337.205	77.4917
340.58	56.5635
343.955	161.754
347.33	160.648
350.705	227.546
354.079	245.105
357.454	269.334
360.829	346.094
364.204	453.202
367.579	584.349
370.954	853.307
374.328	942.914
377.703	1057.56
381.078	1094.4
384.453	1184.59
387.828	1157.69
391.202	1125.22
394.577	1077.54
397.952	919.405
401.327	831.097
404.702	684.86
408.077	473.081
411.451	350.086
414.826	246.482
418.201	119.889
421.576	14.1597
424.951	16.4019
428.325	42.0298
431.7	38.4448
435.075	4.82227
438.45	19.3975
441.825	129.674
445.2	172.387
448.574	341.724
451.949	421.482
455.324	732.293
458.699	1107.49
462.074	1691.74
465.448	2474.27
468.823	3833.72
472.198	5645.21
475.573	8047.08
478.948	10197
482.322	10719.4
485.697	8797.3
489.072	6251.34
492.447	4074.29
495.822	2796.66
499.197	1902.9
502.571	1300.59
505.946	938.415
509.321	682.918
512.696	527.736
516.071	376.53
519.446	340.197
522.82	262.62
526.195	195.849
529.57	122.63
532.945	97.9287
536.32	102.304
539.694	3.84863
543.069	12.4233
546.444	78.1465
549.819	35.7949
553.194	52.5503
556.568	4.15771
559.943	21.2236
563.318	81.4546
566.693	41.5107
570.068	57.2964
573.443	6.11182
576.817	57.6445
580.192	48.6699
583.567	77.6445
586.942	127.493
590.317	107.509
593.692	157.228
597.066	124.777
600.441	196.056
603.816	208.635
607.191	267.607
610.566	276.263
613.94	213.722
617.315	212.351
620.69	242.958
624.065	253.994
627.44	210.179
630.814	163.461
634.189	188.133
637.564	182.195
640.939	209.722
644.314	211.812
647.689	175.065
651.063	115.251
654.438	153.934
657.813	149.171
661.188	69.6035
664.563	177.197
667.938	137.472
671.312	143.664
674.687	106.999
678.062	58.4092
681.437	61.8911
684.812	44.9062
688.186	72.9253
691.561	47.5825
694.936	95.1138
698.311	68.7886
701.686	65.8955
705.061	25.293
708.435	45.9312
711.81	27.7602
715.185	57.1733
718.56	56.3589
721.935	45.2998
725.309	81.7978
728.684	1.21387
732.059	55.4898
735.434	9.34717
738.809	28.8975
742.183	17.7349
745.558	45.1001
748.933	26.5542
752.308	36.0278
755.683	1.38525
759.058	11.6821
762.432	50.9463
765.807	44.6323
769.182	90.5049
772.557	159.802
775.932	159.892
779.307	114.608
782.681	131.368
786.056	140.449
789.431	175.042
792.806	184.927
796.181	160.064
799.555	156.848
802.93	107.972
806.305	34.3994
809.68	60.794
813.055	56.1309
816.429	98.0791
819.804	55.7861
823.179	73.9688
826.554	93.9912
829.929	104.197
833.304	50.6992
836.678	91.7441
840.053	49.1641
843.428	64.25
846.803	86.6562
850.178	19.5459
853.553	3.67188
856.927	7.22266
860.302	45.4072
863.677	44.1807
867.052	3.01758
870.427	6.98828
873.801	66.1064
877.176	107.713
880.551	58.6592
883.926	58.2236
887.301	114.486
890.676	19.2969
894.05	55.3721
897.425	34.6045
900.8	96.4707
904.175	26.9082
907.55	78.2148
910.924	84.4014
914.299	31.0127
917.674	50.5518
921.049	50.5049
924.424	88.8047
927.798	36.9707
931.173	94.082
934.548	105.019
937.923	24.1914
941.298	127.147
944.673	82.0791
948.047	71.3135
951.422	20.6484
954.797	67.0918
958.172	21.8975
961.547	6.77734
964.922	16.7061
968.296	7.22559
971.671	21.9277
975.046	33.081
978.421	13.6738
981.796	3.25879
985.17	61.7295
988.545	39.419
991.92	72.7432
995.295	63.7705
998.67	69.8086
1002.04	12.6289
1005.42	51.6572
1008.79	63.6826
1012.17	81.9512
1015.54	13.4844
1018.92	57.2393
1022.29	9.70703
1025.67	85.9092
1029.04	46.9961
1032.42	79.1143
1035.79	8.5293
1039.17	74.4394
1042.54	166.876
1045.92	178.935
1049.29	124.122
1052.67	119.726
1056.04	239.148
1059.42	122.371
1062.79	144.39
1066.17	186.1
1069.54	312.947
1072.92	337.141
1076.29	355.687
1079.66	514.985
1083.04	732.708
1086.41	757.024
1089.79	868.981
1093.16	903.018
1096.54	928.017
1099.91	840.798
1103.29	919.642
1106.66	876.281
1110.04	802.338
1113.41	737.694
1116.79	663.66
1120.16	572.315
1123.54	532.54
1126.91	440.315
1130.29	311.337
1133.66	281.808
1137.04	179.865
1140.41	163.552
1143.79	172.335
1147.16	137.088
1150.54	112.804
1153.91	51.1924
1157.29	47.2949
1160.66	9.48535
1164.04	74.2275
1167.41	9.12402
1170.79	43.6123
1174.16	11.7979
1177.54	18.8389
1180.91	32.498
1184.29	18.8369
1187.66	16.5762
1191.03	12.2676
1194.41	81.4346
1197.78	2.09082
1201.16	13.2148
1204.53	130.222
1207.91	95.3096
1211.28	30.2891
1214.66	53.2324
1218.03	65.7617
1221.41	56.9629
1224.78	42.5303
1228.16	106.343
1231.53	163.243
1234.91	54.959
1238.28	42.8877
1241.66	64.6689
1245.03	105.35
1248.41	35.709
1251.78	77.8535
1255.16	62.2158
1258.53	91.5117
1261.91	39.292
1265.28	68.8789
1268.65	66.0684
1272.03	156.162
1275.4	61.0127
1278.78	91.4912
1282.15	29.3936
1285.53	67.1699
1288.9	65.2412
1292.28	27.3359
1295.65	99.6338
1299.03	19.2568
