Measurement: Raman, 532 nm, unoriented, Raman Data Processed
Mineral: Analcime
Rruff sample: R060023
Ideal chemistry: NaAlSi_2_O_6_H_2_O
Locality: Dallas, Oregon, USA
Source: Bob Downs
Description: White trapezohedral crystal associated with levyne-Na, R060021
Measured chemistry: (Na_0.98_[box]_0.02_)_Σ=1_(Si_2.02_Al_0.98_)O_6_·H_2_O
Raman shift (cm-1)	intensity
166.032	0
168.925	1.81708
171.818	2.69221
174.71	0.459335
177.603	0.78231
180.496	2.31964
183.388	2.47497
186.281	2.40719
189.174	5.96505
192.067	6.85373
194.959	6.93574
197.852	5.11673
200.745	7.21565
203.637	6.9968
206.53	7.30466
209.423	8.68642
212.315	9.70107
215.208	12.8826
218.101	15.4129
220.994	17.0498
223.886	20.4887
226.779	19.5876
229.672	21.9876
232.564	19.8499
235.457	18.4475
238.35	15.3822
241.243	13.2965
244.135	9.1567
247.028	6.89338
249.921	3.11569
252.813	2.07426
255.706	2.25259
258.599	0.870064
261.491	1.42655
264.384	0.931862
267.277	0.411011
270.17	1.26656
273.062	1.21916
275.955	0.223274
278.848	1.55744
281.74	4.53777
284.633	8.47601
287.526	17.1915
290.418	29.3923
293.311	49.2967
296.204	76.6692
299.096	86.9989
301.989	60.8916
304.882	33.7589
307.775	16.8675
310.667	8.64586
313.56	5.33396
316.453	2.54571
319.345	0.696396
322.238	0.576988
325.131	0.893097
328.024	1.97157
330.916	3.23824
333.809	2.60874
336.702	4.5964
339.594	6.67145
342.487	9.83956
345.38	13.8713
348.272	15.181
351.165	20.3117
354.058	22.2512
356.95	26.7286
359.843	31.6631
362.736	38.0213
365.629	43.7555
368.521	52.5605
371.414	62.369
374.307	69.8911
377.199	75.5757
380.092	76.6122
382.985	76.5897
385.877	75.0629
388.77	73.648
391.663	66.8865
394.556	60.2861
397.448	53.0682
400.341	45.791
403.234	37.1421
406.126	30.0748
409.019	22.597
411.912	15.0461
414.805	9.02815
417.697	5.30557
420.59	1.70656
423.483	1.47875
426.375	2.10022
429.268	2.46451
432.161	0.615578
435.053	1.55771
437.946	2.70081
440.839	5.26479
443.731	9.86436
446.624	16.517
449.517	23.3898
452.409	35.6667
455.302	51.5261
458.195	74.6678
461.088	111.421
463.98	162.325
466.873	230.551
469.766	320.182
472.658	434.886
475.551	574.445
478.444	733.003
481.337	834.663
484.229	816.11
487.122	668.66
490.015	491.332
492.907	350.346
495.8	250.257
498.693	182.73
501.585	132.85
504.478	96.8927
507.371	71.9553
510.264	55.8493
513.156	43.9591
516.049	33.1845
518.942	25.262
521.834	20.2819
524.727	17.0278
527.62	13.2531
530.513	9.79551
533.405	7.84557
536.298	6.70505
539.191	5.43327
542.083	2.88258
544.976	2.59505
547.869	0.943283
550.761	1.35161
553.654	0.105957
556.547	0.373558
559.439	0.900475
562.332	2.27404
565.225	0.177658
568.118	0.541725
571.01	0.028618
573.903	0.642941
576.796	1.79864
579.688	2.93493
582.581	3.53155
585.474	3.53286
588.366	4.77862
591.259	6.77638
594.152	7.67327
597.044	8.75914
599.937	10.6667
602.83	10.139
605.723	13.9886
608.615	14.0188
611.508	15.4973
614.401	17.0875
617.293	19.7558
620.186	20.0826
623.079	19.4681
625.971	17.2849
628.864	15.2225
631.757	12.0808
634.65	10.0219
637.542	9.6091
640.435	7.84592
643.328	8.71874
646.22	7.38782
649.113	7.68824
652.006	6.33689
654.899	8.37018
657.791	8.35239
660.684	9.90654
663.577	10.6566
666.469	11.0168
669.362	9.71499
672.255	10.846
675.147	8.8497
678.04	8.6815
680.933	7.33794
683.826	3.96864
686.718	3.93351
689.611	2.23226
692.504	2.78048
695.396	0.421799
698.289	0.95192
701.182	1.35809
704.074	0.711918
706.967	1.57791
709.86	0.90126
712.753	1.62759
715.645	0.158878
718.538	0.432865
721.431	0.811012
724.323	0.342575
727.216	0.356079
730.109	0.263447
733.001	0.997009
735.894	0.375103
738.787	0.277775
741.679	0.584805
744.572	0.179676
747.465	0.982674
750.358	0.933304
753.25	0.162777
756.143	0.359707
759.036	0.375477
761.928	0.646225
764.821	1.66981
767.714	2.31194
770.606	2.33054
773.499	2.46497
776.392	3.84965
779.285	2.6199
782.177	3.19673
785.07	3.2281
787.963	5.23018
790.855	3.98841
793.748	5.16901
796.641	4.76298
799.533	6.2408
802.426	5.257
805.319	4.20077
808.212	3.51843
811.104	2.79726
813.997	1.92311
816.89	2.09397
819.782	1.2062
822.675	1.91545
825.568	2.67546
828.46	1.39375
831.353	1.23606
834.246	0.681484
837.139	1.63381
840.031	1.4976
842.924	1.12788
845.817	1.41901
848.709	0.680168
851.602	1.23022
854.495	0.867641
857.388	1.54152
860.28	0.936829
863.173	0.38274
866.066	1.20129
868.958	1.22432
871.851	0.437412
874.744	0.973606
877.636	0.676266
880.529	1.20622
883.422	1.67115
886.314	1.04396
889.207	0.349213
892.1	0.725815
894.993	1.13029
897.885	0.704262
900.778	0.175098
903.671	0.016911
906.563	1.32988
909.456	0.031181
912.349	1.11317
915.241	1.02392
918.134	1.59892
921.027	1.19306
923.92	1.41325
926.812	1.24311
929.705	0.918362
932.598	1.18081
935.49	0.557419
938.383	0.601112
941.276	1.23657
944.168	1.38304
947.061	0.824974
949.954	0.663853
952.847	0.907421
955.739	0.913456
958.632	0.05518
961.525	0.451012
964.417	0.427902
967.31	0.019863
970.203	0.799232
973.096	0.314297
975.988	1.18094
978.881	0.93956
981.774	1.55402
984.666	3.546
987.559	3.3663
990.452	4.24773
993.344	4.47245
996.237	5.45874
999.13	5.10562
1002.02	5.69794
1004.91	5.14787
1007.81	4.92674
1010.7	5.00742
1013.59	4.93201
1016.49	3.76132
1019.38	2.649
1022.27	2.87531
1025.16	1.23122
1028.06	0.196224
1030.95	0.282669
1033.84	0.464672
1036.73	0.258766
1039.63	0.178364
1042.52	0.332611
1045.41	0.159698
1048.31	4.04866
1051.2	2.98463
1054.09	6.95595
1056.98	7.14398
1059.88	6.94946
1062.77	7.95487
1065.66	9.01683
1068.56	12.0304
1071.45	13.6817
1074.34	17.3423
1077.23	19.8899
1080.12	24.474
1083.02	28.1872
1085.91	35.0094
1088.8	39.0403
1091.7	41.6836
1094.59	47.4023
1097.48	50.7746
1100.37	54.5699
1103.27	54.4361
1106.16	53.5127
1109.05	51.0018
1111.94	48.4537
1114.84	43.9088
1117.73	40.3673
1120.62	37.1423
1123.52	33.6372
1126.41	30.2192
1129.3	26.0343
1132.19	22.9767
1135.09	20.0948
1137.98	17.6321
1140.87	16.5413
1143.77	14.2192
1146.66	11.3425
1149.55	10.2254
1152.44	8.82459
1155.34	7.55415
1158.23	5.62468
1161.12	4.23942
1164.01	2.76324
1166.91	2.76767
1169.8	0.879921
1172.69	0.018768
1175.58	0.083576
1178.48	0.045322
1181.37	0.345467
1184.26	0.145855
1187.15	0.414242
1190.05	0.327126
1192.94	0.092873
1195.83	0.423763
1198.73	0.378841
1201.62	0.832073
1204.51	0.002071
1207.4	0.898617
1210.3	1.09504
1213.19	1.75719
1216.08	1.52378
1218.97	1.24007
1221.87	1.80804
1224.76	2.16344
1227.65	1.898
1230.55	1.5477
1233.44	1.59513
1236.33	1.53
1239.22	2.43393
1242.12	2.38229
1245.01	1.99932
1247.9	1.86355
1250.8	1.4142
1253.69	1.26608
1256.58	1.69935
1259.47	1.96526
1262.37	1.25626
1265.26	0.796497
1268.15	1.74082
1271.04	1.94136
1273.94	1.00487
1276.83	1.63591
1279.72	1.08198
1282.61	0.966805
1285.51	0.433308
1288.4	0.035355
1291.29	0.577343
