Measurement: Raman, 780 nm, unoriented, Raman Data Processed
Mineral: Analcime
Rruff sample: R120095
Ideal chemistry: NaAlSi_2_O_6_H_2_O
Locality: Daye area, Hubei, China
Source: Robert Lavinsky
Description: Colorless trapezohedra
Raman shift (cm-1)	intensity
125.834	0
129.209	6.56947
132.583	15.4356
135.958	26.8363
139.333	41.8727
142.708	45.9507
146.083	43.6056
149.458	43.9452
152.832	34.05
156.207	20.4875
159.582	9.91324
162.957	1.91032
166.332	0.794937
169.706	3.22214
173.081	0.233292
176.456	2.95566
179.831	8.92859
183.206	15.0292
186.581	22.1501
189.955	25.6904
193.33	26.9715
196.705	24.9772
200.08	19.629
203.455	15.0846
206.829	12.5552
210.204	12.2561
213.579	13.6616
216.954	16.1802
220.329	17.8663
223.703	19.3817
227.078	20.5282
230.453	17.0905
233.828	14.2587
237.203	12.0713
240.578	10.6495
243.952	9.5678
247.327	7.34221
250.702	3.57391
254.077	0.985954
257.452	0.61396
260.827	0.614967
264.201	2.37789
267.576	5.33826
270.951	7.98856
274.326	5.86207
277.701	7.53765
281.075	9.18031
284.45	13.6425
287.825	23.6047
291.2	41.1277
294.575	64.6438
297.95	71.1862
301.324	43.9687
304.699	21.7944
308.074	12.8817
311.449	7.53265
314.824	3.20112
318.198	0.194481
321.573	1.47721
324.948	0.377495
328.323	0.299553
331.698	0.887901
335.072	2.87328
338.447	5.46794
341.822	7.08532
345.197	10.564
348.572	13.6009
351.947	17.5224
355.321	23.6683
358.696	30.8067
362.071	40.159
365.446	51.0847
368.821	67.8394
372.195	86.4699
375.57	102.324
378.945	116.448
382.32	123.57
385.695	124.221
389.07	116.926
392.444	108.378
395.819	98.3934
399.194	88.1406
402.569	77.7165
405.944	61.219
409.318	40.6024
412.693	23.7494
416.068	10.3133
419.443	2.38178
422.818	2.46591
426.192	3.27673
429.567	1.99132
432.942	0.63382
436.317	4.71126
439.692	10.623
443.067	16.1841
446.441	26.0075
449.816	38.5929
453.191	59.8383
456.566	94.5802
459.941	146.032
463.315	229.197
466.69	339.465
470.065	484.523
473.44	680.976
476.815	909.1
480.19	1098.82
483.564	1059.95
486.939	792.041
490.314	521.35
493.689	335.946
497.064	223.791
500.438	151.608
503.813	106.734
507.188	74.6779
510.563	53.8206
513.938	40.3914
517.313	29.3412
520.687	22.9166
524.062	16.8197
527.437	13.1621
530.812	9.85096
534.187	7.18819
537.562	4.89394
540.936	3.23809
544.311	1.72591
547.686	0.112133
551.061	0.00745
554.436	0.77322
557.81	0.983444
561.185	0.806091
564.56	1.89537
567.935	0.269714
571.31	0.098724
574.684	0.682396
578.059	1.7197
581.434	3.11503
584.809	4.90024
588.184	6.30949
591.558	8.34023
594.933	11.5619
598.308	15.9667
601.683	21.205
605.058	25.8186
608.433	27.7683
611.807	23.7393
615.182	17.8223
618.557	14.5647
621.932	14.0861
625.307	14.8506
628.682	16.976
632.056	21.5849
635.431	25.5449
638.806	27.646
642.181	24.864
645.556	18.8699
648.93	13.6987
652.305	9.84129
655.68	7.78178
659.055	6.28965
662.43	6.71864
665.804	6.71837
669.179	6.43644
672.554	6.62432
675.929	5.70063
679.304	5.12358
682.679	3.32647
686.053	3.17945
689.428	1.25734
692.803	1.55458
696.178	0.301926
699.553	0.467005
702.928	0.566792
706.302	0.148582
709.677	0.01273
713.052	0.25926
716.427	0.053461
719.802	0.963459
723.176	0.267534
726.551	0.634207
729.926	0.603907
733.301	0.141851
736.676	0.270058
740.051	0.295971
743.425	0.154909
746.8	0.241695
750.175	0.584984
753.55	0.175934
756.925	0.807047
760.299	0.203827
763.674	1.32846
767.049	1.41391
770.424	1.94409
773.799	3.16405
777.173	4.07578
780.548	5.23461
783.923	6.73173
787.298	6.47741
790.673	8.01578
794.048	6.75903
797.422	5.18264
800.797	4.08714
804.172	3.01703
807.547	2.52218
810.922	1.84546
814.296	2.1789
817.671	1.38666
821.046	2.01526
824.421	1.07733
827.796	1.33268
831.17	0.917656
834.545	1.27672
837.92	2.08148
841.295	0.634502
844.67	1.91596
848.045	1.78985
851.419	1.34714
854.794	0.628435
858.169	1.38642
861.544	1.08175
864.919	0.744913
868.293	1.0059
871.668	1.33019
875.043	1.07557
878.418	1.76499
881.793	0.850615
885.168	1.19319
888.542	1.38592
891.917	1.02332
895.292	0.478614
898.667	0.714798
902.042	0.482287
905.417	0.523891
908.791	0.928082
912.166	0.634214
915.541	1.94796
918.916	1.47819
922.291	1.52058
925.665	0.918734
929.04	1.34378
932.415	2.01505
935.79	1.26967
939.165	1.2464
942.539	1.30062
945.914	0.739449
949.289	1.31371
952.664	0.885044
956.039	0.279444
959.414	0.066113
962.788	0.19476
966.163	0.809483
969.538	0.552038
972.913	0.058418
976.288	0.345469
979.663	0.427473
983.037	0.762527
986.412	1.23049
989.787	1.99232
993.162	2.67005
996.537	2.02472
999.911	2.41069
1003.29	3.36814
1006.66	3.38609
1010.04	4.10213
1013.41	3.75627
1016.78	2.60999
1020.16	1.70666
1023.53	0.584164
1026.91	0.015306
1030.29	0.514961
1033.66	0.350061
1037.03	1.09639
1040.41	1.94574
1043.78	3.33617
1047.16	3.27465
1050.53	2.98545
1053.91	2.68274
1057.28	2.19673
1060.66	2.45422
1064.03	4.66782
1067.41	6.31697
1070.78	11.0942
1074.16	18.0509
1077.53	26.7524
1080.91	37.8884
1084.28	48.1459
1087.66	57.8062
1091.03	63.1372
1094.41	67.4183
1097.78	66.8697
1101.16	64.9471
1104.53	60.2538
1107.91	54.7087
1111.28	48.0369
1114.65	41.1085
1118.03	35.2308
1121.4	29.6249
1124.78	25.053
1128.15	21.1517
1131.53	17.5206
1134.9	13.7555
1138.28	10.6648
1141.65	8.68833
1145.03	7.75326
1148.4	6.09314
1151.78	3.7335
1155.15	2.05367
1158.53	2.40473
1161.9	0.905651
1165.28	0.46232
1168.65	1.16106
1172.03	0.177752
1175.4	0.00862
1178.78	0.615395
1182.15	0.103535
1185.53	0.558838
1188.9	0.218026
1192.28	0.325085
1195.65	0.170341
1199.03	0.208009
1202.4	0.374574
1205.78	0.507709
1209.15	3.24574
1212.53	1.3091
1215.9	1.25283
1219.27	1.08597
1222.65	1.89207
1226.02	1.9165
1229.4	2.48541
1232.77	3.13268
1236.15	3.27723
1239.52	2.60568
1242.9	2.43112
1246.27	2.12317
1249.65	1.35078
1253.02	2.01951
1256.4	1.14663
1259.77	1.33268
1263.15	1.46356
1266.52	1.65144
1269.9	1.47506
1273.27	1.47472
1276.65	0.886868
1280.02	0.924335
1283.4	0.025363
