Measurement: Raman, 780 nm, unoriented, Raman Data Processed
Mineral: Analcime
Rruff sample: R050094
Ideal chemistry: NaAlSi_2_O_6_H_2_O
Locality: Springfield, Oregon, USA
Source: Rock Currier
Description: Clear colorless single crystals associated with gmelinite
Measured chemistry: (Na_0.99_[box]_0.01_)_Σ=1_(Si_2.01_Al_0.99_)O_6_·H_2_O
Raman shift (cm-1)	intensity
130.612	0
133.505	52.2913
136.398	203.733
139.29	249.553
142.183	284.226
145.076	301.669
147.968	275.766
150.861	227.791
153.754	170.369
156.646	180.645
159.539	108.488
162.432	40.1636
165.325	102.03
168.217	10.2808
171.11	3.92896
174.003	3.03882
176.895	21.8236
179.788	42.123
182.681	30.9311
185.573	106.73
188.466	190.854
191.359	211.109
194.251	269.163
197.144	329.226
200.037	361.144
202.93	360.632
205.822	350.562
208.715	336.816
211.608	335.171
214.5	290.683
217.393	295.822
220.286	338.838
223.179	287.598
226.071	277.24
228.964	194.194
231.857	161.349
234.749	218.35
237.642	152.764
240.535	81.5632
243.427	65.4614
246.32	51.0022
249.213	39.3993
252.106	46.3601
254.998	14.8445
257.891	24.5369
260.784	10.0688
263.676	47.9294
266.569	19.379
269.462	37.5166
272.354	2.44824
275.247	3.3324
278.14	44.1697
281.033	16.9304
283.925	49.6355
286.818	135.862
289.711	251.822
292.603	420.536
295.496	636.274
298.389	788.12
301.281	699.632
304.174	434.255
307.067	256.851
309.959	131.7
312.852	73.7806
315.745	60.2208
318.638	14.3136
321.53	55.3019
324.423	42.7777
327.316	3.63074
330.208	11.7325
333.101	48.486
335.994	54.0404
338.887	60.3779
341.779	99.3687
344.672	98.6094
347.565	118.347
350.457	145.063
353.35	204.066
356.243	218.251
359.135	285.002
362.028	287.671
364.921	367.32
367.813	437.933
370.706	538.5
373.599	676.291
376.492	746.22
379.384	902.856
382.277	972.833
385.17	1073
388.062	1134.94
390.955	1146.81
393.848	1115.04
396.74	982.845
399.633	755.507
402.526	654.805
405.419	472.29
408.311	346.974
411.204	253.559
414.097	172.47
416.989	85.1143
419.882	14.4612
422.775	10.4291
425.668	47.48
428.56	44.4368
431.453	23.6683
434.346	18.5281
437.238	15.515
440.131	52.1863
443.024	106.465
445.916	197.928
448.809	298.928
451.702	391.116
454.594	590.614
457.487	853.853
460.38	1201.02
463.273	1743.46
466.165	2425.34
469.058	3457.66
471.951	4809.69
474.843	6445.31
477.736	8173.69
480.629	9542.66
483.522	9720.97
486.414	8684.43
489.307	6833.52
492.2	4979.38
495.092	3520.76
497.985	2549.34
500.878	1852.45
503.77	1378.67
506.663	1033.69
509.556	769.556
512.448	592.122
515.341	488.257
518.234	338.527
521.127	301.311
524.019	215.762
526.912	173.081
529.805	136.645
532.697	132.776
535.59	89.3618
538.483	62.837
541.375	73.85
544.268	14.4957
547.161	23.3874
550.054	27.4882
552.946	12.2946
555.839	19.8906
558.732	11.0635
561.624	22.2446
564.517	2.85669
567.41	2.5686
570.303	24.3824
573.195	4.84302
576.088	0.908691
578.981	23.3855
581.873	35.0411
584.766	44.5132
587.659	31.9156
590.551	46.2815
593.444	72.9318
596.337	69.8317
599.23	69.9898
602.122	101.42
605.015	67.1328
607.908	98.1251
610.8	121.571
613.693	73.2037
616.586	89.8351
619.478	75.1824
622.371	55.7268
625.264	102.432
628.157	79.0279
631.049	57.5927
633.942	66.3907
636.835	98.1085
639.727	85.6665
642.62	60.8412
645.513	44.053
648.405	61.5692
651.298	87.6218
654.191	61.7202
657.083	62.7799
659.976	95.7393
662.869	97.8044
665.762	134.064
668.654	133.379
671.547	142.859
674.44	134.923
677.332	140.179
680.225	118.797
683.118	90.7335
686.01	55.4147
688.903	36.8352
691.796	42.1256
694.689	38.2262
697.581	16.9882
700.474	5.93909
703.367	6.44577
706.259	35.2043
709.152	25.0227
712.045	3.75549
714.938	8.62424
717.83	25.359
720.723	9.87793
723.616	13.8137
726.508	30.7695
729.401	5.54321
732.294	13.8159
735.186	40.4421
738.079	2.17941
740.972	6.67545
743.865	3.35861
746.757	23.835
749.65	4.59216
752.543	29.5599
755.435	14.541
758.328	5.0072
761.221	21.2155
764.113	25.6607
767.006	57.553
769.899	34.1826
772.792	52.2621
775.684	18.7777
778.577	44.1815
781.47	57.6491
784.362	74.3959
787.255	85.4373
790.148	85.6552
793.04	71.7094
795.933	46.9023
798.826	57.983
801.718	47.3813
804.611	54.4736
807.504	16.4603
810.397	32.1846
813.289	26.3881
816.182	42.7424
819.075	7.68753
821.967	17.1113
824.86	11.6126
827.753	13.7438
830.645	14.6389
833.538	30.7639
836.431	7.72821
839.323	14.0408
842.216	28.5319
845.109	14.9853
848.002	10.968
850.894	35.3683
853.787	31.5671
856.68	52.8336
859.572	10.1737
862.465	24.6405
865.358	3.41208
868.25	16.1239
871.143	10.8562
874.036	25.1559
876.929	18.975
879.821	33.8004
882.714	16.0745
885.607	13.506
888.5	7.33322
891.392	25.8121
894.285	28.3695
897.178	23.1678
900.07	16.931
902.963	27.4741
905.856	19.6754
908.748	28.2617
911.641	34.2782
914.534	40.9506
917.427	29.2554
920.319	28.7298
923.212	14.5168
926.105	28.8839
928.997	27.0371
931.89	19.9235
934.783	33.9899
937.675	10.7793
940.568	19.8931
943.461	30.8241
946.354	1.26028
949.246	25.7985
952.139	15.797
955.032	9.34586
957.924	2.75433
960.817	13.1846
963.71	5.54071
966.602	25.8548
969.495	1.45178
972.388	12.7093
975.28	16.7141
978.173	7.01959
981.066	21.332
983.959	14.1192
986.851	30.6404
989.744	20.8787
992.637	25.275
995.529	0.767303
998.422	32.9376
1001.32	29.6906
1004.21	38.179
1007.1	25.031
1009.99	19.523
1012.89	28.6862
1015.78	25.621
1018.67	19.7677
1021.56	9.02338
1024.46	9.21289
1027.35	1.63556
1030.24	3.85278
1033.13	12.2453
1036.03	11.0523
1038.92	38.8155
1041.81	8.84094
1044.7	19.6128
1047.6	31.921
1050.49	58.0068
1053.38	66.8096
1056.28	34.2462
1059.17	64.095
1062.06	75.8658
1064.95	95.7095
1067.85	129.385
1070.74	156.797
1073.63	192.353
1076.53	245.733
1079.42	289.3
1082.31	338.473
1085.2	384.038
1088.1	422.889
1090.99	445.579
1093.88	480.959
1096.77	509.975
1099.67	508.105
1102.56	506.57
1105.45	525.023
1108.35	465.177
1111.24	436.977
1114.13	401.024
1117.02	403.883
1119.91	371.964
1122.81	332.808
1125.7	277.252
1128.59	246.139
1131.49	242.403
1134.38	206.738
1137.27	167.392
1140.16	134.085
1143.06	122.939
1145.95	104.894
1148.84	86.8364
1151.73	64.0989
1154.63	52.8271
1157.52	40.5414
1160.41	35.6176
1163.31	11.1488
1166.2	18.6394
1169.09	8.97464
1171.98	12.9542
1174.88	2.70575
1177.77	6.17813
1180.66	12.523
1183.56	5.09314
1186.45	0.068054
1189.34	6.44797
1192.23	18.0628
1195.13	14.7085
1198.02	29.7006
1200.91	36.0782
1203.8	13.3914
1206.7	26.8478
1209.59	33.8571
1212.48	22.6178
1215.38	21.4579
1218.27	20.3242
1221.16	7.56152
1224.05	48.0344
1226.94	42.7559
1229.84	25.7365
1232.73	25.9865
1235.62	31.6319
1238.52	49.2901
1241.41	29.21
1244.3	37.3604
1247.19	12.6182
1250.09	26.0997
1252.98	43.2641
1255.87	25.2113
1258.77	31.9576
1261.66	46.3532
1264.55	21.7611
1267.44	11.7095
1270.34	6.88098
1273.23	37.2742
1276.12	0
