Measurement: Raman, 514 nm, unoriented, Raman Data Processed
Mineral: Analcime
Rruff sample: R050094
Ideal chemistry: NaAlSi_2_O_6_H_2_O
Locality: Springfield, Oregon, USA
Source: Rock Currier
Description: Clear colorless single crystals associated with gmelinite
Measured chemistry: (Na_0.99_[box]_0.01_)_Σ=1_(Si_2.01_Al_0.99_)O_6_·H_2_O
Raman shift (cm-1)	intensity
90.587	0
94.768	44.315
98.947	182.516
103.124	273.54
107.3	370.941
111.473	523.856
115.644	968.635
119.813	1126.94
123.981	1081.13
128.146	955.301
132.309	1157.62
136.47	1090.36
140.63	1165.59
144.787	1150.05
148.942	900.761
153.096	815.118
157.247	609.56
161.396	405.359
165.544	371.327
169.689	362.254
173.833	598.091
177.974	932.753
182.114	1299.74
186.251	1658.68
190.387	1805.69
194.52	1906.36
198.652	2003.88
202.782	2061.89
206.909	1998.13
211.035	1765.41
215.159	1589.54
219.281	1377.15
223.4	1197.92
227.518	1051.71
231.634	774.618
235.748	660.708
239.86	434.03
243.97	331.616
248.079	181.364
252.185	41.973
256.289	166.718
260.391	223.146
264.492	274.011
268.59	308.833
272.687	225.16
276.781	41.134
280.874	225.399
284.964	845.533
289.053	2079.36
293.14	4422.94
297.225	5563.24
301.308	3841.94
305.389	2407.7
309.468	1569.69
313.545	1447.14
317.62	1357.24
321.693	1413.14
325.765	1528.25
329.834	1688.5
333.902	1869.46
337.967	2045.12
342.031	2200.61
346.093	2423.61
350.153	2753.82
354.21	3032.38
358.267	3426.75
362.321	3824.92
366.373	4396.9
370.423	5202.67
374.471	6010.23
378.518	6777.6
382.563	7699.78
386.605	8609.8
390.646	8401.62
394.685	7541.18
398.722	6174.14
402.757	4890.27
406.79	3823.57
410.821	3284.17
414.851	2909.81
418.878	2549.7
422.904	2304.42
426.927	2080.2
430.949	2011.35
434.969	2121.72
438.987	2238.39
443.003	2737.57
447.018	3265.57
451.03	4157.76
455.041	5642.71
459.049	8061.96
463.056	11607
467.061	17286.3
471.064	26055.4
475.065	39240.4
479.064	52399.1
483.062	55175.8
487.057	45632.3
491.051	31742.8
495.043	21399.2
499.032	14876.5
503.02	10162.8
507.007	7387.11
510.991	5461.04
514.973	4142.13
518.954	3120.82
522.933	2556.63
526.91	2140.57
530.885	1635.63
534.858	1305.83
538.829	1059.47
542.799	809.606
546.766	605.873
550.732	438.528
554.696	253.424
558.658	144.308
562.618	12.098
566.576	34.429
570.533	23.866
574.488	78.39
578.44	56.377
582.391	226.624
586.341	164.936
590.288	53.103
594.233	101.389
598.177	26.071
602.119	44.26
606.059	53.469
609.997	80.456
613.933	184.697
617.868	157.3
621.801	195.686
625.731	100.091
629.66	58.515
633.588	121.954
637.513	173.97
641.437	173.873
645.358	183.345
649.278	236.033
653.196	319.412
657.113	436.042
661.027	471.89
664.94	602.179
668.851	880.35
672.76	915.633
676.667	823.033
680.572	569.47
684.476	393.277
688.378	193.522
692.278	123.36
696.176	71.133
700.072	20.961
703.967	46.029
707.86	69.053
711.751	66.212
715.64	116.785
719.527	71.661
723.413	57.853
727.297	93.375
731.179	57.923
735.059	38.735
738.937	31.69
742.814	73.202
746.689	111.363
750.562	0.894
754.433	45.997
758.303	19.61
762.17	45.89
766.036	185.076
769.901	206.884
773.763	226.356
777.624	280.401
781.482	393.367
785.339	455.779
789.195	456.074
793.048	356.084
796.9	439.805
800.75	322.238
804.598	242.046
808.445	175.229
812.289	191.78
816.132	143.033
819.973	156.971
823.813	127.596
827.65	116.902
831.486	110.092
835.32	111.551
839.152	117.887
842.983	69.893
846.812	96.568
850.639	152.396
854.464	112.521
858.288	70.638
862.11	29.422
865.93	79.117
869.748	27.781
873.564	19.208
877.379	85.913
881.192	30.461
885.004	66.903
888.813	50.923
892.621	0.807
896.427	2.594
900.232	36.387
904.034	66.599
907.835	103.781
911.634	49.709
915.432	3.552
919.227	37.962
923.021	74.148
926.813	78.448
930.604	50.839
934.393	129.087
938.18	134.196
941.965	162.174
945.749	224.024
949.53	202.754
953.311	234.381
957.089	304.929
960.866	231.168
964.641	297.485
968.414	362.257
972.185	473.758
975.955	605.102
979.723	717.34
983.49	661.391
987.254	790.374
991.017	923.932
994.779	935.628
998.538	1019.57
1002.3	1053.76
1006.05	1082.79
1009.81	1160.42
1013.56	1193.49
1017.31	1220.74
1021.06	1270.55
1024.81	1392.15
1028.55	1633.24
1032.3	1643.84
1036.04	1785.36
1039.78	1985.82
1043.52	2075.4
1047.26	2085.81
1050.99	2239.96
1054.73	2257.5
1058.46	2357.85
1062.19	2466.23
1065.92	2672.7
1069.65	2941.32
1073.37	3223.68
1077.1	3418.12
1080.82	3725.66
1084.54	3843.33
1088.26	4182.97
1091.97	4321.92
1095.69	4385.83
1099.4	4572.07
1103.12	4527.05
1106.83	4355.97
1110.54	4139.15
1114.24	3943.44
1117.95	3745.53
1121.65	3551
1125.35	3062.95
1129.06	2682.13
1132.75	2370.16
1136.45	2062.23
1140.15	1771.33
1143.84	1588.21
1147.53	1375.99
1151.22	1130.31
1154.91	1032.62
1158.6	758.44
1162.28	769.126
1165.97	581.071
1169.65	539.984
1173.33	492.063
1177.01	299.135
1180.69	189.716
1184.36	228.146
1188.04	149.831
1191.71	191.845
1195.38	113.749
1199.05	132.861
1202.71	86.298
1206.38	54.813
1210.04	160.477
1213.71	20.784
1217.37	53.054
1221.03	83.057
1224.68	74.108
1228.34	67.999
1231.99	71.701
1235.65	7.463
1239.3	25.153
1242.95	96.59
1246.59	108.846
1250.24	56.933
1253.88	19.116
1257.53	33.193
1261.17	11.272
1264.81	9.778
1268.45	54.909
1272.08	20.105
1275.72	47.753
1279.35	30.865
1282.98	23.639
1286.61	5.77
1290.24	4.09
1293.87	48.596
1297.49	57.581
1301.11	43.572
1304.73	20.638
1308.36	22.915
1311.97	21.73
1315.59	25.384
1319.2	77.292
1322.82	74.993
1326.43	51.497
1330.04	10.218
1333.65	127.838
1337.26	68.723
1340.86	49.482
1344.47	68.987
1348.07	106.559
1351.67	47.212
1355.27	47.688
1358.87	98.837
1362.46	145.725
1366.06	64.566
1369.65	101.028
1373.24	204.99
1376.83	150.492
1380.42	163.12
1384	244.609
1387.59	257.212
1391.17	157.827
1394.75	219.708
1398.33	109.06
1401.91	151.635
1405.49	81.128
1409.06	171.831
1412.64	162.121
1416.21	176.955
1419.78	198.639
1423.35	87.397
1426.91	165.338
1430.48	86.425
1434.05	94.815
1437.61	74.029
1441.17	135.427
1444.73	190.056
1448.29	193.964
1451.84	138.734
1455.4	121.533
1458.95	186.195
1462.5	114.37
1466.05	269.262
1469.6	229.929
1473.15	144.922
1476.69	112.199
1480.24	210.781
1483.78	89.646
1487.32	197.504
1490.86	126.555
1494.39	72.005
1497.93	182.071
1501.46	39.66
1505	41.848
1508.53	30.807
1512.06	21.286
1515.59	4.248
1519.11	60.34
