Measurement: Raman, 780 nm, unoriented, Raman Data Processed
Mineral: Anapaite
Rruff sample: R050510
Ideal chemistry: Ca_2_Fe^2+^(PO_4_)_2_4H_2_O
Locality: Prats-Sampsor, Spain
Source: University of Arizona Mineral Museum
Description: Pale green tabular crystals lining fractured rock
Measured chemistry: Ca_2.00_(Fe^2+^_0.93_Mn_0.07_)_Σ=1_(P_1.00_O_4_)_2_·4H_2_O; (lighter phase)
Raman shift (cm-1)	intensity
100.573	0
103.948	3.33106
107.323	29.1886
110.697	70.9926
114.072	16.9951
117.447	9.59302
120.822	5.23474
124.197	5.99176
127.572	5.50897
130.946	22.2252
134.321	23.3142
137.696	41.2427
141.071	44.165
144.446	73.5523
147.82	162.269
151.195	94.5787
154.57	88.3718
157.945	16.4821
161.32	8.10718
164.694	10.2532
168.069	16.5544
171.444	16.1382
174.819	5.3244
178.194	6.57104
181.569	19.6312
184.943	33.6272
188.318	9.49268
191.693	16.2282
195.068	27.8567
198.443	76.2479
201.817	87.394
205.192	45.1848
208.567	28.3225
211.942	37.0832
215.317	67.9593
218.691	91.7479
222.066	77.7452
225.441	49.3584
228.816	46.9794
232.191	43.1008
235.566	26.0409
238.94	31.6021
242.315	37.1207
245.69	23.9951
249.065	5.70416
252.44	0.875122
255.815	1.75659
259.189	2.88995
262.564	8.24316
265.939	12.3424
269.314	14.0095
272.689	5.69391
276.063	23.069
279.438	31.9765
282.813	46.2835
286.188	57.8008
289.563	41.6008
292.938	31.5911
296.312	27.1119
299.687	19.817
303.062	9.28644
306.437	4.15662
309.812	4.99793
313.186	10.3252
316.561	12.6345
319.936	18.6169
323.311	27.6098
326.686	46.0546
330.06	58.2698
333.435	60.7612
336.81	52.8258
340.185	50.4982
343.56	47.089
346.935	55.4067
350.309	58.0754
353.684	44.0607
357.059	28.0867
360.434	12.0092
363.809	7.92395
367.183	0.52301
370.558	2.28095
373.933	2.80664
377.308	0.44043
380.683	2.77344
384.058	1.44153
387.432	0.521973
390.807	1.24066
394.182	3.54956
397.557	8.06848
400.932	11.6066
404.306	17.0311
407.681	21.622
411.056	30.4653
414.431	42.1695
417.806	72.4877
421.18	93.795
424.555	136.199
427.93	198.048
431.305	235.15
434.68	216.485
438.055	195.647
441.429	193.458
444.804	169.307
448.179	127.406
451.554	81.9365
454.929	52.8034
458.303	40.8112
461.678	28.4608
465.053	24.8699
468.428	18.5167
471.803	14.7444
475.178	11.9237
478.552	11.5536
481.927	6.1712
485.302	12.4007
488.677	7.77551
492.052	6.79425
495.426	4.78095
498.801	1.30963
502.176	2.55347
505.551	2.50787
508.926	0.766785
512.301	2.60278
515.675	2.28101
519.05	0.934631
522.425	2.24237
525.8	5.2251
529.175	5.17877
532.549	9.44965
535.924	7.55786
539.299	14.1217
542.674	37.3825
546.049	44.0973
549.423	15.7872
552.798	6.70282
556.173	2.17438
559.548	8.58508
562.923	9.04401
566.298	18.8315
569.672	33.2779
573.047	47.7576
576.422	63.1763
579.797	68.1025
583.172	58.1528
586.546	32.266
589.921	17.1274
593.296	7.32397
596.671	5.65607
600.046	5.4491
603.42	15.2087
606.795	19.088
610.17	28.993
613.545	39.2906
616.92	59.321
620.295	69.3898
623.669	56.064
627.044	28.4592
630.419	19.0461
633.794	13.0908
637.169	13.8252
640.543	13.2646
643.918	13.6071
647.293	20.8644
650.668	22.6032
654.043	20.2666
657.418	10.7602
660.792	5.78363
664.167	4.74286
667.542	2.08106
670.917	3.14832
674.292	1.39746
677.667	1.02142
681.041	1.70831
684.416	3.51257
687.791	0.290039
691.166	0.501343
694.541	1.70184
697.915	0.80957
701.29	1.67358
704.665	0.295349
708.04	0.483948
711.415	3.15662
714.789	3.07135
718.164	0.434692
721.539	4.49829
724.914	0.317322
728.289	7.146
731.664	3.12982
735.038	4.35144
738.413	3.08301
741.788	5.4267
745.163	0.086182
748.538	5.79974
751.913	3.98126
755.287	2.56964
758.662	4.41577
762.037	1.38489
765.412	2.8739
768.787	7.75092
772.161	9.22491
775.536	6.01068
778.911	9.40479
782.286	8.69586
785.661	8.05774
789.035	2.4956
792.41	12.8223
795.785	7.16815
799.16	3.52991
802.535	7.29486
805.909	4.69153
809.284	1.62921
812.659	3.34528
816.034	5.65362
819.409	5.20038
822.784	4.48859
826.158	2.52301
829.533	5.60352
832.908	2.10809
836.283	2.63592
839.658	0.959229
843.033	6.73492
846.407	2.50153
849.782	0.315552
853.157	5.79889
856.532	0.707581
859.907	0.509888
863.281	0.739197
866.656	2.0954
870.031	1.1524
873.406	0.164063
876.781	2.6496
880.155	0.547791
883.53	0.145813
886.905	7.11511
890.28	2.40851
893.655	13.5134
897.03	14.9199
900.404	28.1401
903.779	36.2472
907.154	46.4225
910.529	66.5862
913.904	95.4321
917.278	118.275
920.653	166.956
924.028	210.794
927.403	283.38
930.778	377.754
934.153	475.986
937.527	566.966
940.902	593.804
944.277	495.861
947.652	345.778
951.027	254.721
954.401	217.773
957.776	209.924
961.151	216.32
964.526	195.46
967.901	122.487
971.275	61.6271
974.65	29.8133
978.025	16.5279
981.4	12.0868
984.775	15.7583
988.15	21.3057
991.524	20.512
994.899	28.8522
998.274	19.6026
1001.65	7.80279
1005.02	3.3269
1008.4	0.526978
1011.77	3.61102
1015.15	0.626221
1018.52	0.013733
1021.9	0.85968
1025.27	8.69751
1028.65	10.5326
1032.02	19.1867
1035.4	20.9895
1038.77	21.7153
1042.15	13.6553
1045.52	12.7663
1048.9	7.92841
1052.27	16.4045
1055.65	30.6255
1059.02	44.3383
1062.4	67.7636
1065.77	87.5444
1069.14	104.484
1072.52	68.8387
1075.89	34.8031
1079.27	18.2691
1082.64	14.6655
1086.02	6.50836
1089.39	7.55316
1092.77	3.4574
1096.14	12.0678
1099.52	0.063232
1102.89	8.37122
1106.27	1.55804
1109.64	1.00885
1113.02	2.69855
1116.39	3.37415
1119.77	1.10461
1123.14	5.22192
1126.52	10.1786
1129.89	9.89447
1133.27	1.96265
1136.64	3.53345
1140.02	7.93304
1143.39	8.03388
1146.77	1.2287
1150.14	4.0404
1153.52	2.03369
1156.89	3.73144
1160.27	3.72076
1163.64	4.98273
1167.02	5.55304
1170.39	8.24353
1173.77	6.56726
1177.14	3.55341
1180.51	2.20526
1183.89	3.69006
1187.26	6.5556
1190.64	3.82391
1194.01	2.20325
1197.39	3.12299
1200.76	7.53259
1204.14	5.9585
1207.51	2.77472
1210.89	3.84222
1214.26	4.76379
1217.64	1.24951
1221.01	3.00128
1224.39	0.227905
1227.76	8.60675
1231.14	3.49329
1234.51	2.74158
1237.89	8.42248
1241.26	0.47345
1244.64	4.74799
1248.01	6.38196
1251.38	2.98004
1254.76	4.83447
1258.13	0.125183
1261.51	4.96979
1264.88	11.6338
1268.26	9.18854
1271.63	6.49243
1275.01	4.89868
1278.38	13.6773
1281.76	0.095825
1285.13	3.4707
