Measurement: Raman, 532 nm, unoriented, Raman Data Processed
Mineral: Anatase
Rruff sample: R070582
Ideal chemistry: TiO_2_
Locality: Asker, Akershus, Norway
Source: James Shigley
Description: Dark dipyramidal crystals on albite matrix
Raman shift (cm-1)	intensity
119.757	0
123.131	1641.23
126.506	10094.7
129.881	20898.3
133.256	30733
136.631	42110.8
140.006	56307.3
143.38	72186.2
146.755	62802.4
150.13	34557.1
153.505	16874.4
156.88	8061.56
160.254	3852.44
163.629	1721.6
167.004	648.434
170.379	36.5571
173.754	281.78
177.129	472.408
180.503	448.983
183.878	261.416
187.253	59.163
190.628	156.328
194.002	557.355
197.377	1297.67
200.752	1017.36
204.127	586.051
207.502	535.848
210.877	576.827
214.251	635.581
217.626	726.867
221.001	797.755
224.376	862.901
227.751	931.778
231.125	934.586
234.5	836.174
237.875	618.905
241.25	485.554
244.625	377.564
248	347.906
251.374	349.856
254.749	379.023
258.124	395.333
261.499	396.968
264.874	370.168
268.248	314.966
271.623	287.19
274.998	249.608
278.373	214.979
281.748	188.729
285.123	162.916
288.497	141.166
291.872	116.037
295.247	84.9865
298.622	98.0427
301.997	74.8355
305.371	64.0782
308.746	41.7219
312.121	52.5148
315.496	35.7229
318.871	27.5308
322.245	1.34436
325.62	6.20312
328.995	8.71002
332.37	29.9838
335.745	35.7037
339.12	20.674
342.494	29.4318
345.869	7.23743
349.244	21.0128
352.619	79.8339
355.994	131.528
359.368	202.38
362.743	307.88
366.118	438.706
369.493	656.897
372.868	919.212
376.243	1210.6
379.617	1600.49
382.992	1968.71
386.367	2388.41
389.742	2658.98
393.117	2768.03
396.491	2677.13
399.866	2260.38
403.241	1739.45
406.616	1219.25
409.991	844.356
413.365	577.294
416.74	454.295
420.115	301.268
423.49	231.012
426.865	177.286
430.24	120.682
433.614	108.654
436.989	63.7893
440.364	43.7355
443.739	28.5689
447.114	10.6553
450.488	13.7432
453.863	17.9023
457.238	26.4202
460.613	0.795044
463.988	0.705566
467.363	15.2839
470.737	35.5257
474.112	78.4215
477.487	119.775
480.862	166.171
484.237	191.882
487.611	288.515
490.986	383.672
494.361	578.73
497.736	822.976
501.111	1073.34
504.486	1422.47
507.86	1754.8
511.235	2052.97
514.61	2126.17
517.985	1955.26
521.36	1655.87
524.734	1348.04
528.109	1047.92
531.484	805.558
534.859	618.231
538.234	460.009
541.609	336.482
544.983	258.964
548.358	184.523
551.733	101.102
555.108	62.0808
558.482	36.211
561.857	21.2089
565.232	10.3289
568.607	9.47803
571.982	24.9578
575.357	10.6883
578.731	26.8627
582.106	7.03851
585.481	43.5425
588.856	83.5435
592.231	149.677
595.606	236.5
598.98	369.632
602.355	521.254
605.73	742.064
609.105	1084.22
612.48	1504.68
615.854	2121.34
619.229	2987.18
622.604	4110.33
625.979	5333.39
629.354	6729.11
632.729	7918.27
636.103	8341.94
639.478	8202.69
642.853	7201.9
646.228	5948.78
649.602	4671.81
652.977	3587.96
656.352	2750.07
659.727	2113.75
663.102	1639.24
666.477	1251.07
669.851	944.323
673.226	758.64
676.601	590.487
679.976	467.89
683.351	356.249
686.726	272.738
690.1	223.362
693.475	166.095
696.85	133.575
700.225	111.137
703.6	81.1679
706.974	44.054
710.349	26.7592
713.724	30.2547
717.099	10.1546
720.474	0.22348
723.848	23.8958
727.223	21.6545
730.598	12.5947
733.973	17.0068
737.348	11.9882
740.722	9.41296
744.097	3.92984
747.472	7.97812
750.847	22.5984
754.222	41.038
757.597	26.4875
760.971	42.2102
764.346	63.3514
767.721	78.1258
771.096	77.307
774.471	108.107
777.846	134.655
781.22	143.296
784.595	152.603
787.97	153.434
791.345	155.408
794.72	160.171
798.094	148.101
801.469	140.96
804.844	144.421
808.219	117.564
811.594	112.329
814.968	98.4607
818.343	88.7538
821.718	83.2245
825.093	75.5261
828.468	68.6733
831.842	65.1307
835.217	57.5741
838.592	55.3172
841.967	60.3032
845.342	59.1009
848.717	47.033
852.091	53.0055
855.466	36.7442
858.841	47.1271
862.216	39.1607
865.591	30.1816
868.966	35.69
872.34	28.0856
875.715	27.5751
879.09	8.44951
882.465	20.5975
885.84	6.65715
889.214	2.2791
892.589	0.883163
895.964	8.36972
899.339	1.28163
902.714	0.031403
906.088	5.33598
909.463	5.02338
912.838	3.5307
916.213	0.617203
919.588	3.97711
922.962	3.03915
926.337	0.904129
929.712	4.56696
933.087	3.26439
936.462	3.5358
939.837	12.8447
943.211	9.59499
946.586	11.7978
949.961	2.03309
953.336	7.85544
956.711	12.4205
960.085	14.5908
963.46	8.24711
966.835	12.1077
970.21	1.45657
973.585	8.97534
976.96	1.03754
980.334	5.68084
983.709	3.57873
987.084	3.11449
990.459	5.17526
993.834	7.21911
997.208	1.93579
1000.58	3.6395
1003.96	1.52341
1007.33	0.309189
1010.71	9.47285
1014.08	4.64262
1017.46	11.1554
1020.83	10.6287
1024.21	9.16368
1027.58	7.04526
1030.96	16.0514
1034.33	12.5755
1037.71	8.65284
1041.08	13.5345
1044.46	8.254
1047.83	13.8678
1051.2	9.13591
1054.58	0.185883
1057.95	0.902344
1061.33	11.1402
1064.7	7.61781
1068.08	7.23334
1071.45	0.635254
1074.83	6.25632
1078.2	5.52921
1081.58	8.0815
1084.95	4.14945
1088.33	5.82552
1091.7	1.33613
1095.08	6.3239
1098.45	9.746
1101.83	2.28531
1105.2	13.9002
1108.58	12.2802
1111.95	4.69881
1115.33	9.86522
1118.7	1.80673
1122.08	6.13039
1125.45	6.25133
1128.83	9.78867
1132.2	0.047432
1135.58	8.35505
1138.95	5.19697
1142.33	11.8059
1145.7	14.0837
1149.08	1.07871
1152.45	13.5755
1155.83	4.43291
1159.2	5.07764
1162.57	7.97778
1165.95	1.24754
1169.32	1.44055
1172.7	3.49416
1176.07	1.15949
1179.45	16.9553
1182.82	11.1883
1186.2	12.4695
1189.57	7.20615
1192.95	11.4858
1196.32	1.55331
1199.7	13.9044
1203.07	12.0994
1206.45	8.11458
1209.82	8.04868
1213.2	5.6003
1216.57	10.2532
1219.95	12.0489
1223.32	6.52895
1226.7	18.0239
1230.07	11.2252
1233.44	9.26172
1236.82	5.64315
1240.19	5.05529
1243.57	14.1071
1246.94	13.302
1250.32	15.8146
1253.69	10.8882
1257.07	7.77096
1260.44	7.0453
1263.82	19.0545
1267.19	2.95477
1270.57	4.62076
1273.94	5.08242
1277.32	5.3613
1280.69	6.80212
1284.07	8.69719
