Measurement: Raman, 780 nm, unoriented, Raman Data Processed
Mineral: Anatase
Rruff sample: R070582
Ideal chemistry: TiO_2_
Locality: Asker, Akershus, Norway
Source: James Shigley
Description: Dark dipyramidal crystals on albite matrix
Raman shift (cm-1)	intensity
115.532	0
118.907	348.462
122.282	2721.85
125.657	7785.86
129.032	15275.2
132.407	22788.2
135.781	31090.7
139.156	40666.1
142.531	44375.4
145.906	32436.8
149.281	17603.6
152.655	8609.17
156.03	4300.06
159.405	2073.04
162.78	984.96
166.155	381.725
169.53	27.6582
172.904	174.835
176.279	276.767
179.654	191.556
183.029	69.3109
186.404	86.2696
189.779	253.535
193.153	621.771
196.528	823.552
199.903	542.29
203.278	399.615
206.653	372.835
210.027	402.56
213.402	443.531
216.777	475.797
220.152	503.587
223.527	547.346
226.901	576.045
230.276	542.713
233.651	423.062
237.026	302.602
240.401	205.813
243.776	145.04
247.15	169.101
250.525	145.784
253.9	163.508
257.275	166.529
260.65	163.496
264.024	146.987
267.399	127.661
270.774	100.684
274.149	87.0477
277.524	86.4011
280.899	65.9548
284.273	65.928
287.648	27.6173
291.023	37.1535
294.398	21.7386
297.773	16.7967
301.147	19.1669
304.522	15.4702
307.897	17.7986
311.272	28.4947
314.647	23.5509
318.022	7.3082
321.396	4.79794
324.771	7.16379
328.146	5.72778
331.521	21.8081
334.896	29.436
338.271	32.8676
341.645	1.71732
345.02	22.4419
348.395	59.6418
351.77	87.9153
355.145	145.766
358.519	228.869
361.894	300.211
365.269	454.078
368.644	640.835
372.019	856.403
375.394	1148.48
378.768	1496.95
382.143	1904.11
385.518	2194.46
388.893	2434.16
392.267	2470.5
395.642	2241.03
399.017	1815.57
402.392	1358.79
405.767	949.321
409.142	686.345
412.516	503.196
415.891	352.239
419.266	268.231
422.641	180.899
426.016	137.241
429.39	103.355
432.765	54.9083
436.14	50.4693
439.515	21.6882
442.89	5.37631
446.265	9.49301
449.639	2.9307
453.014	12.547
456.389	6.28293
459.764	3.25024
463.139	12.2275
466.514	29.5508
469.888	24.7797
473.263	60.9828
476.638	102.971
480.013	133.49
483.388	193.213
486.762	250.697
490.137	367.356
493.512	518.94
496.887	757.254
500.262	991.242
503.637	1262.78
507.011	1539.13
510.386	1673.03
513.761	1608.14
517.136	1393.68
520.511	1141.03
523.885	886.827
527.26	663.043
530.635	530.909
534.01	394.166
537.385	294.073
540.76	237.043
544.134	159.853
547.509	121.281
550.884	77.044
554.259	58.2585
557.634	21.2707
561.008	11.1238
564.383	11.1516
567.758	10.9107
571.133	23.0252
574.508	14.5962
577.883	7.70254
581.257	2.86401
584.632	20.9765
588.007	36.6743
591.382	77.9724
594.757	119.985
598.131	161.278
601.506	257.769
604.881	371.454
608.256	506.715
611.631	745.449
615.006	1017.06
618.38	1451.32
621.755	1965.46
625.13	2494.71
628.505	3095.52
631.88	3539.8
635.255	3587.48
638.629	3284.54
642.004	2799
645.379	2244.77
648.754	1739.62
652.129	1349.33
655.503	1006.18
658.878	797.093
662.253	609.59
665.628	466.717
669.003	387.168
672.377	291.82
675.752	209.073
679.127	163.253
682.502	135.856
685.877	111.919
689.251	83.1137
692.626	74.9937
696.001	42.3751
699.376	37.4575
702.751	26.6393
706.126	26.3381
709.5	0.088287
712.875	2.91591
716.25	1.21597
719.625	9.53261
723	0.069092
726.375	2.95729
729.749	1.89258
733.124	2.94611
736.499	9.09337
739.874	6.60191
743.249	1.59766
746.623	8.47896
749.998	16.3466
753.373	32.7188
756.748	11.7725
760.123	44.8112
763.497	33.2918
766.872	44.2365
770.247	50.8195
773.622	59.3393
776.997	56.4062
780.372	65.8525
783.746	61.3637
787.121	63.3008
790.496	77.8248
793.871	59.9368
797.246	83.0929
800.62	71.0892
803.995	61.261
807.37	58.6929
810.745	63.9465
814.12	46.5654
817.495	49.4688
820.869	42.3957
824.244	44.6949
827.619	42.4597
830.994	28.7797
834.369	30.5513
837.744	25.9947
841.118	23.141
844.493	14.2539
847.868	19.7643
851.243	23.7162
854.618	15.2008
857.992	12.1334
861.367	10.527
864.742	6.56463
868.117	12.2197
871.492	5.96398
874.866	6.4258
878.241	1.64637
881.616	4.25308
884.991	0.719933
888.366	0.307945
891.741	1.48592
895.115	1.76222
898.49	1.03896
901.865	2.29122
905.24	2.57229
908.615	0.818817
911.99	0.804985
915.364	4.11956
918.739	3.67878
922.114	5.09537
925.489	1.94894
928.864	5.8755
932.238	0.882919
935.613	11.6459
938.988	5.83869
942.363	10.3608
945.738	7.50997
949.112	14.0017
952.487	5.8834
955.862	12.4805
959.237	5.85781
962.612	5.35064
965.987	6.27953
969.361	1.08581
972.736	3.04351
976.111	3.49468
979.486	11.5201
982.861	2.69511
986.236	5.40883
989.61	5.65272
992.985	7.42033
996.36	3.42485
999.735	6.65813
1003.11	8.63863
1006.48	0.092175
1009.86	10.343
1013.23	2.16081
1016.61	5.66722
1019.98	3.62967
1023.36	6.54847
1026.73	1.93312
1030.11	6.48935
1033.48	8.46179
1036.86	1.47617
1040.23	0.641888
1043.61	3.17854
1046.98	2.74303
1050.36	8.36867
1053.73	1.67517
1057.11	10.3853
1060.48	7.06622
1063.86	3.68007
1067.23	9.89438
1070.61	4.17863
1073.98	8.95372
1077.36	10.8075
1080.73	17.3969
1084.11	8.23187
1087.48	12.5953
1090.86	7.92595
1094.23	7.35014
1097.6	17.4789
1100.98	0.887814
1104.35	6.42202
1107.73	10.8542
1111.1	0.937969
1114.48	3.80715
1117.85	2.51187
1121.23	8.74951
1124.6	10.6903
1127.98	13.0926
1131.35	0.343624
1134.73	6.66934
1138.1	12.3933
1141.48	6.39434
1144.85	0.604139
1148.23	4.25257
1151.6	2.14259
1154.98	11.9552
1158.35	5.06541
1161.73	6.87288
1165.1	4.97372
1168.48	3.93036
1171.85	7.53274
1175.22	3.4627
1178.6	11.2519
1181.97	9.62918
1185.35	0.888025
1188.72	11.9953
1192.1	2.58584
1195.47	6.3663
1198.85	2.752
1202.22	7.98596
1205.6	10.385
1208.97	7.9106
1212.35	9.74081
1215.72	6.04829
1219.1	3.46879
1222.47	4.16345
1225.85	7.44609
1229.22	2.60523
1232.6	1.98989
1235.97	1.15442
1239.35	4.52526
1242.72	5.59259
1246.1	6.2253
1249.47	2.72635
1252.85	0.279236
1256.22	2.98885
1259.6	2.55399
1262.97	1.57768
1266.35	5.29853
1269.72	3.95254
1273.1	3.49741
1276.47	8.75068
1279.85	5.69083
