Measurement: Raman, 780 nm, unoriented, Raman Data Processed
Mineral: Anatase
Rruff sample: R120013
Ideal chemistry: TiO_2_
Locality: Governor's Lake pegmatite, Halifax County, Nova Scotia, Canada
Source: Donald Doell
Description: Black tabular crystals associated with metatorbernite R120014
Raman shift (cm-1)	intensity
103.174	0
106.549	5.52258
109.924	0.879333
113.299	21.6415
116.674	69.007
120.048	141.429
123.423	262.644
126.798	439.227
130.173	679.261
133.548	917.017
136.923	1194.45
140.297	1542.8
143.672	1973.5
147.047	2311.46
150.422	2112.24
153.797	1429.2
157.171	810.557
160.546	444.003
163.921	248.708
167.296	140.456
170.671	78.7661
174.046	39.4334
177.42	15.081
180.795	2.36929
184.17	3.03436
187.545	4.45106
190.92	5.66217
194.294	2.59441
197.669	17.7002
201.044	39.2531
204.419	33.1543
207.794	12.1665
211.168	3.63742
214.543	3.37564
217.918	3.83015
221.293	5.25119
224.668	6.03345
228.042	7.63393
231.417	10.1772
234.792	11.1791
238.167	14.0187
241.542	13.0877
244.917	11.9898
248.291	10.0475
251.666	8.94432
255.041	7.73447
258.416	5.76898
261.791	6.76224
265.166	7.2865
268.54	7.53931
271.915	5.46892
275.29	3.07024
278.665	2.19113
282.04	1.30562
285.414	0.32692
288.789	0.2173
292.164	0.556641
295.539	1.30833
298.914	0.763702
302.288	1.92967
305.663	1.20074
309.038	0.16861
312.413	1.84215
315.788	1.41461
319.163	3.04578
322.537	3.73726
325.912	5.13307
329.287	4.76596
332.662	4.71886
336.037	6.00967
339.411	6.7886
342.786	10.9004
346.161	15.5726
349.536	21.8147
352.911	29.009
356.286	40.5012
359.66	53.7632
363.035	69.7349
366.41	92.0982
369.785	120.434
373.16	154.758
376.534	190.181
379.909	230.174
383.284	266.904
386.659	296.912
390.034	313.556
393.409	307.572
396.783	282.832
400.158	236.15
403.533	188.745
406.908	144.055
410.283	108.358
413.658	78.551
417.032	58.7527
420.407	41.7032
423.782	28.4343
427.157	20.1378
430.532	14.1534
433.906	9.38975
437.281	4.23964
440.656	1.95894
444.031	0.353638
447.406	0.978378
450.781	1.65153
454.155	2.03618
457.53	0.328003
460.905	0.291504
464.28	2.38286
467.654	5.33855
471.029	8.37479
474.404	11.9844
477.779	18.6024
481.154	26.2129
484.529	34.8593
487.903	46.7073
491.278	63.5648
494.653	82.2334
498.028	103.99
501.403	125.196
504.777	145.177
508.152	157.629
511.527	159.61
514.902	148.913
518.277	130.786
521.652	108.733
525.026	90.6886
528.401	71.042
531.776	59.1539
535.151	47.5671
538.526	37.0414
541.9	29.55
545.275	22.7453
548.65	17.7314
552.025	13.9457
555.4	9.96918
558.775	6.84297
562.149	4.81406
565.524	0.825424
568.899	0.837082
572.274	0.738335
575.649	1.39539
579.024	0.106796
582.398	1.18713
585.773	1.03771
589.148	3.06099
592.523	6.43655
595.898	10.2225
599.272	17.1785
602.647	23.6699
606.022	33.3663
609.397	47.2812
612.772	63.8878
616.146	85.5811
619.521	108.584
622.896	135.991
626.271	163.05
629.646	184.084
633.021	196.557
636.395	193.378
639.77	179.107
643.145	156.144
646.52	133.243
649.895	106.965
653.269	88.5625
656.644	68.4139
660.019	54.3873
663.394	43.8929
666.769	35.151
670.144	27.7188
673.518	22.1135
676.893	17.8154
680.268	14.8414
683.643	10.1981
687.018	8.80186
690.393	7.48615
693.767	5.68673
697.142	4.03258
700.517	4.529
703.892	3.06856
707.266	2.25958
710.641	0.203651
714.016	1.0252
717.391	0.028831
720.766	0.173882
724.141	1.00391
727.515	0.375786
730.89	0.065125
734.265	0.19619
737.64	0.237885
741.015	0.138069
744.389	0.504303
747.764	0.095924
751.139	1.48747
754.514	1.24417
757.889	1.76997
761.264	2.33788
764.638	3.01832
768.013	3.6079
771.388	4.25761
774.763	5.8823
778.138	6.3268
781.513	7.7864
784.887	8.04155
788.262	7.68217
791.637	8.41993
795.012	8.34291
798.387	8.60496
801.761	8.29875
805.136	8.29037
808.511	8.22208
811.886	7.63748
815.261	7.22596
818.635	7.55325
822.01	7.9426
825.385	7.52451
828.76	6.68179
832.135	6.3232
835.51	6.31843
838.884	7.27447
842.259	6.42671
845.634	6.51926
849.009	6.77632
852.384	6.16669
855.759	5.8362
859.133	6.36756
862.508	5.83553
865.883	6.46312
869.258	5.24825
872.633	5.09998
876.007	5.74752
879.382	3.48092
882.757	3.37326
886.132	2.99985
889.507	2.17613
892.881	2.49534
896.256	1.66756
899.631	0.061485
903.006	0.845592
906.381	0.337341
909.756	0.043377
913.13	0.039433
916.505	0.682068
919.88	0.013432
923.255	0.249985
926.63	0.071339
930.005	0.613518
933.379	0.229027
936.754	0.864887
940.129	0.073174
943.504	0.165524
946.879	0.325367
950.253	1.03297
953.628	0.866219
957.003	1.09921
960.378	1.18531
963.753	1.21615
967.127	1.52636
970.502	1.25864
973.877	0.497303
977.252	1.1783
980.627	1.17541
984.001	0.943268
987.376	0.705631
990.751	1.85286
994.126	0.522827
997.501	1.00402
1000.88	2.44067
1004.25	0.11718
1007.62	0.777176
1011	1.51718
1014.38	1.82873
1017.75	0.483742
1021.12	1.9612
1024.5	1.51057
1027.87	1.55283
1031.25	1.87708
1034.62	1.68098
1038	2.01864
1041.37	1.62932
1044.75	2.09161
1048.12	2.231
1051.5	1.60129
1054.87	2.23463
1058.25	0.62294
1061.62	2.01414
1065	0.150593
1068.37	0.878357
1071.75	0.845474
1075.12	0.595951
1078.5	0.048027
1081.87	1.90681
1085.25	1.00883
1088.62	1.00886
1092	0.038589
1095.37	0.558083
1098.74	0.001072
1102.12	0.869823
1105.49	0.070656
1108.87	0.861717
1112.24	0.477962
1115.62	0.149773
1118.99	0.429344
1122.37	0.411236
1125.74	0.640064
1129.12	0.588093
1132.49	1.45689
1135.87	0.107697
1139.24	1.11489
1142.62	0.880676
1145.99	0.559063
1149.37	1.1451
1152.74	0.12183
1156.12	1.71883
1159.49	1.55893
1162.87	0.659615
1166.24	0.879807
1169.62	1.17347
1172.99	1.31105
1176.37	0.991932
1179.74	1.33747
1183.12	1.13134
1186.49	1.02554
1189.87	0.522198
1193.24	1.25283
1196.62	2.04457
1199.99	0.43346
1203.37	1.9409
1206.74	1.10263
1210.11	1.32352
1213.49	0.441074
1216.86	1.9624
1220.24	1.99827
1223.61	1.22332
1226.99	1.06959
1230.36	1.00125
1233.74	0.163849
1237.11	0.460899
1240.49	0.62458
1243.86	0.849339
1247.24	1.1667
1250.61	0.100952
1253.99	0.468014
1257.36	0.807343
1260.74	0.817162
1264.11	0.673233
1267.49	0.312943
1270.86	0.550644
1274.24	0.618713
1277.61	0.029583
1280.98	0.534992
1284.36	0.069191
