Measurement: Raman, 532 nm, unoriented, Raman Data Processed
Mineral: Anatase
Rruff sample: R060277
Ideal chemistry: TiO_2_
Locality: Taftan, near Dalbandi, Baluchistan Province, Pakistan
Source: Herb Obodda
Description: Dark brown tetragonal tabular crystals
Measured chemistry: Ti_1.00_O_2_
Raman shift (cm-1)	intensity
90.4922	0
93.867	13.9085
97.2418	40.2462
100.617	87.1957
103.992	135.546
107.366	268.763
110.741	152.163
114.116	51.3346
117.491	35.0617
120.865	86.8045
124.24	147.958
127.615	1440.41
130.99	4152.07
134.365	9378.48
137.74	21069.4
141.114	38611.1
144.489	42444.2
147.864	27247.6
151.239	18455
154.614	13281.4
157.988	9496.52
161.363	7445.14
164.738	6467.05
168.113	5510.66
171.488	4722.43
174.863	3965.74
178.237	3506.98
181.612	3219.73
184.987	2998.87
188.362	2924.5
191.737	3109
195.112	3928.04
198.486	3470.7
201.861	2132.55
205.236	1793.33
208.611	1692.49
211.986	1597.16
215.36	1553.23
218.735	1511.36
222.11	1407.45
225.485	1262.64
228.86	1066.21
232.234	913.08
235.609	733.522
238.984	595.411
242.359	442.391
245.734	312.133
249.109	185.343
252.483	98.9739
255.858	18.4731
259.233	65.4353
262.608	127.935
265.983	173.41
269.358	196.016
272.732	245.708
276.107	160.122
279.482	5.73926
282.857	246.296
286.232	642.951
289.606	1108.08
292.981	1551.62
296.356	1903.99
299.731	2189.07
303.106	2321.51
306.481	2448.72
309.855	2501.96
313.23	2396.83
316.605	2153.43
319.98	1761.21
323.355	1268.3
326.729	784.056
330.104	395.634
333.479	131.199
336.854	122.502
340.229	261.965
343.603	607.455
346.978	1096.44
350.353	1858.56
353.728	2926.15
357.103	4404.94
360.478	6524.62
363.852	9687.39
367.227	14300
370.602	20957.6
373.977	30660.9
377.352	44291.9
380.726	62757.7
384.101	85613.5
387.476	111304
390.851	136119
394.226	152418
397.601	149288
400.975	122039
404.35	85868.1
407.725	56425.1
411.1	36873
414.475	24724.4
417.849	16883.3
421.224	11728.7
424.599	8191.44
427.974	5558.92
431.349	3536.42
434.724	2112.63
438.098	1241.79
441.473	703.104
444.848	292.108
448.223	17.3584
451.598	290.438
454.972	443.991
458.347	496.624
461.722	339.903
465.097	51.2832
468.472	595.823
471.846	1372.32
475.221	2403.71
478.596	3703.05
481.971	5481.78
485.346	7826.73
488.721	11122.7
492.095	15937.8
495.47	23206
498.845	34044.6
502.22	49013.1
505.595	69194.3
508.969	93214.4
512.344	113208
515.719	115571
519.094	102583
522.469	83332.4
525.844	64295.1
529.218	48691.3
532.593	37025.3
535.968	28479.9
539.343	22034.8
542.718	16994.6
546.092	13105.2
549.467	10102.1
552.842	7835.05
556.217	6033.88
559.592	4655.1
562.967	3597.4
566.341	2791.44
569.716	2110.48
573.091	1562.7
576.466	1053.22
579.841	655.59
583.216	352.331
586.59	78.9853
589.965	126.834
593.34	249.034
596.715	283.237
600.09	164.648
603.464	11.2881
606.839	314.584
610.214	781.971
613.589	1428.12
616.964	2340.54
620.338	3700.47
623.713	5547.99
627.088	7886.79
630.463	10542.7
633.838	12904.8
637.212	13818.3
640.587	12432.3
643.962	9642.51
647.337	6874.28
650.712	4655.21
654.087	3062.55
657.461	1911.82
660.836	1190.42
664.211	699.016
667.586	425.252
670.961	315.008
674.335	277.319
677.71	325.234
681.085	466.957
684.46	627.965
687.835	789.382
691.21	972.043
694.584	1136.78
697.959	1188.9
701.334	1106.86
704.709	886.953
708.084	637.738
711.458	407.95
714.833	257.407
718.208	106.875
721.583	28.8765
724.958	35.1992
728.332	83.1365
731.707	94.5298
735.082	98.6343
738.457	77.9744
741.832	53.8223
745.207	72.7122
748.581	163.145
751.956	318.142
755.331	456.897
758.706	641.689
762.081	886.615
765.456	1179.82
768.83	1526.93
772.205	1945.08
775.58	2414.58
778.955	2872.16
782.33	3387.44
785.704	3752.52
789.079	4040.25
792.454	4158.82
795.829	4073.78
799.204	3913.01
802.578	3638.02
805.953	3322.26
809.328	2993.94
812.703	2626.07
816.078	2349.19
819.453	2061.41
822.827	1849.52
826.202	1644.62
829.577	1493.46
832.952	1349.99
836.327	1246.43
839.702	1114.68
843.076	1034.89
846.451	954.163
849.826	870.647
853.201	779.211
856.576	724.099
859.95	642.337
863.325	577.437
866.7	517.997
870.075	438.264
873.45	369.262
876.824	307.896
880.199	224.001
883.574	158.2
886.949	122.882
890.324	64.2769
893.698	33.5251
897.073	3.49756
900.448	3.45898
903.823	28.1206
907.198	31.752
910.573	20.6489
913.947	11.7383
917.322	20.1892
920.697	6.72803
924.072	1.26306
927.447	2.32324
930.822	2.51465
934.196	12.1854
937.571	13.9564
940.946	7.50293
944.321	2.98962
947.696	27.0645
951.07	57.1498
954.445	67.7606
957.82	91.0062
961.195	85.4268
964.57	104.629
967.944	90.3072
971.319	120.053
974.694	151.61
978.069	99.5686
981.444	108.43
984.819	102.13
988.193	105.39
991.568	100.65
994.943	94.0839
998.318	86.698
1001.69	82.683
1005.07	73.7659
1008.44	71.2089
1011.82	69.7726
1015.19	77.2029
1018.57	78.7976
1021.94	80.9362
1025.32	65.6216
1028.69	84.9509
1032.07	72.9616
1035.44	70.7173
1038.82	80.2754
1042.19	71.9581
1045.57	77.7406
1048.94	74.4206
1052.32	72.0586
1055.69	65.0446
1059.07	53.6681
1062.44	59.4879
1065.81	42.5678
1069.19	35.5607
1072.56	24.0236
1075.94	23.0093
1079.31	29.9065
1082.69	4.93762
1086.06	8.21381
1089.44	15.4006
1092.81	0.780579
1096.19	9.73706
1099.56	19.3818
1102.94	27.1098
1106.31	22.4274
1109.69	24.941
1113.06	26.2925
1116.44	42.7386
1119.81	30.9247
1123.19	34.2411
1126.56	19.7579
1129.94	27.2467
1133.31	8.58594
1136.68	3.98956
1140.06	14.019
1143.43	4.51685
1146.81	3.35486
1150.18	1.05658
1153.56	7.40942
1156.93	8.60339
1160.31	11.8305
1163.68	4.82251
1167.06	1.8078
1170.43	4.87091
1173.81	0.977203
1177.18	1.19849
1180.56	0.646088
1183.93	7.08603
1187.31	4.58002
1190.68	16.7786
1194.06	18.3507
1197.43	21.8399
1200.81	19.4587
1204.18	29.5511
1207.56	24.4022
1210.93	13.4179
1214.31	25.0596
1217.68	27.1713
1221.06	19.1248
1224.43	20.4488
1227.81	23.5781
1231.18	38.4614
1234.56	30.6991
1237.93	47.1683
1241.31	54.2612
1244.68	66.3602
1248.05	71.1882
1251.43	76.4627
1254.8	88.4332
1258.18	99.036
1261.55	106.938
1264.93	113.204
1268.3	123.366
1271.68	103.703
1275.05	102.976
1278.43	77.1389
1281.8	45.6677
1285.18	44.1378
1288.55	29.6381
1291.93	19.4707
1295.3	1.09073
1298.68	2.41296
1302.05	6.505
