Measurement: Raman, 532 nm, unoriented, Raman Data Processed
Mineral: Anatase
Rruff sample: R120064
Ideal chemistry: TiO_2_
Locality: East Kemptville Tin mine, East Kemptville, Argyle, Yarmouoth Co., Nova Scotia, Canada
Source: Donald Doell
Description: Black tabular crystals, associated with R120065, parisite-(Ce)
Raman shift (cm-1)	intensity
192.701	0
195.594	28.4198
198.486	48.1548
201.379	19.6065
204.272	1.31778
207.164	0.240936
210.057	0.746124
212.95	0.516541
215.843	0.265656
218.735	3.37146
221.628	6.06308
224.521	10.6967
227.413	11.4228
230.306	12.1082
233.199	12.5417
236.091	11.2942
238.984	11.7264
241.877	8.11264
244.769	4.65729
247.662	3.3732
250.555	0.800598
253.448	1.04486
256.34	0.642242
259.233	0.419403
262.126	0.680542
265.018	1.61963
267.911	0.196747
270.804	1.91632
273.697	0.0159
276.589	0.432281
279.482	1.6962
282.375	0.813995
285.267	2.63357
288.16	3.78656
291.053	0.019073
293.945	4.39694
296.838	6.11749
299.731	9.00092
302.623	10.5188
305.516	12.2513
308.409	12.3109
311.302	10.9367
314.194	14.1112
317.087	7.22638
319.98	6.5676
322.872	4.47205
325.765	1.50891
328.658	0.454132
331.55	3.18301
334.443	2.40472
337.336	1.00208
340.229	7.09253
343.121	11.7134
346.014	21.2914
348.907	35.3521
351.799	53.2084
354.692	76.5963
357.585	107.552
360.478	145.231
363.37	195.493
366.263	265.919
369.156	356.126
372.048	471.162
374.941	618.572
377.834	798.283
380.726	1015.44
383.619	1249.48
386.512	1491.46
389.404	1704.32
392.297	1845.62
395.19	1860.18
398.083	1718.21
400.975	1444.7
403.868	1134.97
406.761	852.067
409.653	630.802
412.546	466.983
415.439	346.532
418.332	259.348
421.224	194.187
424.117	149.503
427.01	116.151
429.902	91.2125
432.795	67.5745
435.688	54.8187
438.58	40.8715
441.473	27.2553
444.366	18.4667
447.259	11.9982
450.151	4.48779
453.044	0.282837
455.937	1.37952
458.829	5.49408
461.722	5.76575
464.615	6.23462
467.507	5.55603
470.4	4.98865
473.293	13.8716
476.185	24.3389
479.078	41.5131
481.971	57.5091
484.864	86.0925
487.756	119.272
490.649	166.054
493.542	226.794
496.434	311.583
499.327	418.395
502.22	551.271
505.113	708.397
508.005	861.986
510.898	964.177
513.791	971.36
516.683	881.661
519.576	761.1
522.469	632.162
525.361	514.571
528.254	413.584
531.147	331.943
534.04	267.507
536.932	212.917
539.825	174.779
542.718	140.01
545.61	109.233
548.503	91.1773
551.396	72.1538
554.288	55.5001
557.181	41.5454
560.074	34.2209
562.967	24.8033
565.859	19.5127
568.752	13.8145
571.645	9.8548
574.537	4.34405
577.43	0.622192
580.323	0.78186
583.216	0.514099
586.108	5.15802
589.001	4.56097
591.894	1.2793
594.786	0.107361
597.679	5.33533
600.572	12.5506
603.464	20.6186
606.357	35.9157
609.25	56.38
612.142	79.7947
615.035	110.414
617.928	154.434
620.821	208.364
623.713	272.586
626.606	350.053
629.499	429.83
632.391	497.992
635.284	534.224
638.177	524.994
641.069	475.295
643.962	397.715
646.855	323.273
649.747	253.45
652.64	199.149
655.533	159.871
658.426	123.934
661.318	99.6995
664.211	80.1705
667.104	61.5568
669.996	51.0047
672.889	36.6082
675.782	32.0316
678.674	26.1505
681.567	25.0821
684.46	19.4414
687.353	18.2423
690.245	15.9387
693.138	14.8513
696.031	13.7498
698.923	12.6823
701.816	8.52609
704.709	7.61664
707.601	5.63373
710.494	5.728
713.387	1.17691
716.28	1.80984
719.172	2.76279
722.065	1.47455
724.958	0.432648
727.85	1.15076
730.743	1.43585
733.636	0.506012
736.529	0.9039
739.421	0.311737
742.314	0.817413
745.207	0.317505
748.099	1.90573
750.992	2.61151
753.885	8.13736
756.777	8.34482
759.67	12.0099
762.563	12.4541
765.456	17.2686
768.348	18.8542
771.241	20.9884
774.134	26.6133
777.026	31.0448
779.919	33.7895
782.812	35.7368
785.704	40.1236
788.597	41.8193
791.49	44.2196
794.383	44.2626
797.275	41.5281
800.168	43.4817
803.061	39.8425
805.953	35.301
808.846	34.823
811.739	32.0352
814.631	29.971
817.524	28.8511
820.417	25.5773
823.309	24.1756
826.202	22.3982
829.095	20.8944
831.988	19.7765
834.88	17.508
837.773	17.0231
840.666	14.4123
843.558	13.9644
846.451	15.2566
849.344	10.1462
852.236	11.5245
855.129	11.6745
858.022	9.39325
860.915	10.0195
863.807	9.33112
866.7	5.41919
869.593	3.87036
872.485	5.13187
875.378	3.62216
878.271	2.73798
881.163	1.77597
884.056	3.24509
886.949	2.97659
889.842	3.65634
892.734	0.035004
895.627	2.63602
898.52	0.198944
901.412	0.569153
904.305	0.419128
907.198	2.07312
910.091	1.48193
912.983	0.115845
915.876	1.06577
918.769	0.768829
921.661	0.573761
924.554	1.63626
927.447	1.95511
930.339	0.628723
933.232	0.054962
936.125	0.721985
939.018	0.686859
941.91	2.80991
944.803	3.67426
947.696	2.64044
950.588	3.09732
953.481	2.50427
956.374	3.31439
959.266	0.848145
962.159	2.72543
965.052	2.41577
967.944	3.98935
970.837	1.02331
973.73	1.41183
976.623	1.42584
979.515	2.6102
982.408	0.583923
985.301	2.65674
988.193	0.071381
991.086	1.84439
993.979	0.204865
996.871	0.816437
999.764	1.75592
1002.66	2.05609
1005.55	0.250549
1008.44	0.558014
1011.34	0.410797
1014.23	0.890594
1017.12	0.861481
1020.01	1.52539
1022.91	1.2684
1025.8	2.37146
1028.69	1.51633
1031.58	2.87473
1034.48	3.72839
1037.37	4.37125
1040.26	1.0618
1043.15	0.02533
1046.05	0.944031
1048.94	0.954559
1051.83	2.17969
1054.73	1.86002
1057.62	3.97223
1060.51	2.02862
1063.4	3.14673
1066.3	1.34244
1069.19	2.18219
1072.08	1.76556
1074.97	1.9935
1077.87	3.20508
1080.76	1.73303
1083.65	2.22858
1086.55	1.01807
1089.44	2.57593
1092.33	0.444183
1095.22	3.1182
1098.12	1.43704
1101.01	1.90314
1103.9	3.29489
1106.79	1.97138
1109.69	2.69107
1112.58	2.8971
1115.47	0.312775
1118.37	1.90857
1121.26	2.76074
1124.15	1.52789
1127.04	1.9165
1129.94	0.996277
1132.83	0.8703
1135.72	1.50308
1138.61	3.15634
1141.51	1.84262
1144.4	0.974457
1147.29	1.63705
1150.18	1.18494
1153.08	2.29443
1155.97	1.3046
1158.86	1.16116
1161.76	0.066864
1164.65	0.890472
1167.54	2.4902
1170.43	0.118469
1173.33	0.67395
1176.22	1.00168
1179.11	1.06958
1182	2.60181
1184.9	2.15689
1187.79	1.67093
1190.68	1.8269
1193.58	1.04269
1196.47	0.770508
1199.36	0.764282
1202.25	2.5415
1205.15	4.68088
1208.04	2.8988
1210.93	4.91312
1213.82	5.66907
1216.72	3.54764
1219.61	2.50446
1222.5	3.8266
1225.39	3.99735
1228.29	4.93658
1231.18	2.38077
1234.07	1.62647
1236.97	1.02963
1239.86	2.09613
1242.75	2.36462
1245.64	5.10126
1248.54	2.741
1251.43	2.38327
1254.32	3.26968
1257.21	2.1232
1260.11	3.04666
1263	4.32602
1265.89	4.39249
1268.79	5.94165
1271.68	5.64169
1274.57	6.21252
1277.46	3.3645
1280.36	2.21787
1283.25	2.18008
1286.14	0.816162
1289.03	0.068817
1291.93	2.16061
1294.82	2.80594
1297.71	1.75375
1300.61	2.133
