Measurement: Raman, 780 nm, unoriented, Raman Data Processed
Mineral: Anatase
Rruff sample: R120064
Ideal chemistry: TiO_2_
Locality: East Kemptville Tin mine, East Kemptville, Argyle, Yarmouoth Co., Nova Scotia, Canada
Source: Donald Doell
Description: Black tabular crystals, associated with R120065, parisite-(Ce)
Raman shift (cm-1)	intensity
107.031	0
110.406	0.002045
113.781	6.72461
117.156	22.4649
120.531	48.1805
123.905	94.4224
127.28	152.367
130.655	220.958
134.03	306.983
137.405	435.315
140.779	612.438
144.154	814.205
147.529	795.134
150.904	524.251
154.279	288.041
157.654	160.154
161.028	94.7083
164.403	59.9785
167.778	40.3067
171.153	26.4957
174.528	16.7356
177.902	10.5079
181.277	8.30911
184.652	4.46249
188.027	1.80365
191.402	3.83499
194.776	8.61514
198.151	12.3249
201.526	7.83362
204.901	0.821381
208.276	2.80637
211.651	1.11249
215.025	1.74997
218.4	0.964874
221.775	2.01944
225.15	1.67087
228.525	0.879761
231.899	1.5163
235.274	2.47256
238.649	3.4003
242.024	2.60498
245.399	3.04498
248.774	3.45047
252.148	2.62372
255.523	4.39554
258.898	3.8447
262.273	6.82819
265.648	5.17718
269.022	5.54654
272.397	3.25076
275.772	2.27292
279.147	2.56216
282.522	4.34625
285.897	1.08438
289.271	0.961304
292.646	2.88715
296.021	1.86713
299.396	3.14456
302.771	2.49481
306.145	5.73953
309.52	3.97858
312.895	4.07001
316.27	3.22855
319.645	1.79968
323.019	1.03812
326.394	0.482025
329.769	0.952576
333.144	0.59079
336.519	0.291809
339.894	0.76416
343.268	0.052551
346.643	0.253235
350.018	3.56552
353.393	4.24042
356.768	6.67685
360.142	9.79712
363.517	14.6065
366.892	19.7124
370.267	29.458
373.642	41.099
377.017	49.5491
380.391	64.213
383.766	76.1333
387.141	87.4149
390.516	97.2882
393.891	96.5089
397.265	89.8157
400.64	73.2996
404.015	56.011
407.39	40.1059
410.765	28.6801
414.14	19.1756
417.514	11.0661
420.889	5.59955
424.264	2.22217
427.639	3.6723
431.014	4.49884
434.389	4.56763
437.763	4.42654
441.138	3.25809
444.513	3.82416
447.888	2.15884
451.263	0.078705
454.637	1.86813
458.012	2.03107
461.387	1.48612
464.762	1.93887
468.137	1.43487
471.512	2.65274
474.886	5.93826
478.261	8.82596
481.636	13.8793
485.011	22.0999
488.386	32.4433
491.76	45.9002
495.135	58.0184
498.51	71.7115
501.885	88.4375
505.26	103.56
508.635	114.34
512.009	113.638
515.384	107.596
518.759	89.8629
522.134	75.081
525.509	57.5679
528.883	44.3014
532.258	35.2101
535.633	27.4416
539.008	18.4707
542.383	15.2769
545.757	9.81653
549.132	8.77487
552.507	6.44745
555.882	6.30359
559.257	5.07239
562.631	2.82782
566.006	0.613251
569.381	2.16962
572.756	0.279846
576.131	0.263367
579.506	0.904297
582.88	1.23099
586.255	1.14294
589.63	0.279449
593.005	0.694489
596.38	0.199646
599.755	1.64203
603.129	4.49676
606.504	7.54556
609.879	9.61472
613.254	14.6159
616.629	19.8525
620.003	23.1352
623.378	30.2614
626.753	36.508
630.128	42.9175
633.503	44.8165
636.878	44.1121
640.252	38.6637
643.627	32.0183
647.002	23.2487
650.377	19.1803
653.752	12.9604
657.126	8.25967
660.501	6.67874
663.876	4.1669
667.251	4.12515
670.626	0.75528
674	2.11612
677.375	0.098297
680.75	0.927429
684.125	0.314102
687.5	0.155823
690.875	0.247787
694.249	4.52342
697.624	2.10809
700.999	2.70422
704.374	3.65709
707.749	0.093948
711.124	0.400772
714.498	1.99167
717.873	0.292587
721.248	0.026901
724.623	1.84868
727.998	1.23379
731.372	1.97777
734.747	1.58581
738.122	0.06572
741.497	1.42526
744.872	0.543961
748.246	1.74561
751.621	1.92613
754.996	1.68895
758.371	2.07356
761.746	2.91327
765.12	2.30165
768.495	4.19125
771.87	3.99498
775.245	3.98994
778.62	4.22833
781.995	6.79797
785.369	6.5275
788.744	7.49875
792.119	8.85742
795.494	10.3849
798.869	9.35567
802.244	8.29919
805.618	7.25487
808.993	7.94644
812.368	7.80795
815.743	6.23738
819.118	6.23173
822.492	5.35779
825.867	6.24718
829.242	4.53319
832.617	5.75191
835.992	3.49849
839.366	4.53307
842.741	4.21385
846.116	2.94196
849.491	2.8
852.866	3.16275
856.241	2.97465
859.615	3.07657
862.99	2.60112
866.365	2.32574
869.74	1.0428
873.115	1.47945
876.49	1.22954
879.864	0.309891
883.239	0.043854
886.614	0.267807
889.989	0.637436
893.364	0.031311
896.738	0.388931
900.113	0.052826
903.488	0.983627
906.863	0.074844
910.238	1.59941
913.612	0.06517
916.987	0.172546
920.362	1.53648
923.737	1.11879
927.112	1.02617
930.487	2.47069
933.861	2.72125
937.236	2.66653
940.611	2.09473
943.986	3.0697
947.361	1.91347
950.736	3.08623
954.11	3.18823
957.485	2.61214
960.86	2.33014
964.235	2.39703
967.61	2.0622
970.984	1.20538
974.359	1.39566
977.734	1.85407
981.109	1.46213
984.484	1.65079
987.859	1.31261
991.233	1.45724
994.608	1.69347
997.983	0.615524
1001.36	1.94707
1004.73	1.19255
1008.11	0.02771
1011.48	0.770844
1014.86	1.1404
1018.23	1.66022
1021.61	1.21954
1024.98	2.70488
1028.36	1.3197
1031.73	1.45766
1035.11	0.288803
1038.48	1.48557
1041.86	0.196304
1045.23	1.6227
1048.61	1.25969
1051.98	2.41638
1055.36	3.05527
1058.73	2.59108
1062.1	2.38409
1065.48	2.64729
1068.85	3.21448
1072.23	3.3463
1075.6	0.94342
1078.98	0.981689
1082.35	2.18579
1085.73	1.922
1089.1	3.53238
1092.48	1.83656
1095.85	0.711761
1099.23	0.644073
1102.6	0.220596
1105.98	0.914505
1109.35	1.64565
1112.73	0.796112
1116.1	0.533905
1119.48	0.62471
1122.85	0.086533
1126.23	0.899612
1129.6	0.659439
1132.98	0.94313
1136.35	1.67723
1139.72	0.043381
1143.1	0.987015
1146.47	1.32439
1149.85	1.59357
1153.22	0.872437
1156.6	0.891815
1159.97	1.2616
1163.35	1.24864
1166.72	0.135483
1170.1	1.92184
1173.47	1.94988
1176.85	1.672
1180.22	1.87468
1183.6	2.05429
1186.97	2.29506
1190.35	4.00754
1193.72	3.76505
1197.1	3.74724
1200.47	5.18314
1203.85	4.15033
1207.22	4.90146
1210.6	3.73883
1213.97	3.00137
1217.35	4.03207
1220.72	2.63138
1224.1	4.8338
1227.47	3.38263
1230.85	3.42116
1234.22	3.19728
1237.6	3.73219
1240.97	2.37479
1244.34	2.11203
1247.72	2.82629
1251.09	4.04831
1254.47	3.59354
1257.84	4.62528
1261.22	2.99028
1264.59	2.24091
1267.97	3.30335
1271.34	1.9113
1274.72	0.092072
1278.09	1.34439
1281.47	0.353485
1284.84	0.486008
