Measurement: Raman, 532 nm, unoriented, Raman Data Processed
Mineral: Anatase
Rruff sample: R120013
Ideal chemistry: TiO_2_
Locality: Governor's Lake pegmatite, Halifax County, Nova Scotia, Canada
Source: Donald Doell
Description: Black tabular crystals associated with metatorbernite R120014
Raman shift (cm-1)	intensity
160.881	0
163.774	20.5866
166.667	74.1457
169.559	108.522
172.452	108.278
175.345	101.209
178.237	110.587
181.13	114.634
184.023	141.709
186.916	158.692
189.808	165.223
192.701	193.254
195.594	269.459
198.486	429.832
201.379	528.756
204.272	370.747
207.164	196.068
210.057	113.602
212.95	74.6041
215.843	47.9571
218.735	30.0607
221.628	20.8015
224.521	12.9068
227.413	6.50476
230.306	4.58124
233.199	2.35196
236.091	1.07604
238.984	2.9091
241.877	2.8262
244.769	4.03484
247.662	4.6393
250.555	3.36218
253.448	2.9501
256.34	3.05597
259.233	0.652405
262.126	1.96899
265.018	3.09227
267.911	3.10381
270.804	3.53261
273.697	4.90153
276.589	4.79518
279.482	4.99911
282.375	4.59227
285.267	4.403
288.16	5.07394
291.053	6.11812
293.945	7.46822
296.838	8.11308
299.731	9.61638
302.623	8.87846
305.516	8.53915
308.409	5.58917
311.302	10.3597
314.194	8.13567
317.087	7.71405
319.98	7.56259
322.872	8.0513
325.765	6.73221
328.658	6.01738
331.55	4.11169
334.443	4.19621
337.336	3.03862
340.229	4.07518
343.121	7.00426
346.014	9.96666
348.907	15.8372
351.799	22.1387
354.692	31.1889
357.585	41.6338
360.478	55.2407
363.37	71.9782
366.263	93.1107
369.156	123.592
372.048	161.527
374.941	207.28
377.834	260.945
380.726	320.454
383.619	383.353
386.512	442.005
389.404	486.904
392.297	505.414
395.19	485.724
398.083	434.397
400.975	356.107
403.868	274.833
406.761	207.161
409.653	151.938
412.546	113.09
415.439	81.6337
418.332	60.9902
421.224	46.4517
424.117	35.356
427.01	25.4794
429.902	19.2781
432.795	13.6332
435.688	10.2917
438.58	6.05898
441.473	3.12175
444.366	0.362732
447.259	1.4967
450.151	0.02327
453.044	2.39435
455.937	4.05431
458.829	3.32696
461.722	1.70886
464.615	1.11754
467.507	3.98883
470.4	5.27188
473.293	8.68207
476.185	12.6368
479.078	18.4275
481.971	24.1569
484.864	34.218
487.756	45.0951
490.649	61.4831
493.542	85.4455
496.434	113.544
499.327	152.917
502.22	197.558
505.113	249.535
508.005	297.5
510.898	335.235
513.791	343.916
516.683	323.835
519.576	287.071
522.469	238.581
525.361	197.364
528.254	156.98
531.147	125.699
534.04	100.51
536.932	77.1054
539.825	60.6064
542.718	46.7198
545.61	32.9359
548.503	24.6461
551.396	14.7158
554.288	7.93533
557.181	2.59955
560.074	1.59343
562.967	4.46638
565.859	6.8085
568.752	6.91795
571.645	5.12601
574.537	2.53394
577.43	1.08726
580.323	7.66356
583.216	15.6878
586.108	25.7222
589.001	41.0014
591.894	59.748
594.786	84.8009
597.679	114.812
600.572	154.786
603.464	205.252
606.357	273.249
609.25	362.159
612.142	481.288
615.035	634.903
617.928	837.825
620.821	1086.08
623.713	1383.87
626.606	1699.34
629.499	2020.67
632.391	2276.45
635.284	2407.06
638.177	2359.36
641.069	2155.7
643.962	1873.09
646.855	1564.01
649.747	1267.89
652.64	1019.05
655.533	814.758
658.426	647.996
661.318	518.062
664.211	410.54
667.104	327.496
669.996	262.238
672.889	209.587
675.782	165.084
678.674	132.82
681.567	106.017
684.46	83.4947
687.353	65.0086
690.245	50.9526
693.138	42.2362
696.031	32.0351
698.923	23.9013
701.816	17.4734
704.709	13.1072
707.601	8.55779
710.494	5.44864
713.387	1.50279
716.28	0.169693
719.172	2.69006
722.065	3.41898
724.958	2.83694
727.85	3.7046
730.743	1.94473
733.636	2.80007
736.529	3.32687
739.421	0.994003
742.314	1.85423
745.207	0.179199
748.099	1.02447
750.992	3.43503
753.885	5.78092
756.777	7.16431
759.67	8.16834
762.563	10.0473
765.456	12.4763
768.348	15.5266
771.241	17.7504
774.134	20.9571
777.026	23.6018
779.919	26.2217
782.812	27.6135
785.704	29.9808
788.597	31.2896
791.49	31.0391
794.383	31.2193
797.275	30.5135
800.168	29.2747
803.061	27.7593
805.953	25.9035
808.846	24.9239
811.739	22.9529
814.631	22.2483
817.524	21.0999
820.417	20.1481
823.309	19.7861
826.202	17.8167
829.095	17.037
831.988	17.2814
834.88	15.7276
837.773	13.9715
840.666	15.4681
843.558	14.7243
846.451	15.1563
849.344	19.3079
852.236	13.186
855.129	13.0421
858.022	12.7687
860.915	11.5915
863.807	12.1055
866.7	10.9603
869.593	9.28935
872.485	11.0949
875.378	8.4272
878.271	8.16444
881.163	6.86903
884.056	5.64731
886.949	4.87349
889.842	4.64278
892.734	2.58598
895.627	2.44479
898.52	0.681694
901.412	1.38045
904.305	1.14193
907.198	0.412411
910.091	0.889233
912.983	0.107872
915.876	0.331512
918.769	0.318542
921.661	0.126919
924.554	0.488705
927.447	0.402653
930.339	0.603191
933.232	0.467358
936.125	0.297283
939.018	0.086845
941.91	0.472706
944.803	0.711304
947.696	0.200535
950.588	0.884075
953.481	0.367531
956.374	0.00737
959.266	0.708832
962.159	0.823055
965.052	0.923084
967.944	0.589603
970.837	0.630566
973.73	0.873375
976.623	1.20465
979.515	0.151379
982.408	4.68709
985.301	5.8147
988.193	1.40702
991.086	0.682388
993.979	1.14772
996.871	1.00497
999.764	1.28002
1002.66	0.15234
1005.55	0.718678
1008.44	0.480732
1011.34	2.08259
1014.23	0.151196
1017.12	0.610271
1020.01	1.63101
1022.91	1.18591
1025.8	0.470341
1028.69	1.7698
1031.58	1.49836
1034.48	2.10663
1037.37	1.47448
1040.26	2.14632
1043.15	1.77969
1046.05	1.17054
1048.94	1.6722
1051.83	2.00625
1054.73	2.55024
1057.62	1.739
1060.51	1.09754
1063.4	1.23799
1066.3	1.11093
1069.19	0.101151
1072.08	2.79352
1074.97	1.12111
1077.87	1.42697
1080.76	1.17132
1083.65	0.666157
1086.55	1.43524
1089.44	0.532822
1092.33	1.01604
1095.22	0.366512
1098.12	1.35467
1101.01	1.81335
1103.9	5.83802
1106.79	0.735107
1109.69	1.29807
1112.58	0.993088
1115.47	0.876877
1118.37	0.890755
1121.26	1.69881
1124.15	0.598637
1127.04	0.203545
1129.94	0.416332
1132.83	1.139
1135.72	0.051502
1138.61	1.57642
1141.51	0.935822
1144.4	1.12196
1147.29	1.05579
1150.18	0.871719
1153.08	1.5317
1155.97	0.77548
1158.86	0.358023
1161.76	0.671864
1164.65	0.804792
1167.54	1.00505
1170.43	1.09775
1173.33	1.15302
1176.22	0.428581
1179.11	0.566198
1182	1.72454
1184.9	1.03221
1187.79	1.71555
1190.68	0.79738
1193.58	0.980961
1196.47	0.507477
1199.36	0.204823
1202.25	0.633076
1205.15	0.977995
1208.04	1.00216
1210.93	1.00257
1213.82	0.375315
1216.72	0.756964
1219.61	0.171358
1222.5	1.09936
1225.39	0.694628
1228.29	0.35392
1231.18	1.31875
1234.07	2.85575
1236.97	0.05699
1239.86	0.9666
1242.75	1.12434
1245.64	0.854034
1248.54	0.239294
1251.43	0.877764
1254.32	1.55181
1257.21	1.08116
1260.11	1.14866
1263	1.65694
1265.89	1.57205
1268.79	1.10901
1271.68	1.44752
1274.57	1.13163
1277.46	0.539713
1280.36	1.26523
1283.25	0.146435
1286.14	0.089237
1289.03	0.075562
1291.93	1.24484
1294.82	0.742329
1297.71	1.27545
1300.61	0.413025
