Measurement: Raman, 780 nm, unoriented, Raman Data Processed
Mineral: Ancylite-(Ce)
Rruff sample: R060218
Ideal chemistry: CeSr(CO_3_)_2_(OH)H_2_O
Locality: Mont Saint-Hilaire, Rouville County, Quebec, Canada
Source: Royal Ontario Museum
Description: Pale pink prismatic crystals
Measured chemistry: (Ce_0.40_(La,Pr)_0.23_Ca_0.18_Nd_0.10_Sr_0.09_)_Σ=1_CO_3_((OH)_0.67_(H_2_O)_0.27_F_0.06_)_Σ=1_
Raman shift (cm-1)	intensity
91.8272	0
94.7198	1.22976
97.6125	1.2195
100.505	12.3727
103.398	35.6449
106.291	55.3254
109.183	49.4995
112.076	42.5355
114.969	51.9991
117.862	50.2328
120.754	45.7814
123.647	35.1378
126.54	23.6033
129.432	10.9701
132.325	0.367006
135.218	0.020401
138.11	0.497485
141.003	0.528512
143.896	0.24719
146.788	0.631887
149.681	0.698059
152.574	2.02901
155.466	11.4813
158.359	11.3329
161.252	16.8448
164.145	22.5477
167.037	27.9149
169.93	39.3331
172.823	46.1682
175.715	55.9894
178.608	65.2057
181.501	74.7869
184.393	77.972
187.286	83.0775
190.179	73.5718
193.072	56.1373
195.964	34.3162
198.857	10.1997
201.75	0.483981
204.642	2.65884
207.535	4.82146
210.428	21.7089
213.321	45.59
216.213	63.8215
219.106	88.9192
221.999	106.269
224.891	114.686
227.784	123.533
230.677	133.522
233.569	137.768
236.462	137.877
239.355	135.017
242.248	124.776
245.14	109.75
248.033	84.6417
250.926	60.3834
253.818	34.94
256.711	16.0442
259.604	0.30269
262.496	1.09616
265.389	0.976498
268.282	0.870146
271.175	0.586029
274.067	0.870512
276.96	1.20098
279.853	3.51307
282.745	12.7787
285.638	23.7521
288.531	37.4462
291.423	55.5509
294.316	75.1865
297.209	101.844
300.101	125.139
302.994	152.963
305.887	174.481
308.78	201.431
311.672	220.377
314.565	237.031
317.458	251.257
320.35	249.038
323.243	237.169
326.136	223.085
329.029	198.013
331.921	174.089
334.814	142.541
337.707	115.633
340.599	90.1432
343.492	66.4508
346.385	43.8907
349.277	28.3042
352.17	18.9784
355.063	6.31453
357.955	1.8691
360.848	0.334192
363.741	7.77314
366.634	13.9779
369.526	17.8216
372.419	22.8502
375.312	27.2779
378.204	27.2742
381.097	20.6472
383.99	23.5752
386.882	22.9644
389.775	21.2218
392.668	17.6912
395.561	15.1435
398.453	13.408
401.346	10.6106
404.239	8.38612
407.131	6.30237
410.024	0.668112
412.917	1.80886
415.81	1.31251
418.702	0.382165
421.595	1.16668
424.488	1.11183
427.38	0.550519
430.273	0.415102
433.166	0.286835
436.058	1.17653
438.951	0.56389
441.844	0.003319
444.736	1.3055
447.629	0.695181
450.522	1.44388
453.415	1.91031
456.307	3.198
459.2	1.34225
462.093	1.63302
464.985	7.36472
467.878	7.3527
470.771	13.5696
473.663	6.18477
476.556	13.2472
479.449	16.3767
482.342	10.9932
485.234	8.60962
488.127	13.6876
491.02	9.76397
493.912	8.67552
496.805	7.78803
499.698	2.957
502.591	0.216998
505.483	0.412193
508.376	0.039092
511.269	0.834714
514.161	0.567698
517.054	2.84149
519.947	8.08617
522.839	6.44857
525.732	14.3374
528.625	15.7166
531.518	17.5072
534.41	25.1934
537.303	25.4602
540.196	27.6384
543.088	30.6287
545.981	24.8125
548.874	28.0972
551.766	33.8023
554.659	33.0181
557.552	26.5217
560.444	26.5698
563.337	27.8076
566.23	28.7705
569.123	31.8875
572.015	30.6915
574.908	32.6067
577.801	30.9539
580.693	33.1811
583.586	33.2294
586.479	34.8212
589.371	31.7427
592.264	30.8974
595.157	30.8781
598.05	30.0803
600.942	25.5257
603.835	24.1652
606.728	17.111
609.62	16.3526
612.513	12.6177
615.406	5.37694
618.298	7.16434
621.191	0.996256
624.084	0.222954
626.977	0.112861
629.869	0.423432
632.762	0.063884
635.655	0.395
638.547	0.225148
641.44	0.366496
644.333	0.55591
647.226	0.237017
650.118	0.030873
653.011	1.07543
655.904	7.49939
658.796	9.71695
661.689	15.6221
664.582	17.8967
667.474	25.318
670.367	30.665
673.26	37.2409
676.153	37.6439
679.045	46.8334
681.938	52.971
684.831	66.4681
687.723	80.7069
690.616	96.7933
693.509	115.944
696.401	142.111
699.294	139.489
702.187	97.4013
705.08	66.3931
707.972	54.6822
710.865	54.2554
713.758	54.6631
716.65	63.0106
719.543	68.4925
722.436	78.8709
725.328	75.3233
728.221	52.823
731.114	26.207
734.006	11.2532
736.899	3.22713
739.792	0.436458
742.685	0.329579
745.577	1.66066
748.47	1.44568
751.363	0.284218
754.255	0.334069
757.148	0.028911
760.041	0.934777
762.933	4.55129
765.826	4.71617
768.719	9.54891
771.612	9.25835
774.504	8.0357
777.397	8.40003
780.29	11.2668
783.182	10.9526
786.075	11.7882
788.968	10.9414
791.861	12.0374
794.753	7.85126
797.646	8.34113
800.539	9.0816
803.431	5.77221
806.324	4.23741
809.217	2.02756
812.109	1.45623
815.002	0.200695
817.895	0.264273
820.788	0.280847
823.68	0.682732
826.573	0.841382
829.466	1.67518
832.358	1.43891
835.251	4.94579
838.144	2.54792
841.036	2.68752
843.929	1.02663
846.822	2.0653
849.715	2.55369
852.607	5.95198
855.5	6.40687
858.393	4.1599
861.285	6.56041
864.178	4.33453
867.071	5.97099
869.963	6.91918
872.856	5.05551
875.749	2.97234
878.641	2.58982
881.534	4.59756
884.427	1.00886
887.32	3.42489
890.212	1.14694
893.105	0.537986
895.998	0.927504
898.89	2.28735
901.783	0.836262
904.676	1.61197
907.568	0.126195
910.461	0.986097
913.354	0.063047
916.247	1.30733
919.139	0.232162
922.032	0.044128
924.925	0.152074
927.817	0.101422
930.71	0.245322
933.603	0.034009
936.495	0.150533
939.388	1.06356
942.281	1.01817
945.174	0.511477
948.066	1.52365
950.959	0.350319
953.852	0.807535
956.744	1.15273
959.637	1.31416
962.53	1.02219
965.423	0.692803
968.315	2.80331
971.208	2.38226
974.101	2.79838
976.993	2.66771
979.886	2.17078
982.779	2.57314
985.671	1.73302
988.564	2.11627
991.457	2.95085
994.35	4.12744
997.242	1.81278
1000.13	2.03569
1003.03	1.58608
1005.92	0.147522
1008.81	0.866282
1011.71	0.31845
1014.6	0.233974
1017.49	0.43001
1020.38	0.527367
1023.28	0.334142
1026.17	0.693159
1029.06	0.297899
1031.95	0.948082
1034.85	1.1721
1037.74	6.92863
1040.63	8.9138
1043.53	12.7079
1046.42	18.6021
1049.31	27.4894
1052.2	34.9519
1055.1	41.6568
1057.99	61.3377
1060.88	90.2569
1063.77	132.165
1066.67	203.378
1069.56	307.263
1072.45	445.012
1075.35	546.35
1078.24	649.826
1081.13	780.264
1084.02	705.956
1086.92	367.238
1089.81	178.485
1092.7	132.351
1095.59	120.144
1098.49	119.247
1101.38	112.434
1104.27	109.918
1107.16	95.0821
1110.06	86.2984
1112.95	71.7755
1115.84	56.4207
1118.74	44.728
1121.63	31.4236
1124.52	20.7635
1127.41	7.77653
1130.31	1.66449
1133.2	3.17437
1136.09	4.29569
1138.98	0.390339
1141.88	0.149159
