Measurement: Raman, 532 nm, unoriented, Raman Data Processed
Mineral: Ancylite-(Ce)
Rruff sample: R060218
Ideal chemistry: CeSr(CO_3_)_2_(OH)H_2_O
Locality: Mont Saint-Hilaire, Rouville County, Quebec, Canada
Source: Royal Ontario Museum
Description: Pale pink prismatic crystals
Measured chemistry: (Ce_0.40_(La,Pr)_0.23_Ca_0.18_Nd_0.10_Sr_0.09_)_Σ=1_CO_3_((OH)_0.67_(H_2_O)_0.27_F_0.06_)_Σ=1_
Raman shift (cm-1)	intensity
164.878	0
167.77	0.002029
170.663	1.51779
173.556	17.0497
176.448	42.2563
179.341	76.836
182.234	112.695
185.127	147.078
188.019	180.531
190.912	199.883
193.805	188.089
196.697	143.195
199.59	87.6877
202.483	51.797
205.375	36.2527
208.268	45.2615
211.161	61.0336
214.054	95.6702
216.946	137.549
219.839	181.706
222.732	224.03
225.624	251.565
228.517	267.65
231.41	288.637
234.303	307.428
237.195	324.665
240.088	341.415
242.981	344.304
245.873	335.892
248.766	304.944
251.659	258.048
254.551	202.17
257.444	147.731
260.337	99.2701
263.229	59.4989
266.122	31.9798
269.015	12.5485
271.908	0.579325
274.8	1.97764
277.693	0.219264
280.586	3.35099
283.478	0.143401
286.371	2.00534
289.264	0.316731
292.156	1.18265
295.049	1.11348
297.942	0.461342
300.835	0.63992
303.727	2.14647
306.62	2.14314
309.513	5.51665
312.405	8.19801
315.298	9.13785
318.191	11.5472
321.084	14.5324
323.976	18.8024
326.869	20.5598
329.762	26.4618
332.654	28.1312
335.547	31.886
338.44	33.6982
341.332	37.9584
344.225	42.3527
347.118	47.2186
350.01	57.395
352.903	64.4237
355.796	77.5962
358.689	88.0987
361.581	102.163
364.474	116.386
367.367	131.639
370.259	141.199
373.152	148.291
376.045	145.123
378.938	136.025
381.83	121.589
384.723	104.761
387.616	88.9398
390.508	75.1901
393.401	61.9255
396.294	50.6801
399.186	39.5959
402.079	29.2619
404.972	22.7821
407.865	16.649
410.757	11.5751
413.65	7.20456
416.543	4.44855
419.435	3.21178
422.328	0.791678
425.221	0.202461
428.113	0.506239
431.006	0.221905
433.899	0.56946
436.791	0.076544
439.684	0.14286
442.577	0.035847
445.469	0.260863
448.362	0.122087
451.255	0.166621
454.148	0.190704
457.04	0.073025
459.933	0.593137
462.826	0.638222
465.718	0.539474
468.611	0.661851
471.504	1.22445
474.397	1.58163
477.289	1.15491
480.182	3.59027
483.075	2.28527
485.967	1.6923
488.86	1.68069
491.753	1.26528
494.645	1.11001
497.538	0.90205
500.431	1.07406
503.324	1.84555
506.216	1.16685
509.109	0.627364
512.002	0.901016
514.894	0.489307
517.787	0.035185
520.68	1.33282
523.572	0.870723
526.465	0.60562
529.358	0.973486
532.25	1.33682
535.143	0.06477
538.036	0.145556
540.929	0.359357
543.821	0.024522
546.714	0.339615
549.607	0.021626
552.5	1.01673
555.392	0.058962
558.285	0.195382
561.178	0.592419
564.07	0.193217
566.963	0.05481
569.856	0.204532
572.748	0.030299
575.641	0.699362
578.534	0.647984
581.427	0.165008
584.319	0.015931
587.212	1.06103
590.105	0.817524
592.997	0.488782
595.89	1.17643
598.783	0.256285
601.675	0.672635
604.568	0.978635
607.461	1.99192
610.353	1.1772
613.246	0.401631
616.139	0.023464
619.032	0.619672
621.924	0.065473
624.817	0.704355
627.71	0.630762
630.602	0.006461
633.495	0.029454
636.388	0.061939
639.28	0.027913
642.173	0.098703
645.066	0.137842
647.958	0.182136
650.851	0.290151
653.744	0.139833
656.637	0.131182
659.529	1.6596
662.422	1.4567
665.315	0.959161
668.207	1.43418
671.1	1.81507
673.993	1.98845
676.885	3.14395
679.778	4.85874
682.671	11.4212
685.564	25.6358
688.456	48.0847
691.349	81.088
694.242	138.577
697.134	209.026
700.027	261.671
702.92	187.307
705.812	96.1047
708.705	59.1732
711.598	56.5473
714.491	70.5761
717.383	97.1838
720.276	129.77
723.169	171.821
726.061	196.934
728.954	177.401
731.847	112.433
734.74	57.5162
737.632	33.7615
740.525	23.8827
743.418	16.7538
746.31	8.50323
749.203	2.63609
752.096	0.417415
754.988	0.111171
757.881	0.007612
760.774	0.095378
763.667	0.077091
766.559	0.245491
769.452	0.129741
772.345	0.147065
775.237	0.073452
778.13	0.476912
781.023	0.01563
783.915	0.0122
786.808	0.250498
789.701	0.096278
792.593	1.18479
795.486	0.026009
798.379	0.710236
801.271	0.262619
804.164	1.01008
807.057	1.57099
809.95	1.56409
812.842	2.62253
815.735	1.96775
818.628	1.96405
821.52	1.30543
824.413	1.86771
827.306	0.985184
830.198	0.833327
833.091	0.215053
835.984	0.549411
838.877	1.14975
841.769	1.14385
844.662	1.48776
847.555	1.99036
850.447	4.47957
853.34	6.52
856.233	9.6162
859.125	6.32367
862.018	4.40976
864.911	3.96149
867.804	3.13744
870.696	1.64108
873.589	2.10138
876.482	1.42738
879.375	0.804486
882.267	0.062351
885.16	0.518875
888.053	0.770956
890.945	1.23133
893.838	0.707104
896.731	0.583911
899.623	0.034223
902.516	0.008371
905.409	0.563485
908.302	0.044851
911.194	0.04946
914.087	0.024664
916.98	0.021868
919.872	0.058077
922.765	0.054898
925.658	0.002994
928.55	0.088281
931.443	0.039108
934.336	0.060985
937.229	0.445154
940.121	0.049728
943.014	0.980127
945.907	1.26013
948.799	5.81579
951.692	3.23318
954.585	4.85891
957.477	5.50484
960.37	6.80156
963.263	8.20843
966.155	9.22171
969.048	11.1098
971.941	12.4446
974.834	14.0264
977.726	13.5146
980.619	14.9153
983.512	15.8386
986.404	15.1907
989.297	15.0867
992.19	13.839
995.082	13.2244
997.975	13.4195
1000.87	11.8117
1003.76	11.5341
1006.65	9.45467
1009.55	8.47324
1012.44	7.63365
1015.33	5.47544
1018.22	3.55116
1021.12	1.64717
1024.01	0.712456
1026.9	0.066519
1029.8	0.24976
1032.69	0.059826
1035.58	0.061126
1038.47	0.041592
1041.37	0.203206
1044.26	0.175015
1047.15	1.93742
1050.04	6.44178
1052.94	12.1967
1055.83	22.7787
1058.72	39.9353
1061.62	79.6133
1064.51	157.616
1067.4	288.599
1070.29	503.364
1073.18	803.607
1076.08	1095.09
1078.97	1409.23
1081.86	1900.46
1084.76	2078.42
1087.65	1171.07
1090.54	357.198
1093.43	93.1055
1096.33	36.3013
1099.22	17.8658
1102.11	9.92216
1105.01	4.45255
1107.9	1.71727
1110.79	0.883012
1113.68	0.009976
1116.58	0.028596
1119.47	0.004269
1122.36	0.041642
1125.25	0.040451
1128.15	0.073309
1131.04	0.069083
1133.93	1.84211
1136.83	1.57847
1139.72	1.90956
1142.61	2.64212
1145.5	1.21686
1148.4	2.83997
1151.29	1.86596
1154.18	3.10698
1157.07	5.87688
1159.97	2.93859
1162.86	2.68662
1165.75	2.35163
1168.64	3.05299
1171.54	2.93501
1174.43	1.70426
1177.32	2.07856
1180.21	2.32061
1183.11	0.056416
1186	2.94474
1188.89	0.932168
1191.79	0.484399
1194.68	0.459631
1197.57	0.744112
1200.46	0.516271
1203.36	0.234451
1206.25	0.951712
1209.14	0.217309
1212.04	0.517809
1214.93	0.386663
1217.82	0.294968
1220.71	0.028553
1223.61	1.13989
1226.5	0.054977
1229.39	0.139485
1232.28	0.058319
1235.18	0.422348
1238.07	0.225775
1240.96	0.045625
1243.86	0.325598
1246.75	0.014747
1249.64	0.028099
1252.53	0.103179
1255.42	0.822365
1258.32	0.000898
1261.21	2.80361
1264.1	1.08117
1267	0.739045
1269.89	1.32331
1272.78	0.773941
1275.67	1.35154
1278.57	0.346365
1281.46	0.517233
1284.35	0.927694
1287.24	0.027953
1290.14	0.505752
1293.03	1.18884
1295.92	0.271599
1298.82	1.18244
1301.71	0.224723
