Measurement: Raman, 532 nm, unoriented, Raman Data Processed
Mineral: Andalusite
Rruff sample: R060212
Ideal chemistry: Al_2_SiO_5_
Locality: Brazil
Source: Marcus Origlieri
Description: Transparent yellow-green water-worn pebble
Measured chemistry: (Al_1.98_Fe^3+^_0.02_)_Î£=2_Si_1.00_O_5_
Raman shift (cm-1)	intensity
120.554	0
123.929	0.41802
127.304	2.53121
130.679	5.83575
134.054	5.69402
137.428	7.9825
140.803	10.2424
144.178	8.86154
147.553	11.5216
150.928	10.5462
154.302	11.7589
157.677	9.53473
161.052	10.3094
164.427	9.53952
167.802	10.2411
171.177	11.7588
174.551	11.3503
177.926	9.68644
181.301	8.32771
184.676	8.33122
188.051	11.1756
191.425	12.6509
194.8	6.82889
198.175	4.86021
201.55	3.4494
204.925	4.36818
208.299	1.00163
211.674	0.341681
215.049	1.22405
218.424	1.24612
221.799	0.889349
225.174	0.141548
228.548	0.777672
231.923	1.39684
235.298	4.73328
238.673	11.6842
242.048	13.4999
245.423	7.22179
248.797	0.895927
252.172	0.505138
255.547	0.644951
258.922	0.271957
262.297	2.89295
265.671	6.67108
269.046	12.3998
272.421	29.7572
275.796	57.2627
279.171	73.9009
282.546	99.2195
285.92	149.879
289.295	231.111
292.67	248.459
296.045	112.768
299.42	40.9349
302.794	20.8793
306.169	20.8988
309.544	24.8739
312.919	37.1898
316.294	68.7913
319.668	124.363
323.043	102.212
326.418	36.272
329.793	15.7691
333.168	9.02884
336.543	10.1599
339.917	14.7534
343.292	26.9126
346.667	39.8502
350.042	61.4096
353.417	100.658
356.791	151.576
360.166	141.856
363.541	73.9996
366.916	32.4
370.291	16.3607
373.666	7.15252
377.04	2.89693
380.415	2.00449
383.79	2.10383
387.165	1.74789
390.54	5.18804
393.914	5.04026
397.289	1.08424
400.664	3.16701
404.039	0.801636
407.414	1.15994
410.788	2.22083
414.163	3.67564
417.538	4.69494
420.913	3.08926
424.288	0.594452
427.663	0.664501
431.037	0.647873
434.412	0.511917
437.787	1.95683
441.162	3.64018
444.537	5.73877
447.911	11.7049
451.286	17.7464
454.661	9.16813
458.036	3.67111
461.411	3.26828
464.786	2.99406
468.16	5.73861
471.535	6.5608
474.91	8.50358
478.285	10.1965
481.66	12.2104
485.034	10.3897
488.409	5.68601
491.784	2.51675
495.159	1.00373
498.534	0.224915
501.909	0.761852
505.283	0.91436
508.658	0.74667
512.033	2.14762
515.408	1.12267
518.783	0.466057
522.158	0.28244
525.532	0.160542
528.907	0.829235
532.282	1.01665
535.657	3.37413
539.032	6.91306
542.406	11.5981
545.781	19.746
549.156	27.1408
552.531	25.7832
555.906	13.5838
559.28	6.38992
562.655	4.9984
566.03	5.40525
569.405	6.56221
572.78	7.3632
576.154	4.36014
579.529	2.02956
582.904	0.535587
586.279	0.49659
589.654	0.058636
593.029	1.08532
596.403	1.70888
599.778	2.25939
603.153	2.51894
606.528	2.43029
609.903	3.39692
613.278	1.81119
616.652	2.16506
620.027	1.22602
623.402	1.96772
626.777	3.62712
630.152	2.65352
633.526	1.75371
636.901	1.12183
640.276	2.69163
643.651	3.48621
647.026	2.94093
650.4	1.11274
653.775	0.237679
657.15	0.28191
660.525	1.0808
663.9	0.979259
667.275	0.380814
670.649	0.28458
674.024	0.542938
677.399	0.667961
680.774	0.586941
684.149	1.23101
687.524	0.97076
690.898	1.47189
694.273	2.49388
697.648	2.17513
701.023	3.24998
704.398	4.13586
707.772	7.11017
711.147	7.69731
714.522	10.0609
717.897	10.4795
721.272	6.25772
724.646	2.84264
728.021	0.707409
731.396	0.172768
734.771	0.419357
738.146	0.475674
741.521	1.1129
744.895	0.885193
748.27	0.47517
751.645	0.655384
755.02	0.139015
758.395	0.957516
761.769	0.407585
765.144	0.155849
768.519	1.08249
771.894	0.083702
775.269	1.08038
778.644	1.00835
782.018	1.83112
785.393	1.51297
788.768	2.98473
792.143	2.09836
795.518	2.73699
798.893	3.86905
802.267	4.45544
805.642	4.70345
809.017	3.85646
812.392	2.46613
815.766	2.00559
819.141	1.73582
822.516	2.03592
825.891	1.72261
829.266	2.01295
832.641	2.73366
836.015	1.52713
839.39	1.43008
842.765	0.638523
846.14	0.036057
849.515	0.018639
852.889	0.201569
856.264	0.424072
859.639	0.23386
863.014	0.199249
866.389	0.225742
869.764	0.538006
873.138	1.28346
876.513	1.48332
879.888	1.24641
883.263	2.1526
886.638	3.30588
890.013	4.22556
893.387	6.12837
896.762	9.88617
900.137	16.6821
903.512	28.5202
906.887	54.6652
910.261	88.189
913.636	147.816
917.011	226.563
920.386	218.082
923.761	114.514
927.135	68.1135
930.51	48.1923
933.885	40.645
937.26	43.6314
940.635	53.8303
944.01	71.3884
947.384	101.235
950.759	109.639
954.134	74.834
957.509	37.7653
960.884	19.8877
964.259	10.7581
967.633	6.31463
971.008	4.02367
974.383	3.16153
977.758	0.140747
981.133	1.01007
984.507	0.456806
987.882	0.062519
991.257	0.669147
994.632	0.555534
998.007	0.218922
1001.38	1.61824
1004.76	2.16471
1008.13	7.76228
1011.51	13.2881
1014.88	20.583
1018.26	28.6194
1021.63	24.6978
1025.01	13.9127
1028.38	8.40357
1031.76	5.02429
1035.13	3.1876
1038.5	1.64771
1041.88	0.971729
1045.25	2.48826
1048.63	2.74166
1052	5.99637
1055.38	12.2933
1058.75	19.5627
1062.13	31.8747
1065.5	35.3179
1068.88	17.2179
1072.25	7.21342
1075.63	4.65322
1079	1.08119
1082.38	0.595966
1085.75	1.00204
1089.13	0.271435
1092.5	0.132149
1095.88	2.30976
1099.25	3.17076
1102.63	6.30306
1106	8.18722
1109.38	9.52949
1112.75	7.63607
1116.12	4.11396
1119.5	1.95809
1122.88	1.13514
1126.25	0.509422
1129.62	0.410656
1133	0.344322
1136.37	0.759655
1139.75	0.180962
1143.12	0.112099
1146.5	0.780895
1149.87	0.962353
1153.25	1.22096
1156.62	0.4772
1160	0.238308
1163.37	1.25911
1166.75	0.039162
1170.12	0.001305
1173.5	0.887505
1176.87	0.170803
1180.25	0.932709
1183.62	0.694229
1187	0.146824
1190.37	0.803726
1193.75	1.44453
1197.12	1.07665
1200.5	0.697536
1203.87	0.339069
1207.24	0.109104
1210.62	0.298332
1213.99	0.72876
1217.37	0.147873
1220.74	0.525208
1224.12	0.266315
1227.49	0.404495
1230.87	0.916122
1234.24	0.619415
1237.62	0.833008
1240.99	0.497223
1244.37	0.566753
1247.74	0.794376
1251.12	1.12656
1254.49	0.563923
1257.87	0.501431
1261.24	0.992226
1264.62	0.626926
1267.99	0.903065
1271.37	1.42644
1274.74	1.53768
1278.12	0.725143
1281.49	0.446831
1284.87	0.44051
1288.24	0.377945
1291.62	0.176411
1294.99	0.418541
1298.37	0.652214
1301.74	0.467445
