Measurement: Raman, 514 nm, unoriented, Raman Data Processed
Mineral: Andalusite
Rruff sample: R050449
Ideal chemistry: Al_2_SiO_5_
Locality: Itinga, Minas Gerais, Brazil
Source: Marcus Origlieri
Description: Green fragment
Measured chemistry: Al_2.00_Fe^3+^_0.01_Si_0.99_O_5_
Raman shift (cm-1)	intensity
96.161	0
100.34	22.743
104.516	52.351
108.691	59.758
112.864	140.396
117.034	347.282
121.203	268.892
125.369	186.884
129.534	155.947
133.696	170.91
137.857	181.388
142.016	180.622
146.172	168.5
150.327	69.704
154.48	119.135
158.63	127.007
162.779	216.407
166.926	69.76
171.07	102.223
175.213	131.638
179.354	76.193
183.493	89.321
187.63	296.195
191.765	337.55
195.898	91.009
200.029	131.512
204.158	28.642
208.285	52.402
212.41	28.692
216.533	36.9
220.654	52.876
224.773	31.665
228.891	100.423
233.006	848.222
237.119	2816.53
241.231	4060.89
245.34	2506.31
249.448	1632.38
253.553	1217.59
257.657	1193.07
261.758	1431.26
265.858	1666.69
269.956	2094.19
274.052	3015.4
278.146	5026.99
282.237	10077.1
286.327	24363.2
290.416	43909.5
294.502	31950.4
298.586	11226.4
302.668	4337.08
306.749	2381.97
310.827	2496.38
314.903	6373.4
318.978	16162
323.051	14405.3
327.121	5479.7
331.19	2617.34
335.257	1820.28
339.322	1807.74
343.385	2390.48
347.446	4434.94
351.505	11304.9
355.563	24927.4
359.618	28796.6
363.672	15492.4
367.723	7280.25
371.773	3763.89
375.821	2258.75
379.866	1623.54
383.91	1497.99
387.952	1119.62
391.992	899.129
396.031	545.238
400.067	373.04
404.101	371.533
408.134	323.719
412.165	142.604
416.193	97.221
420.22	166.517
424.245	28.516
428.268	23.123
432.289	32.274
436.309	28.918
440.326	55.071
444.342	195.793
448.355	982.06
452.367	2007.98
456.377	492.529
460.385	120.692
464.391	12.545
468.395	32.319
472.398	50.334
476.398	80.507
480.397	93.192
484.394	229.437
488.389	78.275
492.382	38.635
496.373	32.459
500.362	10.348
504.349	10.797
508.335	65.656
512.319	82.213
516.3	156.426
520.28	118.452
524.259	205.373
528.235	272.288
532.209	261.25
536.182	343.078
540.152	628.37
544.121	1026.15
548.088	2343.28
552.053	3370.59
556.017	2179.15
559.978	1345.57
563.938	1191.44
567.895	1815.64
571.851	2746.86
575.805	1874.49
579.758	988.791
583.708	712.458
587.657	523.397
591.603	460.469
595.548	445.169
599.491	322.182
603.432	296.812
607.372	290.696
611.309	292.09
615.245	424.14
619.179	552.284
623.111	771.244
627.041	1084.58
630.97	1101.24
634.896	570.551
638.821	379.092
642.744	417.057
646.665	411.092
650.584	308.516
654.502	254.387
658.418	144.112
662.331	51.583
666.244	18.648
670.154	24.437
674.062	59.599
677.969	108.184
681.874	82.435
685.777	21.756
689.678	123.941
693.577	158.96
697.475	106.07
701.371	89.595
705.265	80.822
709.157	5.768
713.047	329.44
716.936	300.906
720.823	244.176
724.708	52.264
728.591	74.843
732.472	96.753
736.352	75.108
740.23	114.179
744.106	5.962
747.98	26.228
751.853	54.397
755.723	100.96
759.592	65.595
763.459	25.694
767.325	69.846
771.188	32.886
775.05	111.134
778.91	21.712
782.768	21.638
786.625	207.578
790.479	71.55
794.332	45.582
798.183	313.667
802.033	340.818
805.88	301.091
809.726	551.516
813.57	411.049
817.413	549.328
821.253	658.789
825.092	595.281
828.929	500.71
832.764	449.66
836.598	496.331
840.429	351.518
844.259	190.868
848.088	122.669
851.914	17.275
855.739	208.727
859.562	3.842
863.383	121.991
867.203	227.184
871.02	150.69
874.836	326.535
878.65	489.736
882.463	601.23
886.274	784.197
890.083	975.215
893.89	1171.14
897.695	1598.54
901.499	2403.26
905.301	3389.15
909.102	6076.62
912.9	12448.3
916.697	28851
920.492	32342.2
924.285	14650.8
928.077	7362.44
931.867	5317.82
935.655	5375.7
939.442	6530.5
943.226	10782.4
947.009	21413.9
950.791	31760.9
954.57	21853.4
958.348	10826.5
962.124	5644.13
965.899	3442.37
969.671	2277.2
973.442	1736.69
977.211	1338.89
980.979	1093.56
984.745	606.465
988.509	517.773
992.271	569.662
996.032	684.09
999.791	475.625
1003.55	782.268
1007.3	894.24
1011.06	653.504
1014.81	670.795
1018.56	718.338
1022.31	800.955
1026.06	591.217
1029.8	822.15
1033.55	499.633
1037.29	544.02
1041.03	703.135
1044.77	831.938
1048.5	708.496
1052.24	1250.7
1055.97	1496.58
1059.7	3244.37
1063.43	6307.26
1067.16	5359.06
1070.89	2610.51
1074.61	1240.71
1078.34	830.281
1082.06	678.639
1085.78	323.6
1089.5	273.207
1093.21	206.439
1096.93	91.209
1100.64	213.553
1104.35	71.473
1108.06	153.959
1111.77	225.969
1115.48	149.576
1119.18	88.736
1122.89	231.459
1126.59	11.281
1130.29	133.014
1133.99	139.273
1137.68	80.273
1141.38	35.166
1145.07	243.285
1148.76	196.355
1152.45	169.482
1156.14	137.553
1159.83	163.064
1163.51	106.982
1167.19	220.018
1170.88	127.107
1174.56	35.256
1178.23	104.674
1181.91	112.309
1185.59	13.633
1189.26	238.744
1192.93	234.137
1196.6	146.693
1200.27	154.482
1203.94	120.439
1207.6	146.229
1211.27	200.908
1214.93	174.338
1218.59	313.725
1222.25	164.465
1225.9	293.748
1229.56	233.391
1233.21	50.537
1236.86	21.568
1240.51	267.879
1244.16	138.436
1247.81	260.254
1251.45	187.336
1255.1	230.648
1258.74	290.996
1262.38	193.436
1266.02	164.523
1269.66	161.598
1273.29	190.225
1276.93	204.592
1280.56	172.535
1284.19	82.918
1287.82	67.035
1291.45	257.465
1295.07	46.129
1298.7	127.178
1302.32	65.146
1305.94	90.543
1309.56	22.914
1313.18	87.732
1316.8	102.072
1320.41	146.43
1324.02	104.75
1327.63	4.227
1331.24	93.928
1334.85	142.906
1338.46	93.107
1342.06	42.473
1345.67	180.174
1349.27	139.52
1352.87	140.023
1356.47	19.771
1360.07	143.725
1363.66	177.844
1367.25	35.238
1370.85	63.838
1374.44	281.781
1378.03	124.611
1381.61	183.891
1385.2	336.758
1388.78	327.105
1392.37	142.615
1395.95	213.111
1399.53	319.094
1403.1	280.424
1406.68	156.234
1410.26	234.785
1413.83	125.928
1417.4	308.947
1420.97	190.449
1424.54	239.641
1428.1	53.99
1431.67	107.926
1435.23	110.363
1438.8	185.535
1442.36	119.646
1445.91	90.373
1449.47	173.205
1453.03	39.402
1456.58	132.543
1460.13	117.908
1463.68	83.08
1467.23	362.271
1470.78	273.029
1474.33	194.869
1477.87	1.025
1481.42	13.104
