Measurement: Raman, 780 nm, unoriented, Raman Data Processed
Mineral: Andalusite
Rruff sample: R050561
Ideal chemistry: Al_2_SiO_5_
Locality: Cargo Muchacho Mountain, Imperial County, California
Source: Dave Bunk Minerals
Description: Brown coarsely crystalline massive
Measured chemistry: (Al_1.98_Fe^3+^_0.02_)_Î£=2_Si_1.00_O_5_
Raman shift (cm-1)	intensity
97.9915	0
101.366	0.204376
104.741	2.34053
108.116	1.31674
111.491	1.74843
114.865	1.17195
118.24	1.12351
121.615	2.89744
124.99	4.83787
128.365	5.94664
131.74	5.46429
135.114	5.67243
138.489	8.23327
141.864	5.84818
145.239	4.39512
148.614	3.67672
151.988	3.26404
155.363	2.87103
158.738	0.975601
162.113	0.777557
165.488	0.186829
168.863	0.849174
172.237	0.331688
175.612	0.243263
178.987	0.98613
182.362	0.860741
185.737	2.30318
189.111	2.68011
192.486	2.85409
195.861	3.0058
199.236	5.96478
202.611	11.0938
205.986	10.2745
209.36	3.13786
212.735	3.42259
216.11	1.99648
219.485	3.97014
222.86	4.77208
226.234	5.78247
229.609	7.08201
232.984	6.89988
236.359	10.7902
239.734	11.324
243.108	9.19
246.483	4.16667
249.858	1.38223
253.233	0.154869
256.608	0.636307
259.983	1.93982
263.357	0.409035
266.732	5.4455
270.107	19.2632
273.482	36.312
276.857	52.6546
280.231	72.2885
283.606	103.344
286.981	155.464
290.356	190.245
293.731	125.177
297.106	53.2514
300.48	31.0556
303.855	28.6786
307.23	32.8992
310.605	50.7435
313.98	81.4977
317.354	133.22
320.729	160.458
324.104	90.3102
327.479	34.1607
330.854	15.1213
334.228	8.42984
337.603	13.4755
340.978	20.593
344.353	30.1815
347.728	41.4751
351.103	67.8426
354.477	97.9822
357.852	114.126
361.227	79.0564
364.602	39.2487
367.977	21.6047
371.351	14.8738
374.726	9.79885
378.101	3.85938
381.476	2.57686
384.851	1.21625
388.226	1.65267
391.6	0.970963
394.975	2.48444
398.35	0.857971
401.725	5.84551
405.099	12.4559
408.474	17.3191
411.849	25.492
415.224	36.7144
418.599	39.0351
421.974	17.5092
425.348	6.04832
428.723	0.950851
432.098	0.131973
435.473	1.34556
438.848	1.36669
442.223	2.82668
445.597	7.89041
448.972	19.5436
452.347	24.0734
455.722	1.20464
459.097	1.41409
462.471	2.0068
465.846	6.3451
469.221	8.88258
472.596	12.3752
475.971	16.6798
479.346	19.7416
482.72	17.2565
486.095	16.9578
489.47	12.0049
492.845	6.58836
496.219	2.42274
499.594	1.43842
502.969	0.631104
506.344	2.11273
509.719	1.30425
513.094	2.49484
516.468	2.19611
519.843	0.563889
523.218	0.510834
526.593	1.75351
529.968	3.79001
533.342	3.9511
536.717	7.63662
540.092	11.1184
543.467	17.4379
546.842	25.0569
550.217	30.2702
553.591	22.7843
556.966	10.5141
560.341	7.2543
563.716	4.48998
567.091	4.96938
570.466	3.56502
573.84	0.837494
577.215	1.54564
580.59	0.539459
583.965	0.989662
587.34	1.21198
590.714	0.833725
594.089	2.03072
597.464	2.98486
600.839	3.4767
604.214	6.80652
607.588	8.09505
610.963	5.03021
614.338	5.65286
617.713	5.07047
621.088	4.21819
624.462	2.68123
627.837	4.60164
631.212	1.54346
634.587	1.21851
637.962	1.18237
641.337	1.3891
644.711	0.565308
648.086	2.12122
651.461	2.45412
654.836	5.55685
658.211	7.94629
661.585	12.8808
664.96	9.14616
668.335	2.07787
671.71	1.69151
675.085	2.04387
678.46	2.85254
681.834	4.01285
685.209	4.61302
688.584	5.63847
691.959	5.41472
695.334	3.39912
698.708	6.70351
702.083	6.45828
705.458	9.69031
708.833	11.1738
712.208	14.2856
715.582	14.2457
718.957	10.8764
722.332	6.04275
725.707	2.40208
729.082	1.64383
732.457	4.07736
735.831	3.69165
739.206	2.68723
742.581	2.02792
745.956	3.3055
749.331	2.6626
752.705	1.64186
756.08	0.021713
759.455	0.49852
762.83	0.812134
766.205	0.233566
769.58	1.01974
772.954	0.424881
776.329	0.121048
779.704	0.404465
783.079	2.02773
786.454	1.90486
789.828	3.31776
793.203	3.59518
796.578	4.5246
799.953	7.0078
803.328	9.25648
806.702	10.6309
810.077	10.4796
813.452	9.0249
816.827	7.67955
820.202	8.32526
823.577	8.59051
826.951	6.49063
830.326	7.04127
833.701	5.1245
837.076	4.07277
840.451	2.22723
843.825	0.997803
847.2	0.997833
850.575	0.189056
853.95	1.04062
857.325	2.45
860.699	0.352631
864.074	1.07285
867.449	1.94699
870.824	0.394211
874.199	0.252655
877.573	2.99585
880.948	3.11586
884.323	2.38107
887.698	3.32942
891.073	6.78821
894.448	9.7968
897.822	18.4902
901.197	35.1051
904.572	68.4851
907.947	102.117
911.322	159.891
914.697	247.574
918.071	295.656
921.446	211.514
924.821	153.485
928.196	119.982
931.571	70.5705
934.945	41.3982
938.32	22.4343
941.695	17.8596
945.07	13.2223
948.445	13.2685
951.819	8.82547
955.194	4.88757
958.569	3.37471
961.944	1.36855
965.319	0.253647
968.693	0.072159
972.068	0.281265
975.443	0.436783
978.818	1.00913
982.193	0.201614
985.568	0.349838
988.942	0.139435
992.317	0.182175
995.692	1.79683
999.067	3.3779
1002.44	3.92502
1005.82	3.19084
1009.19	3.85699
1012.57	6.54512
1015.94	8.56723
1019.32	7.18727
1022.69	7.81612
1026.07	5.63196
1029.44	2.37921
1032.82	1.86349
1036.19	0.959549
1039.57	1.77803
1042.94	0.705551
1046.31	0.598663
1049.69	5.9223
1053.06	7.8954
1056.44	14.0898
1059.81	22.1781
1063.19	23.9085
1066.56	15.0066
1069.94	7.67952
1073.31	3.5827
1076.69	2.64259
1080.06	3.33034
1083.44	2.15447
1086.81	3.18628
1090.19	2.62448
1093.56	2.76863
1096.94	3.08582
1100.31	3.60258
1103.69	3.8217
1107.06	2.48906
1110.44	1.23131
1113.81	0.564529
1117.18	1.91432
1120.56	0.203735
1123.93	0.141647
1127.31	0.316055
1130.68	0.493103
1134.06	3.16367
1137.43	1.35938
1140.81	2.27603
1144.18	2.51775
1147.56	1.86641
1150.93	1.16522
1154.31	1.33795
1157.68	2.57202
1161.06	2.81915
1164.43	1.68091
1167.81	2.58372
1171.18	3.79979
1174.56	1.16177
1177.93	1.66151
1181.31	4.42479
1184.68	2.16499
1188.06	2.2216
1191.43	2.82015
1194.81	2.39998
1198.18	2.65501
1201.56	2.71048
1204.93	3.07088
1208.31	2.28441
1211.68	4.27757
1215.06	0.748642
1218.43	0.436203
1221.81	3.57689
1225.18	1.87547
1228.55	3.51355
1231.93	3.79684
1235.3	1.53671
1238.68	1.41707
1242.05	2.83403
1245.43	3.21062
1248.8	0.353149
1252.18	2.47537
1255.55	1.88098
1258.93	1.14734
1262.3	1.08644
1265.68	1.93691
1269.05	0.617172
1272.43	2.36984
1275.8	1.96162
1279.18	2.41602
1282.55	2.41962
1285.93	0.281372
