Measurement: Raman, 532 nm, unoriented, Raman Data Processed
Mineral: Andalusite
Rruff sample: R050449
Ideal chemistry: Al_2_SiO_5_
Locality: Itinga, Minas Gerais, Brazil
Source: Marcus Origlieri
Description: Green fragment
Measured chemistry: Al_2.00_Fe^3+^_0.01_Si_0.99_O_5_
Raman shift (cm-1)	intensity
148.862	0
151.755	2.55212
154.647	2.86894
157.54	1.60819
160.433	0.379944
163.325	1.61532
166.218	1.90733
169.111	1.05553
172.003	1.81309
174.896	0.344055
177.789	4.11309
180.681	3.22926
183.574	6.06735
186.467	10.0934
189.36	15.4374
192.252	12.3675
195.145	10.6074
198.038	6.94538
200.93	10.333
203.823	13.7321
206.716	11.6486
209.608	3.35355
212.501	1.20228
215.394	0.662674
218.287	0.681946
221.179	0.137772
224.072	0.014404
226.965	0.528908
229.857	0.123497
232.75	0.037346
235.643	1.39064
238.536	4.29712
241.428	6.24998
244.321	2.95187
247.214	0.26384
250.106	0.258095
252.999	1.12442
255.892	3.71281
258.784	1.4553
261.677	6.08478
264.57	11.0304
267.462	21.9879
270.355	44.2869
273.248	93.1265
276.141	154.008
279.033	182.06
281.926	230.669
284.819	319.439
287.711	457.892
290.604	590.138
293.497	470.435
296.389	205.904
299.282	87.4227
302.175	50.2837
305.068	48.4535
307.96	53.9064
310.853	69.5848
313.746	102.51
316.638	172.956
319.531	271.89
322.424	255.483
325.317	129.772
328.209	53.9973
331.102	33.6589
333.995	26.4481
336.887	26.1162
339.78	28.1255
342.673	36.3441
345.565	44.7869
348.458	60.1586
351.351	87.6236
354.243	133.501
357.136	181.803
360.029	168.141
362.922	101.769
365.814	49.6821
368.707	24.0198
371.6	16.7142
374.492	7.54675
377.385	4.41019
380.278	3.3129
383.171	3.24824
386.063	2.98321
388.956	2.00388
391.849	4.47021
394.741	1.85973
397.634	2.68207
400.527	2.78033
403.419	0.074249
406.312	7.73979
409.205	14.0606
412.098	18.1869
414.99	30.5816
417.883	37.2945
420.776	26.5964
423.668	13.5892
426.561	5.72243
429.454	2.33352
432.346	0.86982
435.239	4.57987
438.132	9.19354
441.024	13.5195
443.917	19.7733
446.81	29.9558
449.703	39.9269
452.595	45.8721
455.488	11.5061
458.381	1.06734
461.273	1.9828
464.166	2.9163
467.059	2.05391
469.952	0.500351
472.844	0.517494
475.737	1.04039
478.63	2.05404
481.522	1.99948
484.415	1.12315
487.308	1.49618
490.2	0.548096
493.093	0.825829
495.986	0.068741
498.878	3.45912
501.771	8.10638
504.664	10.2838
507.557	13.6984
510.449	13.9281
513.342	13.4675
516.235	12.9881
519.127	10.0569
522.02	9.57373
524.913	10.6353
527.806	13.1554
530.698	17.5529
533.591	27.7829
536.484	40.0487
539.376	55.2395
542.269	73.2804
545.162	93.7959
548.054	112.829
550.947	115.925
553.84	96.1555
556.732	65.8899
559.625	48.4344
562.518	39.5001
565.411	34.6119
568.303	33.373
571.196	31.4092
574.089	27.6343
576.981	22.9166
579.874	16.7963
582.767	12.8476
585.659	10.7439
588.552	7.76759
591.445	5.37852
594.338	6.29709
597.23	7.97185
600.123	13.8173
603.016	18.2037
605.908	23.204
608.801	27.6733
611.694	31.2272
614.587	36.0351
617.479	40.2675
620.372	43.8862
623.265	47.9518
626.157	50.7027
629.05	56.5729
631.943	54.4084
634.835	52.2305
637.728	48.922
640.621	48.2942
643.514	43.9617
646.406	42.7211
649.299	38.6258
652.192	30.7356
655.084	24.8181
657.977	17.1084
660.87	15.0349
663.762	13.2389
666.655	3.34904
669.548	0.650879
672.441	2.38451
675.333	2.70837
678.226	0.254044
681.119	0.360619
684.011	0.10009
686.904	0.343498
689.797	2.19806
692.689	3.46348
695.582	2.43393
698.475	4.9586
701.367	9.47749
704.26	12.7638
707.153	16.4576
710.046	21.8339
712.938	27.9172
715.831	31.4622
718.724	29.0787
721.616	21.1807
724.509	10.9819
727.402	8.25414
730.294	6.00588
733.187	6.08618
736.08	3.15713
738.973	3.00427
741.865	2.50831
744.758	1.57555
747.651	1.62115
750.543	1.35892
753.436	1.59712
756.329	1.13709
759.221	2.02492
762.114	1.59417
765.007	1.14077
767.9	0.257538
770.792	1.09098
773.685	0.150902
776.578	2.17075
779.47	4.73757
782.363	4.90298
785.256	6.92688
788.149	8.43806
791.041	12.4045
793.934	17.0668
796.827	22.0983
799.719	27.6815
802.612	37.1816
805.505	49.6388
808.397	64.1172
811.29	74.8813
814.183	89.6076
817.076	102.574
819.968	106.593
822.861	94.1605
825.754	79.5997
828.646	62.8871
831.539	52.2921
834.432	41.6264
837.324	32.1136
840.217	19.9239
843.11	13.202
846.003	7.62965
848.895	4.58707
851.788	1.86504
854.681	0.470726
857.573	1.0454
860.466	1.54649
863.359	0.544395
866.251	0.219711
869.144	0.374481
872.037	0.538986
874.929	0.755386
877.822	2.94458
880.715	3.24535
883.608	5.4584
886.5	8.54485
889.393	11.7085
892.286	17.6558
895.178	26.3023
898.071	41.0278
900.964	63.9422
903.856	97.5867
906.749	159.677
909.642	232.684
912.535	326.803
915.427	470.006
918.32	585.341
921.213	465.213
924.105	290.301
926.998	215.282
929.891	161.051
932.784	109.681
935.676	80.647
938.569	71.9894
941.462	74.1975
944.354	84.3532
947.247	99.0193
950.14	100.918
953.032	77.1606
955.925	42.8468
958.818	22.2346
961.711	10.3271
964.603	6.1389
967.496	1.51491
970.389	0.484055
973.281	0.915939
976.174	2.88011
979.067	0.550919
981.959	0.278931
984.852	0.697052
987.745	2.02757
990.638	4.96701
993.53	14.5223
996.423	24.0557
999.316	41.767
1002.21	62.4192
1005.1	73.7403
1007.99	70.3574
1010.89	65.4882
1013.78	73.0107
1016.67	88.5336
1019.57	88.8101
1022.46	64.4736
1025.35	36.7486
1028.24	21.9863
1031.13	13.09
1034.03	8.37875
1036.92	6.30554
1039.81	3.43456
1042.71	2.99133
1045.6	5.59364
1048.49	7.21666
1051.38	16.7648
1054.28	32.3956
1057.17	51.9541
1060.06	82.1876
1062.95	111.685
1065.85	95.5902
1068.74	51.1652
1071.63	25.4496
1074.53	13.1375
1077.42	6.2279
1080.31	4.32724
1083.2	2.30708
1086.1	0.887161
1088.99	0.689651
1091.88	0.693848
1094.78	5.8248
1097.67	7.40611
1100.56	13.92
1103.45	20.6676
1106.35	25.684
1109.24	27.4965
1112.13	23.7469
1115.02	13.9131
1117.92	6.77536
1120.81	1.93715
1123.7	0.157166
1126.59	0.584442
1129.49	0.675766
1132.38	0.47171
1135.27	0.094604
1138.16	1.00334
1141.06	0.418442
1143.95	1.63199
1146.84	1.7814
1149.74	2.96832
1152.63	1.88538
1155.52	0.021835
1158.41	0.589661
1161.31	2.91392
1164.2	2.72226
1167.09	1.77159
1169.98	4.15202
1172.88	3.70872
1175.77	4.49174
1178.66	4.33626
1181.56	4.14772
1184.45	3.72044
1187.34	3.68094
1190.23	3.81253
1193.13	2.88136
1196.02	1.50327
1198.91	1.87802
1201.81	2.90736
1204.7	3.71428
1207.59	1.64491
1210.48	3.51868
1213.38	2.96922
1216.27	1.71251
1219.16	1.68558
1222.05	0.310822
1224.95	1.64887
1227.84	2.62718
1230.73	0.009644
1233.62	3.07193
1236.52	1.2231
1239.41	1.2439
1242.3	0.098007
1245.19	1.78023
1248.09	1.2854
1250.98	0.854767
1253.87	1.22099
1256.77	2.08383
1259.66	3.98689
1262.55	1.9922
1265.44	2.3376
1268.34	1.05942
1271.23	2.0739
1274.12	1.64323
1277.02	0.316528
1279.91	0.458542
