Measurement: Raman, 514 nm, unoriented, Raman Data Processed
Mineral: Andalusite
Rruff sample: R050258
Ideal chemistry: Al_2_SiO_5_
Locality: Bautista Canyon, near Hemet, Riverside County, California, USA
Source: Marcus Origlieri
Description: Brown fragment
Measured chemistry: Al_2.00_Si_1.00_O_5_
Raman shift (cm-1)	intensity
124.05	0
128.232	47.663
132.412	48.463
136.59	65.45
140.766	60.842
144.94	147.867
149.111	64.081
153.281	82.575
157.448	94.835
161.614	64.649
165.777	110.674
169.938	13.662
174.098	43.136
178.255	111.055
182.41	123.667
186.563	34.695
190.714	30.092
194.863	102.82
199.01	25.149
203.155	50.163
207.298	148.736
211.439	100.433
215.577	26.76
219.714	55.16
223.849	62.19
227.982	13.371
232.112	5.246
236.241	143.531
240.367	290.565
244.492	246.732
248.614	206.99
252.735	255.37
256.853	236.84
260.97	142.42
265.084	209.106
269.197	266.9
273.307	960.8
277.415	1615.8
281.522	2655.94
285.626	6819.21
289.728	13163.9
293.828	10457.8
297.927	3811.95
302.023	1682.28
306.117	1023.72
310.209	768.288
314.3	1780.51
318.388	4904.19
322.474	5189.01
326.558	2299.93
330.64	1649.62
334.721	1501.1
338.799	1254.96
342.875	954.624
346.949	941.107
351.022	1487.7
355.092	3029.05
359.16	3954.23
363.226	2340.25
367.291	1278.26
371.353	768.87
375.413	436.083
379.472	418.501
383.528	454.848
387.582	309.258
391.635	124.73
395.685	106.036
399.733	123.623
403.78	76.261
407.824	40.948
411.867	55.683
415.907	168.464
419.946	121.29
423.983	68.16
428.017	8.074
432.05	65.139
436.081	116.223
440.109	43.347
444.136	118.504
448.161	484.692
452.184	885.916
456.205	261.2
460.224	9.529
464.241	105.919
468.256	107.361
472.269	159.861
476.28	113.404
480.289	8.985
484.297	61.602
488.302	132.914
492.305	30.349
496.307	41.739
500.306	70.259
504.304	135.818
508.299	57.805
512.293	12.695
516.285	7.154
520.275	48.42
524.262	131.977
528.248	62.648
532.232	133.409
536.214	155.046
540.195	395.59
544.173	796.151
548.149	1742.76
552.124	1914.33
556.096	1114.93
560.067	517.562
564.035	289.234
568.002	100.904
571.967	194.556
575.929	277.182
579.89	183.857
583.85	128.499
587.807	47.394
591.762	190.257
595.715	218.87
599.667	229.368
603.616	190.741
607.564	204.447
611.509	208.758
615.453	103.976
619.395	169.693
623.335	187.913
627.273	203.434
631.209	243.552
635.144	147.166
639.076	53.126
643.007	22.158
646.935	65.905
650.862	200.902
654.787	141.342
658.71	46.263
662.631	6.802
666.55	79.468
670.468	91.017
674.383	9.845
678.297	59.765
682.208	28.584
686.118	14.334
690.026	162.372
693.932	150.149
697.836	96.494
701.739	42.674
705.639	176.323
709.538	396.549
713.434	449.293
717.329	583.311
721.222	536.905
725.113	181.183
729.003	266.06
732.89	246.867
736.775	186.604
740.659	27.269
744.541	67.855
748.421	4.209
752.299	196.467
756.175	168.66
760.05	63.788
763.922	68.845
767.793	67.827
771.662	187.729
775.529	81.558
779.394	91.298
783.257	30.937
787.119	7.496
790.978	62.982
794.836	133.414
798.692	128.453
802.546	154.41
806.398	85.896
810.249	142.878
814.097	194.721
817.944	190.405
821.789	138.586
825.632	61.381
829.474	97.818
833.313	265.333
837.151	175.033
840.986	86.349
844.82	5.544
848.653	27.178
852.483	12.997
856.311	9.232
860.138	100.536
863.963	50.713
867.786	89.04
871.607	84.492
875.427	27.97
879.244	155.454
883.06	47.942
886.874	166.44
890.686	150.882
894.497	242.985
898.305	453.56
902.112	880.645
905.917	1257.33
909.72	1953.92
913.522	4336.62
917.321	10579
921.119	11050.7
924.915	5093.54
928.709	2924.84
932.502	1737.62
936.292	1227.99
940.081	1210.36
943.868	1743.31
947.653	3136.28
951.437	3578.18
955.218	2101.33
958.998	924.542
962.776	478.814
966.553	272.168
970.327	320.024
974.1	382.078
977.871	157.455
981.64	162.039
985.407	127.762
989.173	125.617
992.937	162.562
996.699	183.181
1000.46	415.404
1004.22	412.066
1007.97	476.165
1011.73	896.198
1015.48	1787.7
1019.23	2948.07
1022.98	2438.77
1026.73	1427.33
1030.48	782.868
1034.22	428.552
1037.96	342.491
1041.71	293.727
1045.44	495.76
1049.18	647.077
1052.92	692.609
1056.65	928.509
1060.38	1604.55
1064.11	3411.02
1067.84	3066.83
1071.57	1512.53
1075.3	908.703
1079.02	614.394
1082.74	321.043
1086.46	247.078
1090.18	143.316
1093.89	248.982
1097.61	345.22
1101.32	580.991
1105.03	646.83
1108.74	982.732
1112.45	989.097
1116.16	585.588
1119.86	241.644
1123.56	257.808
1127.26	204.914
1130.96	213.132
1134.66	255.061
1138.36	62.524
1142.05	126.016
1145.74	113.38
1149.43	84.976
1153.12	201.533
1156.81	170.887
1160.49	207.804
1164.18	246.782
1167.86	188.379
1171.54	45.497
1175.22	1.146
1178.89	63.863
1182.57	208.338
1186.24	274.265
1189.91	331.667
1193.58	257.952
1197.25	165.758
1200.92	103.367
1204.58	76.178
1208.24	29.038
1211.91	191.434
1215.57	323.55
1219.22	275.678
1222.88	307.173
1226.53	240.315
1230.19	122.817
1233.84	74.288
1237.49	373.792
1241.13	496.351
1244.78	266.643
1248.43	306.894
1252.07	347.129
1255.71	437.227
1259.35	176.83
1262.99	166.118
1266.62	85.527
1270.26	74.424
1273.89	193.045
1277.52	231.396
1281.15	389.303
1284.78	266.258
1288.4	186.083
1292.03	142.248
1295.65	53.543
1299.27	32.113
1302.89	43.129
1306.51	64.633
1310.12	218.513
1313.73	231.986
1317.35	322.177
1320.96	214.391
1324.57	216.835
1328.17	49.3
1331.78	29.108
1335.38	7.074
1338.99	36.053
1342.59	219.43
1346.19	370.268
1349.78	492.349
1353.38	332.358
1356.97	462.787
1360.57	352.971
1364.16	203.144
1367.75	2.633
1371.33	12.458
1374.92	91.065
1378.5	322.354
1382.09	341.316
1385.67	523.054
1389.25	477.186
1392.82	610.146
1396.4	412.245
1399.97	263.102
1403.55	225.362
1407.12	87.805
1410.69	116.15
1414.25	229.328
1417.82	287.874
1421.38	505.291
1424.95	548.489
1428.51	552.442
1432.07	309.729
1435.63	311.829
1439.18	57.158
1442.74	12.68
1446.29	47.963
1449.84	137.471
1453.39	230.039
1456.94	243.622
1460.48	466.033
1464.03	557.499
1467.57	718.334
1471.12	558.882
1474.65	419.126
1478.19	343
1481.73	257.481
1485.27	180.201
1488.8	35.473
1492.33	50.178
1495.86	96.626
1499.39	274.502
1502.92	434.201
1506.44	525.976
1509.97	695.121
1513.49	568.984
1517.01	536.692
1520.53	341.511
1524.05	0
