Measurement: Raman, 532 nm, unoriented, Raman Data Processed
Mineral: Andalusite
Rruff sample: R050561
Ideal chemistry: Al_2_SiO_5_
Locality: Cargo Muchacho Mountain, Imperial County, California
Source: Dave Bunk Minerals
Description: Brown coarsely crystalline massive
Measured chemistry: (Al_1.98_Fe^3+^_0.02_)_Î£=2_Si_1.00_O_5_
Raman shift (cm-1)	intensity
127.786	0
131.161	3.15478
134.536	1.52292
137.911	4.81244
141.285	10.0799
144.66	9.49609
148.035	8.1517
151.41	5.65227
154.785	5.92279
158.159	1.22185
161.534	3.00139
164.909	1.346
168.284	1.16005
171.659	0.851707
175.033	0.91058
178.408	1.89922
181.783	1.91328
185.158	2.78667
188.533	4.11633
191.907	6.11184
195.282	2.92084
198.657	5.65543
202.032	8.79414
205.407	13.4982
208.782	6.0524
212.156	3.42053
215.531	2.13917
218.906	0.501869
222.281	3.05183
225.656	3.66296
229.03	4.57647
232.405	4.83566
235.78	8.2677
239.155	11.1139
242.53	11.7442
245.905	6.4482
249.279	1.24191
252.654	0.735519
256.029	1.188
259.404	3.20467
262.779	0.392822
266.154	2.72648
269.528	12.918
272.903	32.2365
276.278	59.1682
279.653	85.318
283.028	129.817
286.402	209.064
289.777	311.481
293.152	278.558
296.527	123.721
299.902	48.5352
303.276	31.1914
306.651	36.8284
310.026	53.8915
313.401	90.1389
316.776	180.952
320.151	280.546
323.525	177.219
326.9	66.8939
330.275	19.0918
333.65	6.42174
337.025	5.81957
340.399	16.744
343.774	31.4748
347.149	53.282
350.524	89.9224
353.899	151.498
357.274	208.386
360.648	171.683
364.023	88.8799
367.398	46.5513
370.773	29.045
374.148	18.2561
377.522	9.13042
380.897	5.17214
384.272	2.22433
387.647	1.34908
391.022	5.45318
394.397	1.23515
397.771	1.61443
401.146	1.37268
404.521	6.73551
407.896	11.306
411.271	17.9653
414.645	29.4355
418.02	38.3466
421.395	24.1285
424.77	9.24529
428.145	3.70221
431.519	0.926895
434.894	0.436455
438.269	6.45847
441.644	11.0576
445.019	20.9186
448.394	33.9542
451.768	52.7151
455.143	16.0637
458.518	1.94917
461.893	0.817825
465.268	0.99791
468.642	4.5351
472.017	8.01336
475.392	10.372
478.767	16.7779
482.142	15.6838
485.517	10.0805
488.891	3.69694
492.266	1.01893
495.641	2.22446
499.016	1.23917
502.391	6.13872
505.765	13.3318
509.14	18.6811
512.515	19.866
515.89	18.3081
519.265	13.9324
522.64	9.93062
526.014	10.6481
529.389	14.6367
532.764	18.7037
536.139	28.5921
539.514	40.7473
542.889	53.8637
546.263	69.8783
549.638	85.1286
553.013	81.7327
556.388	56.8461
559.763	43.6165
563.137	37.9802
566.512	33.4888
569.887	30.2993
573.262	27.8967
576.637	23.5618
580.011	15.011
583.386	8.13356
586.761	3.27877
590.136	0.790085
593.511	0.051331
596.886	0.936882
600.26	3.69406
603.635	10.4762
607.01	16.9235
610.385	24.4786
613.76	30.508
617.135	36.0434
620.509	37.7636
623.884	38.7403
627.259	42.3432
630.634	41.5661
634.009	38.7989
637.383	33.7131
640.758	31.9303
644.133	28.6337
647.508	25.9688
650.883	18.175
654.257	10.0908
657.632	6.22552
661.007	8.51741
664.382	5.27369
667.757	2.45217
671.131	2.42408
674.506	0.907028
677.881	3.94505
681.256	6.58191
684.631	8.72557
688.006	10.7093
691.38	12.1834
694.755	12.5668
698.13	15.6689
701.505	17.5381
704.88	19.6605
708.255	24.8568
711.629	28.8166
715.004	27.4969
718.379	20.516
721.754	8.84152
725.129	3.17444
728.503	0.345757
731.878	1.06709
735.253	1.67853
738.628	3.41744
742.003	7.33787
745.378	5.1585
748.752	3.96819
752.127	4.04493
755.502	2.12218
758.877	2.24194
762.252	1.4086
765.626	0.162392
769.001	0.440041
772.376	1.74209
775.751	2.00166
779.126	5.35938
782.5	6.60179
785.875	9.43948
789.25	11.5833
792.625	17.5361
796	25.3878
799.375	37.2467
802.749	52.4064
806.124	67.4125
809.499	78.0872
812.874	86.541
816.249	95.4497
819.624	99.7176
822.998	90.6638
826.373	71.7563
829.748	55.6346
833.123	42.5409
836.498	29.6051
839.872	17.3375
843.247	7.47415
846.622	4.02159
849.997	1.60208
853.372	0.64579
856.746	0.884804
860.121	1.01919
863.496	0.531128
866.871	0.233276
870.246	1.18703
873.62	1.55068
876.995	2.54269
880.37	3.58948
883.745	5.94835
887.12	11.293
890.495	14.9741
893.869	22.1146
897.244	35.065
900.619	56.7987
903.994	96.6535
907.369	162.929
910.744	262.431
914.118	434.784
917.493	613.792
920.868	505.547
924.243	314.04
927.618	234.027
930.992	148.359
934.367	84.1455
937.742	49.2587
941.117	35.8203
944.492	26.9251
947.866	24.5725
951.241	19.9463
954.616	11.8711
957.991	4.7838
961.366	1.59387
964.741	0.558235
968.115	0.32029
971.49	1.00816
974.865	1.01189
978.24	0.288864
981.615	1.52209
984.99	1.71227
988.364	2.80124
991.739	9.56644
995.114	20.4834
998.489	33.6371
1001.86	56.1398
1005.24	66.6977
1008.61	47.1946
1011.99	32.3544
1015.36	30.6541
1018.74	30.5209
1022.11	24.267
1025.49	16.1667
1028.86	9.78697
1032.24	6.7244
1035.61	5.56986
1038.99	3.47183
1042.36	0.607788
1045.74	0.127937
1049.11	0.813683
1052.49	7.04582
1055.86	16.6023
1059.23	36.1004
1062.61	56.7744
1065.98	44.5855
1069.36	19.4765
1072.73	10.5855
1076.11	7.23459
1079.48	5.25539
1082.86	7.18239
1086.23	4.98684
1089.61	5.68881
1092.98	4.35271
1096.36	3.17261
1099.73	3.24738
1103.11	3.92248
1106.48	3.9815
1109.86	3.44668
1113.23	2.24445
1116.61	0.832344
1119.98	0.599335
1123.36	0.470627
1126.73	0.378082
1130.11	0.810753
1133.48	0.481583
1136.86	0.346603
1140.23	1.36443
1143.61	0.523537
1146.98	3.11581
1150.36	2.75888
1153.73	2.74383
1157.11	2.32254
1160.48	2.01862
1163.86	2.9561
1167.23	1.39757
1170.6	3.62893
1173.98	3.5911
1177.35	2.99299
1180.73	3.3821
1184.1	3.39437
1187.48	3.98456
1190.85	2.65511
1194.23	3.10279
1197.6	2.55247
1200.98	2.30925
1204.35	2.2417
1207.73	0.708599
1211.1	0.978157
1214.48	0.857212
1217.85	0.547241
1221.23	1.73267
1224.6	0.477764
1227.98	0.679977
1231.35	0.675411
1234.73	1.22008
1238.1	0.264378
1241.48	1.63193
1244.85	0.702694
1248.22	0.36903
1251.6	0.622452
1254.97	0.732544
1258.35	0.572605
1261.72	2.38232
1265.1	0.603142
1268.47	1.91137
1271.85	1.64243
1275.22	0.617149
1278.6	1.69223
1281.97	1.33237
1285.35	1.33594
1288.72	0.065681
1292.1	0.234344
