Measurement: Raman, 780 nm, unoriented, Raman Data Processed
Mineral: Andalusite
Rruff sample: R050626
Ideal chemistry: Al_2_SiO_5_
Locality: Minas Gerais, Brazil
Source: Gemological Center
Description: Grayish brown fragment
Measured chemistry: (Al_1.99_Fe^3+^_0.01_)_Î£=1_Si_1.00_O_5_
Raman shift (cm-1)	intensity
102.331	0
105.705	1.57497
109.08	4.50501
112.455	0.71241
115.83	0.3801
119.205	2.06744
122.579	2.13284
125.954	2.62223
129.329	3.2251
132.704	2.05833
136.079	2.35565
139.453	2.91384
142.828	2.70801
146.203	1.34855
149.578	2.93559
152.953	2.1505
156.327	2.5861
159.702	3.63808
163.077	6.06312
166.452	6.18034
169.827	7.00569
173.202	6.79411
176.576	5.44779
179.951	5.46144
183.326	5.79602
186.701	9.07975
190.076	11.422
193.451	6.45264
196.825	4.53865
200.2	2.63948
203.575	4.64475
206.95	2.60891
210.325	0.692265
213.699	1.85909
217.074	1.78911
220.449	1.00745
223.824	0.79184
227.199	0.811089
230.573	0.814438
233.948	6.15077
237.323	20.5374
240.698	28.5712
244.073	13.5396
247.447	5.51258
250.822	1.58908
254.197	0.809113
257.572	2.93893
260.947	5.83708
264.322	10.9122
267.696	25.4364
271.071	54.4882
274.446	101.763
277.821	123.199
281.196	151.643
284.57	235.952
287.945	403.371
291.32	557.718
294.695	305.043
298.07	104.844
301.445	51.9636
304.819	40.7126
308.194	35.3888
311.569	50.4278
314.944	90.4808
318.319	195.556
321.693	241.994
325.068	109.72
328.443	56.1516
331.818	49.5318
335.193	46.0051
338.567	50.2864
341.942	54.3409
345.317	62.2262
348.692	82.7364
352.067	128.645
355.442	214.311
358.816	246.431
362.191	146.437
365.566	65.7665
368.941	31.1399
372.316	16.4242
375.69	6.73586
379.065	4.02679
382.44	3.21149
385.815	1.07181
389.19	0.56765
392.565	1.64959
395.939	3.35665
399.314	3.40458
402.689	2.10245
406.064	0.497234
409.439	0.578327
412.813	3.77085
416.188	9.39619
419.563	9.21347
422.938	3.24646
426.313	0.961315
429.688	1.73248
433.062	2.16656
436.437	4.78665
439.812	4.34093
443.187	7.69468
446.562	13.0021
449.936	24.8437
453.311	23.6183
456.686	7.89835
460.061	4.36908
463.436	3.82058
466.81	4.65535
470.185	8.09817
473.56	9.04797
476.935	6.812
480.31	8.61592
483.685	8.20862
487.059	5.26174
490.434	2.77605
493.809	2.52152
497.184	0.792603
500.559	1.13372
503.933	0.165592
507.308	0.326847
510.683	0.357449
514.058	0.378426
517.433	0.876396
520.808	0.939468
524.182	0.877502
527.557	0.812286
530.932	6.05826
534.307	8.64119
537.682	14.788
541.056	21.4036
544.431	38.331
547.806	62.7559
551.181	62.1354
554.556	40.4078
557.93	19.7883
561.305	11.0221
564.68	8.6042
568.055	9.41796
571.43	13.5609
574.804	9.23413
578.179	4.09543
581.554	1.41113
584.929	0.114761
588.304	1.02674
591.679	1.63469
595.053	2.22268
598.428	3.75714
601.803	4.99641
605.178	7.27824
608.553	5.9842
611.928	3.00332
615.302	0.618027
618.677	0.764931
622.052	0.486015
625.427	2.78355
628.802	3.78801
632.176	1.80743
635.551	0.011116
638.926	0.626976
642.301	2.47259
645.676	2.45525
649.05	2.31484
652.425	0.60627
655.8	1.03525
659.175	2.51666
662.55	2.73526
665.924	1.4084
669.299	0.60862
672.674	0.317123
676.049	1.26192
679.424	0.325279
682.799	0.087128
686.173	1.19761
689.548	0.643539
692.923	0.402374
696.298	1.28597
699.673	2.92338
703.048	4.07772
706.422	6.81092
709.797	10.4268
713.172	15.1417
716.547	18.804
719.922	17.6379
723.296	10.6108
726.671	6.05962
730.046	2.72282
733.421	2.7532
736.796	2.2997
740.17	2.17992
743.545	1.4501
746.92	1.50406
750.295	0.06073
753.67	1.16768
757.044	0.447151
760.419	0.595497
763.794	0.58638
767.169	0.926315
770.544	0.821487
773.919	1.40532
777.293	1.31774
780.668	0.315712
784.043	1.51454
787.418	0.900764
790.793	0.426331
794.167	2.36643
797.542	3.19215
800.917	3.35325
804.292	4.96849
807.667	4.5681
811.042	4.74027
814.416	5.89215
817.791	6.2955
821.166	5.67574
824.541	7.77557
827.916	10.082
831.29	11.7606
834.665	11.2498
838.04	6.62453
841.415	4.23964
844.79	1.50931
848.164	0.476822
851.539	2.42271
854.914	0.249619
858.289	1.25114
861.664	0.359207
865.039	0.359688
868.413	1.48714
871.788	0.959717
875.163	1.34139
878.538	2.04077
881.913	1.81578
885.287	3.4772
888.662	6.54794
892.037	10.172
895.412	14.5687
898.787	24.5887
902.162	42.3203
905.536	74.3175
908.911	115.452
912.286	175.861
915.661	296.483
919.036	373.425
922.41	212.819
925.785	115.155
929.16	79.2394
932.535	57.0866
935.91	52.2673
939.284	60.9731
942.659	75.8772
946.034	106.487
949.409	133.533
952.784	103.454
956.159	54.0133
959.533	26.7272
962.908	15.2789
966.283	6.78012
969.658	4.28686
973.033	2.69287
976.407	0.33165
979.782	0.014114
983.157	1.41873
986.532	0.508011
989.907	0.620743
993.282	1.48029
996.656	1.99206
1000.03	5.78749
1003.41	9.41304
1006.78	18.9669
1010.16	28.0098
1013.53	45.6065
1016.9	68.7265
1020.28	68.0416
1023.65	41.1139
1027.03	20.7434
1030.4	12.885
1033.78	9.26211
1037.15	6.94154
1040.53	5.89417
1043.9	5.82706
1047.28	9.28004
1050.65	15.517
1054.03	24.7222
1057.4	37.8521
1060.78	65.2978
1064.15	87.2414
1067.53	54.2441
1070.9	23.4536
1074.28	10.0188
1077.65	5.67543
1081.03	1.03682
1084.4	0.368454
1087.78	0.019852
1091.15	2.72049
1094.53	4.20822
1097.9	7.47144
1101.28	12.7379
1104.65	18.2255
1108.03	24.4337
1111.4	21.9057
1114.78	12.0348
1118.15	6.5312
1121.52	1.86708
1124.9	0.180771
1128.27	0.462723
1131.65	0.043182
1135.02	0.067459
1138.4	1.98717
1141.77	1.61549
1145.15	0.356339
1148.52	0.589203
1151.9	0.518387
1155.27	0.774414
1158.65	1.04968
1162.02	2.37436
1165.4	3.18887
1168.77	0.981323
1172.15	3.20491
1175.52	1.67398
1178.9	2.77467
1182.27	1.93814
1185.65	0.803833
1189.02	2.36104
1192.4	2.24094
1195.77	1.6788
1199.14	0.977142
1202.52	2.67218
1205.89	2.21526
1209.27	1.56674
1212.64	1.59383
1216.02	1.65466
1219.39	1.02498
1222.77	1.75249
1226.14	1.39365
1229.52	1.97205
1232.89	0.433746
1236.27	1.70201
1239.64	0.27536
1243.02	2.40564
1246.39	2.12375
1249.77	1.03474
1253.14	2.0527
1256.52	1.02075
1259.89	0.655334
1263.27	2.28343
1266.64	2.20908
1270.02	2.42117
1273.39	0.446671
1276.77	2.35657
1280.14	0.567215
1283.52	2.16727
