Measurement: Raman, 532 nm, unoriented, Raman Data Processed
Mineral: Andalusite
Rruff sample: R060197
Ideal chemistry: Al_2_SiO_5_
Locality: Brazil
Source: Marcus Origlieri
Description: Green colored water worn pebble
Measured chemistry: (Al_1.97_Mn^3+^_0.03_)_Î£=2_Si_1.00_O_5_
Raman shift (cm-1)	intensity
132.125	0
135.5	0.012695
138.875	3.84672
142.25	5.78942
145.624	4.94727
148.999	9.25586
152.374	6.67536
155.749	8.63381
159.124	6.80563
162.498	9.38945
165.873	8.58419
169.248	9.8312
172.623	10.8813
175.998	8.20962
179.373	10.128
182.747	10.1406
186.122	14.2557
189.497	17.7798
192.872	25.3765
196.247	33.7006
199.621	14.257
202.996	8.77761
206.371	6.82267
209.746	8.42501
213.121	13.2676
216.495	16.0249
219.87	2.44166
223.245	0.998795
226.62	3.75781
229.995	2.90251
233.37	2.11715
236.744	0.320824
240.119	3.71588
243.494	3.00859
246.869	4.75474
250.244	6.25396
253.619	12.0687
256.993	25.8
260.368	74.6747
263.743	84.9658
267.118	28.0838
270.493	37.2895
273.867	71.7751
277.242	95.5421
280.617	121.264
283.992	179.397
287.367	266.044
290.741	305.2
294.116	196.632
297.491	90.1628
300.866	46.9684
304.241	41.4461
307.615	41.7361
310.99	59.8556
314.365	103.172
317.74	175.641
321.115	177.351
324.49	91.0139
327.864	44.6995
331.239	29.4562
334.614	25.8441
337.989	29.5617
341.364	40.7388
344.738	54.957
348.113	75.1831
351.488	114.619
354.863	156.32
358.238	171.761
361.613	118.885
364.987	60.875
368.362	32.5363
371.737	18.7894
375.112	11.3585
378.487	6.44789
381.861	4.0678
385.236	3.88749
388.611	3.4679
391.986	3.07101
395.361	2.05518
398.736	3.90004
402.11	3.07515
405.485	0.457397
408.86	1.59488
412.235	3.65505
415.61	7.17812
418.985	11.1711
422.359	8.59025
425.734	5.42525
429.109	3.81155
432.484	5.99642
435.859	9.1981
439.233	13.9497
442.608	18.9618
445.983	28.0732
449.358	42.015
452.733	42.1597
456.108	15.5416
459.482	10.1819
462.857	13.2094
466.232	17.9352
469.607	22.6152
472.982	26.399
476.356	26.4874
479.731	24.5269
483.106	22.2936
486.481	14.5216
489.856	6.88908
493.231	2.55125
496.605	0.330406
499.98	0.023399
503.355	3.23935
506.73	5.36224
510.105	5.26769
513.479	5.55874
516.854	2.42057
520.229	1.13093
523.604	1.58166
526.979	0.937714
530.354	0.61908
533.728	3.36173
537.103	6.66782
540.478	16.4518
543.853	29.3165
547.227	43.9498
550.602	44.8909
553.977	25.9402
557.352	10.4887
560.727	4.97733
564.102	6.32384
567.476	7.40569
570.851	10.2467
574.226	12.1425
577.601	14.2962
580.976	16.2039
584.351	19.6501
587.725	26.0552
591.1	33.3362
594.475	37.5876
597.85	40.1738
601.225	42.7012
604.599	44.8933
607.974	43.2706
611.349	38.4744
614.724	34.2048
618.099	30.211
621.473	25.4529
624.848	21.6287
628.223	15.9948
631.598	10.7718
634.973	7.3934
638.348	3.87248
641.722	3.92019
645.097	2.58893
648.472	0.257202
651.847	1.98196
655.222	0.144035
658.596	1.22969
661.971	4.64281
665.346	4.77418
668.721	5.29956
672.096	11.4537
675.471	16.5143
678.845	19.4507
682.22	24.013
685.595	27.0902
688.97	31.6131
692.345	34.8344
695.72	37.7182
699.094	45.5044
702.469	54.143
705.844	63.3599
709.219	60.6393
712.594	49.6103
715.968	37.8494
719.343	23.1808
722.718	10.3564
726.093	2.61698
729.468	0.923035
732.842	0.952118
736.217	1.49094
739.592	3.65385
742.967	6.21318
746.342	8.43196
749.717	9.84474
753.091	9.95736
756.466	10.2415
759.841	9.09042
763.216	10.1158
766.591	9.97527
769.966	9.50902
773.34	12.7825
776.715	17.6302
780.09	24.9481
783.465	33.9567
786.84	46.5196
790.214	53.8457
793.589	50.3004
796.964	38.3505
800.339	25.3298
803.714	17.6511
807.088	12.6633
810.463	10.0724
813.838	9.39395
817.213	6.63921
820.588	4.21386
823.962	4.37637
827.337	5.20828
830.712	5.88467
834.087	5.75947
837.462	2.99884
840.837	1.02613
844.211	1.73881
847.586	1.73449
850.961	1.51878
854.336	0.827415
857.711	1.53014
861.086	3.89266
864.46	4.80596
867.835	5.98482
871.21	7.19217
874.585	7.67462
877.96	4.70048
881.334	4.34924
884.709	5.78439
888.084	6.68292
891.459	8.19923
894.834	12.3857
898.208	18.942
901.583	34.5586
904.958	62.3477
908.333	108.29
911.708	179.14
915.083	296.908
918.457	364.354
921.832	243.65
925.207	145.732
928.582	103.32
931.957	69.8259
935.332	51.4124
938.706	44.2253
942.081	46.4692
945.456	56.5532
948.831	62.4781
952.206	54.1098
955.58	35.3615
958.955	22.2904
962.33	16.922
965.705	14.51
969.08	12.856
972.455	10.876
975.829	7.65332
979.204	4.00046
982.579	1.62128
985.954	0.081741
989.329	0.692368
992.703	0.296799
996.078	1.47285
999.453	0.798935
1002.83	2.39147
1006.2	7.12816
1009.58	16.9675
1012.95	29.7043
1016.33	41.5825
1019.7	42.4607
1023.08	33.5073
1026.45	21.8999
1029.83	13.9511
1033.2	9.3451
1036.58	6.48605
1039.95	4.34261
1043.33	6.78207
1046.7	8.11216
1050.08	13.8419
1053.45	16.4077
1056.83	30.4304
1060.2	44.7385
1063.57	37.8148
1066.95	19.9748
1070.32	12.5893
1073.7	8.95196
1077.07	4.88025
1080.45	3.7757
1083.82	2.27808
1087.2	3.9585
1090.57	4.70042
1093.95	5.13501
1097.32	7.2231
1100.7	10.7371
1104.07	16.1748
1107.45	20.1166
1110.82	14.88
1114.2	7.49043
1117.57	4.32118
1120.95	1.67686
1124.32	0.004532
1127.7	0.444031
1131.07	0.260933
1134.45	1.05368
1137.82	0.478073
1141.19	0.845512
1144.57	0.233398
1147.94	0.0588
1151.32	0.161888
1154.69	0.980446
1158.07	1.02424
1161.44	0.806801
1164.82	0.568115
1168.19	0.814735
1171.57	1.31248
1174.94	0.397987
1178.32	1.37912
1181.69	1.48483
1185.07	1.25414
1188.44	0.997337
1191.82	2.6786
1195.19	1.87614
1198.57	2.03377
1201.94	0.741196
1205.32	1.16249
1208.69	1.27314
1212.07	1.5209
1215.44	1.4488
1218.82	1.84743
1222.19	1.29423
1225.57	1.79869
1228.94	1.32741
1232.32	2.13152
1235.69	2.62556
1239.07	0.172104
1242.44	0.341904
1245.82	1.29697
1249.19	0.611015
1252.56	1.4277
1255.94	0.776306
1259.31	0.700096
1262.69	0.69091
1266.06	1.57635
1269.44	1.25767
1272.81	0.470253
1276.19	1.70042
1279.56	1.14343
1282.94	0.448769
1286.31	1.47678
1289.69	0.029121
1293.06	0.617477
1296.44	0.699562
1299.81	0.903465
1303.19	0.473
