Measurement: Raman, 780 nm, unoriented, Raman Data Processed
Mineral: Andalusite
Rruff sample: R060197
Ideal chemistry: Al_2_SiO_5_
Locality: Brazil
Source: Marcus Origlieri
Description: Green colored water worn pebble
Measured chemistry: (Al_1.97_Mn^3+^_0.03_)_Î£=2_Si_1.00_O_5_
Raman shift (cm-1)	intensity
118.722	0
122.097	4.43507
125.472	1.55224
128.847	2.64838
132.222	1.75377
135.596	4.35753
138.971	3.75907
142.346	2.482
145.721	0.975365
149.096	0.423126
152.471	1.47972
155.845	3.64275
159.22	1.65111
162.595	4.34353
165.97	3.51823
169.345	5.97382
172.72	7.44769
176.094	4.6572
179.469	5.49766
182.844	5.4565
186.219	7.88559
189.594	8.46244
192.968	11.196
196.343	9.20725
199.718	5.04142
203.093	3.22991
206.468	2.90257
209.842	0.672737
213.217	3.41139
216.592	2.67302
219.967	0.085808
223.342	1.07912
226.716	1.60877
230.091	0.599464
233.466	1.73933
236.841	3.70139
240.216	8.02994
243.591	7.83823
246.965	8.58994
250.34	10.0827
253.715	16.7964
257.09	22.602
260.465	38.5025
263.839	32.8447
267.214	33.0682
270.589	56.3519
273.964	78.8814
277.339	90.4137
280.714	108.088
284.088	135.779
287.463	163.281
290.838	149.733
294.213	83.2747
297.588	41.4777
300.962	29.2709
304.337	27.7989
307.712	32.4891
311.087	43.2048
314.462	63.5507
317.837	85.7825
321.211	69.7289
324.586	38.6379
327.961	21.9543
331.336	16.7515
334.711	17.7805
338.085	22.7421
341.46	29.1685
344.835	35.0102
348.21	46.542
351.585	58.4718
354.959	73.0635
358.334	67.4081
361.709	40.5699
365.084	19.9243
368.459	7.24189
371.834	4.55956
375.208	2.01999
378.583	0.865021
381.958	0.298729
385.333	1.11946
388.708	0.296349
392.082	0.183678
395.457	2.62653
398.832	1.73225
402.207	0.221992
405.582	2.06922
408.957	2.90068
412.331	4.10417
415.706	6.44604
419.081	6.98764
422.456	3.93336
425.831	0.035683
429.205	0.652142
432.58	2.53274
435.955	3.33914
439.33	5.3597
442.705	6.82072
446.079	10.8791
449.454	17.2609
452.829	12.3225
456.204	6.80359
459.579	5.55364
462.954	10.3072
466.328	10.4753
469.703	12.1373
473.078	15.501
476.453	14.4731
479.828	13.5834
483.202	13.2577
486.577	5.37753
489.952	3.58239
493.327	1.04978
496.702	1.38776
500.077	1.56143
503.451	0.586987
506.826	2.23332
510.201	3.04537
513.576	2.35714
516.951	2.2584
520.325	0.445492
523.7	0.524132
527.075	0.3325
530.45	4.78011
533.825	6.88034
537.199	10.2291
540.574	12.9747
543.949	19.6628
547.324	23.1397
550.699	19.317
554.073	11.3297
557.448	5.32223
560.823	3.18664
564.198	4.51758
567.573	4.77113
570.948	5.42773
574.322	3.60588
577.697	1.07197
581.072	0.048328
584.447	0.663818
587.822	1.24462
591.197	2.28062
594.571	2.74394
597.946	4.08582
601.321	4.72651
604.696	4.41262
608.071	4.93637
611.445	3.34948
614.82	4.12199
618.195	0.825195
621.57	0.06916
624.945	2.53618
628.319	1.83439
631.694	0.256844
635.069	1.06483
638.444	0.406837
641.819	3.48019
645.193	2.49072
648.568	1.80467
651.943	1.26299
655.318	2.80651
658.693	2.49487
662.068	3.40879
665.442	2.33751
668.817	0.034431
672.192	1.51178
675.567	1.62394
678.942	2.20249
682.317	3.68415
685.691	5.32472
689.066	6.55805
692.441	7.40159
695.816	11.2813
699.191	13.0912
702.565	15.0847
705.94	19.0437
709.315	16.9463
712.69	12.4437
716.065	10.9601
719.439	6.55286
722.814	1.82466
726.189	1.00463
729.564	0.032688
732.939	0.162159
736.313	1.66893
739.688	1.14708
743.063	1.72368
746.438	3.61869
749.813	1.74531
753.188	0.616936
756.562	0.973343
759.937	0.08585
763.312	1.84821
766.687	0.451038
770.062	1.16367
773.437	1.86882
776.811	2.40605
780.186	3.55963
783.561	7.58334
786.936	7.91062
790.311	7.73998
793.685	7.23087
797.06	4.73737
800.435	4.65434
803.81	3.25869
807.185	2.19125
810.559	3.29477
813.934	2.51712
817.309	1.93203
820.684	2.87153
824.059	2.85245
827.433	2.68042
830.808	3.64573
834.183	1.85892
837.558	1.11158
840.933	0.495522
844.308	1.26374
847.682	2.23726
851.057	0.624409
854.432	1.80405
857.807	1.12168
861.182	1.62603
864.557	0.039387
867.931	3.35127
871.306	2.15539
874.681	1.8953
878.056	1.67883
881.431	1.72833
884.805	2.35181
888.18	2.97758
891.555	4.89156
894.93	9.28541
898.305	17.6415
901.679	30.9648
905.054	53.2899
908.429	79.294
911.804	113.326
915.179	156.416
918.553	161.755
921.928	105.317
925.303	69.6913
928.678	53.1378
932.053	37.5714
935.428	30.6696
938.802	30.6815
942.177	33.9126
945.552	37.8422
948.927	41.4104
952.302	29.7573
955.677	17.6101
959.051	11.9276
962.426	9.83874
965.801	7.74382
969.176	4.06876
972.551	4.0807
975.925	0.246246
979.3	0.650059
982.675	0.510288
986.05	0.391342
989.425	0.08506
992.799	0.824341
996.174	0.075756
999.549	2.06325
1002.92	7.05625
1006.3	10.9024
1009.67	18.4599
1013.05	24.3071
1016.42	29.539
1019.8	26.3255
1023.17	16.5347
1026.55	11.0046
1029.92	7.9147
1033.3	6.75612
1036.67	5.89881
1040.05	3.61851
1043.42	6.43366
1046.8	10.284
1050.17	13.5996
1053.55	20.4158
1056.92	27.228
1060.3	31.0364
1063.67	22.2555
1067.05	11.8594
1070.42	6.46942
1073.8	4.25689
1077.17	2.41049
1080.55	0.357918
1083.92	2.41666
1087.29	2.25178
1090.67	3.41417
1094.04	6.15134
1097.42	7.84021
1100.79	11.9415
1104.17	12.9519
1107.54	13.0575
1110.92	9.65487
1114.29	4.84231
1117.67	1.20699
1121.04	0.551052
1124.42	1.39506
1127.79	0.416229
1131.17	0.699856
1134.54	1.67343
1137.92	0.620079
1141.29	1.33753
1144.67	1.20451
1148.04	2.89704
1151.42	0.588791
1154.79	1.01674
1158.16	1.04432
1161.54	1.36799
1164.91	2.13683
1168.29	0.888668
1171.66	2.61007
1175.04	1.29933
1178.41	2.62269
1181.79	1.73423
1185.16	2.2931
1188.54	1.34349
1191.91	2.6796
1195.29	2.89321
1198.66	1.35885
1202.04	0.865871
1205.41	2.41476
1208.79	2.95897
1212.16	2.99648
1215.54	2.72312
1218.91	0.775909
1222.29	2.71783
1225.66	0.248455
1229.04	2.24455
1232.41	0.340775
1235.79	1.41756
1239.16	0.905609
1242.54	1.23759
1245.91	0.465397
1249.29	1.43226
1252.66	2.42138
1256.04	1.35797
1259.41	0.767311
1262.79	1.78141
1266.16	1.05048
1269.53	1.75233
1272.91	1.81587
1276.28	0.637779
1279.66	0.826729
1283.03	1.77652
1286.41	0
