Measurement: Raman, 780 nm, unoriented, Raman Data Processed
Mineral: Andalusite
Rruff sample: R050258
Ideal chemistry: Al_2_SiO_5_
Locality: Bautista Canyon, near Hemet, Riverside County, California, USA
Source: Marcus Origlieri
Description: Brown fragment
Measured chemistry: Al_2.00_Si_1.00_O_5_
Raman shift (cm-1)	intensity
150.045	0
152.937	7.05969
155.83	3.83679
158.723	5.57312
161.615	1.52209
164.508	5.82324
167.401	0.327881
170.294	9.85498
173.186	4.62244
176.079	2.30945
178.972	6.58533
181.864	9.09045
184.757	7.0846
187.65	13.9689
190.542	10.8763
193.435	9.8529
196.328	11.3195
199.221	10.7211
202.113	10.6929
205.006	10.6984
207.899	10.8024
210.791	3.81665
213.684	8.51209
216.577	2.23242
219.47	5.84607
222.362	4.31628
225.255	3.48596
228.148	7.90649
231.04	3.77527
233.933	0.213013
236.826	2.27283
239.718	1.75195
242.611	3.27246
245.504	4.4054
248.397	3.06067
251.289	0.535645
254.182	1.84265
257.075	1.08948
259.967	3.21143
262.86	5.30872
265.753	6.25281
268.645	12.0636
271.538	28.2097
274.431	48.908
277.324	54.7684
280.216	71.0093
283.109	90.3953
286.002	134.941
288.894	187.262
291.787	229.973
294.68	145.419
297.572	60.22
300.465	31.6686
303.358	25.5544
306.25	24.0056
309.143	39.6417
312.036	43.3778
314.929	64.7736
317.821	110.57
320.714	156.756
323.607	130.083
326.499	53.4547
329.392	20.188
332.285	14.1427
335.178	5.77795
338.07	10.8551
340.963	17.1445
343.856	15.1
346.748	23.6881
349.641	29.4425
352.534	47.6055
355.426	61.9894
358.319	83.5024
361.212	66.4312
364.104	38.301
366.997	23.7682
369.89	20.5272
372.783	8.96802
375.675	9.71582
378.568	3.04627
381.461	2.92065
384.353	5.1416
387.246	4.62903
390.139	3.86719
393.031	0.101563
395.924	1.77478
398.817	1.58106
401.71	3.16406
404.602	10.9143
407.495	12.3914
410.388	13.5159
413.28	25.4026
416.173	38.2599
419.066	40.312
421.959	27.6223
424.851	9.65283
427.744	5.66028
430.637	2.3971
433.529	4.97375
436.422	7.75293
439.315	6.71912
442.207	6.27075
445.1	9.55261
447.993	14.6326
450.885	25.2981
453.778	14.5428
456.671	2.56177
459.564	3.63525
462.456	6.76074
465.349	3.64758
468.242	5.68811
471.134	7.15503
474.027	10.733
476.92	5.64893
479.812	5.28406
482.705	13.8995
485.598	10.2765
488.491	6.96912
491.383	5.40613
494.276	2.91248
497.169	1.90271
500.061	3.53247
502.954	0.011719
505.847	0.671631
508.74	3.29456
511.632	2.89282
514.525	4.35034
517.418	2.36731
520.31	2.61438
523.203	3.70618
526.096	2.91504
528.988	3.3971
531.881	4.58289
534.774	6.1062
537.667	7.10413
540.559	9.43176
543.452	18.6857
546.345	20.9507
549.237	29.3102
552.13	36.0818
555.023	24.3734
557.915	13.67
560.808	7.15808
563.701	0.052979
566.593	3.46643
569.486	6.46716
572.379	2.97058
575.272	1.0304
578.164	2.1228
581.057	4.92883
583.95	1.08289
586.842	6.9762
589.735	3.60242
592.628	4.00439
595.52	3.95081
598.413	7.26392
601.306	13.2695
604.198	6.00891
607.091	8.22729
609.984	7.19946
612.877	3.46045
615.769	4.2262
618.662	3.75366
621.555	7.34595
624.447	6.67188
627.34	5.90576
630.233	5.72504
633.125	8.25854
636.018	0.846436
638.911	8.0271
641.804	2.04553
644.696	4.79358
647.589	7.0777
650.482	5.07989
653.375	10.4492
656.267	6.47894
659.16	10.8408
662.053	10.3269
664.945	10.5345
667.838	2.41296
670.731	3.30365
673.623	0.777405
676.516	2.70496
679.409	3.17017
682.302	0.458801
685.194	1.74701
688.087	0.493164
690.98	0.403992
693.872	0.779968
696.765	5.52576
699.658	1.46344
702.55	5.03192
705.443	5.77747
708.336	5.79096
711.229	11.9484
714.121	13.8818
717.014	14.0986
719.907	12.2812
722.799	8.01111
725.692	6.92212
728.585	4.3089
731.477	2.1109
734.37	3.75183
737.263	2.00684
740.155	3.77472
743.048	2.52911
745.941	4.40106
748.834	0.737549
751.726	1.03375
754.619	3.14337
757.512	1.22009
760.404	0.805786
763.297	1.56171
766.19	0.478149
769.082	0.7547
771.975	1.07629
774.868	7.15411
777.761	4.49139
780.653	2.61554
783.546	3.67297
786.439	1.96332
789.331	4.48389
792.224	2.87598
795.117	2.39795
798.01	4.66596
800.902	5.32275
803.795	3.39423
806.688	5.55048
809.58	4.51184
812.473	5.0921
815.366	6.10089
818.258	5.69696
821.151	7.51819
824.044	5.52002
826.937	7.99255
829.829	9.73834
832.722	10.8921
835.615	11.7386
838.507	8.41956
841.4	4.21277
844.293	5.89636
847.185	8.33612
850.078	2.61206
852.971	5.3418
855.864	0.351013
858.756	2.12793
861.649	0.638428
864.542	4.88751
867.434	0.408325
870.327	2.8114
873.22	5.42731
876.112	3.67969
879.005	0.409607
881.898	3.97937
884.79	5.23523
887.683	4.328
890.576	3.70837
893.469	11.5281
896.361	13.2334
899.254	12.7711
902.147	27.8927
905.039	41.1748
907.932	67.0951
910.825	95.571
913.717	141.856
916.61	209.166
919.503	236.884
922.395	171.406
925.288	124.088
928.181	106.865
931.074	74.4428
933.966	42.1787
936.859	31.8104
939.752	25.4352
942.644	18.6308
945.537	23.6092
948.43	18.3682
951.322	15.8003
954.215	14.0579
957.108	8.23615
960.001	7.1687
962.893	2.32257
965.786	3.3902
968.679	3.55939
971.571	0.927246
974.464	2.90362
977.357	0.666321
980.25	0.886963
983.142	1.24609
986.035	0.830322
988.928	2.81653
991.82	0.891052
994.713	1.40863
997.606	1.36176
1000.5	1.1687
1003.39	4.49811
1006.28	4.26263
1009.18	4.82855
1012.07	6.96905
1014.96	12.0401
1017.86	16.3993
1020.75	14.5704
1023.64	9.14551
1026.53	6.62616
1029.42	6.12561
1032.32	2.21606
1035.21	1.62726
1038.1	5.6261
1041	7.2749
1043.89	3.27783
1046.78	5.02777
1049.67	8.28424
1052.57	13.5517
1055.46	20.434
1058.35	32.291
1061.24	41.6337
1064.14	52.3768
1067.03	41.2822
1069.92	22.8883
1072.82	14.7814
1075.71	10.4817
1078.6	4.60651
1081.49	2.25952
1084.39	6.75183
1087.28	3.7663
1090.17	1.99463
1093.07	2.56189
1095.96	4.49731
1098.85	0.589172
1101.74	3.56207
1104.64	2.59668
1107.53	4.39142
1110.42	4.49609
1113.31	1.36115
1116.21	0.870117
1119.1	0.117615
1121.99	1.64978
1124.88	0.67627
1127.78	3.41486
1130.67	0.244568
1133.56	1.04547
1136.45	5.90588
1139.35	3.13751
1142.24	0.840393
1145.13	1.61877
1148.03	0.61676
1150.92	2.63178
1153.81	2.09009
1156.7	5.50409
1159.6	5.42364
1162.49	0.318359
1165.38	3.81177
1168.28	6.82007
1171.17	5.10962
1174.06	5.51196
1176.95	0.145874
1179.85	4.38654
1182.74	2.38965
1185.63	6.3985
1188.52	2.35181
1191.42	6.4151
1194.31	1.59351
1197.2	1.4602
1200.1	5.37909
1202.99	1.22821
1205.88	3.9826
1208.77	4.74225
1211.67	9.3869
1214.56	2.6394
1217.45	1.14563
1220.34	2.2038
1223.24	2.15814
1226.13	0.994141
1229.02	2.87604
1231.91	4.30646
1234.81	3.50171
1237.7	5.69721
1240.59	0.095825
1243.48	1.43542
1246.38	5.30353
1249.27	3.66022
1252.16	3.5603
1255.06	4.82916
1257.95	1.89484
1260.84	0.830017
1263.73	2.43158
1266.63	2.56946
1269.52	4.03668
1272.41	2.4646
1275.31	2.79993
1278.2	0.943909
1281.09	4.26105
1283.98	5.77869
