Measurement: Raman, 532 nm, unoriented, Raman Data Processed
Mineral: Andalusite
Rruff sample: R050626
Ideal chemistry: Al_2_SiO_5_
Locality: Minas Gerais, Brazil
Source: Gemological Center
Description: Grayish brown fragment
Measured chemistry: (Al_1.99_Fe^3+^_0.01_)_Î£=1_Si_1.00_O_5_
Raman shift (cm-1)	intensity
98.859	0
102.234	0.278095
105.609	0.318127
108.984	0.049345
112.358	0.098353
115.733	0.279696
119.108	1.10537
122.483	1.18216
125.858	2.28058
129.232	3.3153
132.607	4.33636
135.982	4.44845
139.357	5.95624
142.732	5.86078
146.106	5.41525
149.481	5.73177
152.856	4.78946
156.231	4.51219
159.606	4.55313
162.981	4.6763
166.355	5.14216
169.73	5.51599
173.105	4.62654
176.48	4.23846
179.855	4.33572
183.229	3.98445
186.604	4.74749
189.979	6.49821
193.354	4.38349
196.729	3.78264
200.103	3.37449
203.478	4.31649
206.853	4.53781
210.228	1.45996
213.603	0.480064
216.978	0.159748
220.352	0.36807
223.727	0.741428
227.102	0.190402
230.477	1.15171
233.852	0.038877
237.226	2.83014
240.601	6.60255
243.976	3.45931
247.351	0.380074
250.726	0.165998
254.101	0.985622
257.475	0.249388
260.85	1.9296
264.225	5.45577
267.6	10.3866
270.975	21.7016
274.349	51.6955
277.724	87.9319
281.099	106.011
284.474	165.618
287.849	283.006
291.224	437.135
294.598	309.729
297.973	111.234
301.348	47.6445
304.723	34.9062
308.098	31.2747
311.473	39.1135
314.847	62.9504
318.222	134.063
321.597	203.874
324.972	111.23
328.347	51.0134
331.721	36.7655
335.096	32.2088
338.471	28.2748
341.846	26.8789
345.221	27.8283
348.596	32.57
351.97	49.7176
355.345	83.5462
358.72	113.034
362.095	80.3048
365.469	39.2457
368.844	18.6557
372.219	10.1632
375.594	5.75902
378.969	3.41034
382.344	4.68997
385.718	2.0594
389.093	0.497688
392.468	0.076948
395.843	1.40686
399.218	1.61892
402.592	1.11154
405.967	0.350599
409.342	1.8787
412.717	4.29
416.092	8.95896
419.467	12.0108
422.841	4.52138
426.216	0.794946
429.591	0.373007
432.966	0.069029
436.341	0.873787
439.716	2.07909
443.09	4.19795
446.465	7.44108
449.84	15.8244
453.215	22.3702
456.59	4.52563
459.964	0.84962
463.339	1.19002
466.714	1.63083
470.089	2.89292
473.464	4.19559
476.839	3.92847
480.213	3.77424
483.588	4.10555
486.963	2.93185
490.338	1.70953
493.713	0.563263
497.087	0.059603
500.462	0.375338
503.837	0.229137
507.212	0.358006
510.587	1.14328
513.962	0.958805
517.336	1.08306
520.711	1.0113
524.086	1.10638
527.461	1.42629
530.836	3.26154
534.21	6.85439
537.585	12.2154
540.96	19.9151
544.335	33.7352
547.71	53.9999
551.085	63.7999
554.459	46.9706
557.834	22.5471
561.209	11.3865
564.584	8.18745
567.959	6.06744
571.333	6.24945
574.708	5.36138
578.083	2.56439
581.458	1.6878
584.833	0.704233
588.207	1.01445
591.582	0.974272
594.957	1.12016
598.332	2.20922
601.707	4.3172
605.082	5.94989
608.456	5.33262
611.831	2.81548
615.206	2.5648
618.581	2.48511
621.956	3.04656
625.33	3.71925
628.705	4.06999
632.08	3.48204
635.455	1.79487
638.83	1.70969
642.205	2.22493
645.579	2.71484
648.954	2.02469
652.329	1.53431
655.704	1.3746
659.079	2.14099
662.453	3.5537
665.828	1.07521
669.203	0.361574
672.578	0.529868
675.953	0.019778
679.327	0.220944
682.702	0.180096
686.077	0.451288
689.452	0.941257
692.827	0.36638
696.202	1.14286
699.576	2.22444
702.951	3.74325
706.326	5.5436
709.701	8.13648
713.076	12.8546
716.451	17.0488
719.825	14.7726
723.2	8.92968
726.575	4.48882
729.95	2.58254
733.325	1.22508
736.699	1.38663
740.074	0.818972
743.449	1.11047
746.824	0.775594
750.199	1.04693
753.573	0.403491
756.948	0.22057
760.323	0.150791
763.698	0.19232
767.073	0.234771
770.448	0.035563
773.822	0.082908
777.197	0.38513
780.572	0.13131
783.947	0.428009
787.322	0.984584
790.697	0.922795
794.071	1.26998
797.446	2.24113
800.821	3.30028
804.196	5.2467
807.571	6.58426
810.945	6.49893
814.32	7.42624
817.695	8.61092
821.07	9.9236
824.445	9.80443
827.819	10.3551
831.194	11.7712
834.569	12.195
837.944	8.04935
841.319	4.50995
844.693	2.35429
848.068	1.04568
851.443	0.000813
854.818	0.251345
858.193	0.416464
861.568	0.049388
864.942	0.145293
868.317	0.476188
871.692	0.613338
875.067	0.726843
878.442	1.45512
881.817	1.7778
885.191	3.29489
888.566	5.38878
891.941	8.32823
895.316	12.1531
898.691	18.6136
902.065	30.6596
905.44	52.7817
908.815	92.1578
912.19	155.16
915.565	262.452
918.939	366.349
922.314	240.002
925.689	123.616
929.064	81.8235
932.439	53.0911
935.814	38.6238
939.188	36.2945
942.563	42.3888
945.938	56.0876
949.313	70.0484
952.688	58.8702
956.062	32.3272
959.437	15.946
962.812	8.31717
966.187	3.85195
969.562	1.93515
972.937	1.6305
976.311	0.287184
979.686	0.323434
983.061	0.747643
986.436	1.25519
989.811	0.260405
993.186	0.259037
996.56	1.54654
999.935	4.26218
1003.31	7.99454
1006.68	12.9067
1010.06	20.6498
1013.43	34.6362
1016.81	54.5289
1020.18	61.7429
1023.56	39.7325
1026.93	21.2402
1030.31	12.5384
1033.68	7.34503
1037.06	5.51349
1040.43	4.4852
1043.81	4.25472
1047.18	6.11581
1050.56	10.4248
1053.93	19.1255
1057.31	34.8023
1060.68	61.1679
1064.06	91.5365
1067.43	65.9257
1070.81	30.0837
1074.18	13.9548
1077.56	6.92572
1080.93	3.00684
1084.31	1.47469
1087.68	0.984886
1091.06	1.82483
1094.43	2.58621
1097.81	4.44732
1101.18	8.53604
1104.55	13.9642
1107.93	19.6844
1111.3	19.4742
1114.68	12.2159
1118.05	5.67521
1121.43	2.14836
1124.8	0.531782
1128.18	0.024967
1131.55	0.426109
1134.93	0.115863
1138.3	0.073037
1141.68	0.234686
1145.05	0.348217
1148.43	0.111923
1151.8	0.051742
1155.18	0.227664
1158.55	0.005511
1161.93	0.663102
1165.3	0.016182
1168.68	0.06179
1172.05	0.367587
1175.43	0.288385
1178.8	0.626518
1182.17	0.266588
1185.55	0.556462
1188.92	0.795433
1192.3	0.671119
1195.67	0.868382
1199.05	0.517727
1202.42	0.700596
1205.8	0.530406
1209.17	0.682624
1212.55	0.487496
1215.92	0.651693
1219.3	0.709505
1222.67	0.519151
1226.05	0.346739
1229.42	0.170588
1232.8	0.369987
1236.17	0.496994
1239.55	0.177744
1242.92	0.525054
1246.3	0.824796
1249.67	0.783326
1253.05	0.306237
1256.42	0.208124
1259.8	0.565456
1263.17	0.227434
1266.55	0.473379
1269.92	0.283366
1273.3	0.256223
1276.67	0.672845
1280.05	0.523106
1283.42	0.202657
1286.8	0.07069
1290.17	0.374176
1293.54	0.209714
1296.92	0.213803
1300.29	0.196451
1303.67	0.033591
