Measurement: Raman, 532 nm, unoriented, Raman Data Processed
Mineral: Andersonite
Rruff sample: R080133
Ideal chemistry: Na_2_Ca(UO_2_)(CO_3_)_3_6H_2_O
Locality: Monte Cristo mine, Cane Springs Canyon, near Moab, Grand County, Utah, USA
Source: James Shigley
Description: Bright yellowish green platy to granular crystals
Raman shift (cm-1)	intensity
138.255	0
141.63	135.769
145.005	101.61
148.38	5.92676
151.755	45.4043
155.129	153.702
158.504	203.417
161.879	258.647
165.254	315.397
168.629	252.145
172.003	151.06
175.378	67.9219
178.753	54.7607
182.128	42.7285
185.503	24.2217
188.877	4.69824
192.252	6.39648
195.627	18.5205
199.002	22.8135
202.377	66.1416
205.752	132.65
209.126	196.341
212.501	276.514
215.876	402.44
219.251	491.734
222.626	547.818
226	447.368
229.375	296.315
232.75	146.607
236.125	124.224
239.5	95.9111
242.875	106.755
246.249	61.7393
249.624	35.0166
252.999	32.6748
256.374	48.2441
259.749	61.0537
263.123	72.3359
266.498	139.169
269.873	179.056
273.248	184.118
276.623	252.193
279.998	320.034
283.372	361.623
286.747	335.342
290.122	281.867
293.497	253.364
296.872	196.527
300.247	166.584
303.621	112.842
306.996	64.5508
310.371	49.7773
313.746	23.5566
317.12	8.44238
320.495	10.9707
323.87	0.916016
327.245	7.53613
330.62	23.5645
333.995	41.2275
337.369	49.1133
340.744	70.2744
344.119	79.9404
347.494	95.4268
350.869	125.81
354.243	109.265
357.618	97.8252
360.993	80.5352
364.368	88.4141
367.743	67.3106
371.118	68.3799
374.492	78.1963
377.867	66.4199
381.242	47.3477
384.617	77.1445
387.992	76.9209
391.366	97.0098
394.741	74.5967
398.116	48.8369
401.491	15.8867
404.866	15.0068
408.241	35.3994
411.615	44.9805
414.99	50.6514
418.365	35.5283
421.74	24.4648
425.115	6.33496
428.49	2.93262
431.864	25.0615
435.239	10.9541
438.614	11.2842
441.989	34.5068
445.364	36.4727
448.738	50.5254
452.113	44.8721
455.488	83.583
458.863	152.308
462.238	192.828
465.613	199.128
468.987	101.987
472.362	82.8828
475.737	38.6709
479.112	55.4688
482.486	27.3838
485.861	23.8057
489.236	15.7666
492.611	10.4902
495.986	12.1435
499.361	4.90527
502.735	3.78809
506.11	31.0781
509.485	24.5986
512.86	21.6621
516.235	4.18359
519.61	21.2188
522.984	4.61914
526.359	36.4258
529.734	38.5039
533.109	46.8301
536.484	60.877
539.859	80.8779
543.233	121.688
546.608	117.888
549.983	106.538
553.358	111.711
556.732	117.263
560.107	136.216
563.482	154.468
566.857	164.225
570.232	147.186
573.607	146.195
576.981	135.225
580.356	123.002
583.731	136.342
587.106	117.087
590.481	107.928
593.856	103.286
597.23	99.8203
600.605	112.567
603.98	87.8389
607.355	94.082
610.73	122.286
614.104	103.736
617.479	63.5244
620.854	16.1396
624.229	37.1738
627.604	51.665
630.979	66.9551
634.353	96.6514
637.728	81.2129
641.103	78.2305
644.478	47.793
647.852	48.4463
651.227	7.28516
654.602	48.8389
657.977	44.2227
661.352	32.8242
664.727	20.0811
668.101	11.667
671.476	11.1338
674.851	16.6279
678.226	19.4268
681.601	22.7402
684.976	38.3477
688.35	39.4297
691.725	57.3897
695.1	53.0742
698.475	43.2051
701.85	0.048828
705.224	12.21
708.599	37.8281
711.974	48.0185
715.349	59.7207
718.724	59.4932
722.098	77.7207
725.473	125.761
728.848	158.618
732.223	195.884
735.598	250.001
738.973	283.668
742.347	275.547
745.722	224.835
749.097	125.876
752.472	40.2119
755.847	9.37305
759.221	0.973633
762.596	22.4922
765.971	8.11523
769.346	11.9443
772.721	13.3604
776.096	31.0771
779.47	37.6641
782.845	56.9326
786.22	54.2685
789.595	63.2725
792.97	94.5928
796.345	143.999
799.719	142.57
803.094	204.938
806.469	271.908
809.844	373.093
813.219	532.383
816.593	928.597
819.968	1631.17
823.343	2502.99
826.718	3853.94
830.093	5671.89
833.467	5461.81
836.842	2398.72
840.217	952.656
843.592	473.755
846.967	266.09
850.342	175.897
853.716	161.702
857.091	127.544
860.466	94.7266
863.841	65.0176
867.216	50.6992
870.591	37.6797
873.965	12.3984
877.34	0.00293
880.715	16.7734
884.09	19.9307
887.465	0.119141
890.839	21.4932
894.214	11.2031
897.589	4.07129
900.964	20.001
904.339	32.2871
907.713	22.4258
911.088	42.8809
914.463	49.5664
917.838	67.5742
921.213	99.9141
924.587	112.411
927.962	97.0293
931.337	70.6055
934.712	44.7197
938.087	34.081
941.462	43.2285
944.836	26.6934
948.211	31.7227
951.586	27.9238
954.961	31.3652
958.336	23.001
961.711	31.5068
965.085	10.9453
968.46	14.4551
971.835	17.1973
975.21	25.5488
978.585	40.5889
981.959	62.8818
985.334	44.5469
988.709	28.6533
992.084	12.585
995.459	26.8857
998.833	47.3232
1002.21	62.5781
1005.58	58.9326
1008.96	59.3584
1012.33	43.0781
1015.71	31.8486
1019.08	27.7236
1022.46	51.3398
1025.83	31.0742
1029.21	48.9853
1032.58	3.11621
1035.96	18.1416
1039.33	0.391602
1042.71	36.0566
1046.08	38.3213
1049.46	23.0469
1052.83	6.87109
1056.2	20.8271
1059.58	26.958
1062.95	45.9688
1066.33	69.5176
1069.7	101.302
1073.08	187.567
1076.45	347.192
1079.83	582.257
1083.2	485.312
1086.58	532.597
1089.95	917.676
1093.33	785.023
1096.7	226.516
1100.08	101.008
1103.45	86.4453
1106.83	62.0898
1110.2	31.7891
1113.58	9.64453
1116.95	21.7021
1120.33	24.1143
1123.7	15.708
1127.08	15.2373
1130.45	25.6758
1133.83	44.3779
1137.2	32.3857
1140.58	27.5342
1143.95	13.0166
1147.33	19.8584
1150.7	23.2627
1154.08	27.2471
1157.45	24.8027
1160.83	3.85547
1164.2	9.58594
1167.57	26.0303
1170.95	1.54004
1174.32	7.31543
1177.7	32.669
1181.07	18.2002
1184.45	14.0029
1187.82	17.6055
1191.2	6.49609
1194.57	21.8428
1197.95	31.4619
1201.32	40.9365
1204.7	29.9756
1208.07	1.8418
1211.45	32.1758
1214.82	60.2832
1218.2	57.2119
1221.57	41.3418
1224.95	37.5107
1228.32	22.1182
1231.7	30.5146
1235.07	1.66894
1238.44	24.3789
1241.82	8.27246
1245.19	0.741211
1248.57	19.2031
1251.94	33.6025
1255.32	2.39648
1258.69	20.8037
1262.07	21.1797
1265.44	22.4053
1268.82	26.4775
1272.19	13.8555
1275.57	47.7539
1278.94	38.0693
1282.32	27.4043
1285.69	13.3301
1289.07	26.1348
1292.44	12.6065
1295.82	24.334
1299.19	22.7588
1302.57	10.0283
