Measurement: Raman, 780 nm, unoriented, Raman Data Processed
Mineral: Andersonite
Rruff sample: R080133
Ideal chemistry: Na_2_Ca(UO_2_)(CO_3_)_3_6H_2_O
Locality: Monte Cristo mine, Cane Springs Canyon, near Moab, Grand County, Utah, USA
Source: James Shigley
Description: Bright yellowish green platy to granular crystals
Raman shift (cm-1)	intensity
127.049	0
130.424	50.3989
133.799	153.23
137.174	178.678
140.549	151.651
143.923	119.505
147.298	46.7068
150.673	7.69775
154.048	12.3425
157.423	40.5386
160.798	78.4678
164.172	87.6162
167.547	71.0942
170.922	33.5312
174.297	1.58374
177.672	12.2852
181.046	5.94385
184.421	13.0493
187.796	20.7876
191.171	41.7888
194.546	63.669
197.921	96.7358
201.295	138.912
204.67	176.238
208.045	209.507
211.42	231.945
214.795	256.81
218.169	293.566
221.544	304.68
224.919	307.431
228.294	255.615
231.669	213.572
235.043	165.415
238.418	157.247
241.793	166.476
245.168	176.968
248.543	180.51
251.918	184.676
255.292	184.386
258.667	165.443
262.042	162.742
265.417	158.921
268.792	144.613
272.166	146.384
275.541	148.457
278.916	149.921
282.291	166.04
285.666	157.899
289.041	127.742
292.415	94.1636
295.79	71.6697
299.165	61.4635
302.54	43.7918
305.915	26.2365
309.289	11.7401
312.664	0.319458
316.039	2.60168
319.414	4.25903
322.789	6.32666
326.164	5.41248
329.538	0.450562
332.913	10.1903
336.288	21.3835
339.663	27.6702
343.038	40.0983
346.413	49.9193
349.787	54.2744
353.162	52.0199
356.537	44.0671
359.912	26.9481
363.287	14.9462
366.661	17.0643
370.036	12.8578
373.411	7.15857
376.786	9.92297
380.161	6.79492
383.536	2.52124
386.91	5.91186
390.285	2.10583
393.66	7.70886
397.035	1.90662
400.41	2.51038
403.784	10.5391
407.159	8.3186
410.534	4.19873
413.909	9.93237
417.284	7.70447
420.659	8.51135
424.033	14.9762
427.408	10.4863
430.783	9.39868
434.158	12.35
437.533	12.869
440.907	20.358
444.282	26.2662
447.657	41.5688
451.032	49.5635
454.407	57.804
457.781	73.7742
461.156	99.6079
464.531	108.457
467.906	71.7147
471.281	54.3892
474.656	36.7788
478.031	20.9269
481.405	25.1733
484.78	23.3064
488.155	14.5364
491.53	16.9833
494.904	11.459
498.279	11.4949
501.654	12.618
505.029	12.0945
508.404	8.38025
511.779	7.62329
515.153	3.5044
518.528	1.3042
521.903	0.215576
525.278	0.598999
528.653	1.77686
532.028	4.72034
535.402	1.04199
538.777	2.24341
542.152	5.46216
545.527	11.1957
548.902	17.1019
552.277	21.6223
555.651	31.3835
559.026	33.5562
562.401	33.9559
565.776	33.9426
569.151	34.6512
572.525	34.9228
575.9	24.9523
579.275	23.0266
582.65	16.7014
586.025	13.0817
589.399	11.678
592.774	10.1829
596.149	5.43567
599.524	1.14819
602.899	0.46167
606.274	0.615112
609.648	7.46594
613.023	6.37207
616.398	2.78015
619.773	1.35547
623.148	3.7572
626.523	8.63599
629.897	9.93677
633.272	6.18372
636.647	5.54456
640.022	10.4668
643.397	8.05273
646.771	16.3004
650.146	10.6083
653.521	0.50647
656.896	4.86401
660.271	3.0625
663.645	2.16065
667.02	0.841919
670.395	0.96814
673.77	3.04248
677.145	0.745239
680.52	2.62744
683.894	9.43445
687.269	14.4858
690.644	22.3181
694.019	32.1359
697.394	39.9506
700.769	38.0638
704.143	38.2922
707.518	33.6289
710.893	36.2315
714.268	33.3044
717.643	41.5915
721.017	54.196
724.392	61.9368
727.767	78.4575
731.142	90.9273
734.517	99.6394
737.891	110.233
741.266	99.8274
744.641	90.485
748.016	75.5983
751.391	50.715
754.766	20.7151
758.14	2.67358
761.515	1.64062
764.89	3.67261
768.265	0.209473
771.64	6.70532
775.014	7.03174
778.389	2.31543
781.764	3.04529
785.139	6.15747
788.514	19.5679
791.889	20.9336
795.263	24.829
798.638	39.96
802.013	52.3062
805.388	62.5147
808.763	98.683
812.138	147.981
815.512	269.184
818.887	499.69
822.262	724.947
825.637	1014.84
829.012	1402.92
832.386	1719.06
835.761	1142.28
839.136	430.718
842.511	182.92
845.886	95.5958
849.261	63.9773
852.635	61.4235
856.01	41.6908
859.385	25.649
862.76	26.2997
866.135	15.9601
869.51	11.7119
872.884	3.56458
876.259	11.8877
879.634	1.6156
883.009	1.88416
886.384	0.237915
889.758	2.89026
893.133	2.39453
896.508	3.60913
899.883	3.96533
903.258	0.964233
906.632	0.099365
910.007	8.48303
913.382	2.45642
916.757	6.0387
920.132	8.72082
923.506	12.5763
926.881	10.2881
930.256	12.1283
933.631	8.98633
937.006	5.02747
940.381	1.05395
943.755	4.82812
947.13	1.77893
950.505	0.595581
953.88	5.66833
957.255	4.7572
960.63	3.30066
964.004	2.14356
967.379	1.00122
970.754	2.15979
974.129	6.37207
977.504	8.16931
980.879	0.875488
984.253	0.284424
987.628	1.60974
991.003	10.1658
994.378	1.1427
997.753	0.458618
1001.13	5.35034
1004.5	4.55957
1007.88	10.9254
1011.25	6.98438
1014.63	0.024414
1018	1.8175
1021.38	8.21472
1024.75	10.2246
1028.13	5.0481
1031.5	5.6665
1034.88	9.21802
1038.25	17.1699
1041.62	8.28345
1045	12.1792
1048.38	11.4847
1051.75	13.8065
1055.12	4.2738
1058.5	15.2919
1061.87	13.9207
1065.25	22.8253
1068.62	49.9145
1072	67.8368
1075.37	109.952
1078.75	196.384
1082.12	238.182
1085.5	185.399
1088.87	235.142
1092.25	316.438
1095.62	181.958
1099	52.4844
1102.37	27.5029
1105.75	13.7305
1109.12	8.09839
1112.5	3.34082
1115.87	5.4303
1119.25	1.23767
1122.62	0.338745
1126	1.04077
1129.37	4.38501
1132.74	2.68225
1136.12	4.20837
1139.49	2.80847
1142.87	9.37598
1146.24	6.99646
1149.62	6.8573
1152.99	1.39661
1156.37	5.63855
1159.74	8.8208
1163.12	4.87646
1166.49	16.8414
1169.87	12.8573
1173.24	6.17908
1176.62	10.9508
1179.99	15.1272
1183.37	19.0344
1186.74	13.9496
1190.12	9.30774
1193.49	7.35461
1196.87	8.10461
1200.24	13.5283
1203.62	13.864
1206.99	15.623
1210.37	9.04712
1213.74	5.54431
1217.12	5.18005
1220.49	0.106689
1223.87	6.41846
1227.24	2.51953
1230.62	7.07092
1233.99	6.4519
1237.37	0.527222
1240.74	5.79919
1244.11	4.38916
1247.49	12.2502
1250.86	6.11255
1254.24	8.08643
1257.61	5.77429
1260.99	8.29517
1264.36	4.05347
1267.74	7.46497
1271.11	2.34192
1274.49	3.69592
1277.86	2.44177
1281.24	7.0481
1284.61	4.6593
