Measurement: Raman, 532 nm, unoriented, Raman Data Processed
Mineral: Andradite
Rruff sample: R040001
Ideal chemistry: Ca_3_Fe^3+^_2_(SiO_4_)_3_
Locality: Stanley Butte, Graham County, Arizona, USA
Source: University of Arizona Mineral Museum
Description: Brownish-orange dodecahedra
Measured chemistry: Ca_3.00_(Fe_1.96_Al_0.04_)_Î£=2_(SiO_4_)_3_ ; trace amounts of Mn
Raman shift (cm-1)	intensity
122.487	0
125.379	5.24603
128.272	64.4377
131.165	77.4682
134.058	10.0333
136.95	22.8319
139.843	84.8995
142.736	117.773
145.628	134.676
148.521	108.562
151.414	148.697
154.306	219.566
157.199	283.677
160.092	702.612
162.984	1639.49
165.877	2998.37
168.77	4956
171.662	7412.8
174.555	4428.96
177.448	1492.72
180.341	754.69
183.233	482.448
186.126	370.454
189.019	256.236
191.911	199.613
194.804	154.495
197.697	51.6742
200.589	7.65613
203.482	32.0063
206.375	37.3154
209.268	12.3511
212.16	79.8746
215.053	250.083
217.946	641.572
220.838	1298.7
223.731	2398.04
226.624	4210.93
229.517	6109.73
232.409	8394.23
235.302	9727.12
238.195	5703.97
241.087	2508.43
243.98	1136.11
246.873	581.964
249.765	327.612
252.658	307.876
255.551	574.899
258.443	983.603
261.336	1589.76
264.229	2015.26
267.122	897.976
270.014	148.038
272.907	92.4902
275.8	199.369
278.692	189.54
281.585	127.52
284.478	8.28125
287.37	237.883
290.263	618.958
293.156	991.521
296.049	1285.76
298.941	1555.62
301.834	2645.44
304.727	4572.81
307.619	7264.71
310.512	10951.5
313.405	9570.3
316.297	4647.35
319.19	3286.32
322.083	3914.43
324.976	4736.68
327.868	3390.6
330.761	2794.66
333.654	3208.84
336.546	4294.98
339.439	6763.78
342.332	10809.4
345.224	16193.9
348.117	23855.8
351.01	29827.7
353.902	25989.3
356.795	24094.9
359.688	30141.9
362.581	41119.3
365.473	54649.9
368.366	63388.6
371.259	51974.8
374.151	30679.6
377.044	17360.1
379.937	11180.5
382.829	7952.29
385.722	4888.87
388.615	3112.01
391.508	2100.82
394.4	1509.39
397.293	1086.42
400.186	822.26
403.078	625.263
405.971	467.267
408.864	308.466
411.757	186.298
414.649	25.7158
417.542	51.8054
420.435	103.608
423.327	178.46
426.22	203.275
429.113	172.811
432.005	130.989
434.898	12.8579
437.791	245.163
440.683	606.049
443.576	1158.53
446.469	1909.23
449.361	2588.37
452.254	2216.59
455.147	1014.65
458.04	352.194
460.932	134.948
463.825	95.4033
466.718	127.167
469.61	231.899
472.503	376.265
475.396	608.941
478.288	1107.59
481.181	1925.47
484.074	3193.81
486.967	4910.09
489.859	7004.21
492.752	7708.08
495.645	5847.52
498.537	4316.72
501.43	4556.06
504.323	6553.42
507.216	10475.9
510.108	17094.7
513.001	26551.3
515.894	27187.1
518.786	15483.6
521.679	7934.81
524.572	4311.99
527.464	2559.61
530.357	1664.15
533.25	1191.96
536.143	1039.98
539.035	1052.85
541.928	1252.89
544.821	1619.58
547.713	2115.78
550.606	2735.85
553.499	2604.86
556.391	1535.32
559.284	799.673
562.177	415.436
565.069	315.872
567.962	420.245
570.855	696.931
573.748	1152.23
576.64	1204.13
579.533	668.955
582.426	270.564
585.318	86.8068
588.211	40.8318
591.104	9.56555
593.996	1.51672
596.889	20.6765
599.782	32.2871
602.675	15.2321
605.567	4.27832
608.46	11.5442
611.353	78.4153
614.245	45.1769
617.138	42.276
620.031	15.1295
622.923	17.3329
625.816	32.5785
628.709	60.5298
631.601	114.525
634.494	142.732
637.387	130.634
640.28	131.062
643.172	140.446
646.065	119.177
648.958	149.816
651.85	174.253
654.743	172.208
657.636	202.067
660.529	212.86
663.421	209.902
666.314	221.362
669.207	225.633
672.099	208.945
674.992	199.431
677.885	185.882
680.777	169.593
683.67	184.05
686.563	180.153
689.456	186.798
692.348	214.202
695.241	259.193
698.134	312.745
701.026	384.44
703.919	454.172
706.812	488.011
709.704	541.644
712.597	558.295
715.49	531.818
718.382	577.096
721.275	550.763
724.168	562.247
727.061	539.244
729.953	449.813
732.846	338.37
735.739	267.327
738.631	199.272
741.524	193.378
744.417	141.775
747.309	103.496
750.202	76.1869
753.095	30.8827
755.987	28.4449
758.88	66.7175
761.773	68.6643
764.666	76.2504
767.558	88.0914
770.451	77.3214
773.344	46.7312
776.236	27.6257
779.129	41.0741
782.022	128.964
784.914	280.645
787.807	522.038
790.7	872.032
793.593	1409.74
796.485	2225.28
799.378	3506.07
802.271	5386.42
805.163	8241.64
808.056	12406.9
810.949	17886.3
813.841	22401.3
816.734	21077.2
819.627	14849.9
822.52	10709.2
825.412	9203.7
828.305	9738.42
831.198	11627.9
834.09	14815.7
836.983	19035.5
839.876	22302.4
842.769	21500.3
845.661	17003.6
848.554	12513.7
851.447	9996.52
854.339	9089.6
857.232	9582.15
860.125	11735.2
863.017	15630.2
865.91	21431.2
868.803	29550.6
871.695	38800.6
874.588	41923.7
877.481	29509.8
880.374	16183
883.266	8792.86
886.159	5105.96
889.052	3132.26
891.944	1982.55
894.837	1291.57
897.73	829.51
900.622	504.821
903.515	301.928
906.408	142.756
909.301	52.7361
912.193	37.9124
915.086	97.397
917.979	82.2631
920.871	71.0225
923.764	9.88086
926.657	6.69299
929.549	10.5879
932.442	41.6364
935.335	34.3934
938.227	35.8133
941.12	4.90637
944.013	44.635
946.906	73.9746
949.798	102.561
952.691	145.498
955.584	170.662
958.476	226.517
961.369	303.462
964.262	360.882
967.154	413.443
970.047	488.575
972.94	560.664
975.833	640.665
978.725	844.621
981.618	1096.17
984.511	1564.2
987.403	2430.33
990.296	3774.93
993.189	5166.3
996.082	4707.62
998.974	2326.91
1001.87	1118.63
1004.76	639.965
1007.65	396.394
1010.54	282.481
1013.44	230.883
1016.33	182.62
1019.22	155.31
1022.12	127.898
1025.01	105.336
1027.9	74.806
1030.79	63.3292
1033.69	50.0156
1036.58	37.6764
1039.47	4.53082
1042.37	17.1314
1045.26	2.26245
1048.15	20.9112
1051.04	5.78979
1053.93	4.49768
1056.83	17.6106
1059.72	47.4081
1062.61	54.6699
1065.51	86.9558
1068.4	120.945
1071.29	129.956
1074.18	181.284
1077.08	177.322
1079.97	193.571
1082.86	253.499
1085.76	278.11
1088.65	305.214
1091.54	311.689
1094.43	340.845
1097.33	353.123
1100.22	334.034
1103.11	347.145
1106	336.836
1108.9	277.123
1111.79	230.944
1114.68	200.254
1117.58	158.007
1120.47	108.146
1123.36	72.2496
1126.25	56.6567
1129.15	22.2537
1132.04	1.49292
1134.93	22.4219
1137.82	8.10028
1140.72	7.14648
1143.61	2.88403
1146.5	13.9432
1149.39	27.0984
1152.29	22.5418
1155.18	59.4202
1158.07	49.1897
1160.96	87.2959
1163.86	80.2152
1166.75	148.573
1169.64	160.206
1172.54	191.961
1175.43	187.365
1178.32	198.132
1181.21	204.976
1184.11	197.599
1187	208.021
1189.89	213.947
1192.79	172.472
1195.68	199.108
1198.57	184.739
1201.46	179.678
1204.36	136.953
1207.25	149.471
1210.14	138.434
1213.03	128.165
1215.93	85.8615
1218.82	82.0076
1221.71	31.8967
1224.61	56.1165
1227.5	20.884
1230.39	28.7379
1233.28	15.0621
1236.17	16.2275
1239.07	13.9068
1241.96	0.418701
1244.85	1.92596
1247.75	18.6681
1250.64	0.225037
1253.53	7.92273
1256.42	35.6088
1259.32	33.3609
1262.21	22.8129
1265.1	33.8721
1267.99	27.2563
1270.89	21.6135
1273.78	29.4263
1276.67	9.85211
