Measurement: Raman, 780 nm, unoriented, Raman Data Processed
Mineral: Andradite
Rruff sample: R060423
Ideal chemistry: Ca_3_Fe^3+^_2_(SiO_4_)_3_
Locality: Mali
Source: Greg Schmidt
Description: Black dodecahedron
Measured chemistry: (Ca_2.93_Mg_0.04_Mn_0.03_)_Σ=3_(Fe^3+^_0.99_Al_0.95_Ti_0.06_)_Σ=2_((Si_0.98_Fe^3+^_0.02_)_Σ=1_O_4_)_3_
Raman shift (cm-1)	intensity
113.901	0
117.276	0.54826
120.651	0.226437
124.026	1.39431
127.401	1.03196
130.775	0.997929
134.15	0.169243
137.525	1.6503
140.9	0.39394
144.275	0.000286
147.649	0.700832
151.024	1.03589
154.399	1.31514
157.774	3.5867
161.149	4.51089
164.524	5.6554
167.898	7.31945
171.273	10.741
174.648	18.964
178.023	15.6699
181.398	6.55414
184.772	4.52409
188.147	0.927444
191.522	1.14193
194.897	0.783096
198.272	0.218979
201.647	0.649189
205.021	0.888496
208.396	1.04017
211.771	1.02892
215.146	3.44786
218.52	6.937
221.895	10.7
225.27	16.7663
228.645	21.2025
232.02	27.8691
235.395	31.9003
238.769	40.4313
242.144	32.3873
245.519	13.158
248.894	4.39611
252.269	2.39493
255.643	2.65612
259.018	1.97284
262.393	3.06868
265.768	7.79746
269.143	11.2293
272.518	10.703
275.892	5.72321
279.267	2.45701
282.642	1.22209
286.017	0.613571
289.392	1.43217
292.766	0.50449
296.141	0.100281
299.516	2.96878
302.891	6.38658
306.266	8.59559
309.64	12.7337
313.015	18.9395
316.39	26.4194
319.765	33.079
323.14	28.2195
326.515	19.1961
329.889	20.2437
333.264	22.027
336.639	25.2609
340.014	28.9643
343.389	38.991
346.764	54.9794
350.138	79.0063
353.513	120.069
356.888	163.822
360.263	197.299
363.637	216.776
367.012	252.215
370.387	282.96
373.762	231.86
377.137	141.618
380.512	85.2853
383.886	56.8565
387.261	41.1083
390.636	31.1542
394.011	27.1664
397.386	23.5029
400.76	19.8895
404.135	13.4032
407.51	6.15951
410.885	1.96098
414.26	0.032093
417.635	1.43905
421.009	1.88364
424.384	0.816704
427.759	1.09963
431.134	0.470135
434.509	0.700237
437.884	1.77771
441.258	2.33874
444.633	2.54025
448.008	2.33159
451.383	2.1773
454.757	2.66122
458.132	3.20649
461.507	2.41506
464.882	3.34334
468.257	1.72823
471.632	1.55139
475.006	2.0817
478.381	3.58638
481.756	5.58524
485.131	6.92122
488.506	8.95969
491.88	9.35495
495.255	7.63966
498.63	7.72461
502.005	5.87878
505.38	5.99715
508.755	5.92719
512.129	9.37116
515.504	17.4093
518.879	25.7122
522.254	35.3255
525.629	49.6926
529.004	68.9719
532.378	78.5515
535.753	56.0889
539.128	26.6002
542.503	13.557
545.878	10.3343
549.252	10.4356
552.627	10.6825
556.002	10.2343
559.377	9.10117
562.752	7.09355
566.126	4.8475
569.501	2.69539
572.876	0.397125
576.251	1.4676
579.626	0.873121
583	0.762293
586.375	0.300989
589.75	2.37684
593.125	3.68515
596.5	5.04657
599.875	6.7397
603.249	9.16495
606.624	8.94274
609.999	10.2522
613.374	9.86919
616.749	10.1246
620.124	9.0433
623.498	7.11868
626.873	4.35216
630.248	3.85093
633.623	2.89473
636.997	3.06712
640.372	4.07229
643.747	4.40193
647.122	5.66547
650.497	6.55256
653.872	5.95458
657.246	6.22323
660.621	6.68929
663.996	7.16507
667.371	7.02855
670.746	7.51449
674.12	7.11379
677.495	6.97049
680.87	5.44228
684.245	3.82919
687.62	3.48135
690.995	2.3304
694.369	1.89715
697.744	1.62118
701.119	1.13031
704.494	0.925217
707.869	0.085304
711.243	0.448769
714.618	0.060278
717.993	1.60386
721.368	0.890863
724.743	0.008762
728.117	0.504965
731.492	1.5387
734.867	3.57844
738.242	5.77091
741.617	7.51227
744.992	10.077
748.366	12.7577
751.741	13.5369
755.116	16.0866
758.491	18.5205
761.866	20.0585
765.24	18.9667
768.615	15.1085
771.99	9.94601
775.365	5.58681
778.74	2.27875
782.115	0.260208
785.489	0.039787
788.864	0.933949
792.239	3.94962
795.614	8.83795
798.989	17.2408
802.363	28.747
805.738	41.547
809.113	55.1407
812.488	68.7167
815.863	79.6943
819.237	81.7781
822.612	74.5555
825.987	60.8638
829.362	48.0614
832.737	37.207
836.112	29.7201
839.486	27.2723
842.861	26.5355
846.236	27.8366
849.611	28.2884
852.986	30.6609
856.361	36.0765
859.735	45.9816
863.11	60.8279
866.485	74.4138
869.86	91.1298
873.235	101.063
876.609	100.809
879.984	81.4168
883.359	57.6323
886.734	38.1555
890.109	21.8967
893.483	14.0027
896.858	8.16912
900.233	3.82536
903.608	0.472225
906.983	1.00521
910.357	0.654636
913.732	1.20518
917.107	1.07618
920.482	0.353188
923.857	0.611328
927.232	1.82215
930.606	3.5683
933.981	4.71695
937.356	4.92578
940.731	4.23278
944.106	3.63365
947.481	2.30745
950.855	1.29235
954.23	1.36813
957.605	2.01557
960.98	4.51482
964.355	6.54969
967.729	8.37617
971.104	9.57904
974.479	11.3445
977.854	11.3642
981.229	11.3922
984.603	11.8529
987.978	11.1926
991.353	11.8775
994.728	11.8534
998.103	10.8595
1001.48	9.65685
1004.85	7.69785
1008.23	4.21557
1011.6	2.67165
1014.98	2.19299
1018.35	2.863
1021.73	3.40013
1025.1	3.31461
1028.48	2.74384
1031.85	0.871541
1035.23	0.289086
1038.6	0.020118
1041.97	0.285516
1045.35	0.088049
1048.72	0.298704
1052.1	0.783001
1055.47	0.093442
1058.85	0.276461
1062.22	0.362006
1065.6	1.22623
1068.97	0.839796
1072.35	0.891739
1075.72	1.14994
1079.1	0.673856
1082.47	0.968097
1085.85	1.67919
1089.22	1.3682
1092.6	1.07204
1095.97	0.689883
1099.35	1.19288
1102.72	1.13266
1106.1	1.25183
1109.47	1.69989
1112.85	0.531397
1116.22	0.792795
1119.6	1.12327
1122.97	1.16926
1126.35	1.22834
1129.72	1.15501
1133.1	1.30985
1136.47	1.12413
1139.85	1.0252
1143.22	0.37417
1146.59	1.2189
1149.97	0.852018
1153.34	0.7486
1156.72	0.315784
1160.09	0.038245
1163.47	0.237402
1166.84	0.138409
1170.22	0.928876
1173.59	0.192799
1176.97	0.471749
1180.34	0.631162
1183.72	0.579448
1187.09	0.437975
1190.47	1.68007
1193.84	1.08562
1197.22	1.11896
1200.59	1.20228
1203.97	0.8863
1207.34	0.551324
1210.72	1.15353
1214.09	1.22095
1217.47	1.09095
1220.84	1.15067
1224.21	0.285209
1227.59	1.15776
1230.96	0.975331
1234.34	0.758151
1237.71	0.619111
1241.09	0.597365
1244.46	1.06384
1247.84	1.24641
1251.21	0.349007
1254.59	0.561983
1257.96	0.306994
1261.34	0.130016
1264.71	0.89626
1268.09	0.055807
1271.46	0.542241
1274.84	0.688558
1278.21	0.37924
1281.59	0.352152
1284.96	0.009637
