Measurement: Raman, 780 nm, unoriented, Raman Data Processed
Mineral: Andradite
Rruff sample: R060350
Ideal chemistry: Ca_3_Fe^3+^_2_(SiO_4_)_3_
Locality: south of the Gem mine, southern San Benito County, California, USA
Source: Michael Scott
Description: Cluster of black vitreous crystals showing well-developed faces
Measured chemistry: (Ca_2.93_Mg_0.07_)_Σ=3_(Fe^3+^_1.18_Ti_0.77_Al_0.05_)_Σ=2_((Si_0.74_Fe^3+^_0.26_)_Σ=1_O_4_)_3_ ; trace amounts of Mn
Raman shift (cm-1)	intensity
112.937	0
116.312	0.929039
119.687	0.445625
123.061	2.43897
126.436	1.72395
129.811	2.51838
133.186	0.214989
136.561	1.01086
139.936	0.087509
143.31	0.727432
146.685	3.97009
150.06	4.85106
153.435	4.69944
156.81	9.78537
160.185	11.6843
163.559	14.1599
166.934	14.1396
170.309	11.3351
173.684	10.255
177.059	7.97168
180.433	6.9448
183.808	4.39082
187.183	1.88459
190.558	0.905067
193.933	0.592186
197.307	0.837303
200.682	0.019653
204.057	0.971039
207.432	1.4934
210.807	3.61251
214.181	8.02043
217.556	9.3494
220.931	9.89519
224.306	11.5038
227.681	11.4088
231.056	11.7249
234.43	9.17517
237.805	9.47032
241.18	8.4877
244.555	7.50596
247.93	9.14784
251.304	7.44092
254.679	5.36656
258.054	4.13049
261.429	1.95164
264.804	1.95917
268.178	0.274513
271.553	1.48589
274.928	3.23106
278.303	0.615051
281.678	2.48288
285.053	3.80238
288.427	8.55759
291.802	13.8079
295.177	20.7864
298.552	26.5263
301.927	35.2665
305.301	41.3985
308.676	49.04
312.051	56.42
315.426	63.4322
318.801	73.09
322.175	80.2895
325.55	88.5208
328.925	102.303
332.3	108.123
335.675	120.401
339.05	131.616
342.424	139.252
345.799	150.325
349.174	153.94
352.549	159.771
355.924	158.224
359.298	150.334
362.673	133.143
366.048	115.977
369.423	94.8286
372.798	76.8988
376.173	61.1151
379.547	47.8436
382.922	34.7708
386.297	22.4792
389.672	16.6084
393.047	8.2767
396.421	4.34219
399.796	2.51075
403.171	0.191368
406.546	0.989555
409.921	0.453033
413.296	0.610764
416.67	0.045929
420.045	1.71775
423.42	3.61384
426.795	5.70846
430.17	6.82802
433.544	6.95778
436.919	9.7848
440.294	7.32381
443.669	5.4322
447.044	2.27549
450.418	0.216263
453.793	1.2476
457.168	2.13426
460.543	0.197037
463.918	1.08616
467.293	3.40709
470.667	7.13213
474.042	13.8112
477.417	16.5285
480.792	18.5849
484.167	23.2667
487.541	25.7545
490.916	28.4078
494.291	30.8521
497.666	34.2859
501.041	40.4224
504.416	46.9182
507.79	48.4861
511.165	48.9982
514.54	41.8749
517.915	37.0534
521.29	31.7619
524.664	30.0059
528.039	30.4924
531.414	28.2094
534.789	27.7269
538.164	25.5809
541.538	22.4553
544.913	20.0667
548.288	15.5214
551.663	10.2364
555.038	5.94086
558.413	1.58834
561.787	0.305695
565.162	0.399483
568.537	0.193539
571.912	1.69725
575.287	3.18413
578.661	6.1973
582.036	5.89037
585.411	6.69757
588.786	7.11925
592.161	6.71434
595.535	7.21873
598.91	5.52135
602.285	5.88155
605.66	3.96821
609.035	3.70351
612.41	3.84589
615.784	2.28673
619.159	2.03723
622.534	1.48372
625.909	0.333675
629.284	2.3694
632.658	1.86756
636.033	3.06412
639.408	2.61754
642.783	3.34347
646.158	4.11409
649.533	4.37334
652.907	5.31149
656.282	6.08079
659.657	7.4766
663.032	8.32703
666.407	5.61566
669.781	5.99887
673.156	4.58202
676.531	3.81025
679.906	5.47786
683.281	2.57374
686.655	1.74807
690.03	1.94348
693.405	0.86446
696.78	0.637501
700.155	0.432983
703.53	0.303909
706.904	2.7436
710.279	2.99435
713.654	3.69664
717.029	3.71971
720.404	1.17091
723.778	3.56043
727.153	9.39451
730.528	16.2166
733.903	27.23
737.278	42.926
740.653	56.6791
744.027	72.551
747.402	82.0503
750.777	90.4616
754.152	89.2531
757.527	80.7979
760.901	73.3099
764.276	61.9987
767.651	55.3614
771.026	45.7671
774.401	37.2928
777.775	30.3918
781.15	28.7528
784.525	30.6819
787.9	35.0153
791.275	45.3309
794.649	53.4968
798.024	65.7865
801.399	77.7094
804.774	87.0255
808.149	95.9708
811.524	98.7849
814.898	98.5939
818.273	96.3005
821.648	92.5054
825.023	83.9098
828.398	79.1623
831.773	73.8554
835.147	67.84
838.522	64.0587
841.897	61.8038
845.272	59.8519
848.647	57.973
852.021	57.757
855.396	55.5421
858.771	53.8054
862.146	49.8058
865.521	44.9589
868.895	41.5971
872.27	37.7303
875.645	34.3651
879.02	26.2154
882.395	21.3605
885.769	16.2014
889.144	6.38551
892.519	3.50967
895.894	0.487587
899.269	3.08037
902.644	5.02247
906.018	4.01822
909.393	3.4212
912.768	1.79676
916.143	1.56343
919.518	2.83923
922.893	3.75949
926.267	4.42648
929.642	6.39045
933.017	5.96381
936.392	6.44962
939.767	7.65028
943.141	7.29145
946.516	8.6984
949.891	9.92498
953.266	10.8467
956.641	11.3158
960.015	10.2711
963.39	10.5095
966.765	10.9765
970.14	11.5751
973.515	10.7365
976.889	9.43072
980.264	10.1454
983.639	8.90224
987.014	8.68991
990.389	6.79366
993.764	4.21742
997.138	5.92002
1000.51	6.6359
1003.89	8.26791
1007.26	8.39104
1010.64	10.3226
1014.01	9.01584
1017.39	5.10108
1020.76	1.24327
1024.14	0.208925
1027.51	0.104475
1030.89	0.045544
1034.26	0.56748
1037.64	0.041775
1041.01	0.818615
1044.39	0.171362
1047.76	0.765581
1051.13	2.06581
1054.51	0.651217
1057.88	1.29123
1061.26	2.09843
1064.63	3.75318
1068.01	1.43317
1071.38	3.11929
1074.76	3.07495
1078.13	1.8368
1081.51	3.4934
1084.88	3.9971
1088.26	4.54818
1091.63	3.09722
1095.01	2.6692
1098.38	2.27046
1101.76	1.50773
1105.13	0.884146
1108.51	1.47112
1111.88	0.282482
1115.26	1.32008
1118.63	0.798815
1122.01	0.784756
1125.38	1.52815
1128.76	1.17001
1132.13	0.065626
1135.51	1.13795
1138.88	0.426403
1142.26	0.551926
1145.63	1.40681
1149.01	1.99169
1152.38	0.481831
1155.76	0.001833
1159.13	1.55677
1162.5	1.21286
1165.88	1.93794
1169.25	3.36472
1172.63	2.40393
1176	2.68285
1179.38	2.1398
1182.75	2.64608
1186.13	2.76061
1189.5	2.26699
1192.88	2.9459
1196.25	1.33198
1199.63	2.49677
1203	2.57657
1206.38	1.1373
1209.75	1.25937
1213.13	2.50113
1216.5	1.43736
1219.88	2.21036
1223.25	1.35352
1226.63	1.7138
1230	1.00573
1233.38	0.280777
1236.75	0.626698
1240.12	0.729622
1243.5	0.946693
1246.88	1.47868
1250.25	1.33419
1253.62	1.53043
1257	0.833918
1260.37	0.932293
1263.75	1.98496
1267.12	0.200813
1270.5	2.34721
1273.87	1.23183
1277.25	1.32188
1280.62	0.51494
1284	0.279419
