Measurement: Raman, 532 nm, unoriented, Raman Data Processed
Mineral: Andradite
Rruff sample: R060449
Ideal chemistry: Ca_3_Fe^3+^_2_(SiO_4_)_3_
Locality: Namibia
Source: Gemological Institute of America
Description: Blue fragment, variety demantoid
Measured chemistry: Ca_3.00_(Fe^3+^_1.93_Al_0.07_)_Î£=2_(Si_1.00_O_4_)_3__
Raman shift (cm-1)	intensity
92.1094	0
95.4842	2.93408
98.859	1.55708
102.234	0.993116
105.609	0.065952
108.984	0.895763
112.358	0.648878
115.733	0.295577
119.108	0.464521
122.483	2.69717
125.858	2.55139
129.232	8.03309
132.607	10.7002
135.982	12.1613
139.357	12.7758
142.732	12.5021
146.106	17.6579
149.481	17.5385
152.856	23.66
156.231	54.9711
159.606	67.7354
162.981	92.2835
166.355	136.376
169.73	248.052
173.105	749.958
176.48	333.455
179.855	55.5148
183.229	23.6685
186.604	14.0413
189.979	8.39473
193.354	5.94209
196.729	2.66911
200.103	0.902821
203.478	0.287359
206.853	1.80813
210.228	0.709194
213.603	5.26371
216.978	23.6322
220.352	63.0372
223.727	91.6085
227.102	152.864
230.477	268.914
233.852	470.953
237.226	925.861
240.601	130.213
243.976	29.0371
247.351	12.8424
250.726	8.62261
254.101	8.03602
257.475	14.9942
260.85	40.0401
264.225	141.314
267.6	59.7839
270.975	3.39222
274.349	12.541
277.724	12.7395
281.099	5.17769
284.474	1.97963
287.849	13.3942
291.224	41.8499
294.598	115.41
297.973	150.328
301.348	95.5751
304.723	127.545
308.098	289.828
311.473	675.437
314.847	412.887
318.222	130.11
321.597	158.972
324.972	293.161
328.347	152.324
331.721	127.171
335.096	249.853
338.471	422.596
341.846	671.9
345.221	1173.63
348.595	2416.78
351.97	4335.17
355.345	2682.76
358.72	1560.47
362.095	1769.52
365.469	2908.76
368.844	5323.46
372.219	5522.34
375.594	2483.52
378.969	1187.54
382.344	796.842
385.718	450.038
389.093	215.963
392.468	128.266
395.843	85.3629
399.218	53.5531
402.592	33.2363
405.967	22.386
409.342	12.7076
412.717	7.66553
416.092	2.96636
419.467	3.21815
422.841	6.55503
426.216	7.51028
429.591	7.5902
432.966	7.60123
436.341	1.15835
439.716	9.49161
443.09	23.3348
446.465	53.8056
449.84	111.1
453.215	146.726
456.59	52.0371
459.964	9.61242
463.339	0.030212
466.714	3.38592
470.089	1.85689
473.464	13.229
476.839	39.1552
480.213	76.205
483.588	134.049
486.963	245.853
490.338	466.177
493.713	625.701
497.087	380.098
500.462	266.982
503.837	313.393
507.212	485.553
510.587	938.25
513.962	1787.53
517.336	2003.07
520.711	882.502
524.086	363.541
527.461	188.299
530.836	116.481
534.21	82.4857
537.585	68.3155
540.96	63.5968
544.335	68.1289
547.71	88.0124
551.085	126.682
554.459	135.334
557.834	66.2914
561.209	38.1559
564.584	37.3406
567.959	56.2255
571.333	99.6399
574.708	162.301
578.083	141.035
581.458	49.7065
584.833	18.2882
588.207	13.2716
591.582	8.27641
594.957	2.57452
598.332	1.66893
601.707	0.024567
605.082	0.594276
608.456	1.90538
611.831	2.8782
615.206	2.59285
618.581	3.04952
621.956	2.11242
625.33	0.728569
628.705	0.453842
632.08	3.2223
635.455	6.01223
638.83	5.8598
642.205	7.40526
645.579	8.26339
648.954	9.01619
652.329	9.82614
655.704	10.2935
659.079	10.85
662.453	11.4951
665.828	13.043
669.203	12.9482
672.578	13.7447
675.953	13.4951
679.327	11.2891
682.702	10.9991
686.077	11.0202
689.452	10.4462
692.827	11.7744
696.202	12.5754
699.576	14.055
702.951	15.1873
706.326	17.9431
709.701	20.1099
713.076	20.5418
716.45	20.4294
719.825	18.3177
723.2	19.1561
726.575	16.6994
729.95	15.2332
733.324	14.7091
736.699	10.5524
740.074	9.87687
743.449	7.58222
746.824	5.9781
750.199	4.1546
753.573	3.89216
756.948	1.0492
760.323	3.12335
763.698	1.97842
767.073	4.11736
770.447	4.48979
773.822	3.64095
777.197	1.49462
780.572	1.00236
783.947	3.01195
787.322	8.53279
790.696	18.9929
794.071	37.6029
797.446	66.8912
800.821	113.022
804.196	193.956
807.571	331.62
810.945	565.841
814.32	887.96
817.695	856.525
821.07	482.856
824.445	311.358
827.819	299.224
831.194	348.249
834.569	469.526
837.944	722.638
841.319	983.715
844.693	843.706
848.068	539.415
851.443	398.1
854.818	394.183
858.193	504.793
861.568	805.814
864.942	1291.18
868.317	2216.52
871.692	4009.66
875.067	4692.78
878.442	2169.74
881.817	829.605
885.191	386.164
888.566	206.745
891.941	125.661
895.316	80.0874
898.691	52.2031
902.065	35.6295
905.44	24.6284
908.815	19.0339
912.19	13.9612
915.565	5.76338
918.939	3.014
922.314	0.31852
925.689	2.54574
929.064	4.24223
932.439	4.32288
935.813	5.25798
939.188	4.57854
942.563	2.57648
945.938	1.50429
949.313	3.7925
952.688	4.8417
956.062	9.98297
959.437	10.3695
962.812	13.8235
966.187	16.0225
969.562	19.8629
972.937	23.3074
976.311	27.0435
979.686	32.9769
983.061	43.1988
986.436	61.8741
989.811	96.1145
993.185	164.856
996.56	196.151
999.935	95.8338
1003.31	45.3176
1006.68	26.8596
1010.06	16.808
1013.43	13.2315
1016.81	13.5326
1020.18	9.69003
1023.56	7.75782
1026.93	8.78415
1030.31	6.72684
1033.68	4.47859
1037.06	2.93838
1040.43	1.45532
1043.81	0.00205
1047.18	0.545774
1050.56	0.232685
1053.93	0.008406
1057.31	1.05635
1060.68	2.61223
1064.06	2.62909
1067.43	5.4534
1070.81	8.21576
1074.18	10.0932
1077.56	12.9448
1080.93	16.1435
1084.31	18.5058
1087.68	20.6717
1091.06	22.0262
1094.43	22.7108
1097.81	23.0478
1101.18	23.5669
1104.55	23.7336
1107.93	21.6348
1111.3	19.2186
1114.68	15.0739
1118.05	10.916
1121.43	8.36511
1124.8	6.64632
1128.18	3.31
1131.55	2.03336
1134.93	1.09528
1138.3	0.343489
1141.68	0.416386
1145.05	0.169926
1148.43	1.91763
1151.8	2.43481
1155.18	1.39406
1158.55	2.83732
1161.93	6.61379
1165.3	7.64667
1168.68	9.97251
1172.05	11.7003
1175.43	13.0667
1178.8	13.7186
1182.17	13.752
1185.55	14.57
1188.92	14.451
1192.3	14.2755
1195.67	13.578
1199.05	12.847
1202.42	12.7852
1205.8	12.0641
1209.17	11.5843
1212.55	10.9546
1215.92	9.41247
1219.3	7.67942
1222.67	5.28641
1226.05	5.22667
1229.42	3.34923
1232.8	2.64575
1236.17	0.318172
1239.55	0.343335
1242.92	0.005994
1246.3	0.200762
1249.67	0.060081
1253.05	12.2867
1256.42	0.66299
1259.8	0.474049
1263.17	0.497024
1266.55	1.55617
1269.92	1.75209
1273.3	3.87439
1276.67	3.4687
1280.05	3.90418
1283.42	2.87822
1286.79	3.91874
1290.17	1.93724
1293.54	1.26734
1296.92	0.317314
1300.29	1.49004
1303.67	0.729236
