Measurement: Raman, 532 nm, unoriented, Raman Data Processed
Mineral: Andradite
Rruff sample: R060423
Ideal chemistry: Ca_3_Fe^3+^_2_(SiO_4_)_3_
Locality: Mali
Source: Greg Schmidt
Description: Black dodecahedron
Measured chemistry: (Ca_2.93_Mg_0.04_Mn_0.03_)_Σ=3_(Fe^3+^_0.99_Al_0.95_Ti_0.06_)_Σ=2_((Si_0.98_Fe^3+^_0.02_)_Σ=1_O_4_)_3_
Raman shift (cm-1)	intensity
135.018	0
138.393	1.34464
141.767	2.87194
145.142	4.1511
148.517	4.6006
151.892	4.8074
155.267	6.22724
158.642	7.44742
162.016	8.93817
165.391	10.8738
168.766	13.0708
172.141	21.8407
175.516	33.5335
178.89	31.851
182.265	13.4954
185.64	7.30219
189.015	4.31299
192.39	2.55862
195.764	1.70559
199.139	1.13854
202.514	0.545097
205.889	0.846985
209.264	0.434528
212.638	0.125324
216.013	1.13156
219.388	4.72593
222.763	11.9346
226.138	21.1652
229.513	31.6507
232.887	44.3777
236.262	52.218
239.637	67.2653
243.012	63.8657
246.387	24.7551
249.762	7.32902
253.136	2.16296
256.511	2.73441
259.886	3.6413
263.261	5.46133
266.636	12.8933
270.01	22.1646
273.385	22.9116
276.76	12.5843
280.135	8.70514
283.51	4.88908
286.885	1.02921
290.259	1.24737
293.634	1.43279
297.009	0.860863
300.384	1.9353
303.759	4.78658
307.133	10.1649
310.508	15.2504
313.883	23.8949
317.258	38.3121
320.633	50.5515
324.007	43.9853
327.382	30.5974
330.757	29.6193
334.132	32.8407
337.507	35.2684
340.882	36.2065
344.256	45.3369
347.631	62.8154
351.006	91.4267
354.381	137.326
357.756	201.529
361.13	261.763
364.505	318.535
367.88	415.883
371.255	508.664
374.63	438.903
378.005	268.652
381.379	158.122
384.754	104.685
388.129	74.81
391.504	54.3963
394.879	42.537
398.253	34.2139
401.628	27.2148
405.003	18.0588
408.378	8.78711
411.753	3.29515
415.127	0.136169
418.502	1.58935
421.877	1.8073
425.252	1.8758
428.627	0.734978
432.002	0.665043
435.376	2.31366
438.751	4.77395
442.126	5.98047
445.501	6.50309
448.876	7.28338
452.25	7.26963
455.625	8.03389
459	7.30893
462.375	6.71696
465.75	5.78107
469.125	4.98933
472.499	3.70018
475.874	3.91756
479.249	8.3579
482.624	13.1285
485.999	16.576
489.373	21.0646
492.748	21.1588
496.123	19.359
499.498	17.4265
502.873	13.3687
506.248	9.76464
509.622	8.04012
512.997	11.6483
516.372	19.0779
519.747	31.4308
523.122	51.6061
526.496	80.2311
529.871	119.719
533.246	143.14
536.621	109.278
539.996	49.8653
543.371	24.2349
546.745	15.0631
550.12	13.3256
553.495	14.4723
556.87	15.584
560.245	14.8893
563.62	12.7591
566.994	7.93065
570.369	4.451
573.744	1.20637
577.119	1.42581
580.494	1.77284
583.868	1.54889
587.243	0.355083
590.618	3.73952
593.993	7.27168
597.368	11.9665
600.742	13.7412
604.117	16.1181
607.492	17.685
610.867	19.0369
614.242	20.4034
617.616	20.0673
620.991	17.1822
624.366	13.6326
627.741	10.5459
631.116	7.15346
634.491	5.57454
637.865	5.99987
641.24	8.47649
644.615	8.16187
647.99	10.5858
651.365	10.5848
654.74	11.8964
658.114	11.3568
661.489	11.3622
664.864	11.3778
668.239	12.2672
671.614	14.0396
674.988	13.9758
678.363	12.7165
681.738	10.3261
685.113	7.3607
688.488	5.93763
691.862	4.44498
695.237	3.20107
698.612	2.61589
701.987	1.94258
705.362	0.886047
708.737	0.118336
712.111	0.33787
715.486	0.029108
718.861	0.539019
722.236	0.85597
725.611	1.10468
728.986	0.181654
732.36	0.338179
735.735	1.35823
739.11	3.07569
742.485	4.71045
745.86	6.97735
749.234	8.66559
752.609	10.3775
755.984	13.1542
759.359	16.1032
762.734	20.6395
766.109	20.3806
769.483	16.6925
772.858	11.3749
776.233	5.66831
779.608	1.22995
782.982	1.44501
786.357	1.35142
789.732	1.8643
793.107	7.89861
796.482	16.0957
799.857	27.3233
803.231	44.3093
806.606	64.9733
809.981	88.6979
813.356	114.302
816.731	136.832
820.106	147.181
823.48	134.552
826.855	112.552
830.23	88.726
833.605	72.4483
836.98	61.3022
840.354	54.9805
843.729	52.5344
847.104	52.4981
850.479	51.3509
853.854	50.0121
857.229	52.9064
860.603	59.66
863.978	75.0822
867.353	95.3075
870.728	116.648
874.103	129.41
877.477	128.026
880.852	102.564
884.227	72.3614
887.602	46.6744
890.977	28.4028
894.351	17.3256
897.726	9.26976
901.101	3.785
904.476	0.000786
907.851	2.04591
911.226	2.2356
914.6	1.10797
917.975	0.168343
921.35	1.75787
924.725	2.72755
928.1	5.21303
931.475	8.25635
934.849	11.8838
938.224	13.7727
941.599	13.6358
944.974	11.0362
948.349	6.73885
951.723	2.18379
955.098	1.15503
958.473	2.46034
961.848	7.58984
965.223	12.2146
968.597	15.8707
971.972	20.1279
975.347	24.5636
978.722	26.6747
982.097	27.0382
985.472	29.5676
988.846	29.3628
992.221	29.3001
995.596	30.8159
998.971	29.5646
1002.35	26.2813
1005.72	19.6883
1009.1	11.0455
1012.47	5.75238
1015.85	3.23638
1019.22	5.08875
1022.6	7.41327
1025.97	7.70543
1029.34	4.7218
1032.72	1.69965
1036.09	0.148838
1039.47	0.097446
1042.84	0.36554
1046.22	0.453298
1049.59	0.120244
1052.97	0.200631
1056.34	0.370369
1059.72	0.988276
1063.09	0.901937
1066.47	0.976351
1069.84	1.40273
1073.22	1.39228
1076.59	1.94639
1079.97	2.22671
1083.34	2.01347
1086.72	2.33081
1090.09	2.28473
1093.47	3.0031
1096.84	3.49551
1100.21	3.35855
1103.59	3.3106
1106.96	3.03424
1110.34	2.79206
1113.71	2.81276
1117.09	2.89145
1120.46	2.98563
1123.84	3.24489
1127.21	3.21575
1130.59	2.55281
1133.96	2.86826
1137.34	2.52342
1140.71	1.90195
1144.09	1.54685
1147.46	1.1234
1150.84	1.15939
1154.21	0.85611
1157.59	0.935489
1160.96	0.561296
1164.34	0.217317
1167.71	0.127252
1171.09	0.196875
1174.46	0.480845
1177.84	0.110668
1181.21	0.293525
1184.59	0.076934
1187.96	0.408772
1191.34	0.348148
1194.71	0.238203
1198.09	0.554967
1201.46	0.513283
1204.84	0.629404
1208.21	1.21132
1211.58	0.699008
1214.96	1.23127
1218.33	1.6542
1221.71	1.29357
1225.08	1.44918
1228.46	1.19382
1231.83	1.04901
1235.21	1.41164
1238.58	1.11824
1241.96	0.716593
1245.33	1.67637
1248.71	0.474924
1252.08	0.48422
1255.46	0.546326
1258.83	0.081091
1262.21	0.372487
1265.58	0.154459
1268.96	0.304793
1272.33	0.263336
1275.71	0.205866
1279.08	0.097587
1282.45	0.914042
1285.83	0.660765
1289.2	0.63993
1292.58	0.443797
1295.95	0.23107
1299.33	0.534057
1302.7	0.158745
