Measurement: Raman, 780 nm, unoriented, Raman Data Processed
Mineral: Andradite
Rruff sample: R050377
Ideal chemistry: Ca_3_Fe^3+^_2_(SiO_4_)_3_
Locality: Zlatoust District, South Urals, Russia
Source: University of Arizona Mineral Museum
Description: Dark red cubes
Measured chemistry: Ca_3.00_(Fe^3+^_1.48_Ti_0.31_Mg_0.14_Zr_0.07_)_Σ=2_(Si_2.73_Al_0.24_Ti_0.03_)_Σ=3_O_12_
Raman shift (cm-1)	intensity
147.967	0
150.859	0.427063
153.752	4.34619
156.645	6.7616
159.538	11.9391
162.43	19.2467
165.323	27.3803
168.216	42.5185
171.108	49.3604
174.001	38.9338
176.894	28.0581
179.786	17.2481
182.679	11.4905
185.572	6.61719
188.465	3.53229
191.357	0.256882
194.25	0.588516
197.143	1.24886
200.035	2.08113
202.928	2.53307
205.821	0.778198
208.714	2.52312
211.606	7.13039
214.499	12.518
217.392	17.7924
220.284	23.5391
223.177	28.8637
226.07	33.4571
228.962	39.3614
231.855	42.0695
234.748	34.7402
237.641	19.9612
240.533	9.49408
243.426	4.2281
246.319	3.51801
249.211	3.04892
252.104	5.18121
254.997	10.26
257.889	15.9858
260.782	22.9045
263.675	22.9103
266.567	15.4961
269.46	8.10623
272.353	0.049988
275.246	3.05148
278.138	2.6683
281.031	0.825912
283.924	3.62209
286.816	10.4639
289.709	23.7063
292.602	34.9736
295.495	46.043
298.387	54.9181
301.28	66.1687
304.173	74.4197
307.065	82.6263
309.958	87.1002
312.851	82.9801
315.743	76.1418
318.636	73.4704
321.529	69.9099
324.421	76.1831
327.314	86.9373
330.207	105.546
333.1	133.67
335.992	172.115
338.885	222.52
341.778	283.325
344.67	347.505
347.563	396.592
350.456	419.832
353.349	442.076
356.241	475.93
359.134	522.404
362.027	553.323
364.919	543.268
367.812	478.735
370.705	385.634
373.597	294.438
376.49	216.582
379.383	159.469
382.276	118.848
385.168	84.3718
388.061	57.2847
390.954	34.3646
393.846	17.9422
396.739	9.04935
399.632	2.55012
402.524	0.190674
405.417	3.22136
408.31	4.31484
411.202	4.23789
414.095	3.09758
416.988	0.857773
419.881	1.5023
422.773	3.27089
425.666	3.53838
428.559	5.63832
431.451	7.27538
434.344	9.9287
437.237	12.3637
440.13	16.2475
443.022	20.4788
445.915	26.2842
448.808	27.1222
451.7	24.5329
454.593	18.5798
457.486	13.4699
460.378	9.8844
463.271	7.29579
466.164	5.38159
469.057	4.58743
471.949	8.15922
474.842	10.5457
477.735	16.1434
480.627	19.4976
483.52	24.3386
486.413	30.9657
489.305	36.0352
492.198	40.7053
495.091	45.255
497.983	52.2237
500.876	64.2882
503.769	82.7689
506.662	113.408
509.554	155.916
512.447	207.392
515.34	240.809
518.232	222.984
521.125	169.232
524.018	116.914
526.91	82.4434
529.803	60.2067
532.696	46.116
535.589	37.7729
538.481	32.9959
541.374	30.0266
544.267	28.9074
547.159	28.7828
550.052	27.1153
552.945	25.0202
555.837	18.259
558.73	8.27943
561.623	0.957649
564.516	2.11062
567.408	2.5607
570.301	2.34343
573.194	0.771736
576.086	2.56816
578.979	6.00518
581.872	7.73492
584.764	9.18404
587.657	10.5212
590.55	11.5596
593.443	11.2141
596.335	11.1773
599.228	10.6987
602.121	11.2645
605.013	11.5912
607.906	9.92593
610.799	11.2364
613.692	12.0935
616.584	13.9453
619.477	16.5388
622.37	20.1135
625.262	23.8989
628.155	28.8864
631.048	30.4426
633.94	35.2438
636.833	37.007
639.726	39.5482
642.619	41.5667
645.511	43.8167
648.404	46.0689
651.297	47.8571
654.189	48.4028
657.082	48.1113
659.975	45.9949
662.867	41.3623
665.76	36.6907
668.653	30.0927
671.545	24.6489
674.438	20.3195
677.331	15.3647
680.224	12.0889
683.116	8.60166
686.009	6.60201
688.902	3.01183
691.794	1.98529
694.687	0.263351
697.58	1.5227
700.472	2.89031
703.365	3.07287
706.258	3.79459
709.151	3.57931
712.043	2.56252
714.936	0.510048
717.829	1.46922
720.721	6.64121
723.614	12.3329
726.507	20.5358
729.399	28.1517
732.292	37.646
735.185	44.4573
738.078	51.6451
740.97	55.6612
743.863	61.4806
746.756	64.9924
749.648	70.6409
752.541	75.7027
755.434	75.892
758.327	75.1184
761.219	68.1902
764.112	57.3547
767.005	46.2844
769.897	36.6509
772.79	30.7564
775.683	26.2148
778.575	22.7024
781.468	20.8795
784.361	19.4174
787.254	20.5447
790.146	21.9536
793.039	25.5149
795.932	30.4185
798.824	37.3762
801.717	46.5354
804.61	55.0367
807.502	64.7516
810.395	70.4234
813.288	70.0874
816.181	63.9963
819.073	54.57
821.966	45.146
824.859	36.9343
827.751	34.3342
830.644	33.8853
833.537	35.9526
836.429	39.228
839.322	41.219
842.215	43.5072
845.107	45.8237
848	50.108
850.893	56.4054
853.786	64.4965
856.678	72.0527
859.571	82.8265
862.464	92.0952
865.356	99.4252
868.249	105.602
871.142	108.444
874.034	105.489
876.927	95.0971
879.82	78.1257
882.713	59.1392
885.605	40.1912
888.498	24.398
891.391	12.0112
894.283	2.67036
897.176	2.09798
900.069	4.16288
902.962	3.94173
905.854	3.69837
908.747	2.42841
911.64	0.948685
914.532	0.066704
917.425	2.17774
920.318	3.6836
923.21	6.0338
926.103	6.65038
928.996	7.67337
931.888	6.6649
934.781	5.11507
937.674	4.87692
940.567	4.62166
943.459	4.73994
946.352	6.11818
949.245	8.76923
952.137	9.44421
955.03	12.4438
957.923	13.5899
960.815	13.0759
963.708	14.214
966.601	13.5581
969.494	15.053
972.386	16.1317
975.279	16.436
978.172	17.133
981.064	16.9467
983.957	17.3882
986.85	16.0322
989.742	15.6149
992.635	13.9967
995.528	11.1163
998.42	7.8681
1001.31	6.50142
1004.21	8.5779
1007.1	11.499
1009.99	12.6796
1012.88	11.8866
1015.78	8.69424
1018.67	4.49108
1021.56	1.46048
1024.45	0.120262
1027.35	0.091675
1030.24	0.345837
1033.13	0.478054
1036.03	0.267139
1038.92	0.119392
1041.81	0.719112
1044.7	0.778164
1047.6	1.67283
1050.49	1.58073
1053.38	2.21826
1056.28	2.78996
1059.17	2.65371
1062.06	3.45943
1064.95	3.89978
1067.85	3.91978
1070.74	4.1705
1073.63	5.02482
1076.52	5.32494
1079.42	5.45563
1082.31	5.74709
1085.2	5.46317
1088.09	5.43576
1090.99	5.21238
1093.88	5.34278
1096.77	4.79483
1099.66	4.09707
1102.56	4.10364
1105.45	3.33847
1108.34	3.47973
1111.24	2.69943
1114.13	2.42682
1117.02	2.18402
1119.91	2.33319
1122.81	1.56304
1125.7	1.50624
1128.59	1.23871
1131.48	0.770367
1134.38	0.474869
1137.27	0.084324
1140.16	0.300606
1143.06	0.226894
1145.95	0.146931
1148.84	0.211296
1151.73	0.388882
1154.63	0.348984
1157.52	0.535069
1160.41	0.023651
1163.3	0.779682
1166.2	0.99646
1169.09	1.09743
1171.98	1.26186
1174.88	1.15008
1177.77	2.18498
1180.66	1.23245
1183.55	1.75474
1186.45	1.54695
1189.34	1.77903
1192.23	1.78521
1195.12	1.42772
1198.02	1.69333
1200.91	2.0051
1203.8	1.76162
1206.69	1.42065
1209.59	0.944008
1212.48	0.44231
1215.37	0.560017
1218.27	0.766609
1221.16	1.00592
1224.05	0.58213
1226.94	0.376835
1229.84	0.152859
1232.73	0.045383
1235.62	0.337238
1238.52	0.327915
1241.41	0.041779
1244.3	0.250084
1247.19	0.0574
1250.09	0.097832
1252.98	0.220552
1255.87	0.857533
1258.76	0.201195
1261.66	1.17249
1264.55	0.928865
1267.44	0.426149
1270.33	0.535257
1273.23	0.77235
1276.12	0.181849
1279.01	0.045065
1281.9	0.363966
1284.8	0.272633
