Measurement: Raman, 532 nm, unoriented, Raman Data Processed
Mineral: Andradite
Rruff sample: R060350
Ideal chemistry: Ca_3_Fe^3+^_2_(SiO_4_)_3_
Locality: south of the Gem mine, southern San Benito County, California, USA
Source: Michael Scott
Description: Cluster of black vitreous crystals showing well-developed faces
Measured chemistry: (Ca_2.93_Mg_0.07_)_Σ=3_(Fe^3+^_1.18_Ti_0.77_Al_0.05_)_Σ=2_((Si_0.74_Fe^3+^_0.26_)_Σ=1_O_4_)_3_ ; trace amounts of Mn
Raman shift (cm-1)	intensity
141.285	0
144.66	1.35023
148.035	4.94244
151.41	4.98367
154.785	10.6005
158.159	14.629
161.534	22.1105
164.909	31.6645
168.284	34.8341
171.659	31.4204
175.033	24.7418
178.408	19.2331
181.783	15.7945
185.158	12.9076
188.533	8.48202
191.907	6.61788
195.282	4.03149
198.657	0.970467
202.032	0.105141
205.407	0.441818
208.782	0.428101
212.156	2.55333
215.531	7.06322
218.906	12.0629
222.281	15.0928
225.656	17.3625
229.03	16.8453
232.405	15.5707
235.78	11.9864
239.155	8.89208
242.53	8.118
245.905	7.32509
249.279	6.71722
252.654	7.16838
256.029	7.13786
259.404	8.04045
262.779	6.75146
266.154	5.57036
269.528	3.21272
272.903	1.21339
276.278	2.66656
279.653	2.11404
283.028	1.96721
286.402	3.2851
289.777	8.71796
293.152	14.4158
296.527	22.9467
299.902	33.2196
303.276	44.0247
306.651	58.511
310.026	72.4031
313.401	86.6152
316.776	94.7446
320.151	104.324
323.525	114.965
326.9	132.179
330.275	153.379
333.65	174.982
337.025	194.66
340.399	205.396
343.774	217.207
347.149	227.217
350.524	242.313
353.899	257.787
357.274	263.295
360.648	257.501
364.023	240.007
367.398	208.048
370.773	174.541
374.148	147.142
377.522	117.544
380.897	95.2914
384.272	71.3819
387.647	52.9975
391.022	35.6938
394.397	19.7115
397.771	12.5227
401.146	6.31279
404.521	1.41515
407.896	0.7099
411.271	2.02862
414.645	0.870575
418.02	1.82616
421.395	0.495438
424.77	2.6568
428.145	5.13446
431.519	8.19588
434.894	11.7926
438.269	15.2062
441.644	15.9741
445.019	13.2498
448.394	7.86009
451.768	3.34206
455.143	0.893929
458.518	1.49914
461.893	0.568794
465.268	2.03726
468.642	7.34854
472.017	12.5071
475.392	19.8686
478.767	29.2446
482.142	33.5641
485.517	42.0188
488.891	47.1451
492.266	49.9543
495.641	50.8064
499.016	60.8217
502.391	74.5063
505.765	93.1542
509.14	100.811
512.515	101.509
515.89	90.1464
519.265	76.3026
522.64	65.7237
526.014	61.3937
529.389	56.774
532.764	50.6732
536.139	48.3783
539.514	47.3149
542.889	43.7128
546.263	42.625
549.638	34.712
553.013	27.0189
556.388	17.4963
559.763	7.09485
563.137	0.9702
566.512	2.34423
569.887	2.02611
573.262	1.72263
576.637	6.66309
580.011	10.5418
583.386	11.8214
586.761	14.8815
590.136	11.1013
593.511	12.0177
596.885	10.8427
600.26	9.10337
603.635	8.22964
607.01	5.11068
610.385	3.28722
613.76	3.67564
617.134	1.95928
620.509	1.19434
623.884	1.33276
627.259	1.69756
630.634	4.17896
634.009	4.75614
637.383	7.59444
640.758	7.21306
644.133	7.74586
647.508	9.15857
650.883	9.9574
654.257	11.4278
657.632	11.1775
661.007	13.6345
664.382	13.9858
667.757	13.3451
671.131	13.0259
674.506	11.391
677.881	10.6667
681.256	7.97127
684.631	7.83886
688.006	6.26244
691.38	7.08523
694.755	5.12935
698.13	5.9152
701.505	3.28536
704.88	2.75621
708.255	2.17426
711.629	0.581619
715.004	1.62852
718.379	3.2952
721.754	4.74959
725.129	3.94923
728.503	2.90074
731.878	2.61519
735.253	0.125534
738.628	1.10494
742.003	5.23903
745.377	8.71542
748.752	13.3649
752.127	16.5848
755.502	16.2516
758.877	12.0142
762.251	5.6046
765.626	4.06712
769.001	4.765
772.376	7.2245
775.751	14.5477
779.126	22.357
782.5	30.9455
785.875	47.6582
789.25	68.5456
792.625	92.2912
796	121.724
799.375	151.365
802.749	183.945
806.124	214.695
809.499	237.351
812.874	250.577
816.249	258.658
819.623	256.687
822.998	247.396
826.373	233.659
829.748	225.985
833.123	214.41
836.497	200.471
839.872	192.504
843.247	180.888
846.622	171.432
849.997	167.421
853.372	163.678
856.746	162.507
860.121	161.809
863.496	155.64
866.871	149.127
870.246	145.145
873.62	136.709
876.995	125.311
880.37	108.841
883.745	88.8574
887.12	71.2779
890.495	51.3125
893.869	32.1353
897.244	19.9015
900.619	10.0838
903.994	3.97064
907.369	4.01019
910.744	6.54099
914.118	3.36208
917.493	4.11896
920.868	2.92362
924.243	0.992043
927.618	2.02248
930.992	4.88107
934.367	6.52291
937.742	2.88459
941.117	3.97205
944.492	4.11873
947.866	5.2206
951.241	7.50681
954.616	9.73868
957.991	11.1263
961.366	15.643
964.74	18.1254
968.115	19.0617
971.49	20.6341
974.865	22.3132
978.24	20.5241
981.615	21.6354
984.989	21.5321
988.364	21.5362
991.739	20.655
995.114	16.8516
998.489	13.2876
1001.86	10.7635
1005.24	15.0808
1008.61	21.7176
1011.99	27.919
1015.36	23.351
1018.74	13.6339
1022.11	6.43516
1025.49	1.59496
1028.86	0.488541
1032.24	0.766861
1035.61	0.504799
1038.99	0.967785
1042.36	0.802109
1045.74	1.64463
1049.11	1.82723
1052.49	1.45094
1055.86	1.76036
1059.23	1.52929
1062.61	3.41518
1065.98	3.65675
1069.36	3.53053
1072.73	4.24083
1076.11	5.3221
1079.48	5.13505
1082.86	6.17904
1086.23	5.64428
1089.61	3.95152
1092.98	4.02737
1096.36	4.60749
1099.73	4.89293
1103.11	4.36931
1106.48	3.34501
1109.86	3.39776
1113.23	2.80376
1116.61	2.45099
1119.98	1.09774
1123.36	1.44819
1126.73	0.879379
1130.11	0.719318
1133.48	0.510838
1136.86	1.35814
1140.23	0.323105
1143.61	0.132107
1146.98	0.287952
1150.36	0.425926
1153.73	0.543758
1157.11	0.59903
1160.48	0.863308
1163.86	1.27293
1167.23	1.02673
1170.6	1.82258
1173.98	1.99734
1177.35	1.78584
1180.73	1.55405
1184.1	2.44409
1187.48	2.40421
1190.85	2.16488
1194.23	1.76116
1197.6	1.68803
1200.98	2.77533
1204.35	0.271709
1207.73	2.52522
1211.1	1.33443
1214.48	0.749378
1217.85	0.829079
1221.23	1.00669
1224.6	1.08379
1227.98	1.07114
1231.35	1.03571
1234.73	0.86977
1238.1	0.277889
1241.47	0.144936
1244.85	1.3171
1248.22	0.429138
1251.6	0.518448
1254.97	1.54448
1258.35	0.606003
1261.72	2.4617
1265.1	2.15071
1268.47	0.80978
1271.85	2.23193
1275.22	1.16964
1278.6	1.48283
1281.97	1.53569
1285.35	1.04935
1288.72	1.02587
1292.1	1.43219
1295.47	1.03281
1298.85	0.251637
1302.22	0.435917
