Measurement: Raman, 532 nm, unoriented, Raman Data Processed
Mineral: Andradite
Rruff sample: R100049
Ideal chemistry: Ca_3_Fe^3+^_2_(SiO_4_)_3_
Locality: Langban, Filipstad, Varmland, Sweden
Source: William W Pinch
Description: Yellowish orange transparent crystals associated with phenakite
Raman shift (cm-1)	intensity
90.0101	0
93.3849	4.37599
96.7597	4.56553
100.135	7.20871
103.509	10.5907
106.884	12.1675
110.259	16.5983
113.634	25.5705
117.009	18.1414
120.383	11.6234
123.758	4.67547
127.133	0.090776
130.508	3.95685
133.883	5.58028
137.257	0.752443
140.632	7.88005
144.007	13.4748
147.382	22.2137
150.757	41.0367
154.132	65.3572
157.506	81.9952
160.881	100.847
164.256	131.649
167.631	155.03
171.006	170.571
174.381	180.874
177.755	184.689
181.13	147.792
184.505	108.238
187.88	80.5125
191.255	62.0389
194.629	49.4659
198.004	52.2933
201.379	54.4672
204.754	61.1169
208.129	67.7416
211.504	80.4401
214.878	100.731
218.253	127.235
221.628	159.603
225.003	207.667
228.377	271.13
231.752	337.585
235.127	356.146
238.502	246.464
241.877	139.021
245.252	87.3443
248.626	66.8562
252.001	57.1175
255.376	52.8408
258.751	44.5406
262.126	35.7371
265.5	21.3974
268.875	5.08505
272.25	3.24754
275.625	10.1712
279	12.1571
282.375	7.17899
285.75	1.18646
289.124	15.5034
292.499	42.2881
295.874	77.7444
299.249	114.813
302.623	149.306
305.998	209.815
309.373	295.962
312.748	318.318
316.123	236.256
319.498	166.309
322.872	169.149
326.247	205.038
329.622	194.714
332.997	181.119
336.372	204.574
339.747	255.838
343.121	325.93
346.496	431.072
349.871	591.239
353.246	796.966
356.621	1002.3
359.995	1239.61
363.37	1676.79
366.745	2391.18
370.12	2854.54
373.495	2089.61
376.87	1075.25
380.244	544.529
383.619	302.5
386.994	176.394
390.369	107.294
393.744	63.8252
397.118	38.757
400.493	21.5368
403.868	12.3612
407.243	9.80748
410.618	5.7972
413.993	2.82425
417.367	0.23764
420.742	2.3344
424.117	5.39712
427.492	6.83756
430.866	5.43906
434.241	0.310028
437.616	5.83044
440.991	13.5042
444.366	21.9616
447.741	40.001
451.115	74.8152
454.49	84.9506
457.865	32.1676
461.24	1.58592
464.615	4.00711
467.99	1.3654
471.364	11.1166
474.739	26.8935
478.114	51.5865
481.489	80.6096
484.864	118.621
488.238	173.725
491.613	243.878
494.988	275.735
498.363	214.592
501.738	198.387
505.113	268.344
508.487	403.763
511.862	652.923
515.237	1045.69
518.612	1341.43
521.987	933.448
525.361	444.233
528.736	225.902
532.111	130.742
535.486	84.5681
538.861	63.1778
542.236	54.9488
545.61	57.3812
548.985	64.0678
552.36	81.6613
555.735	82.7508
559.11	50.5431
562.484	18.135
565.859	2.40277
569.234	3.06133
572.609	9.6592
575.984	20.6447
579.359	23.3881
582.733	8.5034
586.108	3.47463
589.483	3.77191
592.858	4.75156
596.232	7.56378
599.607	7.75557
602.982	6.6577
606.357	8.19759
609.732	6.62335
613.107	2.57773
616.481	2.3484
619.856	1.98752
623.231	3.53514
626.606	3.17863
629.981	2.46443
633.356	0.795883
636.73	0.32103
640.105	0.969345
643.48	3.5434
646.855	4.33478
650.23	3.22929
653.604	6.75296
656.979	6.43774
660.354	9.25761
663.729	10.4494
667.104	8.19568
670.479	10.598
673.853	11.3363
677.228	12.1671
680.603	14.0347
683.978	12.3183
687.353	11.2026
690.727	10.1854
694.102	8.22011
697.477	11.1176
700.852	10.6996
704.227	10.7806
707.601	13.1558
710.976	13.7027
714.351	14.7507
717.726	13.5776
721.101	12.1593
724.476	10.1451
727.85	9.62155
731.225	7.257
734.6	6.92317
737.975	6.12505
741.35	4.16409
744.725	2.1062
748.099	2.88774
751.474	1.5914
754.849	0.913422
758.224	1.93283
761.599	2.2299
764.973	3.14894
768.348	3.41957
771.723	3.21581
775.098	1.6756
778.473	0.233322
781.847	4.16305
785.222	9.51317
788.597	17.1677
791.972	32.8887
795.347	54.6448
798.722	84.7036
802.096	130.973
805.471	195.844
808.846	283.935
812.221	390.498
815.596	501.466
818.971	576.27
822.345	553.586
825.72	425.171
829.095	316.427
832.47	277.197
835.845	307.651
839.219	388.933
842.594	510.36
845.969	639.948
849.344	647.045
852.719	487.985
856.093	321.851
859.468	233.167
862.843	209.161
866.218	241.029
869.593	327.202
872.967	464.319
876.342	692.956
879.717	883.958
883.092	672.774
886.467	335.738
889.842	166.537
893.216	89.8878
896.591	48.7756
899.966	28.8511
903.341	15.4436
906.716	8.12387
910.091	1.28226
913.465	0.820602
916.84	2.76688
920.215	3.70631
923.59	4.07568
926.965	2.50804
930.339	0.7211
933.714	0.184235
937.089	0.997009
940.464	0.103851
943.839	2.20822
947.213	2.65717
950.588	4.08814
953.963	7.04672
957.338	12.0829
960.713	13.9383
964.088	17.1506
967.462	21.0484
970.837	26.4395
974.212	29.4635
977.587	33.5228
980.962	38.3981
984.337	45.0239
987.711	58.6954
991.086	81.5164
994.461	116.075
997.836	156.363
1001.21	144.321
1004.59	76.3801
1007.96	41.0796
1011.34	23.5287
1014.71	16.7329
1018.09	14.1495
1021.46	7.90651
1024.83	4.15987
1028.21	4.49884
1031.58	4.73527
1034.96	2.90973
1038.33	3.03508
1041.71	0.943756
1045.08	0.11171
1048.46	0.59317
1051.83	0.850494
1055.21	0.097229
1058.58	0.25531
1061.96	0.029984
1065.33	0.705933
1068.71	1.36426
1072.08	4.74785
1075.46	5.22093
1078.83	6.94986
1082.21	10.5384
1085.58	11.2563
1088.96	11.8399
1092.33	12.2316
1095.7	13.8856
1099.08	15.0287
1102.45	14.518
1105.83	14.3473
1109.2	12.7729
1112.58	11.2395
1115.95	9.82703
1119.33	8.36546
1122.7	6.72197
1126.08	2.83386
1129.45	2.95198
1132.83	1.61146
1136.2	0.386719
1139.58	1.0188
1142.95	0.90155
1146.33	2.35266
1149.7	0.476364
1153.08	3.92676
1156.45	0.160721
1159.83	2.78575
1163.2	3.3381
1166.58	3.71724
1169.95	5.85219
1173.33	8.48726
1176.7	7.58612
1180.08	8.17085
1183.45	9.8551
1186.83	10.1277
1190.2	9.34627
1193.58	9.96257
1196.95	9.16432
1200.33	8.89091
1203.7	9.6841
1207.07	9.83972
1210.45	7.67514
1213.82	8.98637
1217.2	6.64395
1220.57	4.94679
1223.95	5.80501
1227.32	3.06174
1230.7	3.11449
1234.07	2.39265
1237.45	1.67223
1240.82	0.76535
1244.2	0.111053
1247.57	0.223083
1250.95	0.478165
1254.32	0.027451
1257.7	0.416946
1261.07	1.19316
1264.45	2.18918
1267.82	3.37401
1271.2	1.71642
1274.57	2.60275
1277.95	2.80481
1281.32	3.82352
1284.69	3.65561
1288.07	2.623
1291.44	1.05478
1294.82	2.18326
1298.19	3.14919
1301.57	1.78496
