Measurement: Raman, 780 nm, unoriented, Raman Data Processed
Mineral: Andradite
Rruff sample: R060358
Ideal chemistry: Ca_3_Fe^3+^_2_(SiO_4_)_3_
Locality: Soghan, near Jiroft, Kerman, Iran
Source: Herb Obodda
Description: Green dodecahedron
Measured chemistry: Ca_3.00_(Fe^3+^_1.89_Cr_0.11_)_Î£=2_(Si_1.00_O_4_)_3_
Raman shift (cm-1)	intensity
95.0987	0
98.4736	1.41705
101.848	0.108479
105.223	2.12954
108.598	2.59843
111.973	2.05758
115.348	0.251842
118.722	0.122637
122.097	0.509336
125.472	0.437408
128.847	0.734571
132.222	0.70558
135.596	1.26657
138.971	0.481979
142.346	0.537243
145.721	0.845112
149.096	2.49963
152.471	8.36284
155.845	10.129
159.22	11.4903
162.595	15.5219
165.97	23.3984
169.345	43.4255
172.72	124.354
176.094	38.2909
179.469	7.93134
182.844	3.80968
186.219	2.21769
189.594	0.7857
192.968	0.381186
196.343	0.208394
199.718	0.075939
203.093	0.003174
206.468	0.134047
209.842	1.06291
213.217	3.11164
216.592	10.2636
219.967	11.9044
223.342	16.8071
226.716	24.6747
230.091	38.515
233.466	82.845
236.841	98.6711
240.216	19.0176
243.591	5.77894
246.965	3.21866
250.34	1.41034
253.715	1.08455
257.09	2.30733
260.465	7.71181
263.839	26.5386
267.214	6.14747
270.589	1.01585
273.964	2.01419
277.339	2.57765
280.714	1.28876
284.088	0.228924
287.463	2.90463
290.838	10.9985
294.213	26.6343
297.588	27.016
300.962	19.5818
304.337	25.6596
307.712	48.369
311.087	93.6851
314.462	62.5467
317.837	28.8696
321.211	36.1817
324.586	57.0572
327.961	48.0794
331.336	73.5518
334.711	118.09
338.085	148.213
341.46	210.473
344.835	319.045
348.21	591.704
351.585	925.012
354.959	603.728
358.334	406.187
361.709	454.791
365.084	700.607
368.459	1156.27
371.834	988.943
375.208	450.037
378.583	248.793
381.958	205.91
385.333	116.052
388.708	50.4475
392.082	29.0622
395.457	18.523
398.832	10.947
402.207	7.10217
405.582	4.70861
408.957	3.1894
412.331	0.460459
415.706	0.263115
419.081	1.4606
422.456	1.13842
425.831	2.57855
429.205	1.59213
432.58	1.27757
435.955	0.630079
439.33	1.98496
442.705	4.64663
446.079	9.51696
449.454	19.3329
452.829	21.0587
456.204	6.61874
459.579	0.526119
462.954	0.181702
466.328	0.089357
469.703	1.78392
473.078	7.8555
476.453	14.9522
479.828	21.3716
483.202	31.6073
486.577	52.2725
489.952	94.0046
493.327	114.35
496.702	80.8035
500.077	74.3583
503.451	81.9091
506.826	113.058
510.201	193.822
513.576	362.876
516.951	358.131
520.325	152.686
523.7	65.2927
527.075	34.916
530.45	22.8468
533.825	16.8837
537.199	14.8032
540.574	12.7005
543.949	13.7232
547.324	17.516
550.699	24.0079
554.073	23.4781
557.448	12.8242
560.823	7.36811
564.198	5.98461
567.573	7.16431
570.948	11.6292
574.322	18.4105
577.697	16.1858
581.072	6.48558
584.447	1.65304
587.822	0.988659
591.197	1.08047
594.571	0.486624
597.946	0.306835
601.321	0.311428
604.696	0.429802
608.071	0.028341
611.445	0.416125
614.82	0.375516
618.195	0.797642
621.57	0.134313
624.945	0.287343
628.319	0.40295
631.694	1.06538
635.069	0.668373
638.444	1.4307
641.819	1.42872
645.193	1.70264
648.568	2.20059
651.943	2.07948
655.318	1.88373
658.693	2.55993
662.068	3.20628
665.442	3.04259
668.817	2.82957
672.192	2.94713
675.567	2.96663
678.942	2.34882
682.317	2.44312
685.691	2.96121
689.066	2.16029
692.441	2.28211
695.816	2.44693
699.191	2.54497
702.565	2.73386
705.94	3.62573
709.315	3.92733
712.69	3.65545
716.065	3.40209
719.439	3.75066
722.814	3.13643
726.189	2.66852
729.564	2.54996
732.939	2.05713
736.313	1.99009
739.688	1.3793
743.063	1.20091
746.438	0.715285
749.813	1.05057
753.188	0.865792
756.562	0.105138
759.937	0.72504
763.312	0.987751
766.687	1.1003
770.062	1.01461
773.437	0.809732
776.811	0.549345
780.186	0.076166
783.561	0.816179
786.936	2.396
790.311	5.83251
793.685	11.4244
797.06	19.545
800.435	33.5749
803.81	50.5615
807.185	75.8991
810.559	113.958
813.934	166.77
817.309	157.487
820.684	99.9882
824.059	66.2874
827.433	61.6212
830.808	68.3187
834.183	87.1296
837.558	121.251
840.933	151.738
844.308	136.977
847.682	102.688
851.057	88.9381
854.432	98.7341
857.807	141.933
861.182	208.307
864.557	287.952
867.931	419.752
871.306	641.36
874.681	747.324
878.056	409.763
881.431	169.569
884.805	80.4112
888.18	44.1655
891.555	26.1673
894.93	16.5494
898.305	9.81033
901.679	6.83622
905.054	5.06919
908.429	3.55551
911.804	1.87587
915.179	0.665102
918.553	0.038628
921.928	0.399145
925.303	1.00666
928.678	0.809909
932.053	0.78054
935.428	0.942973
938.802	0.589511
942.177	0.199771
945.552	0.729009
948.927	1.63632
952.302	1.91424
955.676	1.93568
959.051	2.51172
962.426	2.36518
965.801	3.17698
969.176	3.73335
972.551	5.02208
975.925	5.9741
979.3	7.1832
982.675	9.0889
986.05	10.7337
989.425	15.1337
992.799	22.5312
996.174	23.3184
999.549	11.328
1002.92	5.84348
1006.3	3.28599
1009.67	2.40196
1013.05	1.72537
1016.42	2.42924
1019.8	1.91902
1023.17	1.29286
1026.55	1.15711
1029.92	0.397463
1033.3	0.794062
1036.67	0.751201
1040.05	0.349992
1043.42	0.038392
1046.8	0.119562
1050.17	0.122774
1053.55	0.393335
1056.92	0.188123
1060.3	0.308672
1063.67	0.606586
1067.05	1.26796
1070.42	1.36292
1073.8	2.01207
1077.17	2.55081
1080.55	2.35494
1083.92	3.22086
1087.29	3.50983
1090.67	3.58258
1094.04	3.47008
1097.42	3.70644
1100.79	4.09988
1104.17	4.27333
1107.54	3.34005
1110.92	2.66978
1114.29	2.24897
1117.67	2.00572
1121.04	1.50996
1124.42	0.787873
1127.79	0.501874
1131.17	0.066464
1134.54	0.264192
1137.92	0.244958
1141.29	0.114501
1144.67	0.083049
1148.04	0.3273
1151.42	0.115946
1154.79	0.454624
1158.16	0.663601
1161.54	1.03218
1164.91	0.87533
1168.29	1.60198
1171.66	2.06916
1175.04	2.28351
1178.41	2.39739
1181.79	2.54936
1185.16	2.46218
1188.54	2.62329
1191.91	2.44896
1195.29	2.13794
1198.66	2.34188
1202.04	1.61807
1205.41	2.12593
1208.79	2.18669
1212.16	1.39461
1215.54	1.16921
1218.91	1.15947
1222.29	0.867293
1225.66	0.49165
1229.04	0.20686
1232.41	0.130655
1235.79	0.100717
1239.16	0.172873
1242.54	0.332694
1245.91	0.19505
1249.29	0.568074
1252.66	0.22172
1256.04	0.09465
1259.41	0.083338
1262.79	0.473712
1266.16	0.327067
1269.53	1.06427
1272.91	0.52221
1276.28	0.008001
1279.66	0.170183
1283.03	0.394356
