Measurement: Raman, 780 nm, unoriented, Raman Data Processed
Mineral: Andradite
Rruff sample: R050311
Ideal chemistry: Ca_3_Fe^3+^_2_(SiO_4_)_3_
Locality: Calaveras County, California, USA
Source: Eugene Schlepp
Description: Deep red crystals
Measured chemistry: (Ca_2.88_Mn_0.07_Fe^2+^_0.05_)_Σ=3_(Fe^3+^_1.39_Al_0.59_Ti_0.02_)_Σ=2_((Si_0.99_Al_0.01_)_Σ=1_O_4_)_3_
Raman shift (cm-1)	intensity
96.3804	0
99.7552	6.86214
103.13	0.164787
106.505	5.52386
109.88	0.10025
113.254	1.68413
116.629	2.60609
120.004	1.08492
123.379	3.48284
126.754	3.20933
130.129	2.52625
133.503	0.433334
136.878	2.61786
140.253	2.31097
143.628	0.691216
147.003	3.08647
150.377	7.06959
153.752	11.0875
157.127	19.8433
160.502	30.4877
163.877	38.2048
167.251	52.3028
170.626	76.4077
174.001	95.9143
177.376	94.1738
180.751	50.69
184.126	21.1925
187.5	7.52382
190.875	3.44826
194.25	0.538025
197.625	0.542221
201	0.731659
204.375	0.764221
207.749	5.62903
211.124	7.5903
214.499	15.3935
217.874	27.9546
221.249	43.5417
224.623	58.3048
227.998	80.6898
231.373	101.957
234.748	128.397
238.123	138.212
241.498	81.8772
244.872	27.5504
248.247	4.02492
251.622	2.10527
254.997	0.904663
258.372	0.410934
261.746	6.84582
265.121	15.4309
268.496	14.6609
271.871	6.46191
275.246	0.760468
278.62	3.96252
281.995	6.06874
285.37	1.42184
288.745	5.41501
292.12	16.1983
295.495	31.0588
298.869	49.8412
302.244	58.1219
305.619	72.4823
308.994	96.4292
312.369	127.352
315.743	152.51
319.118	130.131
322.493	111.887
325.868	116.834
329.243	142.75
332.618	166.381
335.992	211.616
339.367	282.48
342.742	376.103
346.117	509.115
349.492	706.429
352.866	954.935
356.241	1145.48
359.616	1190.77
362.991	1245.83
366.366	1445.09
369.74	1649.03
373.115	1382.02
376.49	827.393
379.865	462.904
383.24	285.072
386.615	200.642
389.989	159.043
393.364	108.806
396.739	64.4418
400.114	32.3809
403.489	12.5382
406.863	2.65262
410.238	2.94313
413.613	3.94928
416.988	5.87654
420.363	2.9937
423.738	1.59021
427.112	1.21974
430.487	3.49609
433.862	4.79283
437.237	6.91998
440.612	8.42752
443.986	12.5773
447.361	14.876
450.736	12.9572
454.111	14.1919
457.486	14.3568
460.861	7.821
464.235	2.88306
467.61	1.20409
470.985	5.7106
474.36	18.5508
477.735	28.2973
481.109	42.0664
484.484	54.7951
487.859	63.424
491.234	73.318
494.609	85.0136
497.983	87.7305
501.358	83.8724
504.733	92.7371
508.108	118.497
511.483	161.718
514.857	218.555
518.232	313.05
521.607	415.98
524.982	439.65
528.357	293.302
531.732	145.965
535.106	71.445
538.481	40.5394
541.856	27.9222
545.231	24.1265
548.606	23.5862
551.981	26.4076
555.355	28.1453
558.73	22.9806
562.105	12.3391
565.48	3.80313
568.855	1.68433
572.229	3.50073
575.604	0.463455
578.979	4.16174
582.354	7.77762
585.729	7.43601
589.104	12.3755
592.478	15.966
595.853	17.8206
599.228	19.4807
602.603	20.9527
605.978	20.7822
609.352	19.1838
612.727	17.3962
616.102	13.5196
619.477	6.62112
622.852	4.09441
626.226	1.84926
629.601	0.095245
632.976	0.971954
636.351	1.19783
639.726	0.854523
643.101	1.15981
646.475	1.34
649.85	1.92134
653.225	0.763275
656.6	2.88964
659.975	2.07328
663.35	1.35977
666.724	3.87303
670.099	4.17837
673.474	4.19443
676.849	2.76635
680.224	1.5815
683.598	1.54636
686.973	1.38884
690.348	0.016579
693.723	1.45442
697.098	1.51048
700.472	1.3647
703.847	0.466805
707.222	0.739426
710.597	0.120903
713.972	0.258392
717.346	2.37186
720.721	2.66557
724.096	6.8394
727.471	9.66647
730.846	11.8243
734.221	15.4736
737.595	18.8753
740.97	22.0718
744.345	25.0531
747.72	27.9575
751.095	28.5721
754.47	28.7755
757.844	25.9306
761.219	21.1657
764.594	14.3523
767.969	8.98747
771.344	1.72015
774.718	4.49162
778.093	5.50678
781.468	4.12817
784.843	0.714699
788.218	5.07767
791.592	16.9454
794.967	36.1459
798.342	63.0864
801.717	95.9517
805.092	134.529
808.467	173.332
811.841	216.772
815.216	255.508
818.591	275.696
821.966	255.408
825.341	209.095
828.716	163.719
832.09	138.619
835.465	128.951
838.84	137.597
842.215	154.196
845.59	164.539
848.964	167.7
852.339	156.94
855.714	167.602
859.089	204.387
862.464	270.888
865.838	371.03
869.213	492.579
872.588	635.957
875.963	757.006
879.338	754.577
882.712	568.664
886.087	347.391
889.462	203.621
892.837	119.185
896.212	69.421
899.587	42.0785
902.961	22.7731
906.336	11.2903
909.711	2.99426
913.086	1.20036
916.461	3.97379
919.836	3.51591
923.21	3.62105
926.585	1.255
929.96	2.75283
933.335	5.47906
936.71	8.1054
940.084	7.75021
943.459	1.74654
946.834	0.06469
950.209	1.12995
953.584	3.27877
956.958	6.46309
960.333	10.3201
963.708	12.6163
967.083	17.4448
970.458	20.6095
973.832	24.5668
977.207	25.3845
980.582	26.6168
983.957	24.594
987.332	28.5807
990.707	29.4156
994.081	32.0947
997.456	32.7004
1000.83	27.9422
1004.21	16.2327
1007.58	7.75684
1010.96	3.96652
1014.33	3.60086
1017.71	3.65865
1021.08	2.08996
1024.45	2.58367
1027.83	0.050156
1031.2	0.033424
1034.58	0.682343
1037.95	0.266071
1041.33	0.26841
1044.7	0.056271
1048.08	0.723568
1051.45	0.691513
1054.83	0.862827
1058.2	1.05676
1061.58	1.1315
1064.95	2.48829
1068.33	1.90659
1071.7	1.06771
1075.08	4.18502
1078.45	4.20135
1081.83	4.42832
1085.2	5.82222
1088.58	6.27623
1091.95	6.6585
1095.33	4.78479
1098.7	6.67251
1102.08	6.62261
1105.45	5.53798
1108.83	6.78201
1112.2	5.61507
1115.58	5.12324
1118.95	4.62092
1122.32	4.20746
1125.7	4.32159
1129.07	2.60521
1132.45	2.7285
1135.82	2.76898
1139.2	0.845978
1142.57	0.766968
1145.95	1.87174
1149.32	0.853874
1152.7	0.069107
1156.07	0.603233
1159.45	0.99942
1162.82	0.194492
1166.2	0.336159
1169.57	1.09533
1172.95	0.954918
1176.32	1.8155
1179.7	2.79958
1183.07	3.14563
1186.45	1.88099
1189.82	3.19715
1193.2	3.36016
1196.57	2.05821
1199.94	3.70264
1203.32	2.67955
1206.69	3.1588
1210.07	2.86412
1213.44	2.82968
1216.82	2.75677
1220.19	2.73729
1223.57	1.69451
1226.94	2.77331
1230.32	1.85933
1233.69	1.16818
1237.07	1.21234
1240.44	0.471195
1243.82	0.871655
1247.19	0.624514
1250.57	0.859171
1253.94	1.81524
1257.32	0.744837
1260.69	0.701593
1264.07	0.147272
1267.44	1.13636
1270.82	0.989954
1274.19	0.287912
1277.57	0.825024
