Measurement: Raman, 532 nm, unoriented, Raman Data Processed
Mineral: Andradite
Rruff sample: R060358
Ideal chemistry: Ca_3_Fe^3+^_2_(SiO_4_)_3_
Locality: Soghan, near Jiroft, Kerman, Iran
Source: Herb Obodda
Description: Green dodecahedron
Measured chemistry: Ca_3.00_(Fe^3+^_1.89_Cr_0.11_)_Î£=2_(Si_1.00_O_4_)_3_
Raman shift (cm-1)	intensity
91.6273	0
95.0021	1.83268
98.3769	1.30912
101.752	1.42929
105.126	1.01123
108.501	0.458098
111.876	0.549848
115.251	0.346084
118.626	0.648826
122.001	1.64997
125.375	2.62507
128.75	4.61505
132.125	7.46137
135.5	8.94484
138.875	8.84018
142.25	9.92801
145.624	11.128
148.999	14.2442
152.374	19.2044
155.749	42.2835
159.124	53.4311
162.498	69.9085
165.873	96.8748
169.248	160.196
172.623	405.382
175.998	289.291
179.373	50.2138
182.747	18.9791
186.122	10.245
189.497	5.71459
192.872	2.16473
196.247	0.821596
199.621	0.082972
202.996	0.651865
206.371	0.118025
209.746	0.624233
213.121	6.74349
216.495	21.3803
219.87	58.4044
223.245	85.135
226.62	132.833
229.995	221.713
233.37	357.463
236.744	678.383
240.119	177.704
243.494	42.9947
246.869	18.3906
250.244	12.1814
253.619	11.8867
256.993	17.8659
260.368	35.905
263.743	100.499
267.118	80.6025
270.493	5.35885
273.867	3.63517
277.242	6.17693
280.617	6.42155
283.992	1.88143
287.367	2.98592
290.741	15.6826
294.116	46.4903
297.491	79.9871
300.866	85.87
304.241	119.224
307.615	228.462
310.99	461.389
314.365	445.486
317.74	157.997
321.115	135.808
324.49	222.074
327.864	150.261
331.239	85.0801
334.614	117.926
337.989	181.095
341.364	268.189
344.738	432.114
348.113	790.1
351.488	1367.94
354.863	1227.89
358.238	882.241
361.613	1043.96
364.987	1625.22
368.362	2788.34
371.737	3132.02
375.112	1568.43
378.487	719.966
381.861	419.694
385.236	251.591
388.611	127.102
391.986	76.694
395.361	48.3747
398.736	30.8729
402.11	20.2758
405.485	12.972
408.86	6.06603
412.235	2.27172
415.61	0.137321
418.985	3.01303
422.359	5.12962
425.734	5.89149
429.109	4.77818
432.484	2.64383
435.859	3.07568
439.233	12.1649
442.608	24.9492
445.983	46.872
449.358	88.206
452.733	121.033
456.108	54.6806
459.482	12.4416
462.857	1.26454
466.232	1.37649
469.607	0.378979
472.982	7.02602
476.356	21.1634
479.731	45.781
483.106	75.6927
486.481	127.598
489.856	226.506
493.231	326.259
496.605	262.204
499.98	186.001
503.355	208.526
506.73	296.98
510.105	538.129
513.479	978.676
516.854	1226.92
520.229	606.859
523.604	245.54
526.979	123.309
530.354	72.9456
533.728	50.7458
537.103	43.4342
540.478	44.7859
543.853	49.8661
547.227	66.5315
550.602	95.288
553.977	108.103
557.352	59.8933
560.727	23.6183
564.102	13.6429
567.476	15.6404
570.851	26.3441
574.226	44.5206
577.601	49.1243
580.976	20.4663
584.351	7.50863
587.725	3.48337
591.1	2.90867
594.475	2.31671
597.85	0.716721
601.225	0.461494
604.599	0.746109
607.974	0.23053
611.349	2.00843
614.724	1.30517
618.099	2.32068
621.473	2.19201
624.848	0.285992
628.223	0.772305
631.598	1.48558
634.973	2.87949
638.348	3.08037
641.722	3.81451
645.097	4.70989
648.472	6.31134
651.847	5.61156
655.222	6.0402
658.596	7.32769
661.971	7.48131
665.346	8.40518
668.721	9.45309
672.096	9.24984
675.471	8.25788
678.845	7.6643
682.22	6.74727
685.595	6.53427
688.97	6.50405
692.345	6.39012
695.72	6.61906
699.094	8.14994
702.469	8.15276
705.844	10.1129
709.219	10.853
712.594	11.6315
715.968	11.2321
719.343	9.72002
722.718	9.00033
726.093	7.20153
729.468	6.61344
732.842	5.80529
736.217	4.57242
739.592	3.73903
742.967	2.79152
746.342	2.78931
749.717	1.7594
753.091	0.779987
756.466	0.195675
759.841	2.27533
763.216	3.89568
766.591	3.97619
769.966	1.61595
773.34	0.765896
776.715	0.761852
780.09	1.84455
783.465	5.96295
786.84	12.0035
790.214	23.2621
793.589	41.9076
796.964	68.5095
800.339	115.967
803.714	188.103
807.088	298.009
810.463	480.143
813.838	720.499
817.213	771.192
820.588	505.292
823.962	314.459
827.337	264.374
830.712	301.36
834.087	402.616
837.462	570.594
840.837	754.943
844.211	714.224
847.586	471.693
850.961	303.062
854.336	229.806
857.711	230.527
861.086	298.341
864.46	435.163
867.835	673.814
871.21	1104.64
874.585	1436.66
877.96	915.753
881.334	377.881
884.709	168.519
888.084	85.753
891.459	46.5706
894.834	27.53
898.208	15.0973
901.583	8.72787
904.958	5.04216
908.333	3.471
911.708	2.19849
915.083	0.007172
918.457	1.90457
921.832	2.30003
925.207	2.57834
928.582	2.20034
931.957	1.15938
935.332	1.38457
938.706	1.10925
942.081	0.0149
945.456	0.977575
948.831	3.70741
952.206	5.38163
955.58	6.08411
958.955	7.90878
962.33	11.0582
965.705	12.7231
969.08	15.875
972.455	20.0598
975.829	22.4692
979.204	27.7113
982.579	37.0571
985.954	53.5187
989.329	81.6123
992.703	131.934
996.078	169.174
999.453	96.2325
1002.83	44.5824
1006.2	25.8108
1009.58	16.7979
1012.95	12.304
1016.33	9.49978
1019.7	7.791
1023.08	6.36796
1026.45	5.65816
1029.83	4.14043
1033.2	3.41097
1036.58	2.48609
1039.95	0.92164
1043.33	0.50259
1046.7	0.093708
1050.08	5.30686
1053.45	0.642023
1056.83	0.213129
1060.2	0.254269
1063.57	1.10295
1066.95	2.07964
1070.32	3.49683
1073.7	5.00619
1077.07	6.39084
1080.45	7.93074
1083.82	9.42085
1087.2	10.6106
1090.57	12.4442
1093.95	13.0696
1097.32	13.5018
1100.7	14.2044
1104.07	14.1154
1107.45	13.099
1110.82	12.1826
1114.2	9.89009
1117.57	7.52413
1120.95	6.24715
1124.32	4.39204
1127.7	2.67054
1131.07	1.02109
1134.45	0.597382
1137.82	0.067572
1141.19	0.171762
1144.57	0.1819
1147.94	0.660683
1151.32	0.650085
1154.69	1.84786
1158.07	2.48876
1161.44	3.79401
1164.82	4.04358
1168.19	8.40296
1171.57	6.14694
1174.94	7.52205
1178.32	8.05683
1181.69	8.8428
1185.07	9.01487
1188.44	8.95056
1191.82	8.78154
1195.19	8.87162
1198.57	8.14373
1201.94	8.25334
1205.32	8.61142
1208.69	7.7392
1212.07	6.64388
1215.44	5.78399
1218.82	5.02343
1222.19	3.2904
1225.57	3.26252
1228.94	2.34899
1232.32	1.65664
1235.69	0.463508
1239.07	0.390599
1242.44	0.514519
1245.82	0.039093
1249.19	0.206891
1252.56	0.021437
1255.94	0.468584
1259.31	0.43318
1262.69	0.319217
1266.06	0.567033
1269.44	1.12494
1272.81	1.87825
1276.19	2.16062
1279.56	1.69947
1282.94	1.7332
1286.31	1.54683
1289.69	1.06971
1293.06	0.802579
1296.44	0.551866
1299.81	0.41517
1303.19	0.300709
