Measurement: Raman, 780 nm, unoriented, Raman Data Processed
Mineral: Andradite
Rruff sample: R060326
Ideal chemistry: Ca_3_Fe^3+^_2_(SiO_4_)_3_
Locality: Ultevis, Sweden
Source: Marcus Origlieri
Description: Reddish-brown colored druse of crystals associated with white svabite R050180
Measured chemistry: (Ca_2.98_Mn_0.02_)_Σ=3_(Fe^3+^_1.75_Al_0.21_Ti_0.04_)_Σ=2_(Si_1.00_O_4_)_3_
Raman shift (cm-1)	intensity
110.526	0
113.901	0.06218
117.276	1.12598
120.651	2.66946
124.026	2.99937
127.401	2.05408
130.775	0.909836
134.15	0.21254
137.525	0.797806
140.9	2.30666
144.275	3.90447
147.649	4.94576
151.024	10.4937
154.399	17.5213
157.774	21.6016
161.149	24.0607
164.524	28.1811
167.898	34.2416
171.273	46.2516
174.648	46.1983
178.023	20.5094
181.398	8.856
184.772	5.21248
188.147	1.57649
191.522	0.730301
194.897	0.098709
198.272	0.988297
201.647	0.279877
205.021	2.8094
208.396	2.73862
211.771	7.23764
215.146	13.401
218.52	22.5568
221.895	26.1191
225.27	33.2784
228.645	43.9558
232.02	53.1462
235.395	78.6929
238.769	52.6869
242.144	17.5758
245.519	7.26828
248.894	4.36931
252.269	3.40028
255.643	2.49174
259.018	3.20175
262.393	9.09518
265.768	14.1629
269.143	2.5271
272.518	1.62947
275.892	0.881882
279.267	1.23621
282.642	1.56531
286.017	0.020889
289.392	7.72365
292.766	16.1247
296.141	21.6183
299.516	25.2819
302.891	31.407
306.266	44.2405
309.64	62.6614
313.015	72.7613
316.39	50.1934
319.765	35.1138
323.14	41.9227
326.515	52.1653
329.889	57.8727
333.264	80.0871
336.639	117.667
340.014	145.489
343.389	196.448
346.764	270.645
350.138	384.979
353.513	452.456
356.888	406.911
360.263	391.382
363.637	449.509
367.012	561.043
370.387	582.427
373.762	380.351
377.137	201.789
380.512	122.983
383.886	88.0408
387.261	61.1934
390.636	28.6769
394.011	16.0475
397.386	8.76532
400.76	3.74472
404.135	0.329422
407.51	0.883835
410.885	0.735229
414.26	1.14221
417.635	0.931076
421.009	0.860565
424.384	0.679214
427.759	0.418427
431.134	0.807617
434.509	0.721664
437.884	3.92543
441.258	3.99091
444.633	5.96257
448.008	8.84141
451.383	11.8576
454.757	11.2998
458.132	3.75014
461.507	2.37207
464.882	0.185928
468.257	1.74355
471.632	6.63872
475.006	13.5365
478.381	18.8212
481.756	22.7316
485.131	30.5965
488.506	39.008
491.88	49.1487
495.255	52.4996
498.63	50.7873
502.005	59.4465
505.38	72.7984
508.755	91.2821
512.129	123.515
515.504	174.717
518.879	189.596
522.254	115.141
525.629	50.2956
529.004	25.8112
532.378	13.4324
535.753	10.9033
539.128	9.34981
542.503	9.50374
545.878	10.117
549.252	13.8952
552.627	14.753
556.002	11.2335
559.377	1.97734
562.752	1.10788
566.126	0.433548
569.501	1.06555
572.876	3.06058
576.251	4.36824
579.626	3.20865
583	0.161224
586.375	1.52278
589.75	2.85593
593.125	2.3177
596.5	1.32304
599.875	3.05052
603.249	2.2495
606.624	2.57933
609.999	1.84839
613.374	0.913956
616.749	0.723648
620.124	0.585648
623.498	0.802902
626.873	0.970474
630.248	2.52875
633.623	0.508133
636.997	3.52602
640.372	1.87512
643.747	2.14914
647.122	2.4525
650.497	5.20589
653.872	2.76097
657.246	3.83302
660.621	3.71915
663.996	3.36487
667.371	2.46845
670.746	2.69321
674.12	2.61041
677.495	3.58652
680.87	4.80039
684.245	2.28061
687.62	1.66034
690.995	0.575439
694.369	2.39322
697.744	3.1759
701.119	0.403412
704.494	0.063477
707.869	2.29627
711.243	3.71564
714.618	0.548798
717.993	5.71243
721.368	2.77902
724.743	1.2135
728.117	0.776093
731.492	1.12744
734.867	3.14441
738.242	1.90317
741.617	0.79361
744.992	0.16861
748.366	0.079102
751.741	2.71158
755.116	1.37521
758.491	1.33728
761.866	1.08374
765.24	1.73221
768.615	0.355804
771.99	1.6001
775.365	0.381897
778.74	0.376617
782.115	2.23175
785.489	2.01639
788.864	10.1161
792.239	14.423
795.614	23.6825
798.989	36.1629
802.363	55.6945
805.738	77.105
809.113	96.3965
812.488	118.348
815.863	125.02
819.237	112.336
822.612	81.6679
825.987	64.865
829.362	65.6634
832.737	71.9444
836.112	80.5755
839.486	95.1921
842.861	102.225
846.236	89.2494
849.611	76.2564
852.986	81.5495
856.361	99.2623
859.735	131.461
863.11	174.637
866.485	223.712
869.86	271.578
873.235	310.886
876.609	275.99
879.984	171.884
883.359	91.6946
886.734	53.27
890.109	25.4078
893.483	14.376
896.858	6.48306
900.233	3.12979
903.608	1.14554
906.983	0.588593
910.357	0.722168
913.732	0.395813
917.107	1.18402
920.482	0.172913
923.857	2.11893
927.232	1.93158
930.606	1.27649
933.981	3.51062
937.356	0.513519
940.731	1.18808
944.106	1.73486
947.481	0.293915
950.855	1.60763
954.23	1.77707
957.605	3.20059
960.98	5.32257
964.355	6.2839
967.729	6.19421
971.104	7.15097
974.479	7.41904
977.854	7.13858
981.229	7.22235
984.603	13.6055
987.978	12.4864
991.353	16.9881
994.728	17.8185
998.103	15.7014
1001.48	7.62115
1004.85	4.14792
1008.23	2.09161
1011.6	2.82947
1014.98	1.4848
1018.35	2.6626
1021.73	1.37125
1025.1	0.34201
1028.48	2.48712
1031.85	0.656128
1035.23	0.061218
1038.6	1.3931
1041.97	1.82056
1045.35	3.37897
1048.72	1.40775
1052.1	0.037628
1055.47	1.59085
1058.85	0.965118
1062.22	0.779877
1065.6	3.18298
1068.97	3.39023
1072.35	1.84964
1075.72	2.33377
1079.1	0.045593
1082.47	3.04504
1085.85	1.80984
1089.22	2.81158
1092.6	1.8866
1095.97	6.46939
1099.35	3.76895
1102.72	2.91879
1106.1	1.92813
1109.47	4.51849
1112.85	2.85217
1116.22	2.00055
1119.6	2.70279
1122.97	2.99722
1126.35	3.46857
1129.72	1.71063
1133.1	1.68033
1136.47	1.60443
1139.85	2.47653
1143.22	0.711121
1146.59	1.05289
1149.97	2.80948
1153.34	2.02539
1156.72	4.98144
1160.09	2.43655
1163.47	2.9393
1166.84	2.50302
1170.22	5.36343
1173.59	5.38138
1176.97	4.85538
1180.34	7.0557
1183.72	6.99756
1187.09	5.08621
1190.47	6.1022
1193.84	7.17624
1197.22	5.22629
1200.59	3.77084
1203.97	8.71893
1207.34	5.16305
1210.72	3.25391
1214.09	5.5957
1217.47	3.64044
1220.84	4.41364
1224.21	3.83948
1227.59	4.10193
1230.96	2.047
1234.34	1.92316
1237.71	1.44986
1241.09	0.256866
1244.46	1.83267
1247.84	2.11472
1251.21	1.22199
1254.59	0.106598
1257.96	1.85702
1261.34	2.00253
1264.71	3.27362
1268.09	2.00601
1271.46	2.56662
1274.84	3.02493
1278.21	1.55893
1281.59	1.30905
1284.96	1.54343
