Measurement: Raman, 532 nm, unoriented, Raman Data Processed
Mineral: Andradite
Rruff sample: R120004
Ideal chemistry: Ca_3_Fe^3+^_2_(SiO_4_)_3_
Locality: Chifeng, Inner Mongolia
Source: Jack Lowell
Description: Dark green dodecahedral crystals overlying pale green diopside R120003
Raman shift (cm-1)	intensity
90.4922	0
93.867	0.165924
97.2418	1.1859
100.617	2.44718
103.992	4.30847
107.366	5.58638
110.741	6.14491
114.116	9.57701
117.491	11.2562
120.865	16.4955
124.24	21.7713
127.615	17.9554
130.99	16.0616
134.365	12.3664
137.74	8.00362
141.114	5.43866
144.489	2.46088
147.864	1.01454
151.239	3.1111
154.614	2.9078
157.988	0.406429
161.363	6.89841
164.738	23.3471
168.113	50.6416
171.488	99.3403
174.863	133.849
178.237	63.2557
181.612	34.0392
184.987	30.6158
188.362	29.1978
191.737	26.1048
195.112	25.5193
198.486	21.4984
201.861	20.4512
205.236	18.3456
208.611	18.0042
211.986	20.8545
215.36	28.2771
218.735	51.7169
222.11	88.2929
225.485	122.682
228.86	171.256
232.234	252.645
235.609	376.139
238.984	287.87
242.359	81.2907
245.734	23.5674
249.109	9.15998
252.483	6.9837
255.858	9.08451
259.233	17.7707
262.608	45.3103
265.983	67.9389
269.358	22.8974
272.732	1.50071
276.107	6.58047
279.482	7.56664
282.857	6.49445
286.232	1.16759
289.606	7.32472
292.981	28.0421
296.356	58.3433
299.731	77.3699
303.106	93.8953
306.481	145.593
309.855	265.901
313.23	352.223
316.605	209.505
319.98	125.996
323.355	143.802
326.729	165.313
330.104	122.367
333.479	131.096
336.854	204.04
340.229	309.551
343.603	448.441
346.978	698.758
350.353	1104.08
353.728	1390.98
357.103	1211.28
360.478	1169.37
363.852	1476.19
367.227	2137.24
370.602	2591.89
373.977	1845.82
377.352	905.179
380.726	479.87
384.101	301.537
387.476	185.972
390.851	106.67
394.226	62.6816
397.601	38.3542
400.975	23.4625
404.35	12.6777
407.725	9.13644
411.1	2.69529
414.475	2.61767
417.849	3.3384
421.224	3.93719
424.599	5.04511
427.974	4.52862
431.349	2.58281
434.724	2.2519
438.098	8.71143
441.473	18.7799
444.848	30.6567
448.223	50.9717
451.598	73.7295
454.972	63.6323
458.347	25.6369
461.722	5.82011
465.097	1.03619
468.472	0.340195
471.846	6.0609
475.221	19.0515
478.596	39.7842
481.971	69.5056
485.346	108.196
488.721	164.884
492.095	234.238
495.47	242.324
498.845	172.934
502.22	163.958
505.595	224.929
508.969	346.383
512.344	570.789
515.719	825.664
519.094	780.179
522.469	448.014
525.844	224.809
529.218	109.707
532.593	55.0765
535.968	33.2463
539.343	27.7137
542.718	30.8609
546.092	37.566
549.467	53.566
552.842	67.5171
556.217	51.8209
559.592	22.2011
562.967	4.34105
566.341	2.36465
569.716	9.48827
573.091	26.1804
576.466	42.126
579.841	33.2815
583.216	11.5148
586.59	4.6328
589.965	2.27441
593.34	2.06609
596.715	3.60057
600.09	4.61499
603.464	6.07931
606.839	7.56428
610.214	7.34418
613.589	3.25789
616.964	3.77453
620.338	2.21246
623.713	3.91961
627.088	1.89696
630.463	1.40092
633.838	0.63765
637.212	0.610535
640.587	2.43085
643.962	3.1485
647.337	3.88949
650.712	5.3578
654.087	7.07036
657.461	7.60455
660.836	8.07838
664.211	10.152
667.586	10.0098
670.961	10.6097
674.335	11.0953
677.71	11.3946
681.085	10.944
684.46	9.5813
687.835	8.74611
691.21	7.63591
694.584	8.11209
697.959	9.04436
701.334	9.6175
704.709	11.6871
708.084	13.1707
711.458	14.4055
714.833	15.6606
718.208	16.0064
721.583	16.5168
724.958	17.8206
728.332	16.7472
731.707	14.6799
735.082	10.1427
738.457	6.63691
741.832	5.02438
745.207	3.9641
748.581	1.46683
751.956	0.114357
755.331	0.9505
758.706	3.06683
762.081	3.95783
765.456	3.65295
768.83	3.15839
772.205	1.73771
775.58	0.804718
778.955	3.51282
782.33	6.7515
785.704	13.7873
789.079	25.0337
792.454	46.27
795.829	76.8074
799.204	121.894
802.578	193.095
805.953	295.489
809.328	428.333
812.703	592.016
816.078	688.65
819.453	584.475
822.827	398.828
826.202	296.175
829.577	286.879
832.952	336.364
836.327	430.128
839.702	543.442
843.076	596.581
846.451	497.23
849.826	363.687
853.201	299.291
856.576	297.629
859.95	361.931
863.325	519.633
866.7	754.618
870.075	1099.86
873.45	1500.76
876.824	1447.65
880.199	847.01
883.574	417.699
886.949	215.356
890.324	119.071
893.698	67.8349
897.073	37.8998
900.448	21.7412
903.823	10.7525
907.198	3.8372
910.573	0.974571
913.947	1.03313
917.322	2.44872
920.697	3.55354
924.072	4.14954
927.447	1.23819
930.822	0.2491
934.196	0.740036
937.571	0.634979
940.946	1.36872
944.321	0.321236
947.696	0.380501
951.07	2.44896
954.445	5.35576
957.82	8.02497
961.195	11.8556
964.57	15.7202
967.944	20.7175
971.319	25.3946
974.694	29.5055
978.069	32.6284
981.444	39.1367
984.819	49.9712
988.193	71.8196
991.568	102.138
994.943	136.325
998.318	117.98
1001.69	61.8297
1005.07	31.5905
1008.44	20.8566
1011.82	17.5159
1015.19	19.553
1018.57	16.6288
1021.94	11.2452
1025.32	5.55765
1028.69	3.75189
1032.07	3.7391
1035.44	1.80529
1038.82	1.08795
1042.19	1.31892
1045.57	0.72303
1048.94	0.390259
1052.32	0.612057
1055.69	0.292717
1059.07	0.417744
1062.44	1.60956
1065.81	2.04915
1069.19	2.47101
1072.56	3.05626
1075.94	5.08536
1079.31	6.24022
1082.69	7.48084
1086.06	9.12316
1089.44	9.7835
1092.81	10.7618
1096.19	11.285
1099.56	12.0933
1102.94	11.759
1106.31	11.6762
1109.69	9.7365
1113.06	9.32547
1116.44	6.94078
1119.81	5.51528
1123.19	4.50055
1126.56	2.30179
1129.94	1.72631
1133.31	0.507618
1136.68	0.806004
1140.06	0.192837
1143.43	0.488495
1146.81	0.104713
1150.18	0.000259
1153.56	0.038712
1156.93	0.731724
1160.31	1.80517
1163.68	2.10434
1167.06	2.88123
1170.43	4.4113
1173.81	5.86869
1177.18	5.61942
1180.56	6.63779
1183.93	6.22525
1187.31	6.3912
1190.68	7.3966
1194.06	7.99885
1197.43	6.43543
1200.81	7.55001
1204.18	6.44714
1207.56	7.61749
1210.93	6.68784
1214.31	5.80894
1217.68	4.48923
1221.06	4.03716
1224.43	3.23893
1227.81	2.09644
1231.18	2.24875
1234.56	1.54602
1237.93	0.536816
1241.31	0.772053
1244.68	0.625351
1248.05	0.008621
1251.43	0.076069
1254.8	0.130276
1258.18	0.181393
1261.55	1.29361
1264.93	0.791058
1268.3	1.28991
1271.68	1.37682
1275.05	1.34447
1278.43	1.90447
1281.8	1.84813
1285.18	1.04562
1288.55	1.12576
1291.93	1.4759
1295.3	0.607094
1298.68	0.790977
1302.05	0.570637
