Measurement: Raman, 785 nm, unoriented, Raman Data Processed
Mineral: Andradite
Rruff sample: R040001
Ideal chemistry: Ca_3_Fe^3+^_2_(SiO_4_)_3_
Locality: Stanley Butte, Graham County, Arizona, USA
Source: University of Arizona Mineral Museum
Description: Brownish-orange dodecahedra
Measured chemistry: Ca_3.00_(Fe_1.96_Al_0.04_)_Î£=2_(SiO_4_)_3_ ; trace amounts of Mn
Raman shift (cm-1)	intensity
108.029	0
110.922	1.40179
113.814	111.7
116.707	265.025
119.6	98.3146
122.492	5.52063
125.385	393.304
128.278	1026.81
131.171	2285.24
134.063	1862.51
136.956	691.773
139.849	440.146
142.741	677.248
145.634	1451.33
148.527	2329.31
151.419	1540.63
154.312	915.464
157.205	827.986
160.097	1118.18
162.99	1737.3
165.883	2621.44
168.776	4446.08
171.668	6648.65
174.561	4311.11
177.454	1608
180.346	812.944
183.239	576.474
186.132	445.317
189.024	339.265
191.917	260.918
194.81	244.584
197.703	126.446
200.595	81.054
203.488	32.2886
206.381	34.6144
209.273	21.1616
212.166	8.06543
215.059	131.194
217.952	347.688
220.844	802.518
223.737	1503.6
226.63	2840.72
229.522	4662.48
232.415	7114.31
235.308	8642.28
238.2	5239.35
241.093	2261.92
243.986	985.103
246.879	471.384
249.771	231.789
252.664	171.983
255.557	426.75
258.449	901.406
261.342	1649.35
264.235	2143.52
267.127	1078.47
270.02	227.93
272.913	54.5195
275.805	185.07
278.698	164.319
281.591	128.099
284.484	34.5891
287.376	127.686
290.269	422.493
293.162	791.566
296.054	1065.94
298.947	1169.51
301.84	1865.64
304.733	3677.72
307.625	6540.62
310.518	9800.96
313.411	8640.71
316.303	4140.28
319.196	2951.77
322.089	3514.46
324.981	4265.59
327.874	3095.79
330.767	2462.48
333.659	2600.54
336.552	3344.75
339.445	5061.04
342.338	8466.86
345.23	13980.1
348.123	21078.9
351.016	26401.8
353.908	22299.5
356.801	18798.1
359.694	22722.4
362.587	33505.6
365.479	48747.6
368.372	59804.4
371.265	51446
374.157	31181.9
377.05	18068.2
379.943	12249.1
382.835	8961.18
385.728	5282.9
388.621	3178.66
391.514	2161.7
394.406	1520.86
397.299	1137.26
400.192	823.706
403.084	625.434
405.977	429.525
408.87	304.467
411.762	176.018
414.655	87.9763
417.548	5.1532
420.44	77.8508
423.333	108.662
426.226	156.313
429.119	145.872
432.011	120.784
434.904	48.1237
437.797	81.7554
440.689	377.898
443.582	896.663
446.475	1550.33
449.368	2190.3
452.26	1983.44
455.153	944.497
458.046	341.651
460.938	141.749
463.831	86.4737
466.724	142.947
469.616	161.945
472.509	159.218
475.402	316.476
478.294	543.51
481.187	993.5
484.08	1882.97
486.973	3262.17
489.865	4918.38
492.758	5539.18
495.651	4057.01
498.543	2852.97
501.436	2809.53
504.329	4314.09
507.221	8178.96
510.114	14494.9
513.007	22439
515.899	23127.8
518.792	13623.8
521.685	6901.85
524.578	3862.22
527.47	2256.37
530.363	1489.38
533.256	1024.25
536.148	849.065
539.041	820.322
541.934	962.916
544.827	1305.36
547.719	1822.64
550.612	2518.36
553.505	2436.7
556.397	1460.62
559.29	693.308
562.183	330.884
565.075	131.754
567.968	89.5684
570.861	238.69
573.754	436.867
576.646	493.026
579.539	269.196
582.432	101.95
585.324	19.7977
588.217	11.6639
591.11	11.9161
594.002	10.7364
596.895	0.524292
599.788	12.0131
602.681	7.8468
605.573	0.798218
608.466	5.79797
611.359	28.9696
614.251	17.0546
617.144	34.3323
620.037	41.5133
622.929	14.2671
625.822	11.7165
628.715	48.8765
631.607	70.8697
634.5	97.4189
637.393	75.2515
640.286	97.6413
643.178	141.898
646.071	121.749
648.964	125.32
651.856	123.307
654.749	151.939
657.642	188.619
660.534	173.836
663.427	167.562
666.32	197.099
669.213	222.95
672.105	205.383
674.998	200.399
677.891	179.728
680.783	140.68
683.676	147.256
686.569	163.605
689.462	145.114
692.354	154.722
695.247	161.722
698.14	187.555
701.032	213.647
703.925	189.127
706.818	241.873
709.71	251.668
712.603	263.403
715.496	227.882
718.389	250.219
721.281	260.069
724.174	213.161
727.067	209.399
729.959	165.292
732.852	174
735.745	131.922
738.638	117.084
741.53	108.941
744.423	85.1486
747.316	23.7059
750.208	27.5373
753.101	6.31201
755.994	16.9705
758.886	29.6668
761.779	48.4941
764.672	33.72
767.564	85.6012
770.457	72.6992
773.35	1.9295
776.243	8.22009
779.135	49.2593
782.028	64.3311
784.921	187.781
787.813	341.103
790.706	553.392
793.599	859.356
796.491	1336.34
799.384	2039.3
802.277	3211.75
805.17	5034.19
808.062	8235.48
810.955	12587.7
813.848	16250.3
816.74	15007.2
819.633	10232.6
822.526	6837.54
825.418	5318.71
828.311	5136.73
831.204	6043.86
834.096	7940.82
836.989	10652.6
839.882	12660
842.775	12476.1
845.667	9835.94
848.56	7300.88
851.453	5845.11
854.345	5374.79
857.238	5662.82
860.131	6770.91
863.024	9073.23
865.916	13076.9
868.809	19477.5
871.702	26450.1
874.594	28685
877.487	20251.4
880.38	11080.4
883.272	5937.1
886.165	3405.03
889.058	2055.93
891.951	1280.86
894.843	832.468
897.736	513.74
900.629	336.572
903.521	219.032
906.414	75.1967
909.307	31.6372
912.199	62.4225
915.092	47.7238
917.985	48.0913
920.878	33.898
923.77	15.2164
926.663	37.4743
929.556	3.09747
932.448	12.6516
935.341	15.7593
938.234	7.24615
941.126	10.5223
944.019	35.67
946.912	87.6213
949.804	94.1406
952.697	121.61
955.59	143.688
958.483	158.925
961.375	179.833
964.268	222.231
967.161	228.439
970.053	297.264
972.946	319.255
975.839	334.044
978.731	379.842
981.624	454.009
984.517	603.237
987.41	956.97
990.302	1541.95
993.195	2087.11
996.088	1883.74
998.98	940.163
1001.87	459.152
1004.77	258.291
1007.66	169.657
1010.55	143.946
1013.44	111.505
1016.34	83.4283
1019.23	80.3975
1022.12	84.7494
1025.02	34.3831
1027.91	43.4122
1030.8	48.771
1033.69	24.1784
1036.59	22.5798
1039.48	4.30926
1042.37	9.8703
1045.26	2.7428
1048.16	5.61041
1051.05	17.2149
1053.94	10.134
1056.83	15.4844
1059.73	21.3964
1062.62	36.5982
1065.51	54.1647
1068.4	62.5135
1071.3	85.7383
1074.19	100.437
1077.08	124.94
1079.98	157.829
1082.87	159.102
1085.76	185.88
1088.65	189.42
1091.55	209.075
1094.44	225.479
1097.33	207.594
1100.22	229.884
1103.12	218.996
1106.01	211.356
1108.9	185.089
1111.8	160.743
1114.69	133.733
1117.58	116.814
1120.47	92.5209
1123.37	68.2116
1126.26	59.4553
1129.15	21.9289
1132.05	4.48981
1134.94	12.15
1137.83	10.7415
1140.72	3.26147
1143.62	24.1713
1146.51	2.34833
1149.4	24.6095
1152.29	18.0959
1155.19	40.4921
1158.08	34.7268
1160.97	54.9868
1163.86	74.644
1166.76	73.1856
1169.65	100.154
1172.54	99.5283
1175.43	122.414
1178.33	121.633
1181.22	134.231
1184.11	132.863
1187.01	120.311
1189.9	130.489
1192.79	124.451
1195.68	113.503
1198.58	127.558
1201.47	101.506
1204.36	81.6332
1207.26	57.7823
1210.15	72.0324
1213.04	87.5748
1215.93	61.6683
1218.83	42.3804
1221.72	41.9935
1224.61	21.6248
1227.5	31.2883
1230.4	31.9763
1233.29	15.0972
1236.18	0.145477
1239.07	4.52203
1241.97	23.7185
1244.86	22.945
1247.75	34.2554
1250.64	29.047
1253.54	13.3557
1256.43	0.012695
