Measurement: Raman, 780 nm, unoriented, Raman Data Processed
Mineral: Andradite
Rruff sample: R050256
Ideal chemistry: Ca_3_Fe^3+^_2_(SiO_4_)_3_
Locality: Franklin, Sussex County, New Jersey, USA
Source: Marcus Origlieri
Description: Reddish brown fragments
Measured chemistry: (Ca_2.27_Mn_0.73_)_Σ=3_(Fe^3+^_1.35_Al_0.65_)_Σ=2_(Si_1.00_O_4_)_3_
Raman shift (cm-1)	intensity
137.51	0
140.402	0.214508
143.295	0.62854
146.188	0.364517
149.081	0.301872
151.973	1.13016
154.866	1.95971
157.759	1.78899
160.651	4.05222
163.544	6.97461
166.437	8.84183
169.329	8.85398
172.222	7.46819
175.115	7.53778
178.007	7.62027
180.9	5.60541
183.793	3.12084
186.686	2.02918
189.578	0.32962
192.471	0.317474
195.364	0.172409
198.256	0.67775
201.149	1.69875
204.042	2.57251
206.935	5.48837
209.827	8.1913
212.72	11.0954
215.613	15.422
218.505	19.1008
221.398	22.9416
224.291	26.1131
227.183	30.1865
230.076	33.9814
232.969	34.8882
235.862	31.2901
238.754	24.6331
241.647	15.841
244.54	11.2622
247.432	7.99406
250.325	5.31699
253.218	3.34378
256.11	2.25342
259.003	1.23706
261.896	1.05582
264.788	0.25132
267.681	0.09903
270.574	0.973732
273.467	0.118156
276.359	1.45939
279.252	1.22416
282.145	0.128166
285.037	0.260803
287.93	2.29382
290.823	4.56123
293.716	8.79136
296.608	12.3401
299.501	18.0297
302.394	21.2087
305.286	25.5104
308.179	29.5712
311.072	34.313
313.964	37.9246
316.857	36.5108
319.75	35.8536
322.642	36.4128
325.535	40.5676
328.428	47.1339
331.321	56.2233
334.213	65.8279
337.106	76.4184
339.999	92.1286
342.891	112.603
345.784	140.13
348.677	174.067
351.57	213.714
354.462	252.058
357.355	286.084
360.248	320.926
363.14	352.463
366.033	374.488
368.926	357.362
371.818	290.886
374.711	201.053
377.604	134.225
380.497	89.3193
383.389	62.1818
386.282	45.0793
389.175	31.5815
392.067	21.8026
394.96	13.7317
397.853	7.99206
400.745	4.29363
403.638	1.75983
406.531	0.75489
409.423	0.132553
412.316	1.12381
415.209	1.44786
418.102	0.956863
420.994	0.913414
423.887	0.045059
426.78	0.531887
429.672	0.925682
432.565	2.07107
435.458	1.14789
438.351	1.98247
441.243	2.83616
444.136	3.44572
447.029	2.89742
449.921	2.95729
452.814	2.54373
455.707	2.53419
458.599	2.86097
461.492	1.31848
464.385	0.812893
467.277	0.242558
470.17	1.22626
473.063	3.00117
475.956	5.49486
478.848	8.51696
481.741	11.6694
484.634	14.5037
487.526	16.5763
490.419	18.2417
493.312	19.6998
496.204	19.485
499.097	19.8129
501.99	20.2398
504.882	22.5407
507.775	29.6058
510.668	39.2753
513.561	52.9315
516.453	68.6137
519.346	84.2667
522.239	102.544
525.131	114.212
528.024	104.936
530.917	73.3446
533.81	40.4696
536.702	21.3747
539.595	13.8048
542.488	9.70108
545.38	7.53656
548.273	7.78649
551.166	7.0453
554.058	6.88876
556.951	6.79489
559.844	4.94009
562.737	3.18889
565.629	0.896412
568.522	0.249859
571.415	0.716228
574.307	0.609619
577.2	0.19796
580.093	0.880424
582.986	1.84645
585.878	3.01965
588.771	2.39443
591.663	3.35633
594.556	4.40082
597.449	5.87431
600.342	5.83979
603.234	6.06388
606.127	6.85358
609.02	6.681
611.912	6.3235
614.805	5.64809
617.698	4.76138
620.591	3.52007
623.483	1.96987
626.376	1.22302
629.269	0.557255
632.161	0.415855
635.054	0.159184
637.947	0.633366
640.839	0.367527
643.732	0.077545
646.625	0.111462
649.518	0.264359
652.41	0.725765
655.303	0.920963
658.196	1.1643
661.088	1.1568
663.981	1.11137
666.874	1.50263
669.766	1.74246
672.659	2.33718
675.552	2.07401
678.444	2.84986
681.337	2.34323
684.23	2.16548
687.123	2.58095
690.015	2.58406
692.908	3.1666
695.801	3.30956
698.693	2.57169
701.586	2.61813
704.479	2.31036
707.371	2.02187
710.264	2.99273
713.157	2.47648
716.05	2.58706
718.942	1.98822
721.835	1.9989
724.728	1.73747
727.62	1.78944
730.513	1.14656
733.406	1.72477
736.298	1.53683
739.191	0.958004
742.084	0.859798
744.977	0.755211
747.869	0.182453
750.762	0.032707
753.655	0.248032
756.547	0.156319
759.44	0.581081
762.333	0.201988
765.226	0.378422
768.118	1.19326
771.011	0.739651
773.904	0.39143
776.796	0.446743
779.689	0.457558
782.582	0.250114
785.474	1.27834
788.367	3.04139
791.26	5.43348
794.153	9.2948
797.045	14.2871
799.938	20.7051
802.831	28.638
805.723	37.3958
808.616	46.641
811.509	55.8469
814.401	65.2871
817.294	73.6157
820.187	75.5751
823.08	73.6199
825.972	66.1562
828.865	57.9826
831.758	47.3633
834.65	40.5319
837.543	37.1893
840.436	37.5225
843.328	38.0465
846.221	40.2991
849.114	42.5006
852.006	42.5139
854.899	40.7297
857.792	41.1752
860.685	44.0913
863.577	52.3424
866.47	66.7025
869.363	85.3214
872.255	108.736
875.148	134.283
878.041	158.408
880.933	172.298
883.826	162.531
886.719	124.621
889.612	82.623
892.504	52.4691
895.397	34.5202
898.29	22.8403
901.182	14.5124
904.075	9.06532
906.968	5.52352
909.861	3.48472
912.753	1.63136
915.646	0.537052
918.539	0.316166
921.431	0.789547
924.324	0.960182
927.217	1.25205
930.109	0.12262
933.002	0.574772
935.895	0.836906
938.788	1.24604
941.68	0.798714
944.573	1.0764
947.466	0.227524
950.358	0.199955
953.251	0.511984
956.144	0.34321
959.036	1.40969
961.929	2.0371
964.822	3.56016
967.715	4.43623
970.607	5.17612
973.5	6.42557
976.393	7.47018
979.285	7.74963
982.178	8.06377
985.071	8.46231
987.963	7.78453
990.856	9.47555
993.749	10.2864
996.641	10.0304
999.534	10.0388
1002.43	10.3862
1005.32	7.27659
1008.21	5.28055
1011.11	2.94308
1014	1.70332
1016.89	1.34511
1019.78	0.988468
1022.68	0.954308
1025.57	0.574331
1028.46	0.371523
1031.35	0.125408
1034.25	0.242466
1037.14	0.349459
1040.03	0.32345
1042.92	0.148005
1045.82	0.160343
1048.71	0.502045
1051.6	0.383516
1054.49	0.656179
1057.39	0.159771
1060.28	0.494602
1063.17	0.2563
1066.07	0.188576
1068.96	0.296562
1071.85	0.7997
1074.74	0.303446
1077.64	0.555489
1080.53	0.951113
1083.42	0.717043
1086.32	1.38581
1089.21	0.770336
1092.1	0.66317
1094.99	0.918022
1097.89	1.30852
1100.78	1.08916
1103.67	0.94491
1106.56	1.69136
1109.46	0.853079
1112.35	1.41509
1115.24	0.854774
1118.13	1.07949
1121.03	0.942694
1123.92	0.9494
1126.81	0.754747
1129.71	0.536358
1132.6	0.486586
1135.49	0.683517
1138.38	0.812773
1141.28	0.243866
1144.17	0.671492
1147.06	0.187223
1149.95	0.349091
1152.85	0.011835
1155.74	0.289751
1158.63	0.238306
1161.53	0.336847
1164.42	0.426413
1167.31	0.229235
1170.2	0.364798
1173.1	0.857374
1175.99	0.945089
1178.88	0.481504
1181.77	0.937084
1184.67	0.625994
1187.56	0.990576
1190.45	0.697279
1193.35	1.32785
1196.24	0.88693
1199.13	0.83996
1202.02	0.984409
1204.92	1.23727
1207.81	1.00069
1210.7	1.32715
1213.59	1.24125
1216.49	1.66411
1219.38	0.772892
1222.27	0.659897
1225.16	0.838852
1228.06	1.09458
1230.95	1.19073
1233.84	0.424837
1236.74	0.457689
1239.63	0.680868
1242.52	0.458454
1245.41	0.376028
1248.31	0.241642
1251.2	0.681591
1254.09	0.187008
1256.98	0.044975
1259.88	0.194433
1262.77	0.64378
1265.66	0.324842
1268.56	0.167738
1271.45	0.471819
1274.34	0.430439
1277.23	0.442602
1280.13	0.648146
1283.02	0.014435
1285.91	0.000385
