Measurement: Raman, 780 nm, unoriented, Raman Data Processed
Mineral: Andradite
Rruff sample: R100138
Ideal chemistry: Ca_3_Fe^3+^_2_(SiO_4_)_3_
Locality: Madagascar
Source: William W. Pinch
Description: Colorless cut gemstone
Raman shift (cm-1)	intensity
90.6055	0
93.9803	5.54948
97.3551	5.30487
100.73	0.446499
104.105	3.79748
107.48	0.909203
110.854	0.262501
114.229	0.576572
117.604	1.83974
120.979	2.56827
124.354	1.44096
127.728	1.65678
131.103	1.51273
134.478	0.683323
137.853	0.825663
141.228	1.07933
144.602	0.235815
147.977	0.442165
151.352	3.01809
154.727	5.11294
158.102	7.05599
161.477	10.8678
164.851	21.582
168.226	57.9936
171.601	168.894
174.976	161.058
178.351	25.689
181.726	10.1331
185.1	4.68122
188.475	3.22296
191.85	2.04532
195.225	0.754496
198.6	0.578135
201.974	0.424898
205.349	0.285629
208.724	0.074961
212.099	0.633776
215.474	1.61564
218.848	4.99672
222.223	10.7991
225.598	24.1042
228.973	63.5669
232.348	136.737
235.722	350.451
239.097	99.9582
242.472	19.3058
245.847	7.95066
249.222	2.83826
252.597	1.72185
255.971	3.71893
259.346	13.3737
262.721	51.2653
266.096	57.1178
269.471	4.13313
272.846	0.696199
276.22	2.29703
279.595	2.09731
282.97	1.9906
286.345	0.351545
289.719	3.8058
293.094	11.57
296.469	20.7624
299.844	16.4534
303.219	27.3604
306.594	79.8348
309.968	215.898
313.343	223.474
316.718	59.727
320.093	50.1959
323.468	104.281
326.842	71.9993
330.217	25.3879
333.592	23.9157
336.967	32.5987
340.342	55.1377
343.717	112.788
347.091	267.232
350.466	579.073
353.841	507.899
357.216	278.079
360.591	331.011
363.965	604.591
367.34	1290.69
370.715	1795.19
374.09	966.169
377.465	429.191
380.839	255.432
384.214	159.553
387.589	72.8472
390.964	40.7982
394.339	27.394
397.714	18.297
401.088	11.952
404.463	8.08266
407.838	5.40622
411.213	2.82166
414.588	1.14145
417.962	0.225351
421.337	1.3731
424.712	2.02468
428.087	0.882528
431.462	1.24608
434.837	0.746786
438.211	0.743246
441.586	5.17246
444.961	14.552
448.336	36.0859
451.711	62.0483
455.085	32.5709
458.46	7.88389
461.835	1.43955
465.21	0.507387
468.585	0.483776
471.959	0.815994
475.334	1.55952
478.709	6.60828
482.084	14.4763
485.459	30.7172
488.834	72.6634
492.208	127.659
495.583	96.0542
498.958	50.6144
502.333	44.5474
505.708	70.1609
509.082	154.443
512.457	380.508
515.832	586.083
519.207	310.942
522.582	122.21
525.957	61.8732
529.331	36.1112
532.706	26.1411
536.081	20.3203
539.456	18.1283
542.831	19.289
546.205	26.5531
549.58	43.5753
552.955	58.8907
556.33	33.1579
559.705	13.7928
563.08	6.29375
566.454	4.87631
569.829	6.29751
573.204	10.2734
576.579	14.2546
579.954	6.39844
583.328	1.59667
586.703	1.31598
590.078	0.697344
593.453	1.37206
596.828	0.255026
600.202	0.071009
603.577	0.123945
606.952	0.078295
610.327	0.000305
613.702	0.726151
617.077	0.76146
620.451	0.61513
623.826	0.22942
627.201	0.126945
630.576	0.534062
633.951	1.02459
637.325	1.41957
640.7	1.44329
644.075	2.18309
647.45	2.45544
650.825	1.87085
654.199	2.14546
657.574	2.20713
660.949	1.92373
664.324	2.7639
667.699	2.88849
671.073	3.02199
674.448	2.82139
677.823	3.24043
681.198	2.06227
684.573	2.10252
687.948	2.37879
691.322	2.12426
694.697	2.14
698.072	2.37131
701.447	2.53587
704.822	3.75672
708.197	3.91056
711.571	3.69183
714.946	3.47152
718.321	3.3864
721.696	3.40623
725.071	2.72452
728.445	1.88413
731.82	2.09462
735.195	2.01162
738.57	1.55262
741.945	1.23135
745.319	1.01206
748.694	0.874419
752.069	0.305952
755.444	0.901313
758.819	1.00629
762.193	1.5439
765.568	1.07304
768.943	0.828931
772.318	0.470938
775.693	0.457155
779.068	1.04195
782.442	0.823011
785.817	1.66682
789.192	5.33247
792.567	10.85
795.942	16.8923
799.317	28.5549
802.691	45.2488
806.066	80.2487
809.441	156.958
812.816	280.959
816.191	325.264
819.565	197.499
822.94	106.27
826.315	76.956
829.69	80.5812
833.065	110.541
836.439	172.521
839.814	260.81
843.189	254.868
846.564	160.284
849.939	100.972
853.313	77.5662
856.688	76.1138
860.063	96.2041
863.438	145.951
866.813	264.901
870.188	520.961
873.562	755.84
876.937	428.25
880.312	162.859
883.687	71.2619
887.062	35.6263
890.437	20.5816
893.811	13.0335
897.186	6.68417
900.561	5.13152
903.936	3.01794
907.311	2.19134
910.685	1.62992
914.06	0.795694
917.435	0.847282
920.81	0.868316
924.185	0.084056
927.559	0.590012
930.934	0.683615
934.309	1.29345
937.684	0.6959
941.059	0.143003
944.433	0.947579
947.808	1.07489
951.183	2.05066
954.558	2.30711
957.933	2.69375
961.308	3.33318
964.682	3.77633
968.057	4.49147
971.432	5.86045
974.807	6.57765
978.182	7.84791
981.557	8.21864
984.931	10.5613
988.306	17.4175
991.681	32.51
995.056	47.3916
998.431	25.4707
1001.8	11.7302
1005.18	7.73717
1008.55	4.86737
1011.93	3.66521
1015.3	2.72967
1018.68	2.49523
1022.05	1.89676
1025.43	1.21577
1028.8	1.86228
1032.18	2.01322
1035.55	1.0985
1038.93	0.283087
1042.3	0.294056
1045.68	0.284842
1049.05	0.276805
1052.43	0.150175
1055.8	0.078601
1059.18	0.765042
1062.55	0.971265
1065.93	1.53182
1069.3	1.94295
1072.68	2.31776
1076.05	2.72566
1079.43	3.45682
1082.8	3.43744
1086.18	3.39944
1089.55	4.62208
1092.92	5.09154
1096.3	4.79986
1099.67	5.75225
1103.05	5.29036
1106.42	5.55928
1109.8	4.07405
1113.17	4.31664
1116.55	3.61248
1119.92	2.21256
1123.3	1.09161
1126.67	1.20261
1130.05	0.670616
1133.42	0.042594
1136.8	0.359138
1140.17	0.24697
1143.55	0.167375
1146.92	0.340508
1150.3	0.288222
1153.67	0.857142
1157.05	0.958904
1160.42	1.06178
1163.8	1.56401
1167.17	2.3433
1170.55	2.4096
1173.92	2.40197
1177.3	2.78437
1180.67	3.40706
1184.05	3.27806
1187.42	3.65085
1190.8	3.1757
1194.17	3.08048
1197.55	3.11302
1200.92	2.89622
1204.29	2.84268
1207.67	2.28361
1211.04	2.30157
1214.42	1.06039
1217.79	1.29299
1221.17	1.0207
1224.54	0.645159
1227.92	1.43254
1231.29	0.20509
1234.67	0.351406
1238.04	0.751255
1241.42	0.161978
1244.79	0.32478
1248.17	0.463767
1251.54	0.180032
1254.92	0.312529
1258.29	0.52212
1261.67	0.513549
1265.04	0.25938
1268.42	0.768504
1271.79	0.353698
1275.16	0.451406
1278.54	0.003159
1281.91	0.492435
