Measurement: Raman, 532 nm, unoriented, Raman Data Processed
Mineral: Andradite
Rruff sample: R100138
Ideal chemistry: Ca_3_Fe^3+^_2_(SiO_4_)_3_
Locality: Madagascar
Source: William W. Pinch
Description: Colorless cut gemstone
Raman shift (cm-1)	intensity
91.0352	0
94.41	0.024061
97.7848	0.707388
101.16	1.53135
104.534	2.12665
107.909	1.66025
111.284	1.7406
114.659	2.97442
118.034	3.07039
121.409	1.50722
124.783	1.45955
128.158	0.979578
131.533	0.232982
134.908	0.639997
138.283	0.626649
141.657	0.276977
145.032	0.26066
148.407	1.0784
151.782	3.53695
155.157	5.48205
158.532	8.09293
161.906	10.9957
165.281	17.2128
168.656	43.6521
172.031	147.934
175.406	135.713
178.78	22.2369
182.155	9.45602
185.53	6.41849
188.905	5.75955
192.28	3.33629
195.655	2.54036
199.029	1.58216
202.404	1.1519
205.779	0.599552
209.154	0.936296
212.529	0.51369
215.904	1.36174
219.278	2.19574
222.653	6.24612
226.028	16.0373
229.403	38.8068
232.778	78.7441
236.152	186.164
239.527	51.1381
242.902	10.0789
246.277	2.85589
249.652	0.164478
253.026	0.478773
256.401	0.194557
259.776	4.92481
263.151	26.1702
266.526	24.1087
269.901	2.35828
273.276	0.669426
276.65	1.99444
280.025	1.51888
283.4	0.772301
286.775	0.66608
290.15	3.84315
293.524	11.5646
296.899	20.0216
300.274	11.6546
303.649	12.7385
307.024	38.2422
310.399	120.009
313.773	109.082
317.148	27.9698
320.523	25.1245
323.898	53.7152
327.273	33.7717
330.647	13.7987
334.022	15.1252
337.397	23.8909
340.772	43.7716
344.147	93.5438
347.522	236.648
350.896	581.968
354.271	465.357
357.646	208.949
361.021	200.452
364.396	347.395
367.77	796.937
371.145	1072.38
374.52	556.045
377.895	249.576
381.27	152.441
384.644	93.0567
388.019	42.9663
391.394	25.7957
394.769	16.3037
398.144	12.1235
401.519	7.61136
404.894	5.252
408.268	3.76265
411.643	2.41664
415.018	1.59501
418.393	0.057104
421.767	0.361517
425.142	1.06313
428.517	1.023
431.892	1.45026
435.267	0.686634
438.642	0.095236
442.017	2.27524
445.391	7.2476
448.766	18.5139
452.141	31.4662
455.516	15.1258
458.891	3.22106
462.265	0.642818
465.64	0.469427
469.015	0.194109
472.39	0.590412
475.765	2.00822
479.139	4.9184
482.514	10.9335
485.889	22.6696
489.264	56.7859
492.639	101.748
496.014	70.4832
499.388	35.5526
502.763	31.6069
506.138	48.0883
509.513	106.137
512.888	280.818
516.263	417.729
519.637	206.706
523.012	83.836
526.387	42.8503
529.762	25.0058
533.137	16.6566
536.511	13.1646
539.886	11.5612
543.261	11.1697
546.636	13.61
550.011	21.7027
553.386	26.8208
556.76	14.7536
560.135	6.16061
563.51	4.33272
566.885	3.78536
570.26	9.27965
573.635	20.1644
577.009	23.917
580.384	9.4904
583.759	3.32432
587.134	2.24326
590.509	1.42472
593.883	0.527557
597.258	0.362942
600.633	0.014915
604.008	0.432407
607.383	0.137056
610.758	0.797391
614.132	0.482493
617.507	0.193196
620.882	0.0564
624.257	0.373819
627.632	0.21874
631.006	0.000527
634.381	0.163786
637.756	0.915088
641.131	2.1164
644.506	1.35466
647.881	0.884212
651.255	1.02778
654.63	1.89
658.005	1.37238
661.38	1.45026
664.755	1.96219
668.13	1.61905
671.504	1.83013
674.879	2.04397
678.254	1.53088
681.629	1.53725
685.004	1.55196
688.378	1.51676
691.753	1.74126
695.128	1.57808
698.503	1.74979
701.878	2.13336
705.253	2.51114
708.627	2.82759
712.002	2.5747
715.377	2.61303
718.752	2.71986
722.127	2.13617
725.501	2.39726
728.876	2.21004
732.251	1.72516
735.626	1.59409
739.001	1.57467
742.375	1.00903
745.75	1.16804
749.125	0.97889
752.5	0.402479
755.875	0.562554
759.25	0.286316
762.625	0.365917
765.999	0.781006
769.374	0.901205
772.749	0.400659
776.124	0.118631
779.499	0.123796
782.873	0.31151
786.248	0.468515
789.623	1.88917
792.998	4.44983
796.373	8.67804
799.747	13.4118
803.122	21.8159
806.497	37.4924
809.872	74.7798
813.247	139.24
816.621	154.657
819.996	91.7139
823.371	53.6591
826.746	42.2974
830.121	45.6263
833.496	61.882
836.87	100.838
840.245	156.435
843.62	148.962
846.995	93.938
850.37	60.9128
853.745	51.5003
857.119	52.1949
860.494	69.6728
863.869	109.076
867.244	202.3
870.619	438.967
873.994	663.017
877.368	358.649
880.743	139.608
884.118	62.9481
887.493	32.7404
890.868	19.3087
894.242	12.4907
897.617	7.42548
900.992	5.38035
904.367	3.32378
907.742	3.07757
911.116	1.94998
914.491	0.961084
917.866	0.156036
921.241	0.479217
924.616	0.123343
927.991	0.488552
931.365	0.392331
934.74	0.83973
938.115	0.822807
941.49	0.203901
944.865	0.391092
948.24	1.40019
951.614	1.0049
954.989	1.34252
958.364	1.65772
961.739	1.77504
965.114	2.42753
968.489	2.6175
971.863	3.77356
975.238	3.66987
978.613	5.4757
981.988	6.63217
985.362	7.79563
988.737	13.1396
992.112	26.376
995.487	37.4192
998.862	19.9745
1002.24	8.75847
1005.61	5.50521
1008.99	2.49949
1012.36	1.92884
1015.74	2.54856
1019.11	2.33902
1022.49	1.73298
1025.86	0.962412
1029.23	1.20273
1032.61	0.58027
1035.98	0.244559
1039.36	0.601329
1042.73	0.696437
1046.11	0.352394
1049.48	0.107572
1052.86	0.19315
1056.23	0.319296
1059.61	0.562414
1062.98	0.436304
1066.36	0.62074
1069.73	1.4258
1073.11	2.19299
1076.48	2.4902
1079.86	2.39392
1083.23	3.07833
1086.61	3.77033
1089.98	3.53453
1093.36	4.05502
1096.73	3.86761
1100.11	4.06456
1103.48	4.33289
1106.86	4.86533
1110.23	3.65652
1113.61	3.3333
1116.98	2.2061
1120.36	2.12808
1123.73	1.17351
1127.11	1.03245
1130.48	0.433578
1133.86	0.211108
1137.23	0.177934
1140.6	0.173959
1143.98	0.102949
1147.35	0.31195
1150.73	0.771806
1154.1	0.481768
1157.48	1.03747
1160.85	1.37017
1164.23	1.13845
1167.6	1.57083
1170.98	1.93888
1174.35	2.32562
1177.73	2.4245
1181.1	2.81879
1184.48	2.54471
1187.85	2.53204
1191.23	1.65064
1194.6	2.41901
1197.98	2.29945
1201.35	2.03901
1204.73	1.37343
1208.1	1.87013
1211.48	1.66556
1214.85	1.4307
1218.22	1.55388
1221.6	0.755648
1224.97	0.962289
1228.35	0.670097
1231.72	0.897196
1235.1	0.299267
1238.47	0.381354
1241.85	0.0648
1245.22	0.114735
1248.6	0.120902
1251.97	0.235494
1255.35	0.398644
1258.72	0.430492
1262.1	0.096757
1265.47	0.016912
1268.85	0.216315
1272.22	1.00575
1275.6	0.819994
1278.97	0.72188
1282.35	1.03056
1285.72	0.490449
1289.1	0.520851
1292.47	0.653055
1295.85	0.587978
1299.22	0.758562
1302.6	0
