Measurement: Raman, 532 nm, unoriented, Raman Data Processed
Mineral: Andradite
Rruff sample: R050377
Ideal chemistry: Ca_3_Fe^3+^_2_(SiO_4_)_3_
Locality: Zlatoust District, South Urals, Russia
Source: University of Arizona Mineral Museum
Description: Dark red cubes
Measured chemistry: Ca_3.00_(Fe^3+^_1.48_Ti_0.31_Mg_0.14_Zr_0.07_)_Σ=2_(Si_2.73_Al_0.24_Ti_0.03_)_Σ=3_O_12_
Raman shift (cm-1)	intensity
143.94	0
147.315	2.39279
150.69	6.63246
154.065	15.6725
157.439	19.3024
160.814	30.1856
164.189	43.8438
167.564	63.0138
170.939	77.0876
174.313	61.0747
177.688	38.8901
181.063	23.9626
184.438	15.1054
187.813	9.668
191.187	4.2681
194.562	0.913177
197.937	2.98378
201.312	3.98677
204.687	2.78468
208.061	1.16336
211.436	3.96251
214.811	10.766
218.186	16.9841
221.561	22.3662
224.936	29.2385
228.31	34.8653
231.685	38.0221
235.06	31.8716
238.435	18.311
241.81	9.94281
245.185	7.14082
248.559	6.66856
251.934	8.07332
255.309	14.1528
258.684	20.1754
262.059	23.8562
265.433	19.9234
268.808	9.58698
272.183	1.63141
275.558	2.82163
278.933	2.40686
282.308	2.80673
285.682	11.6232
289.057	27.2647
292.432	42.7505
295.807	58.9067
299.182	70.7578
302.556	85.6273
305.931	96.8461
309.306	103.734
312.681	99.862
316.056	95.3633
319.43	94.6063
322.805	104.484
326.18	126.998
329.555	170.445
332.93	224.532
336.305	299.847
339.679	395.826
343.054	505.962
346.429	594.985
349.804	623.646
353.179	615.403
356.553	638.649
359.928	693.12
363.303	719.426
366.678	658.996
370.053	530.237
373.428	395.059
376.802	271.055
380.177	186.987
383.552	129.537
386.927	84.7238
390.302	48.0293
393.676	21.5223
397.051	7.83337
400.426	0.502014
403.801	3.78506
407.176	5.75659
410.55	6.37454
413.925	4.56627
417.3	0.919083
420.675	2.49744
424.05	4.61139
427.425	5.86905
430.799	7.11537
434.174	10.5545
437.549	14.4207
440.924	20.5257
444.299	27.9147
447.673	30.7033
451.048	27.2024
454.423	20.5804
457.798	11.1194
461.173	7.36813
464.548	4.97949
467.922	6.30788
471.297	7.92421
474.672	16.0907
478.047	25.0206
481.422	35.8291
484.796	46.4087
488.171	57.7918
491.546	65.5193
494.921	66.5387
498.296	76.0855
501.671	98.1002
505.045	142.84
508.42	210.549
511.795	301.731
515.17	364.386
518.545	325.461
521.919	221.85
525.294	139.786
528.669	91.8468
532.044	63.6562
535.419	47.6229
538.794	37.3965
542.168	34.5565
545.543	32.8162
548.918	32.0803
552.293	28.0956
555.668	16.7624
559.043	5.24051
562.417	2.67242
565.792	5.41632
569.167	3.12558
572.542	2.99608
575.917	10.2159
579.291	15.7163
582.666	17.7229
586.041	17.4983
589.416	17.8494
592.791	18.5916
596.165	18.6993
599.54	19.6659
602.915	19.7181
606.29	19.8362
609.665	19.8039
613.039	20.2611
616.414	24.2617
619.789	30.9945
623.164	36.7225
626.539	44.0845
629.914	52.9367
633.288	61.2488
636.663	66.3569
640.038	71.5066
643.413	76.9492
646.788	79.8324
650.163	83.6504
653.537	85.7216
656.912	85.3518
660.287	82.0442
663.662	73.2964
667.037	61.9684
670.411	50.1526
673.786	38.7017
677.161	29.6555
680.536	21.6752
683.911	14.6925
687.285	9.59328
690.66	5.46667
694.035	1.96297
697.41	1.23745
700.785	2.63354
704.159	4.33974
707.534	4.24362
710.909	3.76569
714.284	1.74711
717.659	2.57419
721.034	11.3562
724.408	22.0385
727.783	35.3349
731.158	49.4375
734.533	62.0234
737.908	71.6028
741.283	74.1117
744.657	73.0264
748.032	68.5032
751.407	64.4489
754.782	55.6277
758.157	46.6255
761.531	34.0814
764.906	21.5568
768.281	11.3605
771.656	5.37782
775.031	6.99759
778.405	7.90407
781.78	11.5242
785.155	15.5569
788.53	22.7083
791.905	30.2431
795.28	40.4891
798.654	53.5282
802.029	68.9994
805.404	84.2193
808.779	100.578
812.154	106.554
815.529	101.102
818.903	88.0098
822.278	74.1004
825.653	64.3309
829.028	61.6451
832.403	66.7062
835.777	72.8448
839.152	80.309
842.527	85.2674
845.902	92.2925
849.277	101.894
852.652	116.301
856.026	132.466
859.401	146.153
862.776	162.789
866.151	180.589
869.526	188.373
872.9	188.655
876.275	179.225
879.65	152.362
883.025	114.588
886.4	74.4351
889.774	40.8798
893.149	16.4569
896.524	3.52995
899.899	4.61671
903.274	5.77757
906.649	4.96808
910.023	2.38211
913.398	0.557877
916.773	2.96269
920.148	7.71931
923.523	10.8638
926.898	13.3051
930.272	12.8441
933.647	10.1181
937.022	6.13646
940.397	7.0222
943.771	7.12712
947.146	9.72494
950.521	15.5006
953.896	20.8603
957.271	25.3951
960.646	29.2059
964.02	31.6823
967.395	34.0041
970.77	36.6865
974.145	38.4145
977.52	40.1944
980.894	41.3894
984.269	41.2442
987.644	40.5704
991.019	35.6808
994.394	27.7141
997.769	19.1347
1001.14	14.8321
1004.52	18.9672
1007.89	24.5575
1011.27	27.6083
1014.64	23.0538
1018.02	12.488
1021.39	3.28894
1024.77	0.015678
1028.14	0.884453
1031.52	0.583267
1034.89	0.432186
1038.27	0.365658
1041.64	0.952961
1045.02	2.14938
1048.39	2.51499
1051.77	4.0725
1055.14	5.40361
1058.52	6.45447
1061.89	7.97282
1065.27	9.02441
1068.64	10.4599
1072.02	9.96176
1075.39	11.118
1078.76	11.8795
1082.14	12.5795
1085.51	11.7763
1088.89	12.2024
1092.26	10.5895
1095.64	10.5047
1099.01	9.86958
1102.39	9.1423
1105.76	7.95799
1109.14	7.43506
1112.51	7.66893
1115.89	5.6778
1119.26	4.65927
1122.64	4.38626
1126.01	3.97413
1129.39	2.57732
1132.76	2.09617
1136.14	1.58336
1139.51	0.939243
1142.89	0.811951
1146.26	0.306744
1149.63	0.373779
1153.01	0.099915
1156.38	0.405388
1159.76	0.079063
1163.13	1.24719
1166.51	1.26044
1169.88	1.89543
1173.26	1.89321
1176.63	1.98522
1180.01	2.25297
1183.38	2.96497
1186.76	2.86675
1190.13	2.78041
1193.51	3.17712
1196.88	3.00268
1200.26	3.25324
1203.63	3.48751
1207.01	3.10949
1210.38	2.16837
1213.76	2.11071
1217.13	2.31642
1220.51	1.57315
1223.88	1.05898
1227.26	1.23283
1230.63	0.546364
1234.01	0.559956
1237.38	0.135254
1240.76	0.023552
1244.13	0.313587
1247.51	0.382885
1250.88	0.151348
1254.26	0.565277
1257.63	0.114365
1261	0.834129
1264.38	1.0048
1267.75	1.06376
1271.13	1.5537
1274.5	1.29136
1277.88	1.22232
1281.25	1.28178
1284.63	0.597771
1288	1.17006
1291.38	0.821613
1294.75	0.497757
1298.13	1.00687
1301.5	0.058147
1304.88	0
