Measurement: Raman, 532 nm, unoriented, Raman Data Processed
Mineral: Andradite
Rruff sample: R060326
Ideal chemistry: Ca_3_Fe^3+^_2_(SiO_4_)_3_
Locality: Ultevis, Sweden
Source: Marcus Origlieri
Description: Reddish-brown colored druse of crystals associated with white svabite R050180
Measured chemistry: (Ca_2.98_Mn_0.02_)_Σ=3_(Fe^3+^_1.75_Al_0.21_Ti_0.04_)_Σ=2_(Si_1.00_O_4_)_3_
Raman shift (cm-1)	intensity
130.679	0
134.054	0.344849
137.428	3.29961
140.803	8.40789
144.178	14.1923
147.553	16.7445
150.928	20.3993
154.302	24.0432
157.677	29.9763
161.052	34.1559
164.427	41.1418
167.802	48.6097
171.177	72.2139
174.551	90.44
177.926	49.2646
181.301	20.6673
184.676	10.7885
188.051	5.70219
191.425	2.92598
194.8	1.17588
198.175	0.634705
201.55	0.091232
204.925	0.35154
208.299	1.10843
211.674	0.896584
215.049	4.52859
218.424	10.434
221.799	19.7598
225.174	28.5176
228.548	41.8905
231.923	59.1824
235.298	93.6901
238.673	85.7786
242.048	22.7359
245.423	5.44194
248.797	0.798592
252.172	1.32166
255.547	0.252327
258.922	1.76391
262.297	8.37601
265.671	18.1221
269.046	9.44892
272.421	1.14323
275.796	0.247833
279.171	2.47306
282.546	1.37736
285.92	1.03851
289.295	5.94265
292.67	12.1336
296.045	23.1273
299.42	30.7149
302.794	33.3069
306.169	46.3843
309.544	70.8233
312.919	92.4665
316.294	69.8248
319.668	45.6987
323.043	49.1398
326.418	59.9517
329.793	58.7778
333.168	72.7071
336.543	108.016
339.917	156.737
343.292	218.542
346.667	322.978
350.042	479.06
353.417	601.881
356.791	547.349
360.166	498.749
363.541	607.079
366.916	840.782
370.291	981.672
373.666	705.259
377.04	370.263
380.415	203.804
383.79	131.754
387.165	89.1029
390.54	49.9688
393.914	26.5716
397.289	14.508
400.664	7.76578
404.039	5.10873
407.414	0.896996
410.788	0.001106
414.163	0.965797
417.538	1.6521
420.913	1.50319
424.288	0.280952
427.663	2.00649
431.037	0.765617
434.412	0.268471
437.787	1.475
441.162	4.60845
444.537	4.85976
447.911	9.12016
451.286	14.0488
454.661	15.9235
458.036	7.47333
461.411	0.562508
464.786	1.63382
468.16	0.70401
471.535	4.45136
474.91	11.7728
478.285	20.6561
481.66	32.6408
485.034	45.6546
488.409	62.1621
491.784	82.0134
495.159	86.9051
498.534	72.5703
501.909	65.0979
505.283	84.2995
508.658	123.971
512.033	196.669
515.408	304.733
518.783	372.017
522.158	251.607
525.532	113.41
528.907	55.4764
532.282	29.6612
535.657	18.1707
539.032	14.6421
542.406	11.8747
545.781	14.4446
549.156	15.7457
552.531	20.1223
555.906	14.4447
559.28	5.99219
562.655	0.886383
566.03	1.27251
569.405	4.00784
572.78	10.669
576.154	18.0419
579.529	17.4486
582.904	10.1293
586.279	7.10895
589.654	5.95869
593.029	5.03823
596.403	6.16885
599.778	6.54977
603.153	5.7439
606.528	4.61215
609.903	2.50932
613.278	0.978226
616.652	0.310104
620.027	1.90437
623.402	2.27984
626.777	0.31237
630.152	1.98578
633.526	2.14661
636.901	3.02175
640.276	4.61105
643.651	4.03107
647.026	3.24011
650.4	3.64838
653.775	3.57902
657.15	3.42167
660.525	3.92599
663.9	4.32244
667.274	4.99779
670.649	3.70646
674.024	2.82884
677.399	2.61459
680.774	1.73965
684.149	0.400604
687.523	0.248741
690.898	0.128914
694.273	1.17023
697.648	0.987572
701.023	0.877831
704.398	0.202995
707.772	0.18512
711.147	1.65311
714.522	1.5136
717.897	3.40041
721.272	3.41676
724.646	4.96197
728.021	4.85606
731.396	5.37513
734.771	5.39119
738.146	5.06485
741.52	6.33666
744.895	5.52949
748.27	3.61028
751.645	3.81008
755.02	3.21579
758.395	4.00426
761.769	1.04965
765.144	1.6301
768.519	0.898766
771.894	1.95173
775.269	2.25631
778.644	1.13312
782.018	1.67766
785.393	1.23283
788.768	5.59101
792.143	10.652
795.518	22.0361
798.892	39.709
802.267	57.9156
805.642	87.309
809.017	116.905
812.392	152.447
815.766	175.957
819.141	163.003
822.516	124.653
825.891	96.5934
829.266	90.9517
832.641	100.789
836.015	120.98
839.39	147.346
842.765	162.245
846.14	147.416
849.515	125.597
852.889	120.977
856.264	135.951
859.639	172.871
863.014	240.41
866.389	338.037
869.764	465.022
873.138	600.029
876.513	594.96
879.888	399.766
883.263	219.576
886.638	117.738
890.013	65.3183
893.387	37.2916
896.762	21.341
900.137	11.6682
903.512	5.83402
906.886	0.862167
910.261	0.419487
913.636	1.17664
917.011	1.0152
920.386	0.383194
923.761	0.379639
927.135	0.015587
930.51	3.15375
933.885	3.29291
937.26	1.59531
940.635	0.592377
944.01	0.132828
947.384	0.56118
950.759	2.8918
954.134	4.46159
957.509	5.94704
960.884	7.91547
964.258	10.0331
967.633	10.9317
971.008	14.2382
974.383	14.7751
977.758	14.7489
981.133	18.2431
984.507	19.7221
987.882	26.4367
991.257	33.2891
994.632	41.0635
998.007	39.3575
1001.38	21.7106
1004.76	8.5765
1008.13	4.18383
1011.51	4.98377
1014.88	4.38765
1018.25	3.43871
1021.63	0.361183
1025.01	1.43178
1028.38	1.64989
1031.76	2.0061
1035.13	0.589447
1038.5	0.601219
1041.88	0.115921
1045.25	0.822159
1048.63	0.204094
1052	0.371765
1055.38	0.139717
1058.75	0.440247
1062.13	0.98497
1065.5	1.13802
1068.88	1.8522
1072.25	2.29169
1075.63	3.44956
1079	4.01459
1082.38	4.39293
1085.75	4.331
1089.13	5.5349
1092.5	6.55332
1095.88	5.99409
1099.25	5.5267
1102.63	6.18539
1106	6.0304
1109.38	5.21144
1112.75	4.65988
1116.12	4.6988
1119.5	3.7073
1122.88	2.92724
1126.25	1.97803
1129.62	1.72765
1133	2.12151
1136.37	2.09449
1139.75	0.99894
1143.12	1.61709
1146.5	0.366661
1149.87	1.39907
1153.25	0.831467
1156.62	1.48124
1160	1.05554
1163.37	1.73518
1166.75	2.31419
1170.12	1.34663
1173.5	2.09154
1176.87	2.69374
1180.25	2.85976
1183.62	3.75156
1187	2.92762
1190.37	3.30012
1193.75	3.15037
1197.12	4.30512
1200.5	2.93114
1203.87	2.90854
1207.24	3.63113
1210.62	2.57877
1213.99	3.01467
1217.37	1.09238
1220.74	2.43762
1224.12	2.22417
1227.49	0.426254
1230.87	0.462685
1234.24	1.8263
1237.62	0.876945
1240.99	0.273582
1244.37	0.928673
1247.74	0.591217
1251.12	0.941772
1254.49	0.516647
1257.87	1.39132
1261.24	0.706413
1264.62	1.25458
1267.99	1.80049
1271.37	1.95676
1274.74	3.40129
1278.12	2.87263
1281.49	1.71097
1284.87	1.21353
1288.24	1.26202
1291.62	2.27347
1294.99	0.141594
1298.37	1.2325
1301.74	1.31892
