Measurement: Raman, 780 nm, unoriented, Raman Data Processed
Mineral: Andradite
Rruff sample: R120004
Ideal chemistry: Ca_3_Fe^3+^_2_(SiO_4_)_3_
Locality: Chifeng, Inner Mongolia
Source: Jack Lowell
Description: Dark green dodecahedral crystals overlying pale green diopside R120003
Raman shift (cm-1)	intensity
91.6035	0
94.9783	3.54111
98.3531	2.84253
101.728	0.062691
105.103	1.78066
108.478	0.922134
111.852	0.274315
115.227	0.733486
118.602	1.61296
121.977	2.01263
125.352	0.998661
128.726	1.68337
132.101	1.16369
135.476	0.514442
138.851	0.103855
142.226	0.167389
145.601	3.99398
148.975	2.32619
152.35	6.2236
155.725	15.4603
159.1	17.9782
162.475	23.7163
165.85	32.6786
169.224	52.7586
172.599	94.3176
175.974	77.173
179.349	21.8701
182.724	9.09433
186.098	5.48821
189.473	2.51255
192.848	1.67028
196.223	0.514603
199.598	0.265324
202.972	0.002399
206.347	0.145569
209.722	0.990536
213.097	2.83623
216.472	9.52914
219.847	19.8876
223.221	27.8906
226.596	39.4154
229.971	57.3115
233.346	87.1762
236.721	127.722
240.095	57.8413
243.47	14.9061
246.845	5.765
250.22	3.51769
253.595	2.02101
256.969	4.02225
260.344	12.1892
263.719	21.9052
267.094	19.757
270.469	2.73338
273.844	1.93161
277.218	3.18815
280.593	1.86739
283.968	1.11606
287.343	2.8687
290.718	8.74007
294.092	20.0141
297.467	27.8973
300.842	25.7587
304.217	35.8869
307.592	60.0847
310.967	100.053
314.341	100.94
317.716	51.5264
321.091	42.2815
324.466	57.7526
327.841	58.6291
331.216	60.129
334.59	89.2255
337.965	133.251
341.34	185.569
344.715	271.758
348.09	424.13
351.464	632.411
354.839	646.547
358.214	513.437
361.589	524.463
364.964	677.53
368.339	934.307
371.713	933.334
375.088	533.466
378.463	275.403
381.838	177.878
385.213	125.932
388.587	71.2546
391.962	39.9589
395.337	23.2872
398.712	13.5298
402.087	7.32666
405.462	4.28061
408.836	1.86272
412.211	0.221962
415.586	0.652767
418.961	1.26565
422.336	1.08392
425.71	1.70659
429.085	1.50798
432.46	0.264267
435.835	1.4571
439.21	3.84859
442.584	6.10771
445.959	10.0368
449.334	16.4814
452.709	22.0969
456.084	13.0644
459.459	3.74624
462.833	0.376911
466.208	0.312218
469.583	0.771442
472.958	4.38284
476.333	10.6418
479.707	18.409
483.082	28.3616
486.457	41.9502
489.832	65.534
493.207	84.079
496.582	74.0714
499.956	62.5499
503.331	71.5414
506.706	92.5917
510.081	141.362
513.456	226.444
516.83	295.261
520.205	221.952
523.58	117.169
526.955	57.0855
530.33	29.8951
533.705	16.0454
537.079	11.7304
540.454	11.9504
543.829	12.349
547.204	15.5495
550.579	21.5121
553.953	25.4424
557.328	15.487
560.703	5.69208
564.078	1.34904
567.453	0.411976
570.827	1.7236
574.202	6.98595
577.577	7.99757
580.952	3.95874
584.327	0.60531
587.702	0.190832
591.076	0.367939
594.451	0.278997
597.826	1.23315
601.201	1.53684
604.576	2.71277
607.951	2.59061
611.325	2.35679
614.7	0.361294
618.075	0.000992
621.45	0.922768
624.825	0.31735
628.199	0.593233
631.574	0.116322
634.949	0.081554
638.324	0.550047
641.699	1.06142
645.073	0.787409
648.448	1.29141
651.823	1.85257
655.198	2.039
658.573	1.9495
661.948	2.97841
665.322	2.78916
668.697	3.55843
672.072	3.61001
675.447	3.68957
678.822	4.08477
682.197	3.38015
685.571	3.14924
688.946	3.11431
692.321	3.22912
695.696	3.289
699.071	6.90269
702.445	6.31126
705.82	4.21812
709.195	4.53028
712.57	4.66667
715.945	4.77141
719.319	4.30275
722.694	3.94362
726.069	3.56898
729.444	3.26066
732.819	3.00789
736.193	2.18771
739.568	1.71408
742.943	1.38179
746.318	0.898499
749.693	0.39327
753.068	0.311764
756.442	0.367584
759.817	1.1251
763.192	1.11349
766.567	1.06228
769.942	1.02189
773.317	0.771349
776.691	0.620853
780.066	1.68301
783.441	2.87239
786.816	5.83085
790.191	11.3877
793.565	18.5644
796.94	30.2831
800.315	48.8971
803.69	72.7123
807.065	104.707
810.439	148.236
813.814	196.083
817.189	202.398
820.564	148.779
823.939	99.3403
827.314	78.5036
830.688	79.6373
834.063	94.2598
837.438	120.197
840.813	148.018
844.188	146.461
847.562	114.582
850.937	95.2668
854.312	95.6303
857.687	115.656
861.062	164.452
864.437	235.217
867.811	331.418
871.186	471.572
874.561	562.88
877.936	413.248
881.311	212.791
884.686	107.482
888.06	56.8832
891.435	32.8318
894.81	19.1588
898.185	11.0199
901.56	6.23568
904.934	3.24803
908.309	1.93077
911.684	0.925867
915.059	0.031509
918.434	1.07561
921.808	1.48571
925.183	0.728127
928.558	0.985352
931.933	0.296831
935.308	0.124332
938.683	0.105593
942.057	0.432304
945.432	0.048153
948.807	1.12076
952.182	1.39078
955.557	2.50226
958.932	2.94373
962.306	4.02656
965.681	5.56818
969.056	6.0552
972.431	7.37242
975.806	8.35626
979.18	8.9982
982.555	11.1233
985.93	13.1858
989.305	16.6471
992.68	22.9908
996.054	26.5593
999.429	18.2793
1002.8	9.21689
1006.18	5.48229
1009.55	4.45513
1012.93	4.36405
1016.3	4.67199
1019.68	2.82462
1023.05	2.23526
1026.43	1.46229
1029.8	0.849074
1033.18	0.350216
1036.55	0.976003
1039.93	0.751797
1043.3	0.261804
1046.68	0.052544
1050.05	0.280067
1053.43	0.129701
1056.8	0.075472
1060.18	0.521246
1063.55	0.464662
1066.93	0.589481
1070.3	0.958678
1073.67	1.41297
1077.05	1.63726
1080.42	2.08495
1083.8	2.71019
1087.17	2.68192
1090.55	3.01075
1093.92	3.26006
1097.3	3.37105
1100.67	3.60693
1104.05	3.22791
1107.42	3.18024
1110.8	3.00421
1114.17	2.24815
1117.55	2.06584
1120.92	1.54338
1124.3	1.8741
1127.67	0.571498
1131.05	0.108869
1134.42	0.370624
1137.8	0.174487
1141.17	0.347703
1144.55	0.063936
1147.92	0.026984
1151.3	0.031747
1154.67	0.511396
1158.05	0.823901
1161.42	0.446699
1164.8	0.454043
1168.17	0.896542
1171.55	1.27042
1174.92	1.7678
1178.3	1.80901
1181.67	1.94514
1185.04	1.95349
1188.42	1.94918
1191.79	1.70993
1195.17	2.22682
1198.54	1.77431
1201.92	2.02234
1205.29	1.80088
1208.67	1.52071
1212.04	1.4307
1215.42	1.78823
1218.79	1.35179
1222.17	1.03445
1225.54	0.644976
1228.92	1.02877
1232.29	0.287189
1235.67	0.497075
1239.04	0.02924
1242.42	0.219306
1245.79	0.010351
1249.17	0.287978
1252.54	0.097623
1255.91	0.327327
1259.29	0.232567
1262.66	0.294089
1266.04	0.898641
1269.41	0.474301
1272.79	0.327243
1276.16	0.234098
1279.54	0.29293
1282.91	0.076808
