Measurement: Raman, 780 nm, unoriented, Raman Data Processed
Mineral: Andradite
Rruff sample: R100049
Ideal chemistry: Ca_3_Fe^3+^_2_(SiO_4_)_3_
Locality: Langban, Filipstad, Varmland, Sweden
Source: William W Pinch
Description: Yellowish orange transparent crystals associated with phenakite
Raman shift (cm-1)	intensity
91.5332	0
94.908	6.95363
98.2828	2.62488
101.658	1.98674
105.032	3.92522
108.407	4.529
111.782	3.4445
115.157	5.15196
118.532	1.78919
121.907	0.363304
125.281	0.189133
128.656	0.47065
132.031	2.55785
135.406	0.626274
138.781	0.327461
142.155	0.975365
145.53	0.001411
148.905	0.695023
152.28	5.03796
155.655	15.2999
159.03	26.1055
162.404	41.8688
165.779	69.3595
169.154	92.6306
172.529	126.701
175.904	159.864
179.278	125.605
182.653	65.7025
186.028	27.3066
189.403	6.89172
192.778	0.558647
196.153	1.15424
199.527	6.62404
202.902	13.9011
206.277	27.2208
209.652	46.6105
213.027	70.7043
216.401	99.251
219.776	137.581
223.151	205.491
226.526	288.909
229.901	380.871
233.275	477.957
236.65	371.749
240.025	196.008
243.4	109.868
246.775	76.6666
250.15	65.7524
253.524	64.0487
256.899	61.946
260.274	59.9815
263.649	40.802
267.024	15.4071
270.399	3.37663
273.773	11.6797
277.148	12.7508
280.523	6.14481
283.898	5.86426
287.273	28.6707
290.647	70.8882
294.022	114.252
297.397	150.186
300.772	176.046
304.147	239.109
307.522	363.664
310.896	454.901
314.271	353.323
317.646	231.042
321.021	212.532
324.396	288.956
327.77	289.242
331.145	254.906
334.52	279.3
337.895	342.535
341.27	425.092
344.644	544.825
348.019	739.907
351.394	962.645
354.769	1088.36
358.144	1152.67
361.519	1319.2
364.893	1762.79
368.268	2305.9
371.643	1920.6
375.018	1028.88
378.393	552.387
381.767	335.359
385.142	185.389
388.517	105.422
391.892	60.596
395.267	33.3242
398.642	21.787
402.016	12.3631
405.391	9.38367
408.766	9.7689
412.141	5.8317
415.516	0.139114
418.89	3.18442
422.265	7.16486
425.64	9.55132
429.015	7.32232
432.39	2.15108
435.765	4.45834
439.139	8.48323
442.514	19.9295
445.889	41.2587
449.264	87.541
452.639	127.852
456.014	63.5018
459.388	13.7955
462.763	0.565056
466.138	0.950699
469.513	7.19865
472.887	21.4622
476.262	42.0205
479.637	65.3419
483.012	96.7441
486.387	150.553
489.762	239.402
493.136	312.377
496.511	241.755
499.886	182.41
503.261	193.19
506.636	251.003
510.01	375.601
513.385	628.492
516.76	924.211
520.135	705.304
523.51	332.658
526.885	167.307
530.259	94.321
533.634	63.6628
537.009	51.1855
540.384	47.1387
543.759	54.9364
547.134	72.1115
550.508	107.803
553.883	133.929
557.258	96.7704
560.633	44.5617
564.008	17.0252
567.382	8.04848
570.757	11.3395
574.132	23.733
577.507	25.0323
580.882	8.0409
584.256	1.19117
587.631	2.3217
591.006	1.30967
594.381	0.096283
597.756	0.151649
601.131	2.3621
604.505	4.222
607.88	4.47939
611.255	2.98298
614.63	3.53046
618.005	0.190315
621.38	0.745476
624.754	0.294254
628.129	0.674171
631.504	0.210629
634.879	0.925972
638.254	1.73085
641.628	3.88482
645.003	3.91053
648.378	5.76677
651.753	4.50858
655.128	5.62542
658.503	6.46671
661.877	9.01973
665.252	8.59095
668.627	9.89942
672.002	10.76
675.377	10.2317
678.751	10.5042
682.126	9.01886
685.501	11.1437
688.876	10.4998
692.251	10.1039
695.625	10.9087
699	11.3595
702.375	12.2371
705.75	13.8372
709.125	12.6329
712.5	12.2373
715.874	11.1219
719.249	11.1702
722.624	9.12585
725.999	11.6221
729.374	7.96917
732.749	6.51347
736.123	4.44372
739.498	4.31226
742.873	2.26285
746.248	0.341278
749.623	1.18597
752.997	1.15607
756.372	1.78177
759.747	3.49227
763.122	3.12692
766.497	3.91127
769.871	2.39123
773.246	0.259655
776.621	0.738911
779.996	3.23286
783.371	8.35688
786.745	17.0973
790.12	29.9127
793.495	51.7952
796.87	85.5605
800.245	130.47
803.62	195.785
806.994	288.375
810.369	403.098
813.744	536.761
817.119	655.508
820.494	661.791
823.869	517.285
827.243	355.46
830.618	279.626
833.993	279.032
837.368	338.03
840.743	444.197
844.117	594.796
847.492	657.448
850.867	520.867
854.242	353.227
857.617	268.295
860.991	256.787
864.366	313.534
867.741	418.979
871.116	590.674
874.491	888.505
877.866	1243.92
881.24	1001.3
884.615	495.397
887.99	239.144
891.365	129.034
894.74	71.0392
898.115	40.788
901.489	22.7999
904.864	13.7176
908.239	6.5881
911.614	2.55787
914.989	0.236515
918.363	2.60608
921.738	4.47031
925.113	3.88206
928.488	3.30814
931.863	1.21631
935.237	0.483734
938.612	0.597569
941.987	1.17688
945.362	1.80309
948.737	5.10128
952.112	7.00497
955.486	8.57909
958.861	11.3112
962.236	13.004
965.611	14.102
968.986	16.9031
972.361	20.9048
975.735	23.087
979.11	25.5651
982.485	30.0053
985.86	35.9551
989.235	46.3073
992.609	66.7659
995.984	101.254
999.359	104.209
1002.73	56.0898
1006.11	27.1574
1009.48	16.691
1012.86	11.4793
1016.23	7.8406
1019.61	7.56241
1022.98	5.62106
1026.36	4.14203
1029.73	2.79301
1033.11	2.58498
1036.48	0.518694
1039.86	1.16637
1043.23	0.830921
1046.61	0.939335
1049.98	0.431959
1053.36	0.010878
1056.73	0.467712
1060.11	0.522015
1063.48	0.148731
1066.86	1.86875
1070.23	2.40509
1073.61	4.58174
1076.98	4.52122
1080.36	6.72279
1083.73	7.56969
1087.1	7.83944
1090.48	7.85355
1093.85	8.50916
1097.23	8.27962
1100.6	9.82951
1103.98	9.21054
1107.35	10.2962
1110.73	8.35784
1114.1	7.09704
1117.48	5.68812
1120.85	4.40825
1124.23	3.37335
1127.6	1.83659
1130.98	1.28145
1134.35	0.409151
1137.73	0.516647
1141.1	0.121939
1144.48	0.971914
1147.85	0.04048
1151.23	0.091105
1154.6	1.09196
1157.97	2.25414
1161.35	2.29104
1164.72	2.68225
1168.1	4.26294
1171.47	5.08088
1174.85	6.33105
1178.22	7.85092
1181.6	7.01241
1184.97	7.20896
1188.35	6.47268
1191.72	8.10001
1195.1	8.10559
1198.47	6.45667
1201.85	6.47245
1205.22	5.80377
1208.6	6.11729
1211.97	5.24115
1215.35	4.14978
1218.72	4.49948
1222.1	3.63026
1225.47	3.39713
1228.85	1.81213
1232.22	1.1728
1235.6	0.397953
1238.97	0.650854
1242.35	0.266281
1245.72	0.282705
1249.1	0.118143
1252.47	0.308992
1255.85	0.790154
1259.22	0.731527
1262.6	2.1151
1265.97	1.41614
1269.34	1.0446
1272.72	1.74233
1276.09	1.11111
1279.47	0.636337
1282.84	0.93903
