Measurement: Raman, 514 nm, unoriented, Raman Data Processed
Mineral: Andradite
Rruff sample: R050311
Ideal chemistry: Ca_3_Fe^3+^_2_(SiO_4_)_3_
Locality: Calaveras County, California, USA
Source: Eugene Schlepp
Description: Deep red crystals
Measured chemistry: (Ca_2.88_Mn_0.07_Fe^2+^_0.05_)_Σ=3_(Fe^3+^_1.39_Al_0.59_Ti_0.02_)_Σ=2_((Si_0.99_Al_0.01_)_Σ=1_O_4_)_3_
Raman shift (cm-1)	intensity
76.635	0
80.823	364.104
85.009	161.254
89.193	534.096
93.375	654.305
97.554	299.775
101.732	152.22
105.908	461.762
110.082	234.245
114.254	562.7
118.424	888.613
122.592	738.511
126.758	238.383
130.922	266.714
135.083	126.357
139.243	299.163
143.401	12.974
147.557	18.552
151.711	44.268
155.863	11.024
160.013	18.864
164.161	219.611
168.308	574.582
172.452	1021.38
176.594	936.791
180.734	410.779
184.872	146.305
189.008	43.277
193.143	154.748
197.275	123.525
201.405	203.274
205.534	314.389
209.66	171.069
213.784	27.684
217.907	55.131
222.027	195.516
226.146	609.474
230.263	1170.94
234.377	1933.98
238.49	1730.61
242.601	614.417
246.709	90.169
250.816	20.708
254.921	46.416
259.024	84.767
263.125	273.317
267.224	399.102
271.321	353.174
275.416	233.555
279.51	144.888
283.601	40.725
287.69	1.201
291.778	167.316
295.863	323.26
299.947	504.614
304.029	558.364
308.108	1023.02
312.186	1936.01
316.262	2175.84
320.336	1571.26
324.408	1403.6
328.478	1640.52
332.546	1591.74
336.612	1656.3
340.677	2177.27
344.739	3230.71
348.799	5254.51
352.858	8386.74
356.915	10459.3
360.969	13194.4
365.022	22557.8
369.073	33578.6
373.122	24316
377.169	12515.9
381.215	6180.03
385.258	3420.79
389.299	2154.95
393.339	1367.47
397.376	856.323
401.412	390.442
405.446	205.8
409.478	69.455
413.508	15.043
417.536	34.484
421.562	29.858
425.586	81.42
429.609	155.203
433.629	205.727
437.648	234.408
441.665	271.821
445.68	329.445
449.693	341.244
453.704	517.277
457.713	383.502
461.721	139.912
465.726	44.5
469.73	87.263
473.731	317.207
477.731	687.034
481.729	1020.53
485.725	1348.43
489.72	1579.57
493.712	1806.65
497.703	1730.94
501.691	1345.47
505.678	1328.47
509.663	1673.08
513.646	2905.25
517.627	5810.94
521.607	10656.9
525.584	10670.7
529.56	5468.91
533.534	2443.93
537.506	1376.92
541.476	907.072
545.444	882.557
549.41	902.247
553.375	1009.74
557.337	1004.7
561.298	731.753
565.257	533.723
569.214	365.237
573.17	358.312
577.123	478.327
581.075	606.71
585.024	583.582
588.972	616.339
592.918	703.877
596.863	746.486
600.805	797.867
604.746	840.112
608.685	724.218
612.621	652.179
616.557	497.991
620.49	291.649
624.421	158.033
628.351	114.486
632.279	115.628
636.205	55.527
640.129	1.238
644.051	19.275
647.972	14.943
651.89	37.059
655.807	11.342
659.722	1.06
663.636	33.787
667.547	31.317
671.457	22.417
675.365	33.834
679.271	13.554
683.175	8.735
687.077	66.478
690.978	65.955
694.877	48.885
698.774	45.774
702.669	4.087
706.562	79.459
710.454	64.419
714.344	49.01
718.232	266.344
722.118	79.452
726.002	57.332
729.885	148.994
733.766	174.295
737.645	203.766
741.522	213.855
745.397	218.761
749.271	281.505
753.143	237.071
757.013	245.481
760.881	378.721
764.748	365.823
768.613	306.772
772.476	371.558
776.337	462.19
780.196	462.664
784.054	503.967
787.91	617.085
791.764	905.425
795.616	1249.68
799.467	1850
803.316	2597.03
807.163	3598.68
811.008	4580.5
814.851	6341.71
818.693	7273.16
822.533	6882.54
826.371	5600.11
830.208	4287.2
834.042	3679.43
837.875	4125.71
841.706	4952.72
845.536	5552.57
849.363	5023.21
853.189	4242.3
857.013	4032.68
860.836	4114.43
864.656	4793.38
868.475	6068.73
872.292	8957.82
876.108	12558
879.922	14094.6
883.733	9679.98
887.544	5711.1
891.352	3599.23
895.159	2271.95
898.964	1677.23
902.767	1206.41
906.568	973.184
910.368	793.738
914.166	757.473
917.962	599.715
921.757	643.56
925.55	770.839
929.341	984.96
933.13	1081.52
936.918	1093.02
940.703	1080.48
944.488	775.983
948.27	643.534
952.051	575.154
955.83	705.858
959.607	660.653
963.383	823.557
967.156	954.677
970.928	1072.96
974.699	1277.39
978.468	1314.01
982.234	1347.78
986	1420.84
989.763	1572.87
993.525	1689.15
997.285	2018.85
1001.04	1882.27
1004.8	1130.28
1008.55	638.496
1012.31	396.965
1016.06	291.572
1019.81	301.22
1023.56	273.639
1027.31	164.572
1031.05	91.385
1034.79	61.045
1038.53	10.445
1042.27	22.14
1046.01	15.753
1049.75	36.578
1053.48	26.125
1057.22	50.098
1060.95	55.642
1064.68	58.395
1068.4	49.58
1072.13	5.41
1075.86	42.43
1079.58	9.557
1083.3	0.221
1087.02	16.162
1090.74	62.479
1094.45	85.863
1098.17	97.933
1101.88	85.291
1105.59	84.923
1109.3	121.121
1113.01	72.794
1116.71	84.083
1120.42	207.12
1124.12	307.239
1127.82	138.418
1131.52	118.388
1135.22	83.549
1138.91	83.172
1142.61	8.343
1146.3	39.298
1149.99	33.152
1153.68	37.062
1157.37	28.22
1161.06	61.938
1164.74	11.332
1168.42	84.84
1172.1	118.454
1175.78	170.558
1179.46	224
1183.14	168.77
1186.81	174.226
1190.48	184.028
1194.15	182.091
1197.83	172.768
1201.49	214.104
1205.16	164.357
1208.82	139.431
1212.49	167.51
1216.15	189.539
1219.81	180.845
1223.46	181.899
1227.12	153.384
1230.78	151.692
1234.43	107.554
1238.08	84.253
1241.73	166.511
1245.38	67.341
1249.03	38.747
1252.67	18.624
1256.31	58.069
1259.95	37.528
1263.6	101.599
1267.23	66.371
1270.87	26.808
1274.51	27.688
1278.14	37.639
1281.77	3.102
1285.4	111.065
1289.03	80.536
1292.66	11.848
1296.28	44.802
1299.91	53.775
1303.53	3.404
1307.15	43.895
1310.77	115.104
1314.38	55.434
1318	55.137
1321.61	21.16
1325.23	51.854
1328.84	128.251
1332.45	73.496
1336.06	101.285
1339.66	86.131
1343.27	151.621
1346.87	137.248
1350.47	214.536
1354.07	168.845
1357.67	190.364
1361.26	266.567
1364.86	188.586
1368.45	155.389
1372.04	215.271
1375.63	146.177
1379.22	94.444
1382.81	93.627
1386.39	120.505
1389.98	127.543
1393.56	103.022
1397.14	135.125
1400.72	143.271
1404.3	195.241
1407.87	56.253
1411.45	56.153
1415.02	106.237
1418.59	89.671
1422.16	132.863
1425.73	175.533
1429.29	119.613
1432.86	87.735
1436.42	172.784
1439.98	145.74
1443.54	38.143
1447.1	105.789
1450.66	44.229
1454.21	2.224
1457.77	72.266
