Measurement: Raman, 532 nm, unoriented, Raman Data Processed
Mineral: Andradite
Rruff sample: R050256
Ideal chemistry: Ca_3_Fe^3+^_2_(SiO_4_)_3_
Locality: Franklin, Sussex County, New Jersey, USA
Source: Marcus Origlieri
Description: Reddish brown fragments
Measured chemistry: (Ca_2.27_Mn_0.73_)_Σ=3_(Fe^3+^_1.35_Al_0.65_)_Σ=2_(Si_1.00_O_4_)_3_
Raman shift (cm-1)	intensity
135.45	0
138.342	3.54546
141.235	2.32462
144.128	0.53009
147.02	4.87332
149.913	3.20863
152.806	3.67595
155.699	8.62354
158.591	11.0163
161.484	17.1036
164.377	29.5608
167.269	45.3719
170.162	44.4111
173.055	37.8904
175.947	38.4924
178.84	34.6288
181.733	29.3691
184.626	18.6989
187.518	10.9103
190.411	3.01282
193.304	1.03317
196.196	0.230347
199.089	1.90356
201.982	1.92505
204.875	9.87491
207.767	17.2209
210.66	26.0925
213.553	38.63
216.445	52.4817
219.338	70.4915
222.231	91.0844
225.123	106.231
228.016	127.689
230.909	150.806
233.802	164.292
236.694	155.627
239.587	122.566
242.48	83.0817
245.372	55.069
248.265	38.0843
251.158	26.1991
254.05	20.414
256.943	12.0035
259.836	7.38547
262.728	6.55279
265.621	2.13031
268.514	0.857239
271.407	2.13086
274.299	2.315
277.192	1.82373
280.085	1.30347
282.977	1.01056
285.87	1.80765
288.763	6.48431
291.656	12.3723
294.548	28.3857
297.441	41.614
300.334	63.5993
303.226	85.3385
306.119	106.557
309.012	128.364
311.904	149.341
314.797	167.88
317.69	162.275
320.582	150.186
323.475	146.139
326.368	153.029
329.261	173.205
332.153	204.322
335.046	227.762
337.939	261.923
340.831	308.736
343.724	372.394
346.617	457.514
349.509	564.851
352.402	705.546
355.295	856.064
358.188	1009.06
361.08	1167.6
363.973	1372.8
366.866	1572.13
369.758	1592.04
372.651	1316.55
375.544	924.183
378.436	612.888
381.329	407.082
384.222	275.804
387.115	192.024
390.007	133.892
392.9	93.8994
395.793	56.4551
398.685	33.0301
401.578	17.4622
404.471	10.5193
407.363	1.68247
410.256	1.87921
413.149	5.53925
416.041	5.70532
418.934	4.76028
421.827	3.39072
424.72	2.03055
427.612	3.51773
430.505	7.53714
433.398	13.1504
436.29	13.215
439.183	12.6421
442.076	15.0755
444.969	19.6364
447.861	19.0816
450.754	19.8709
453.647	20.5152
456.539	22.229
459.432	17.1578
462.325	8.31793
465.217	0.427948
468.11	1.21262
471.003	1.17313
473.896	10.9956
476.788	28.1757
479.681	44.4784
482.574	65.2694
485.466	82.7571
488.359	96.3195
491.252	111.125
494.144	121.086
497.037	120.433
499.93	108.473
502.822	99.7146
505.715	100.209
508.608	118.233
511.501	154.476
514.393	223.032
517.286	304.468
520.179	404.871
523.071	522.316
525.964	620.836
528.857	611.248
531.75	440.027
534.642	243.222
537.535	126.184
540.428	71.6192
543.32	44.432
546.213	35.2998
549.106	32.0482
551.998	32.7013
554.891	31.7386
557.784	28.4104
560.677	24.5805
563.569	13.6896
566.462	4.0517
569.355	1.16055
572.247	5.84323
575.14	0.471252
578.033	6.46982
580.925	12.9081
583.818	14.1576
586.711	12.6237
589.604	16.6751
592.496	23.4904
595.389	31.6432
598.282	35.4523
601.174	41.4029
604.067	44.1863
606.96	47.3065
609.852	47.5714
612.745	43.9732
615.638	39.6083
618.53	30.0219
621.423	22.9778
624.316	12.738
627.209	8.46435
630.101	3.11725
632.994	0.758209
635.887	1.55579
638.779	1.07309
641.672	0.859558
644.565	0.557373
647.457	0.399139
650.35	0.734467
653.243	0.55835
656.136	1.23541
659.028	4.80209
661.921	8.61293
664.814	8.23044
667.706	9.18808
670.599	9.32303
673.492	9.60504
676.385	11.2495
679.277	9.97292
682.17	11.8021
685.063	11.0804
687.955	10.2409
690.848	13.1686
693.741	11.3115
696.633	14.9029
699.526	14.2058
702.419	14.4725
705.312	15.8124
708.204	13.5184
711.097	13.0587
713.99	12.4096
716.882	16.0586
719.775	15.1425
722.668	14.6402
725.56	13.8357
728.453	13.5252
731.346	12.4527
734.239	11.6825
737.131	7.72775
740.024	8.37271
742.917	7.18677
745.809	4.14325
748.702	3.5145
751.595	1.51508
754.487	0.263214
757.38	0.916351
760.273	2.60229
763.165	0.998779
766.058	4.02548
768.951	4.48731
771.844	3.19955
774.736	1.23825
777.629	2.77506
780.522	1.51562
783.414	1.12573
786.307	7.62692
789.2	13.9227
792.092	24.6053
794.985	45.5201
797.878	72.0555
800.77	105.985
803.663	151.451
806.556	199.302
809.449	253.406
812.341	307.716
815.234	363.993
818.127	420.414
821.019	451.214
823.912	446.375
826.805	407.195
829.697	350.55
832.59	289.445
835.483	246.009
838.376	226.744
841.268	233.948
844.161	239.276
847.054	261.872
849.946	274.666
852.839	269.672
855.732	244.966
858.625	221.568
861.517	212.802
864.41	226.433
867.303	266.429
870.195	333.682
873.088	423.766
875.981	540.304
878.873	679.477
881.766	791.899
884.659	794.39
887.552	634.052
890.444	417.968
893.337	270.792
896.23	173.884
899.122	114.611
902.015	73.9597
904.908	46.1284
907.8	27.2352
910.693	12.3049
913.586	3.46494
916.479	1.46701
919.371	3.81961
922.264	6.39169
925.157	6.85767
928.049	2.14871
930.942	0.76593
933.835	9.46204
936.727	14.4035
939.62	18.3419
942.513	16.0002
945.405	11.6067
948.298	5.5622
951.191	0.457031
954.084	1.6087
956.976	0.924164
959.869	6.41904
962.762	15.8229
965.654	22.8506
968.547	32.0368
971.44	38.616
974.332	49.7888
977.225	58.1462
980.118	65.2311
983.011	68.5848
985.903	71.9115
988.796	74.3913
991.689	83.4644
994.581	90.0182
997.474	96.5191
1000.37	99.9054
1003.26	98.5615
1006.15	78.6923
1009.04	49.2162
1011.94	29.8217
1014.83	20.037
1017.72	13.1035
1020.62	8.9826
1023.51	6.38211
1026.4	2.19217
1029.29	0.846039
1032.19	0.282166
1035.08	0.851044
1037.97	2.12994
1040.87	0.215942
1043.76	1.81097
1046.65	0.327301
1049.54	0.463867
1052.43	0.177521
1055.33	1.28571
1058.22	1.81171
1061.11	0.71347
1064.01	1.93573
1066.9	1.44769
1069.79	0.747589
1072.68	2.05075
1075.58	4.42715
1078.47	4.57672
1081.36	6.29297
1084.26	8.48068
1087.15	7.92636
1090.04	7.18481
1092.93	5.42334
1095.83	8.57752
1098.72	10.297
1101.61	9.54471
1104.5	10.8041
1107.4	8.58997
1110.29	7.9151
1113.18	9.16318
1116.08	9.1702
1118.97	7.93948
1121.86	8.46619
1124.75	8.90729
1127.65	7.41248
1130.54	5.07748
1133.43	5.03265
1136.32	5.97333
1139.22	3.52084
1142.11	4.49442
1145	1.89948
1147.89	2.61069
1150.79	0.090393
1153.68	0.668182
1156.57	0.573975
1159.46	1.23309
1162.36	0.165558
1165.25	0.984161
1168.14	1.22131
1171.04	1.20548
1173.93	2.33383
1176.82	2.24713
1179.71	2.36639
1182.61	1.54862
1185.5	1.54724
1188.39	2.95438
1191.29	3.07245
1194.18	5.87057
1197.07	3.35315
1199.96	4.15735
1202.86	4.22729
1205.75	5.18152
1208.64	5.52942
1211.53	6.07053
1214.43	6.82043
1217.32	6.44934
1220.21	7.26315
1223.11	4.44961
1226	5.28641
1228.89	8.04526
1231.78	5.18564
1234.67	4.08292
1237.57	1.75433
1240.46	2.91797
1243.35	2.50058
1246.25	1.81348
1249.14	1.37051
1252.03	0.084717
1254.92	0.416992
1257.82	0.543243
1260.71	0.645325
1263.6	2.91885
1266.49	0.023712
1269.39	1.48877
1272.28	0.163696
1275.17	3.56332
1278.07	3.42526
1280.96	3.48096
1283.85	0.360962
1286.74	2.55444
1289.64	0.646606
