Measurement: Raman, 780 nm, unoriented, Raman Data Processed
Mineral: Andradite
Rruff sample: R060449
Ideal chemistry: Ca_3_Fe^3+^_2_(SiO_4_)_3_
Locality: Namibia
Source: Gemological Institute of America
Description: Blue fragment, variety demantoid
Measured chemistry: Ca_3.00_(Fe^3+^_1.93_Al_0.07_)_Î£=2_(Si_1.00_O_4_)_3__
Raman shift (cm-1)	intensity
94.6166	0
97.9915	0.469864
101.366	0.968792
104.741	0.24015
108.116	0.24712
111.491	1.26431
114.865	1.03307
118.24	2.1035
121.615	1.91037
124.99	0.564295
128.365	1.19049
131.74	1.40785
135.114	0.343502
138.489	0.179539
141.864	0.106424
145.239	0.169523
148.614	2.81531
151.988	9.78591
155.363	15.545
158.738	17.88
162.113	24.4666
165.488	37.4132
168.863	78.5306
172.237	285.92
175.612	122.083
178.987	19.2714
182.362	8.07751
185.737	4.29227
189.111	2.74061
192.486	0.746529
195.861	0.421722
199.236	0.062675
202.611	0.211926
205.986	0.187723
209.36	0.265791
212.735	2.8141
216.11	14.9279
219.485	19.0389
222.86	26.315
226.234	42.215
229.609	77.6494
232.984	165.512
236.359	334.965
239.734	50.715
243.108	12.2523
246.483	6.8006
249.858	3.61138
253.233	2.7597
256.608	4.30645
259.983	13.4781
263.357	64.1443
266.732	25.6833
270.107	1.82849
273.482	4.68191
276.857	4.18983
280.231	3.06088
283.606	0.119217
286.981	5.20209
290.356	19.3949
293.731	52.2437
297.106	61.3103
300.48	30.5011
303.855	36.0279
307.23	87.8084
310.605	237.956
313.98	145.43
317.354	44.2598
320.729	54.7821
324.104	115.235
327.479	70.9943
330.854	89.0014
334.228	157.515
337.603	204.961
340.978	310.423
344.353	526.99
347.728	1149.28
351.103	2273.56
354.477	1382.18
357.852	732.482
361.227	761.374
364.602	1231.11
367.977	2417.16
371.351	2628.33
374.726	1200.05
378.101	603.598
381.476	508.212
384.851	290.909
388.226	121.298
391.6	70.2491
394.975	45.5727
398.35	28.6675
401.725	18.0335
405.099	12.8752
408.474	10.3399
411.849	5.4534
415.224	2.04766
418.599	1.37837
421.974	2.72679
425.348	3.71038
428.723	3.90661
432.098	2.78349
435.473	0.677551
438.848	1.0272
442.223	5.89555
445.597	14.785
448.972	36.7162
452.347	52.3538
455.722	18.5333
459.097	2.34062
462.471	0.2019
465.846	0.762737
469.221	1.91875
472.596	8.57527
475.971	19.6107
479.346	29.8162
482.72	50.3422
486.095	90.6401
489.47	197.379
492.845	276.931
496.219	167.859
499.594	123.706
502.969	129.203
506.344	180.745
509.719	337.377
513.094	725.818
516.468	877.978
519.843	394.653
523.218	161.438
526.593	83.1254
529.968	51.5466
533.342	37.7854
536.717	31.4548
540.092	26.6624
543.467	27.3706
546.842	32.938
550.217	49.7807
553.591	53.785
556.966	27.6269
560.341	14.0022
563.716	11.8652
567.091	14.9685
570.466	24.3931
573.84	44.4584
577.215	37.55
580.59	13.1887
583.965	4.18363
587.34	2.49709
590.714	1.49361
594.089	0.849728
597.464	0.346642
600.839	0.468882
604.214	0.302324
607.588	0.632023
610.963	1.24663
614.338	0.618443
617.713	1.15981
621.088	0.962
624.462	0.333347
627.837	0.258179
631.212	0.74881
634.587	1.914
637.962	2.02099
641.337	2.24161
644.711	3.30679
648.086	3.68518
651.461	3.58022
654.836	4.32717
658.211	4.07456
661.585	4.96516
664.96	5.11724
668.335	4.91249
671.71	5.94608
675.085	4.76095
678.46	4.96381
681.834	4.1105
685.209	4.06146
688.584	4.3372
691.959	3.71769
695.334	5.11156
698.708	5.43462
702.083	5.72046
705.458	6.85216
708.833	7.57722
712.208	7.46896
715.582	7.96755
718.957	7.44513
722.332	6.73766
725.707	6.02292
729.082	6.0337
732.457	4.90496
735.831	4.91075
739.206	4.08013
742.581	3.34618
745.956	2.31685
749.331	1.8022
752.705	0.920555
756.08	0.596355
759.455	0.686619
762.83	1.16241
766.205	1.80251
769.58	1.85529
772.954	0.534071
776.329	0.868496
779.704	1.12116
783.079	1.1526
786.454	1.91608
789.828	6.42848
793.203	13.4188
796.578	25.4033
799.953	45.3467
803.328	69.7734
806.702	109.58
810.077	188.736
813.452	312.371
816.827	321.469
820.202	181.435
823.577	110.24
826.951	97.1417
830.326	109.07
833.701	139.914
837.076	213.985
840.451	303.743
843.825	278.33
847.2	189.685
850.575	155.244
853.95	169.502
857.325	239.877
860.699	373.745
864.074	541.33
867.449	888.226
870.824	1632.67
874.199	2113.85
877.573	996.909
880.948	383.332
884.323	174.803
887.698	94.8188
891.073	56.7105
894.448	36.1921
897.822	25.1119
901.197	16.9606
904.572	11.4825
907.947	9.28194
911.322	6.72451
914.697	3.20473
918.071	1.12544
921.446	0.393822
924.821	1.8014
928.196	1.78311
931.571	2.20989
934.945	1.83159
938.32	2.33752
941.695	0.148024
945.07	0.446575
948.445	2.37818
951.819	2.97846
955.194	3.18638
958.569	3.72087
961.944	4.71714
965.319	6.00407
968.693	6.83504
972.068	8.6724
975.443	9.4757
978.818	10.7153
982.193	13.2093
985.568	15.6663
988.942	23.0246
992.317	37.628
995.692	46.7408
999.067	24.3262
1002.44	10.543
1005.82	6.36032
1009.19	3.88364
1012.57	3.71074
1015.94	2.9559
1019.32	3.37758
1022.69	2.777
1026.07	2.27368
1029.44	1.46957
1032.82	1.6427
1036.19	0.780846
1039.57	0.750633
1042.94	0.427345
1046.31	0.119337
1049.69	0.181793
1053.06	0.48851
1056.44	0.019405
1059.81	1.20739
1063.19	1.88746
1066.56	2.21229
1069.94	3.64307
1073.31	3.97773
1076.69	5.44183
1080.06	6.34368
1083.44	7.28786
1086.81	7.23029
1090.19	7.96632
1093.56	8.45784
1096.94	8.33624
1100.31	9.08248
1103.69	9.01442
1107.06	7.58353
1110.44	6.4933
1113.81	5.28825
1117.18	4.46739
1120.56	3.21938
1123.93	2.79827
1127.31	0.378754
1130.68	0.517336
1134.06	0.517958
1137.43	0.024445
1140.81	0.249104
1144.18	0.248775
1147.56	0.658907
1150.93	0.371628
1154.31	0.482992
1157.68	1.41604
1161.06	2.33738
1164.43	2.72852
1167.81	2.66434
1171.18	3.63058
1174.56	3.77948
1177.93	4.60635
1181.31	4.94557
1184.68	5.09793
1188.06	5.86533
1191.43	4.87125
1194.81	5.13949
1198.18	4.5651
1201.56	3.69798
1204.93	4.56386
1208.31	3.55155
1211.68	3.9646
1215.06	2.78623
1218.43	2.55465
1221.81	1.63712
1225.18	0.939548
1228.55	1.13994
1231.93	0.788109
1235.3	0.026033
1238.68	0.10965
1242.05	0.122105
1245.43	0.052303
1248.8	0.472973
1252.18	0.634144
1255.55	0.975409
1258.93	0.886274
1262.3	1.25987
1265.68	1.23072
1269.05	0.266825
1272.43	0.607887
1275.8	0.485319
1279.18	0.670893
1282.55	0.398924
1285.93	0.001703
