Measurement: Raman, 532 nm, unoriented, Raman Data Processed
Mineral: Andradite
Rruff sample: R050311
Ideal chemistry: Ca_3_Fe^3+^_2_(SiO_4_)_3_
Locality: Calaveras County, California, USA
Source: Eugene Schlepp
Description: Deep red crystals
Measured chemistry: (Ca_2.88_Mn_0.07_Fe^2+^_0.05_)_Σ=3_(Fe^3+^_1.39_Al_0.59_Ti_0.02_)_Σ=2_((Si_0.99_Al_0.01_)_Σ=1_O_4_)_3_
Raman shift (cm-1)	intensity
96.6926	0
100.067	1.64219
103.442	0.121111
106.817	1.97271
110.192	0.242072
113.567	4.21622
116.942	7.07432
120.316	9.74937
123.691	15.7378
127.066	14.9648
130.441	17.8781
133.816	17.1892
137.19	19.1918
140.565	17.9712
143.94	15.7869
147.315	13.5818
150.69	14.4797
154.065	20.2799
157.439	21.6491
160.814	29.0827
164.189	33.8751
167.564	43.3042
170.939	56.231
174.313	71.4332
177.688	62.2511
181.063	30.573
184.438	14.0442
187.813	6.93744
191.187	0.816429
194.562	0.491562
197.937	1.42933
201.312	0.046455
204.687	0.45945
208.061	2.22707
211.436	4.34453
214.811	10.1465
218.186	19.4773
221.561	29.8265
224.936	46.1709
228.31	61.0928
231.685	78.6781
235.06	99.9941
238.435	103.56
241.81	51.5645
245.185	15.701
248.559	5.04019
251.934	0.437462
255.309	0.665215
258.684	1.33897
262.059	7.87495
265.433	10.4253
268.808	10.9096
272.183	5.45468
275.558	0.759483
278.933	0.607681
282.308	4.81908
285.682	2.21333
289.057	0.200066
292.432	6.41188
295.807	18.1681
299.182	29.8842
302.556	39.1019
305.931	49.6152
309.306	69.204
312.681	98.3193
316.056	108.924
319.43	87.6534
322.805	70.7021
326.18	77.3405
329.555	90.037
332.93	97.0401
336.305	116.694
339.679	156.276
343.054	208.295
346.429	284.764
349.804	397.082
353.179	542.889
356.553	652.297
359.928	691.91
363.303	772.99
366.678	962.817
370.053	1094.52
373.428	872.442
376.802	513.81
380.177	284.872
383.552	170.856
386.927	113.041
390.302	78.834
393.676	49.4424
397.051	27.3725
400.426	14.442
403.801	6.35506
407.176	0.56543
410.55	1.29537
413.925	2.50626
417.3	2.02831
420.675	1.95789
424.05	0.566093
427.425	2.26765
430.799	3.31107
434.174	5.97603
437.549	7.12875
440.924	10.4328
444.299	11.3641
447.673	11.4623
451.048	13.2114
454.423	13.6517
457.798	12.3296
461.173	6.0066
464.548	0.807388
467.922	0.754135
471.297	4.64198
474.672	11.9072
478.047	23.6403
481.422	35.7867
484.796	48.3202
488.171	57.6423
491.546	67.4737
494.921	73.5943
498.296	68.9281
501.671	59.1269
505.045	61.7021
508.42	83.4345
511.795	127.11
515.17	183.701
518.545	267.957
521.919	345.811
525.294	327.135
528.669	195.202
532.044	89.1998
535.419	42.6332
538.794	23.9163
542.168	19.0971
545.543	19.0828
548.918	20.3983
552.293	21.9263
555.668	22.3174
559.043	16.5962
562.417	8.31344
565.792	0.05603
569.167	2.57795
572.542	0.452148
575.917	2.79515
579.291	10.0838
582.666	10.6383
586.041	9.45904
589.416	11.976
592.791	14.2949
596.165	17.0659
599.54	18.0768
602.915	19.8852
606.29	19.8419
609.665	17.7794
613.039	13.8903
616.414	9.17066
619.789	5.19745
623.164	2.14972
626.539	0.026665
629.914	0.013618
633.288	1.14639
636.663	0.574455
640.038	0.78072
643.413	1.61549
646.788	0.380013
650.163	0.65543
653.537	1.33015
656.912	2.36632
660.287	2.40269
663.662	3.67633
667.037	3.82408
670.411	4.18086
673.786	3.93666
677.161	2.31049
680.536	2.37062
683.911	2.40433
687.285	2.96399
690.66	2.05611
694.035	1.04224
697.41	1.27259
700.785	0.728031
704.159	0.132624
707.534	0.655989
710.909	1.0068
714.284	1.66088
717.659	2.78302
721.034	3.23955
724.408	3.71084
727.783	4.06811
731.158	3.6668
734.533	3.53343
737.908	3.20723
741.283	3.42831
744.657	2.96543
748.032	2.26603
751.407	1.45494
754.782	2.00151
758.157	1.51703
761.531	1.58336
764.906	0.515823
768.281	1.18464
771.656	2.44156
775.031	2.60257
778.405	2.2037
781.78	1.18228
785.155	3.99537
788.53	10.6561
791.905	22.1889
795.28	40.7943
798.654	66.1667
802.029	98.1883
805.404	135.778
808.779	178.049
812.154	220.075
815.529	263.161
818.903	277.799
822.278	253.638
825.653	205.365
829.028	162.978
832.403	142.978
835.777	141.913
839.152	156.826
842.527	178.668
845.902	188.312
849.277	176.478
852.652	152.215
856.026	143.582
859.401	156.413
862.776	190.369
866.151	248.49
869.526	324.193
872.9	420.05
876.275	507.381
879.65	500.128
883.025	370.49
886.4	224.766
889.774	131.56
893.149	75.7006
896.524	43.6806
899.899	24.559
903.274	12.453
906.649	4.67771
910.023	0.230263
913.398	2.39726
916.773	3.77609
920.148	3.30285
923.523	1.24126
926.898	2.88727
930.272	7.69337
933.647	13.3025
937.022	13.1169
940.397	11.7833
943.771	6.93878
947.146	3.17584
950.521	1.21756
953.896	3.06405
957.271	7.1344
960.646	11.6232
964.02	17.1216
967.395	21.2959
970.77	27.469
974.145	32.0974
977.52	35.3732
980.894	36.4378
984.269	39.681
987.644	44.2617
991.019	49.3963
994.394	56.0999
997.769	60.2944
1001.14	51.2334
1004.52	30.5808
1007.89	14.5739
1011.27	9.30162
1014.64	6.79111
1018.02	6.90207
1021.39	6.30752
1024.77	3.25199
1028.14	0.137106
1031.52	0.156027
1034.89	0.098545
1038.27	0.320778
1041.64	0.529583
1045.02	0.375641
1048.39	0.516172
1051.77	0.67156
1055.14	0.469254
1058.52	0.720303
1061.89	1.58121
1065.27	1.78921
1068.64	2.39289
1072.02	2.73191
1075.39	3.35151
1078.76	3.66829
1082.14	4.59377
1085.51	5.81018
1088.89	5.9297
1092.26	6.00386
1095.64	6.77515
1099.01	6.99163
1102.39	7.72757
1105.76	7.73446
1109.14	6.54886
1112.51	6.29659
1115.89	6.53782
1119.26	5.89473
1122.64	6.13788
1126.01	4.21842
1129.39	3.56761
1132.76	3.17185
1136.14	2.57812
1139.51	1.87524
1142.89	1.59649
1146.26	0.910101
1149.63	0.57793
1153.01	0.279922
1156.38	0.01272
1159.76	0.639833
1163.13	0.580757
1166.51	0.709013
1169.88	0.855215
1173.26	0.860043
1176.63	2.00666
1180.01	1.01386
1183.38	2.24041
1186.76	2.36432
1190.13	2.96176
1193.51	3.23815
1196.88	3.38212
1200.26	4.10841
1203.63	4.03413
1207.01	2.95928
1210.38	3.8439
1213.76	3.23196
1217.13	3.50176
1220.51	3.0353
1223.88	3.18923
1227.26	1.95786
1230.63	1.30817
1234.01	1.31678
1237.38	0.68265
1240.76	0.664639
1244.13	0.53561
1247.51	0.483589
1250.88	0.190575
1254.26	0.151856
1257.63	0.192904
1261	0.300024
1264.38	0.536193
1267.75	1.06988
1271.13	0.433215
1274.5	0.84178
1277.88	0.309791
1281.25	0.022102
