Measurement: Raman, 532 nm, unoriented, Raman Data Processed
Mineral: Anglesite
Rruff sample: R040004
Ideal chemistry: PbSO_4_
Locality: Erupcion mine, Los Lamentos, Chihuahua, Mexico
Source: University of Arizona Mineral Museum
Description: Tan colored tabular crystal
Measured chemistry: Pb_1.00_S_1.00_O_4_
Raman shift (cm-1)	intensity
113.173	0
116.548	105.411
119.923	468.122
123.297	1159.93
126.672	2086.38
130.047	2830.33
133.422	3324.93
136.797	3183.06
140.172	2452.41
143.546	1758.68
146.921	1504.78
150.296	1523.74
153.671	1393.36
157.046	867.407
160.421	443.439
163.795	254.487
167.17	150.613
170.545	74.7667
173.92	30.5538
177.294	37.7546
180.669	44.6794
184.044	27.7618
187.419	1.51929
190.794	29.3019
194.169	37.2394
197.543	40.0276
200.918	27.3043
204.293	19.3267
207.668	8.24255
211.043	29.7417
214.417	41.2971
217.792	71.7396
221.167	79.3162
224.542	75.2639
227.917	69.395
231.292	82.0889
234.666	93.4277
238.041	109.675
241.416	116.709
244.791	138.754
248.166	146.575
251.541	144.718
254.915	137.817
258.29	131.566
261.665	121.591
265.04	112.419
268.415	110.459
271.789	110.675
275.164	107.124
278.539	109.153
281.914	101.588
285.289	102.264
288.663	94.9184
292.038	87.1433
295.413	79.321
298.788	61.6176
302.163	58.3106
305.538	61.3868
308.912	53.3362
312.287	52.3461
315.662	48.5399
319.037	54.9756
322.412	58.6521
325.786	54.1548
329.161	45.6825
332.536	46.4348
335.911	40.0732
339.286	35.8807
342.661	24.4766
346.035	19.9059
349.41	20.9779
352.785	14.2468
356.16	1.83472
359.535	3.68756
362.909	1.76819
366.284	4.91071
369.659	16.0987
373.034	14.5736
376.409	11.8247
379.784	7.11307
383.158	0.983948
386.533	20.5941
389.908	40.8124
393.283	74.099
396.658	122.186
400.032	192.424
403.407	251.941
406.782	319.624
410.157	419.862
413.532	539.242
416.906	781.216
420.281	1380.05
423.656	2111.09
427.031	3007.97
430.406	4922.84
433.781	8375.37
437.155	12350.9
440.53	13349.5
443.905	13933.4
447.28	19976.6
450.655	21388.6
454.029	9798.11
457.404	4300.09
460.779	2627.95
464.154	1838.14
467.529	1259.99
470.904	901.886
474.278	677.446
477.653	528.31
481.028	407.353
484.403	310.856
487.778	233.063
491.152	175.148
494.527	126
497.902	91.2365
501.277	63.6198
504.652	48.38
508.026	33.8066
511.401	18.9816
514.776	10.8959
518.151	4.12598
521.526	4.341
524.901	4.86661
528.275	11.7315
531.65	12.1783
535.025	13.5023
538.4	7.6955
541.775	6.95035
545.149	3.51291
548.524	6.86551
551.899	18.0514
555.274	26.1096
558.649	38.9908
562.024	44.1821
565.398	58.796
568.773	58.0478
572.148	78.7105
575.523	104.984
578.898	122.138
582.273	167.168
585.647	254.125
589.022	458.902
592.397	678.182
595.772	959.057
599.146	1453.13
602.521	2232.92
605.896	2562.27
609.271	1664.19
612.646	1117.93
616.021	1102.52
619.395	1011.23
622.77	393.622
626.145	188.231
629.52	162.259
632.895	177.317
636.269	253.951
639.644	351.629
643.019	328.667
646.394	130.373
649.769	47.8443
653.144	30.9498
656.518	16.0152
659.893	16.1604
663.268	21.3807
666.643	23.7119
670.018	13.728
673.393	9.27225
676.767	5.95117
680.142	0.379822
683.517	1.40842
686.892	5.8697
690.266	2.53488
693.641	2.40449
697.016	3.22803
700.391	1.05191
703.766	0.332275
707.141	0.636597
710.515	4.41007
713.89	5.2736
717.265	3.22996
720.64	9.01358
724.015	9.09102
727.389	7.17395
730.764	12.3003
734.139	17.4476
737.514	14.1091
740.889	20.2202
744.264	14.4587
747.638	18.0229
751.013	18.0682
754.388	17.1378
757.763	16.5581
761.138	19.3948
764.513	25.2183
767.887	22.0918
771.262	25.366
774.637	25.4095
778.012	27.6271
781.387	30.6592
784.761	35.1445
788.136	33.6076
791.511	39.1525
794.886	37.3109
798.261	41.196
801.635	29.82
805.01	32.8438
808.385	40.1235
811.76	30.9025
815.135	28.2156
818.51	22.0638
821.884	15.5091
825.259	15.8745
828.634	13.143
832.009	0.151337
835.384	5.18051
838.758	0.870483
842.133	2.02399
845.508	3.4397
848.883	5.77304
852.258	9.53177
855.633	28.1315
859.007	55.2083
862.382	74.6619
865.757	85.2254
869.132	89.2823
872.507	84.5469
875.881	70.0638
879.256	54.0172
882.631	51.0767
886.006	41.915
889.381	34.9692
892.755	26.0731
896.13	12.0741
899.505	7.4093
902.88	13.9934
906.255	11.7524
909.63	0.68335
913.004	21.6566
916.379	19.784
919.754	11.0966
923.129	9.55829
926.504	5.84753
929.879	12.5888
933.253	41.4879
936.628	105.465
940.003	197.054
943.378	353.622
946.753	609.753
950.127	965.077
953.502	1535.41
956.877	2628.71
960.252	4927.37
963.627	9948.64
967.001	17093.5
970.376	25913.1
973.751	41391.1
977.126	59491.2
980.501	44745.6
983.875	19717.1
987.25	9495.11
990.625	5377.07
994	3439.47
997.375	2329.8
1000.75	1653.09
1004.12	1183.01
1007.5	847.299
1010.87	619.175
1014.25	438.468
1017.62	315.81
1021	216.88
1024.37	155.303
1027.75	110.362
1031.12	70.6765
1034.5	36.0719
1037.87	20.9025
1041.25	1.74902
1044.62	23.0526
1048	66.5263
1051.37	132.523
1054.75	203.989
1058.12	250.789
1061.5	250.457
1064.87	194.561
1068.25	118.888
1071.62	49.4408
1075	11.1786
1078.37	21.7163
1081.74	21.1309
1085.12	33.6326
1088.49	19.7269
1091.87	2.151
1095.24	37.6489
1098.62	77.2732
1101.99	129.782
1105.37	202.675
1108.74	274.085
1112.12	350.271
1115.49	422.248
1118.87	519.728
1122.24	615.742
1125.62	732.12
1128.99	846.772
1132.37	953.997
1135.74	1035.03
1139.12	1085.6
1142.49	1102.16
1145.87	1082.85
1149.24	1064.79
1152.62	1076.22
1155.99	1037.38
1159.37	914.422
1162.74	690.227
1166.12	495.61
1169.49	330.374
1172.87	216.494
1176.24	158.375
1179.62	115.894
1182.99	84.1549
1186.37	76.3191
1189.74	52.5684
1193.11	47.3616
1196.49	28.5928
1199.86	14.7397
1203.24	3.73169
1206.61	2.82709
1209.99	2.7951
1213.36	14.4972
1216.74	41.4631
1220.11	40.7007
1223.49	29.613
1226.86	15.236
1230.24	1.7334
1233.61	7.74579
1236.99	5.12555
1240.36	1.31995
1243.74	15.2683
1247.11	31.2311
1250.49	39.9214
1253.86	47.4855
1257.24	60.0151
1260.61	66.0925
1263.98	54.7024
1267.36	36.0595
1270.73	31.391
1274.11	26.9245
1277.48	25.8317
1280.86	16.2543
1284.23	13.1327
1287.61	6.00961
1290.98	2.41266
