Measurement: Raman, 532 nm, unoriented, Raman Data Processed
Mineral: Anglesite
Rruff sample: R050408
Ideal chemistry: PbSO_4_
Locality: Tsumeb mine, Tsumeb, Otavi District, Oshikoto, Namibia
Source: California Institute of Technology
Description: Pale yellow fragment
Measured chemistry: Pb_1.00_S_1.00_O_4_
Raman shift (cm-1)	intensity
119.834	0
123.209	282.785
126.584	581.834
129.959	837.854
133.333	1200.32
136.708	1198.26
140.083	784.768
143.458	267.76
146.833	13.3799
150.208	15.1835
153.582	24.0905
156.957	25.7399
160.332	24.9439
163.707	106.561
167.082	132.97
170.456	128.8
173.831	175.827
177.206	210.643
180.581	274.366
183.956	285.325
187.331	256.094
190.705	172.854
194.08	101.706
197.455	33.7973
200.83	4.14313
204.205	15.8438
207.579	18.8303
210.954	15.8961
214.329	4.18951
217.704	14.6916
221.079	25.4493
224.453	38.4886
227.828	54.7766
231.203	49.2707
234.578	73.202
237.953	85.4597
241.328	101.54
244.702	111.81
248.077	124.952
251.452	136.681
254.827	148.294
258.202	153.285
261.577	149.998
264.951	140.85
268.326	128.092
271.701	118.712
275.076	112.652
278.451	103.735
281.825	96.2377
285.2	90.1539
288.575	84.7211
291.95	84.8602
295.325	74.5915
298.7	76.5089
302.074	65.2467
305.449	63.8913
308.824	57.6271
312.199	48.9744
315.574	51.99
318.948	52.2208
322.323	48.4416
325.698	35.2178
329.073	30.0301
332.448	27.3417
335.822	28.0441
339.197	20.1701
342.572	22.325
345.947	15.9072
349.322	11.3442
352.697	5.64545
356.071	7.55273
359.446	2.51053
362.821	4.84833
366.196	5.13596
369.571	1.6723
372.945	5.80945
376.32	7.76903
379.695	7.53899
383.07	1.5099
386.445	16.1633
389.82	29.3461
393.194	47.673
396.569	75.4692
399.944	100.506
403.319	142.291
406.694	181.738
410.068	238.357
413.443	337.422
416.818	530.875
420.193	1009.03
423.568	2054.13
426.942	3087.34
430.317	4604.02
433.692	7531.43
437.067	12228.9
440.442	12389.1
443.817	7523.82
447.191	7984.56
450.566	8829.53
453.941	4622.69
457.316	2011.14
460.691	1199.42
464.065	853.977
467.44	609.017
470.815	435.616
474.19	336.536
477.565	264.464
480.94	212.332
484.314	157.491
487.689	116.348
491.064	81.9868
494.439	59.5693
497.814	41.6829
501.188	30.7008
504.563	15.9322
507.938	13.7828
511.313	5.58815
514.688	1.4884
518.063	2.27919
521.437	4.82123
524.812	1.31482
528.187	1.44217
531.562	9.44832
534.937	4.4759
538.312	5.11353
541.686	0.660469
545.061	1.01408
548.436	1.62267
551.811	5.86792
555.186	8.87857
558.56	14.9198
561.935	16.7104
565.31	22.4899
568.685	32.3359
572.06	33.2581
575.434	50.8758
578.809	62.1407
582.184	77.5568
585.559	102.32
588.934	161.151
592.308	269.544
595.683	417.098
599.058	627.218
602.433	948.842
605.808	1186.13
609.183	890.537
612.557	510.082
615.932	313.461
619.307	253.029
622.682	154.208
626.057	152.754
629.432	219.403
632.806	287.276
636.181	396.851
639.556	557.937
642.931	566.04
646.306	228.466
649.68	84.3691
653.055	40.6486
656.43	22.1096
659.805	24.2257
663.18	21.1308
666.554	22.2493
669.929	22.4418
673.304	15.541
676.679	10.8419
680.054	8.2242
683.429	1.13334
686.803	0.800102
690.178	1.18189
693.553	4.41812
696.928	2.3354
700.303	1.83675
703.678	5.03344
707.052	2.39161
710.427	0.120445
713.802	2.28366
717.177	6.79713
720.552	0.357712
723.926	5.17523
727.301	4.53735
730.676	4.53828
734.051	9.38256
737.426	12.6288
740.801	9.6586
744.175	11.4419
747.55	8.49332
750.925	8.5042
754.3	10.4303
757.675	12.0721
761.049	10.2201
764.424	10.6341
767.799	8.40765
771.174	14.1766
774.549	17.9338
777.923	16.8806
781.298	13.8793
784.673	21.0535
788.048	20.7049
791.423	16.6349
794.798	20.6854
798.172	20.9093
801.547	20.4486
804.922	18.0889
808.297	14.4762
811.672	14.8642
815.046	12.02
818.421	13.905
821.796	14.0255
825.171	10.062
828.546	10.0698
831.92	9.48953
835.295	7.69825
838.67	6.49787
842.045	1.22122
845.42	4.99265
848.795	6.73775
852.169	13.7936
855.544	23.6992
858.919	34.9563
862.294	46.7579
865.669	60.2411
869.043	68.4848
872.418	65.4317
875.793	59.3324
879.168	47.0626
882.543	45.4094
885.918	44.4028
889.292	42.9284
892.667	26.5195
896.042	23.7246
899.417	18.5684
902.792	19.041
906.167	9.5766
909.541	0.782959
912.916	3.89581
916.291	7.38525
919.666	9.39951
923.041	11.0132
926.415	14.8035
929.79	5.61652
933.165	6.79248
936.54	24.9128
939.915	65.0277
943.289	134.721
946.664	262.771
950.039	438.525
953.414	699.827
956.789	1217.38
960.164	2240.09
963.538	4459.04
966.913	9034.59
970.288	15523.9
973.663	25417.3
977.038	37676.9
980.413	29786.7
983.787	13177.2
987.162	6337.72
990.537	3586.1
993.912	2226.25
997.287	1497.29
1000.66	1027.91
1004.04	704.364
1007.41	479.683
1010.79	312.69
1014.16	188.647
1017.53	91.2968
1020.91	49.2634
1024.29	1.63007
1027.66	10.1353
1031.04	11.4273
1034.41	41.4428
1037.78	113.498
1041.16	206.001
1044.53	359.303
1047.91	561.829
1051.28	804.158
1054.66	1057.13
1058.03	1196.37
1061.41	1169.36
1064.78	994.748
1068.16	770.534
1071.53	581.31
1074.91	413.604
1078.28	313.078
1081.66	245.711
1085.03	175.48
1088.41	124.545
1091.78	80.2142
1095.16	39.7902
1098.53	23.2734
1101.91	3.29437
1105.28	9.2309
1108.66	17.207
1112.03	12.109
1115.4	1.89887
1118.78	1.08362
1122.15	20.5565
1125.53	54.0757
1128.9	83.743
1132.28	146.87
1135.65	243.95
1139.03	344.31
1142.4	506.829
1145.78	738.96
1149.15	988.771
1152.53	1244.09
1155.9	1393.47
1159.28	1322.14
1162.65	1096.27
1166.03	810.881
1169.4	583.158
1172.78	425.406
1176.15	313.332
1179.53	248.125
1182.9	187.423
1186.28	161.657
1189.65	118.155
1193.03	88.153
1196.4	59.0886
1199.78	42.517
1203.15	23.5581
1206.53	17.0664
1209.9	11.3477
1213.28	16.3772
1216.65	25.4162
1220.02	22.9811
1223.4	17.4103
1226.77	5.87109
1230.15	6.17947
1233.52	3.29662
1236.9	3.89575
1240.27	3.46715
1243.65	18.807
1247.02	22.9934
1250.4	31.0771
1253.77	39.0825
1257.15	43.4008
1260.52	37.9111
1263.9	26.8887
1267.27	23.8179
1270.65	13.3853
1274.02	8.71956
1277.4	3.62959
1280.77	0.978836
1284.15	0
