Measurement: Raman, 514 nm, unoriented, Raman Data Processed
Mineral: Anglesite
Rruff sample: R040004
Ideal chemistry: PbSO_4_
Locality: Erupcion mine, Los Lamentos, Chihuahua, Mexico
Source: University of Arizona Mineral Museum
Description: Tan colored tabular crystal
Measured chemistry: Pb_1.00_S_1.00_O_4_
Raman shift (cm-1)	intensity
61.262	0
65.458	2.497
69.651	27.052
73.842	111.752
78.031	260.247
82.218	455.623
86.404	654.177
90.587	1013.13
94.768	1255.45
98.947	1220.52
103.124	1068.83
107.3	992.78
111.473	1044.93
115.644	1161.05
119.813	1388.14
123.981	1763.33
128.146	2292.45
132.309	2698.49
136.47	2579.47
140.63	2156.68
144.787	1763.93
148.942	1586.95
153.096	1370.83
157.247	1114.73
161.396	859.708
165.544	672.903
169.689	575.137
173.833	518.736
177.974	500.269
182.114	463.169
186.251	420.197
190.387	365.392
194.52	315.128
198.652	292.905
202.782	278.655
206.909	243.402
211.035	200.164
215.159	181.619
219.281	154.991
223.4	138.196
227.518	109.178
231.634	79.849
235.748	53.62
239.86	52.479
243.97	60.731
248.079	46.87
252.185	20.147
256.289	8.706
260.391	46.49
264.492	13.457
268.59	28.57
272.687	18.803
276.781	26.135
280.874	8.55
284.964	5.971
289.053	15.454
293.14	25.911
297.225	4.369
301.308	0.177
305.389	19.286
309.468	2.253
313.545	3.263
317.62	13.762
321.693	20.286
325.765	7.166
329.834	2.391
333.902	29.966
337.967	9.605
342.031	4.68
346.093	24.932
350.153	5.987
354.21	16.016
358.267	3.974
362.321	12.863
366.373	10.656
370.423	36.342
374.471	46.103
378.518	49.091
382.563	51.741
386.605	63.964
390.646	66.114
394.685	84.852
398.722	137.59
402.757	146.35
406.79	186.124
410.821	216.908
414.851	275.704
418.878	349.498
422.904	466.281
426.927	709.051
430.949	1631.74
434.969	3969.49
438.987	5211.2
443.003	4785.86
447.018	6651.04
451.03	6738.17
455.041	3223.13
459.049	1410.03
463.056	853.367
467.061	577.482
471.064	428.728
475.065	347.777
479.064	257.912
483.062	235.12
487.057	150.513
491.051	140.233
495.043	131.101
499.032	96.025
503.02	97.298
507.007	64.704
510.991	70.925
514.973	29.467
518.954	54.49
522.933	43.816
526.91	29.489
530.885	16.757
534.858	34.367
538.829	22.009
542.799	0.057
546.766	3.649
550.732	61.387
554.696	41.997
558.658	72.371
562.618	66.669
566.576	41.649
570.533	61.689
574.488	55.619
578.44	53.85
582.391	76.051
586.341	110.378
590.288	134.838
594.233	257.513
598.177	658.325
602.119	1502.97
606.059	1833.1
609.997	1110.18
613.933	973.331
617.868	1148.61
621.801	637.159
625.731	244.947
629.66	156.734
633.588	142.502
637.513	184.372
641.437	236.707
645.358	169.69
649.278	78.821
653.196	84.005
657.113	73.944
661.027	73.041
664.94	69.675
668.851	64.871
672.76	47.079
676.667	73.287
680.572	31.215
684.476	75.655
688.378	56.645
692.278	48.602
696.176	35.743
700.072	56.798
703.967	54.735
707.86	47.251
711.751	45.656
715.64	42.999
719.527	26.237
723.413	50.36
727.297	24.364
731.179	33.24
735.059	44.003
738.937	33.664
742.814	21.216
746.689	17.654
750.562	39.979
754.433	14.199
758.303	26.308
762.17	3.31
766.036	40.182
769.901	1.945
773.763	6.591
777.624	18.12
781.482	16.531
785.339	1.833
789.195	18.994
793.048	5.984
796.9	9.086
800.75	12.905
804.598	7.252
808.445	15.243
812.289	6.861
816.132	1.588
819.973	1.404
823.813	26.396
827.65	33.632
831.486	0.899
835.32	34.488
839.152	18.928
842.983	2.467
846.812	15.376
850.639	10.501
854.464	14.509
858.288	28.311
862.11	14.96
865.93	36.738
869.748	57.675
873.564	56.32
877.379	48.994
881.192	18.672
885.004	59.086
888.813	5.093
892.621	44.775
896.427	69.156
900.232	83.548
904.034	102.234
907.835	122.766
911.634	97.319
915.432	138.224
919.227	111.861
923.021	174.597
926.813	183.044
930.604	215.085
934.393	199.088
938.18	226.559
941.965	307.215
945.749	458.174
949.53	646.561
953.311	878.284
957.089	1301.28
960.866	2052.78
964.641	3456.43
968.414	6785.74
972.185	16092.2
975.955	38441.8
979.723	41320.4
983.49	18746.2
987.254	8355.83
991.017	4470.66
994.779	2704.62
998.538	1934.53
1002.3	1483.62
1006.05	1174.36
1009.81	910.915
1013.56	777.573
1017.31	694.246
1021.06	643.772
1024.81	557.507
1028.55	534.415
1032.3	515.522
1036.04	494.86
1039.78	471.395
1043.52	448.138
1047.26	538.064
1050.99	618.175
1054.73	731.465
1058.46	806.237
1062.19	861.566
1065.92	779.378
1069.65	648.368
1073.37	505.543
1077.1	412.887
1080.82	399.411
1084.54	325.114
1088.26	335.012
1091.97	319.883
1095.69	354.16
1099.4	369.61
1103.12	359.264
1106.83	437.104
1110.54	478.109
1114.24	548.295
1117.95	603.649
1121.65	696.236
1125.35	768.927
1129.06	843.788
1132.75	934.817
1136.45	973.064
1140.15	1047.12
1143.84	977.143
1147.53	890.394
1151.22	885.26
1154.91	832.927
1158.6	725.372
1162.28	592.905
1165.97	439.721
1169.65	337.877
1173.33	260.517
1177.01	189.102
1180.69	163.905
1184.36	152.647
1188.04	101.339
1191.71	114.154
1195.38	117.877
1199.05	112.031
1202.71	85.832
1206.38	79.996
1210.04	70.528
1213.71	75.263
1217.37	67.231
1221.03	92.893
1224.68	82.149
1228.34	36.764
1231.99	36.151
1235.65	26.715
1239.3	17.293
1242.95	50.96
1246.59	21.472
1250.24	44.076
1253.88	27.91
1257.53	29.738
1261.17	36.39
1264.81	37.002
1268.45	23.663
1272.08	4.163
1275.72	1.619
1279.35	22.765
1282.98	12.817
1286.61	4.696
1290.24	5.558
1293.87	3.083
1297.49	23.358
1301.11	24.913
1304.73	19.602
1308.36	14.364
1311.97	25.369
1315.59	3.33
1319.2	1.374
1322.82	7.947
1326.43	1.639
1330.04	36.602
1333.65	24.69
1337.26	64.641
1340.86	7.518
1344.47	19.203
1348.07	27.811
1351.67	51.305
1355.27	13.698
1358.87	55.012
1362.46	17.202
1366.06	54.292
1369.65	25.438
1373.24	27.401
1376.83	46.27
1380.42	33.345
1384	52.926
1387.59	50.785
1391.17	57.558
1394.75	60.227
1398.33	49.774
1401.91	62.176
1405.49	78.477
1409.06	75.543
1412.64	90.538
1416.21	119.451
1419.78	82.792
1423.35	64.431
1426.91	74.053
1430.48	62.713
1434.05	60.68
1437.61	61.197
1441.17	81.333
1444.73	53.394
1448.29	28.881
1451.84	65.361
1455.4	56.4
1458.95	74.709
1462.5	83.048
1466.05	75.659
1469.6	35.695
1473.15	44.006
1476.69	30.293
1480.24	52.288
1483.78	82.241
1487.32	31.708
1490.86	37.54
1494.39	62.375
1497.93	41.397
1501.46	42.84
1505	51.449
1508.53	31.392
1512.06	17.664
1515.59	28.979
1519.11	1.032
1522.64	8.382
