Measurement: Raman, 514 nm, unoriented, Raman Data Processed
Mineral: Anglesite
Rruff sample: R050408
Ideal chemistry: PbSO_4_
Locality: Tsumeb mine, Tsumeb, Otavi District, Oshikoto, Namibia
Source: California Institute of Technology
Description: Pale yellow fragment
Measured chemistry: Pb_1.00_S_1.00_O_4_
Raman shift (cm-1)	intensity
54.266	0
58.464	1.872
62.661	13.085
66.856	9.551
71.048	81.804
75.239	261.696
79.427	554.682
83.614	820.172
87.798	1020.1
91.981	1362.76
96.161	1656.77
100.34	1575.72
104.516	1308.15
108.691	1175.81
112.864	1189.5
117.034	1356.1
121.203	1631.55
125.369	2133.8
129.534	2531.95
133.696	2758.1
137.857	2534.04
142.016	2074.06
146.172	1650.05
150.327	1480.16
154.48	1340.46
158.63	1147.01
162.779	1003.81
166.926	967.864
171.07	944.182
175.213	994.752
179.354	1035.57
183.493	1088.27
187.63	1052.56
191.765	953.211
195.898	766.101
200.029	659.092
204.158	538.81
208.285	454.519
212.41	431.285
216.533	369.563
220.654	348.106
224.773	307.684
228.891	273.138
233.006	244.905
237.119	178.959
241.231	176.577
245.34	186.659
249.448	148.871
253.553	120.983
257.657	98.946
261.758	97.482
265.858	69.087
269.956	91.896
274.052	63.89
278.146	55.054
282.237	55.375
286.327	34.84
290.416	23.438
294.502	47.157
298.586	15.983
302.668	10.69
306.749	26.915
310.827	33.016
314.903	5.201
318.978	12.474
323.051	20.169
327.121	14.256
331.19	9.731
335.257	5.969
339.322	10.005
343.385	6.84
347.446	0.567
351.505	21.448
355.563	11.33
359.618	29.673
363.672	21.296
367.723	4.994
371.773	10.076
375.821	5.227
379.866	4.473
383.91	16.591
387.952	46.526
391.992	34.821
396.031	29.764
400.067	34.335
404.101	82.806
408.134	60.87
412.165	136.159
416.193	165.449
420.22	206.78
424.245	236.152
428.268	464.559
432.289	1023.99
436.309	2910.45
440.326	3818.95
444.342	1783.5
448.355	2220.06
452.367	2029.64
456.377	818.273
460.385	425.939
464.391	249.495
468.395	195.332
472.398	184.537
476.398	134.246
480.397	133.928
484.394	133.963
488.389	60.374
492.382	94.1
496.373	61.633
500.362	1.745
504.349	51.217
508.335	35.778
512.319	19.561
516.3	24.922
520.28	23.047
524.259	18.121
528.235	29.319
532.209	26.219
536.182	48.635
540.152	13.811
544.121	27.32
548.088	16.735
552.053	29.117
556.017	31.026
559.978	37.847
563.938	26.034
567.895	77.469
571.851	77.314
575.805	76.479
579.758	72.174
583.708	107.715
587.657	150.765
591.603	198.596
595.548	352.241
599.491	841.824
603.432	2104.26
607.372	2545.38
611.309	1334.21
615.245	1000.6
619.179	1304.9
623.111	584.827
627.041	337.574
630.97	257.518
634.896	392.032
638.821	850.185
642.744	1294.39
646.665	658.513
650.584	299.787
654.502	150.115
658.418	106.372
662.331	140.032
666.244	128.126
670.154	109.653
674.062	102.34
677.969	89.865
681.874	78.722
685.777	111.813
689.678	98.235
693.577	74.945
697.475	79.533
701.371	81.06
705.265	94.117
709.157	89.204
713.047	38.212
716.936	95.879
720.823	95.195
724.708	93.167
728.591	79.632
732.472	53.272
736.352	58.222
740.23	62.29
744.106	72.212
747.98	29.999
751.853	3.636
755.723	55.073
759.592	66.342
763.459	9.473
767.325	11.422
771.188	28.167
775.05	30.736
778.91	9.849
782.768	35.372
786.625	24.477
790.479	26.457
794.332	0.689
798.183	12.989
802.033	16.442
805.88	29.927
809.726	17.852
813.57	26.787
817.413	3.893
821.253	43.154
825.092	29.691
828.929	18.205
832.764	0.605
836.598	5.662
840.429	10.805
844.259	3.942
848.088	21.28
851.914	20.862
855.739	32.371
859.562	52.922
863.383	34.494
867.203	43.652
871.02	65.347
874.836	40.826
878.65	47.974
882.463	38.616
886.274	51.635
890.083	29.388
893.89	86.203
897.695	60.444
901.499	63.206
905.301	72.631
909.102	104.672
912.9	78.292
916.697	162.054
920.492	130.304
924.285	207.42
928.077	193.059
931.867	199.212
935.655	249.075
939.442	346.78
943.226	448.042
947.009	592.701
950.791	851.488
954.57	1069.91
958.348	1616.97
962.124	2597.71
965.899	4343.45
969.671	8481.98
973.442	20503.2
977.211	51540.9
980.979	49784.4
984.745	21072.7
988.509	9376.82
992.271	5134.04
996.032	3303.32
999.791	2384.6
1003.55	1709.76
1007.3	1396.13
1011.06	1084.85
1014.81	858.822
1018.56	752.118
1022.31	569.725
1026.06	566.588
1029.8	458.697
1033.55	336.043
1037.29	312.668
1041.03	297.582
1044.77	316.719
1048.5	286.052
1052.24	332.593
1055.97	326.344
1059.7	416.326
1063.43	319.502
1067.16	254.873
1070.89	282.46
1074.61	259.271
1078.34	270.286
1082.06	278.513
1085.78	406.947
1089.5	370.562
1093.21	377.365
1096.93	382.5
1100.64	434.749
1104.35	558.148
1108.06	507.76
1111.77	568.571
1115.48	632.589
1119.18	734.808
1122.89	828.246
1126.59	971.924
1130.29	1029.8
1133.99	1296.86
1137.68	1451.12
1141.38	1683.37
1145.07	1861.96
1148.76	2289.12
1152.45	2786.8
1156.14	3270.77
1159.83	3251.38
1163.51	2903.34
1167.19	2179.29
1170.88	1611.62
1174.56	1246.73
1178.23	940.583
1181.91	777.881
1185.59	584.359
1189.26	512.588
1192.93	447.159
1196.6	338.298
1200.27	286.863
1203.94	260.057
1207.6	183.828
1211.27	215.879
1214.93	211.089
1218.59	183.298
1222.25	193.031
1225.9	168.236
1229.56	92.043
1233.21	146.355
1236.86	17.597
1240.51	11.352
1244.16	30.426
1247.81	90.711
1251.45	70.09
1255.1	34.171
1258.74	10.369
1262.38	43.534
1266.02	80.701
1269.66	21.833
1273.29	50.787
1276.93	26.5
1280.56	59.865
1284.19	51.778
1287.82	3.115
1291.45	35.5
1295.07	8.072
1298.7	45.786
1302.32	72.649
1305.94	14.706
1309.56	56.034
1313.18	29.522
1316.8	28.683
1320.41	40.316
1324.02	9.527
1327.63	28.316
1331.24	12.681
1334.85	11.349
1338.46	58.724
1342.06	94.437
1345.67	10.001
1349.27	17.415
1352.87	100.682
1356.47	59.816
1360.07	68.825
1363.66	35.626
1367.25	83.275
1370.85	67.904
1374.44	117.434
1378.03	110.603
1381.61	104.508
1385.2	57.094
1388.78	57.03
1392.37	61.487
1395.95	156.801
1399.53	90.959
1403.1	129.954
1406.68	170.799
1410.26	170.06
1413.83	200.832
1417.4	181.791
1420.97	199.482
1424.54	157.647
1428.1	134.053
1431.67	74.771
1435.23	143.323
1438.8	132.003
1442.36	75.888
1445.91	127.177
1449.47	159.221
1453.03	129.437
1456.58	200.645
1460.13	165.629
1463.68	113.984
1467.23	122.557
1470.78	104.059
1474.33	68.707
1477.87	3.105
1481.42	53.52
1484.96	73.58
1488.5	145.437
1492.04	77.197
1495.57	131.023
1499.11	31.248
1502.64	72.387
1506.17	21.944
1509.71	72.782
1513.23	64.395
1516.76	85.573
1520.29	57.804
1523.81	70.343
1527.34	0
