Measurement: Raman, 532 nm, unoriented, Raman Data Processed
Mineral: Anglesite
Rruff sample: R050052
Ideal chemistry: PbSO_4_
Locality: Touissite, Oujela, Morocco
Source: Eugene Schlepp
Description: Yellow prismatic single crystal
Measured chemistry: Pb_1.00_S_1.00_O_4_
Raman shift (cm-1)	intensity
123.145	0
126.52	11.8551
129.895	113.982
133.27	229.104
136.645	357.335
140.019	341.468
143.394	276.86
146.769	233.131
150.144	263.036
153.519	281.574
156.894	228.342
160.268	149.304
163.643	117.903
167.018	102.82
170.393	91.378
173.768	95.5963
177.143	77.8813
180.517	94.185
183.892	90.0446
187.267	76.0236
190.642	61.111
194.017	49.7413
197.391	25.3809
200.766	18.4217
204.141	11.4246
207.516	8.6257
210.891	12.085
214.266	11.4367
217.64	12.6314
221.015	4.39584
224.39	1.38448
227.765	3.86922
231.14	8.54117
234.514	2.43726
237.889	1.37592
241.264	5.46311
244.639	2.95425
248.014	3.00557
251.388	4.60197
254.763	1.31284
258.138	1.94032
261.513	1.49632
264.888	14.7471
268.263	11.9004
271.637	10.3175
275.012	16.7581
278.387	19.5887
281.762	16.4149
285.137	18.7901
288.512	20.0957
291.886	13.0952
295.261	20.0663
298.636	16.2033
302.011	16.3215
305.386	11.209
308.76	7.41164
312.135	9.41622
315.51	10.4533
318.885	10.5264
322.26	15.4527
325.635	7.66607
329.009	8.26842
332.384	12.6645
335.759	8.54378
339.134	12.5597
342.509	3.80956
345.883	5.28363
349.258	9.85761
352.633	7.1468
356.008	8.26048
359.383	0.379791
362.757	1.65433
366.132	1.60256
369.507	0.316986
372.882	3.78497
376.257	4.31008
379.632	2.02831
383.006	0.985718
386.381	2.13262
389.756	9.06834
393.131	7.59302
396.506	19.5395
399.88	33.5719
403.255	37.5923
406.63	49.8643
410.005	66.9046
413.38	88.3687
416.755	104.069
420.129	139.276
423.504	228.352
426.879	372.57
430.254	626.851
433.629	1146.81
437.003	2102.62
440.378	2646.51
443.753	3341.53
447.128	5330.49
450.503	6389.44
453.878	2784.7
457.252	1198.27
460.627	737.87
464.002	515.666
467.377	353.211
470.752	233.837
474.127	173.502
477.501	136.525
480.876	104.04
484.251	64.8626
487.626	64.152
491.001	44.5957
494.375	29.7765
497.75	27.0167
501.125	23.7794
504.5	12.2974
507.875	12.4819
511.25	15.1314
514.624	5.49165
517.999	2.04094
521.374	1.54991
524.749	1.5674
528.124	4.0654
531.498	3.14712
534.873	6.38373
538.248	2.45258
541.623	0.536507
544.998	5.69967
548.372	3.37714
551.747	7.87837
555.122	2.28371
558.497	7.05212
561.872	13.4109
565.247	9.47974
568.621	9.30921
571.996	19.0712
575.371	29.7972
578.746	20.4342
582.121	32.3066
585.495	39.7227
588.87	66.6292
592.245	107.567
595.62	167.933
598.995	274.296
602.37	499.141
605.744	555.025
609.119	358.639
612.494	193.307
615.869	154.799
619.244	142.468
622.619	55.8008
625.993	30.6137
629.368	32.0911
632.743	45.2756
636.118	76.0941
639.493	116.845
642.867	102.693
646.242	37.2579
649.617	11.0227
652.992	4.27713
656.367	0.452377
659.741	9.34492
663.116	4.77187
666.491	6.54455
669.866	1.00304
673.241	1.02736
676.616	1.12175
679.99	6.98891
683.365	6.6339
686.74	0.343658
690.115	1.82624
693.49	3.63339
696.865	1.53652
700.239	6.1545
703.614	0.955585
706.989	10.3326
710.364	6.54864
713.739	1.03573
717.113	8.28776
720.488	4.37652
723.863	9.5384
727.238	5.89945
730.613	1.17005
733.987	5.07494
737.362	0.600494
740.737	4.34358
744.112	5.77512
747.487	11.6312
750.862	11.2911
754.236	8.26758
757.611	12.0864
760.986	6.57268
764.361	9.71941
767.736	7.93273
771.111	11.3644
774.485	11.4601
777.86	8.33712
781.235	8.66378
784.61	12.7908
787.985	10.9539
791.359	6.81177
794.734	15.0595
798.109	17.1404
801.484	14.8929
804.859	7.30882
808.234	7.03852
811.608	3.37483
814.983	6.92313
818.358	11.6301
821.733	1.8036
825.108	7.37595
828.482	5.72458
831.857	7.95773
835.232	3.3045
838.607	2.78068
841.982	7.3265
845.356	2.7475
848.731	15.1535
852.106	10.0769
855.481	15.6694
858.856	3.83872
862.231	9.53696
865.605	13.3789
868.98	14.483
872.355	13.3891
875.73	19.243
879.105	12.2648
882.48	5.45125
885.854	2.93723
889.229	0.743912
892.604	3.01493
895.979	0.139572
899.354	1.63571
902.729	4.91449
906.103	7.52293
909.478	1.2749
912.853	3.58211
916.228	6.03284
919.602	1.6425
922.977	3.86299
926.352	8.8867
929.727	4.26485
933.102	10.648
936.477	18.4406
939.851	42.7025
943.226	68.665
946.601	103.411
949.976	159.71
953.351	248.331
956.726	394.104
960.1	670.042
963.475	1248.51
966.85	2545.87
970.225	5070.04
973.6	8962.99
976.974	12557.8
980.349	8176.97
983.724	3589.8
987.099	1758.1
990.474	1060.13
993.848	672.303
997.223	467.976
1000.6	360.017
1003.97	248.598
1007.35	195.767
1010.72	154.186
1014.1	120.806
1017.47	100.449
1020.85	75.6595
1024.22	60.0438
1027.6	56.4603
1030.97	53.8203
1034.35	30.8645
1037.72	11.6301
1041.1	9.16623
1044.47	3.74847
1047.85	10.2472
1051.22	4.20483
1054.6	0.906372
1057.97	1.336
1061.35	4.74439
1064.72	4.98248
1068.09	8.57605
1071.47	1.21793
1074.84	5.74582
1078.22	5.08887
1081.59	9.48029
1084.97	11.0772
1088.34	7.98715
1091.72	16.0351
1095.09	25.5587
1098.47	24.9445
1101.84	45.9972
1105.22	44.0033
1108.59	51.6787
1111.97	67.9461
1115.34	79.52
1118.72	112.638
1122.09	114.141
1125.47	131.55
1128.84	146.361
1132.22	188.971
1135.59	194.235
1138.97	241.952
1142.34	256.122
1145.71	263.214
1149.09	289.712
1152.46	319.164
1155.84	324.997
1159.21	288.193
1162.59	214.542
1165.96	153.867
1169.34	114.04
1172.71	76.6145
1176.09	54.3339
1179.46	44.2432
1182.84	35.4787
1186.21	33.6158
1189.59	32.9867
1192.96	17.8285
1196.34	16.1102
1199.71	4.81181
1203.09	9.48782
1206.46	2.69167
1209.84	5.42812
1213.21	7.50371
1216.59	12.7858
1219.96	12.4126
1223.34	7.41493
1226.71	8.06339
1230.09	6.75417
1233.46	2.48267
1236.84	1.77632
1240.21	1.44798
1243.59	7.45082
1246.96	2.72169
1250.34	2.20525
1253.71	13.9501
1257.08	4.12976
1260.46	11.9468
1263.83	10.279
1267.21	10.6489
1270.58	8.93334
1273.96	17.334
1277.33	8.45376
1280.71	8.38913
1284.08	1.83366
1287.46	1.54955
1290.83	3.08951
1294.21	6.72511
1297.58	3.75674
1300.96	7.54634
1304.33	0.551514
1307.71	1.01439
