Measurement: Raman, 514 nm, unoriented, Raman Data Processed
Mineral: Anglesite
Rruff sample: R050052
Ideal chemistry: PbSO_4_
Locality: Touissite, Oujela, Morocco
Source: Eugene Schlepp
Description: Yellow prismatic single crystal
Measured chemistry: Pb_1.00_S_1.00_O_4_
Raman shift (cm-1)	intensity
72.445	0
76.635	57.182
80.823	245.664
85.009	575.247
89.193	1199.03
93.375	2438.75
97.554	2556.74
101.732	1584.37
105.908	967.86
110.082	784.888
114.254	735.534
118.424	881.584
122.592	1095.13
126.758	1662.84
130.922	2292.6
135.083	2498.76
139.243	2251.22
143.401	2051.86
147.557	2191.4
151.711	2358.85
155.863	1678.62
160.013	982.75
164.161	686.226
168.308	460.668
172.452	422.925
176.594	350.497
180.734	309.567
184.872	313.064
189.008	245.049
193.143	242.271
197.275	251.225
201.405	313.661
205.534	269.668
209.66	219.41
213.784	195.242
217.907	142.92
222.027	119.111
226.146	94.051
230.263	94.968
234.377	1.082
238.49	20.275
242.601	17.237
246.709	33.593
250.816	6.021
254.921	25.353
259.024	7.162
263.125	38.749
267.224	35.312
271.321	14.685
275.416	55.946
279.51	11.18
283.601	7.407
287.69	38.697
291.778	19.831
295.863	1.162
299.947	43.741
304.029	25.937
308.108	22.417
312.186	5.174
316.262	2.786
320.336	30.47
324.408	7.916
328.478	15.937
332.546	38.84
336.612	50.196
340.677	47.214
344.739	69.961
348.799	54.238
352.858	43.358
356.915	34.812
360.969	36.923
365.022	67.705
369.073	121.12
373.122	126.326
377.169	34.721
381.215	53.281
385.258	144.244
389.299	121.938
393.339	181.182
397.376	150.409
401.412	156.978
405.446	202.046
409.478	233.814
413.508	270.425
417.536	307.242
421.562	386.471
425.586	555.54
429.609	1035.78
433.629	3046.97
437.648	6821.21
441.665	2997.78
445.68	2526.67
449.693	2871.26
453.704	1309.27
457.713	684.495
461.721	483.494
465.726	416.224
469.73	310.616
473.731	320.181
477.731	260.767
481.729	223.11
485.725	178.113
489.72	162.428
493.712	167.674
497.703	132.372
501.691	94.222
505.678	131.402
509.663	63.993
513.646	102.461
517.627	133.37
521.607	109.282
525.584	92.856
529.56	115.866
533.534	45.015
537.506	105.331
541.476	53.133
545.444	58.811
549.41	79.853
553.375	78.351
557.337	95.127
561.298	138.141
565.257	104.665
569.214	149.986
573.17	112.862
577.123	163.073
581.075	177.252
585.024	244.144
588.972	272.979
592.918	290.507
596.863	581.621
600.805	1324.31
604.746	2086.8
608.685	852.299
612.621	373.68
616.557	262.107
620.49	137.544
624.421	43.413
628.351	64.162
632.279	121.099
636.205	100.198
640.129	103.427
644.051	94.937
647.972	89.201
651.89	58.828
655.807	45.688
659.722	101.758
663.636	101.251
667.547	86.641
671.457	65.626
675.365	101.724
679.271	83.477
683.175	109.236
687.077	45.678
690.978	54.495
694.877	75.249
698.774	16.309
702.669	61.858
706.562	100.481
710.454	86.135
714.344	28.594
718.232	66.035
722.118	45.234
726.002	31.439
729.885	37.59
733.766	0.364
737.645	46.558
741.522	77.391
745.397	17.136
749.271	66.77
753.143	34.286
757.013	73.711
760.881	80.055
764.748	58.317
768.613	26.497
772.476	24.598
776.337	80.619
780.196	29.4
784.054	12.992
787.91	18.275
791.764	21.045
795.616	5.512
799.467	15.826
803.316	35.933
807.163	20.082
811.008	44.063
814.851	20.345
818.693	11.659
822.533	5.147
826.371	5.785
830.208	30.52
834.042	5.531
837.875	41.213
841.706	78.088
845.536	15.444
849.363	0.513
853.189	3.645
857.013	74.211
860.836	97.508
864.656	129.943
868.475	114.753
872.292	102.932
876.108	78.044
879.922	94.194
883.733	123.896
887.544	108.02
891.352	134.251
895.159	125.671
898.964	174.608
902.767	161.613
906.568	136.467
910.368	145.926
914.166	154.4
917.962	174.836
921.757	264.301
925.55	241.825
929.341	347.465
933.13	321.516
936.918	348.721
940.703	471.242
944.488	590.823
948.27	838.955
952.051	1005.2
955.83	1456.55
959.607	2112.61
963.383	3395.99
967.156	6340.57
970.928	13919.8
974.699	37112.7
978.468	55602.9
982.234	25895.5
986	11110.6
989.763	5982.99
993.525	3671.78
997.285	2528.23
1001.04	1894.34
1004.8	1473.62
1008.55	1064.3
1012.31	785.979
1016.06	665.868
1019.81	492.959
1023.56	412.257
1027.31	355.708
1031.05	349.305
1034.79	312.065
1038.53	157.023
1042.27	102.142
1046.01	76.384
1049.75	221.76
1053.48	140.277
1057.22	111.751
1060.95	114.701
1064.68	135.577
1068.4	220.565
1072.13	187.682
1075.86	188.919
1079.58	174.266
1083.3	62.728
1087.02	170.306
1090.74	82.021
1094.45	60.893
1098.17	43.939
1101.88	90.029
1105.59	168.243
1109.3	161.567
1113.01	159.097
1116.71	250.754
1120.42	278.616
1124.12	439.491
1127.82	518.352
1131.52	626.706
1135.22	620.35
1138.91	769.495
1142.61	673.091
1146.3	656.261
1149.99	500.539
1153.68	391.322
1157.37	238.126
1161.06	217.96
1164.74	152.899
1168.42	65.055
1172.1	14.988
1175.78	131.826
1179.46	93.413
1183.14	146.368
1186.81	73.745
1190.48	95.336
1194.15	47.408
1197.83	145.313
1201.49	139.117
1205.16	98.254
1208.82	62.318
1212.49	78.443
1216.15	127.831
1219.81	121.818
1223.46	62.257
1227.12	78.428
1230.78	114.628
1234.43	125.555
1238.08	129.396
1241.73	61.979
1245.38	62.641
1249.03	36.199
1252.67	54.549
1256.31	18.996
1259.95	100.233
1263.6	26.359
1267.23	38.057
1270.87	69.752
1274.51	37.075
1278.14	32.783
1281.77	11.084
1285.4	28.68
1289.03	66.993
1292.66	30.836
1296.28	26.067
1299.91	23.399
1303.53	27.378
1307.15	67.184
1310.77	55.478
1314.38	10.223
1318	18.522
1321.61	19.048
1325.23	11.858
1328.84	48.597
1332.45	108.815
1336.06	34.092
1339.66	47.286
1343.27	107.343
1346.87	116.264
1350.47	127.017
1354.07	161.668
1357.67	218.251
1361.26	105.602
1364.86	94.764
1368.45	228.933
1372.04	222.78
1375.63	195.952
1379.22	147.615
1382.81	137.987
1386.39	176.365
1389.98	72.153
1393.56	41.742
1397.14	92.038
1400.72	74.35
1404.3	108.544
1407.87	75.708
1411.45	86.211
1415.02	138.484
1418.59	95.643
1422.16	191.604
1425.73	117.52
1429.29	181.016
1432.86	100.644
1436.42	185.569
1439.98	140.875
1443.54	85.666
1447.1	70.623
1450.66	28.859
1454.21	72.706
1457.77	93.47
1461.32	127.919
