Measurement: Raman, 780 nm, unoriented, Raman Data Processed
Mineral: Anglesite
Rruff sample: R050408
Ideal chemistry: PbSO_4_
Locality: Tsumeb mine, Tsumeb, Otavi District, Oshikoto, Namibia
Source: California Institute of Technology
Description: Pale yellow fragment
Measured chemistry: Pb_1.00_S_1.00_O_4_
Raman shift (cm-1)	intensity
117.594	0
120.968	43.9997
124.343	166.569
127.718	301.178
131.093	383.052
134.468	436.147
137.842	416.233
141.217	267.392
144.592	122.184
147.967	30.9523
151.342	3.15457
154.716	0.00058
158.091	4.58936
161.466	25.1471
164.841	55.3056
168.216	59.5252
171.591	47.7094
174.965	51.4177
178.34	75.5487
181.715	95.7689
185.09	110.318
188.465	108.794
191.839	89.4014
195.214	63.4117
198.589	39.1711
201.964	25.6074
205.339	18.4574
208.714	10.7321
212.088	5.32517
215.463	0.489708
218.838	2.75171
222.213	0.113831
225.588	1.53855
228.962	2.39344
232.337	3.86794
235.712	6.46446
239.087	8.86618
242.462	10.4343
245.837	13.5056
249.211	15.2759
252.586	17.6219
255.961	19.1373
259.336	20.0073
262.711	20.1888
266.085	20.8543
269.46	19.5392
272.835	19.1614
276.21	17.3404
279.585	16.4116
282.959	14.5203
286.334	13.242
289.709	12.3659
293.084	11.75
296.459	10.3437
299.834	9.61279
303.208	8.0047
306.583	7.57465
309.958	6.93052
313.333	6.72492
316.708	7.18565
320.082	7.56762
323.457	6.54976
326.832	5.62205
330.207	4.54404
333.582	3.91654
336.957	4.40715
340.331	2.4914
343.706	1.90174
347.081	1.22362
350.456	1.01746
353.831	0.135723
357.205	0.194702
360.58	0.878525
363.955	0.444519
367.33	0.629604
370.705	1.77586
374.079	1.06821
377.454	1.37806
380.829	0.678185
384.204	0.617043
387.579	1.12128
390.954	3.22689
394.328	8.38966
397.703	11.5679
401.078	16.5163
404.453	24.0983
407.828	31.4384
411.202	41.1463
414.577	56.3735
417.952	84.3169
421.327	138.389
424.702	212.959
428.077	322.92
431.451	553.143
434.826	1031.44
438.201	1823.69
441.576	1853.25
444.951	1534.3
448.325	2234.25
451.7	2558.92
455.075	1244.85
458.45	526.494
461.825	312.952
465.2	219.568
468.574	151.134
471.949	104.823
475.324	79.5902
478.699	61.6003
482.074	47.4165
485.449	34.2026
488.823	26.0227
492.198	18.2484
495.573	13.4387
498.948	8.34833
502.323	5.78824
505.697	3.93875
509.072	3.25765
512.447	2.29915
515.822	1.7471
519.197	0.346931
522.572	0.007893
525.946	0.306524
529.321	0.855293
532.696	1.53387
536.071	1.69332
539.446	1.11491
542.82	1.21377
546.195	0.370316
549.57	0.035831
552.945	1.75541
556.32	2.37473
559.694	3.18854
563.069	3.97739
566.444	4.79859
569.819	5.24793
573.194	6.6933
576.568	8.08468
579.943	8.87749
583.318	9.78882
586.693	11.7394
590.068	15.7987
593.443	23.0926
596.817	31.2967
600.192	48.431
603.567	80.24
606.942	121.431
610.317	138.048
613.692	90.3118
617.066	63.3197
620.441	53.3403
623.816	28.9233
627.191	26.4074
630.566	33.6354
633.94	51.9496
637.315	89.2609
640.69	154.421
644.065	157.723
647.44	63.005
650.814	23.1878
654.189	11.412
657.564	5.42197
660.939	3.88329
664.314	2.32242
667.688	3.32151
671.063	2.42405
674.438	1.99747
677.813	1.01528
681.188	0.047989
684.563	1.89421
687.937	0.240908
691.312	0.700912
694.687	0.852963
698.062	0.116365
701.437	0.250371
704.812	0.40814
708.186	0.029521
711.561	0.62466
714.936	0.120268
718.311	0.861309
721.686	0.317248
725.06	0.563093
728.435	0.815267
731.81	1.30825
735.185	1.2586
738.56	1.49937
741.934	0.80644
745.309	0.894231
748.684	1.30307
752.059	1.07544
755.434	1.0132
758.809	1.39624
762.183	1.34358
765.558	1.87363
768.933	2.00436
772.308	1.4844
775.683	1.40911
779.058	1.70622
782.432	2.12161
785.807	2.42821
789.182	1.75108
792.557	2.82503
795.932	2.5683
799.306	2.28554
802.681	2.34652
806.056	1.88379
809.431	1.81949
812.806	1.86704
816.181	0.782265
819.555	1.71415
822.93	0.738787
826.305	1.24454
829.68	0.566711
833.055	1.52551
836.429	0.474098
839.804	0.28227
843.179	0.721714
846.554	0.187605
849.929	1.13189
853.303	1.60444
856.678	3.92713
860.053	5.12101
863.428	5.90446
866.803	6.34201
870.178	6.82851
873.552	5.59345
876.927	6.23062
880.302	4.52362
883.677	3.75321
887.052	2.32318
890.427	2.85785
893.801	1.70621
897.176	1.00753
900.551	0.399334
903.926	0.016464
907.301	1.15838
910.675	0.687229
914.05	0.444801
917.425	0.681927
920.8	0.244549
924.175	0.881279
927.549	2.47871
930.924	2.41514
934.299	5.9347
937.674	9.04489
941.049	15.9672
944.423	26.7707
947.798	46.2315
951.173	71.459
954.548	110.552
957.923	181.431
961.298	323.04
964.672	611.931
968.047	1115.81
971.422	2017.37
974.797	3806.62
978.172	5749.4
981.546	4104.41
984.921	1769.89
988.296	846.508
991.671	482.683
995.046	307.803
998.42	208.843
1001.79	146.335
1005.17	104.268
1008.54	75.1127
1011.92	54.2201
1015.29	37.4612
1018.67	25.6612
1022.04	18.4177
1025.42	11.0454
1028.79	5.25243
1032.17	2.98077
1035.54	0.30323
1038.92	3.13679
1042.29	2.40721
1045.67	1.52414
1049.04	6.5172
1052.42	17.2441
1055.79	28.037
1059.17	33.2387
1062.54	33.6676
1065.92	28.481
1069.29	22.9642
1072.67	15.7912
1076.04	11.1566
1079.42	10.2162
1082.79	9.60972
1086.17	7.60096
1089.54	5.53268
1092.91	3.20109
1096.29	1.75305
1099.66	0.985641
1103.04	0.634964
1106.41	1.31731
1109.79	0.09494
1113.16	0.161766
1116.54	2.04411
1119.91	4.68597
1123.29	7.26543
1126.66	12.2004
1130.04	20.8005
1133.41	29.2263
1136.79	45.96
1140.16	65.5834
1143.54	95.7965
1146.91	138.047
1150.29	188.958
1153.66	238.941
1157.04	265.94
1160.41	253.693
1163.79	203.127
1167.16	150.573
1170.54	108.678
1173.91	78.992
1177.29	58.7403
1180.66	45.7443
1184.04	36.1978
1187.41	27.5748
1190.79	20.8119
1194.16	15.1334
1197.54	11.1983
1200.91	5.71959
1204.28	4.3269
1207.66	1.86228
1211.03	0.542545
1214.41	1.78472
1217.78	2.13588
1221.16	2.41896
1224.53	1.5788
1227.91	0.771637
1231.28	0.033001
1234.66	1.33982
1238.03	0.226101
1241.41	0.02734
1244.78	1.6331
1248.16	2.36092
1251.53	4.37088
1254.91	6.16923
1258.28	5.54691
1261.66	4.22382
1265.03	3.63645
1268.41	2.37208
1271.78	1.3927
1275.16	1.8455
1278.53	0.401516
1281.9	0
