Measurement: Raman, 785 nm, unoriented, Raman Data Processed
Mineral: Anglesite
Rruff sample: R050052
Ideal chemistry: PbSO_4_
Locality: Touissite, Oujela, Morocco
Source: Eugene Schlepp
Description: Yellow prismatic single crystal
Measured chemistry: Pb_1.00_S_1.00_O_4_
Raman shift (cm-1)	intensity
90.6461	0
93.5388	11.3035
96.4315	25.3745
99.3242	32.6258
102.217	51.4798
105.11	59.6822
108.002	39.0329
110.895	12.6288
113.788	5.33278
116.68	6.86946
119.573	4.70453
122.466	25.2903
125.359	125.639
128.251	249.292
131.144	428
134.037	606.027
136.929	712.578
139.822	716.041
142.715	851.031
145.607	1031.04
148.5	1278.29
151.393	1518.98
154.286	1440.01
157.178	1197.11
160.071	954.53
162.964	908.949
165.856	902.587
168.749	886.869
171.642	840.399
174.534	846.203
177.427	823.107
180.32	794.37
183.212	768.369
186.105	742.22
188.998	697.232
191.891	607.546
194.783	538.148
197.676	487.18
200.569	418.919
203.461	374.639
206.354	335.546
209.247	297.457
212.139	277.342
215.032	236.533
217.925	192.682
220.818	194.321
223.71	175.401
226.603	140.725
229.496	108.67
232.388	90.3344
235.281	86.5727
238.174	65.6573
241.066	62.4329
243.959	45.2547
246.852	30.4432
249.745	36.5206
252.637	15.8343
255.53	3.78369
258.423	15.2553
261.315	1.1922
264.208	11.3994
267.101	5.3418
269.993	5.12335
272.886	5.43536
275.779	0.6427
278.672	21.5494
281.564	3.62439
284.457	2.36481
287.35	1.9046
290.242	0.222717
293.135	11.0836
296.028	2.46716
298.921	4.93982
301.813	0.95459
304.706	0.264832
307.599	6.26611
310.491	15.15
313.384	19.8903
316.277	7.22168
319.169	5.77814
322.062	4.97894
324.955	9.87579
327.847	23.6237
330.74	23.3452
333.633	19.5526
336.526	16.1876
339.418	23.0649
342.311	26.1099
345.204	26.8781
348.096	7.98413
350.989	18.5146
353.882	10.2675
356.774	6.93964
359.667	2.42932
362.56	10.8196
365.452	1.69891
368.345	4.32794
371.238	0.191284
374.131	11.3071
377.023	6.26617
379.916	1.0398
382.809	8.42322
385.701	4.99023
388.594	9.03705
391.487	23.7279
394.38	42.9948
397.272	58.1871
400.165	85.4294
403.058	102.465
405.95	134.936
408.843	144.407
411.736	194.608
414.628	227.123
417.521	286.961
420.414	388.859
423.307	576.42
426.199	901.111
429.092	1362.39
431.985	2112.22
434.877	3697.03
437.77	6092.16
440.663	6355.49
443.555	6308.65
446.448	8987.07
449.341	12357.6
452.234	9560.92
455.126	4375.72
458.019	2233.69
460.912	1469.5
463.804	1057.64
466.697	783.54
469.59	605.601
472.483	439.077
475.375	341.252
478.268	283.333
481.161	241.396
484.053	206.513
486.946	129.461
489.839	119.182
492.731	83.8698
495.624	63.3671
498.517	48.0831
501.409	37.6152
504.302	33.496
507.195	13.1957
510.088	18.236
512.98	8.28412
515.873	9.82752
518.766	18.6625
521.658	12.6542
524.551	1.52185
527.444	14.2702
530.337	13.6072
533.229	12.7783
536.122	0.07782
539.015	20.5996
541.907	13.1964
544.8	10.3374
547.693	4.27167
550.585	4.48431
553.478	15.5256
556.371	15.3248
559.263	12.8368
562.156	5.56445
565.049	19.2335
567.942	34.1907
570.834	26.841
573.727	47.4216
576.62	52.1976
579.512	68.0832
582.405	83.2443
585.298	101.538
588.19	165.429
591.083	238.795
593.976	412.037
596.869	619.279
599.761	1010.06
602.654	1545.68
605.547	1917.51
608.439	1391.01
611.332	854.489
614.225	658.96
617.117	696.079
620.01	560.68
622.903	238.98
625.795	131.844
628.688	141.176
631.581	167.028
634.474	221.721
637.366	301.793
640.259	480.119
643.152	445.803
646.044	205.672
648.937	106.131
651.83	55.6659
654.722	35.592
657.615	1.25043
660.508	29.0432
663.401	16.9629
666.293	27.2837
669.186	4.95111
672.079	7.82794
674.971	1.42609
677.864	0.054138
680.757	4.13977
683.649	4.75464
686.542	0.381775
689.435	5.11896
692.328	2.82642
695.22	4.12616
698.113	7.83563
701.006	2.27539
703.898	23.598
706.791	3.3363
709.684	2.03119
712.577	5.79877
715.469	7.17285
718.362	10.4268
721.255	4.60968
724.147	31.149
727.04	25.3131
729.933	5.14813
732.825	9.72363
735.718	14.926
738.611	5.09241
741.504	1.92548
744.396	20.5526
747.289	23.5992
750.182	18.0128
753.074	13.6356
755.967	17.1086
758.86	20.3072
761.752	1.3634
764.645	31.7169
767.538	35.4165
770.431	12.7745
773.323	5.79614
776.216	29.0919
779.109	31.3867
782.001	15.1473
784.894	37.8357
787.787	38.7621
790.679	24.693
793.572	51.4263
796.465	11.6234
799.357	29.8885
802.25	26.4687
805.143	29.4178
808.036	20.7747
810.928	11.8266
813.821	11.3155
816.714	13.1488
819.606	7.59131
822.499	21.9974
825.392	31.8131
828.284	3.40723
831.177	8.90277
834.07	0.387695
836.963	10.5562
839.855	4.97614
842.748	4.74036
845.641	13.6462
848.533	21.7621
851.426	1.17505
854.319	25.4611
857.212	15.037
860.104	25.1676
862.997	26.4162
865.89	31.9332
868.782	38.3964
871.675	45.9751
874.568	17.3373
877.46	25.9377
880.353	27.6258
883.246	24.5787
886.139	18.3727
889.031	4.55292
891.924	12.2443
894.817	9.17902
897.709	15.595
900.602	3.58758
903.495	0.770203
906.388	5.14734
909.28	23.409
912.173	7.63867
915.066	5.92395
917.958	17.7605
920.851	16.6331
923.744	16.6443
926.636	17.967
929.529	6.31659
932.422	46.5553
935.314	56.6254
938.207	83.0819
941.1	119.753
943.993	179.963
946.885	298.318
949.778	406.377
952.671	564.385
955.563	841.385
958.456	1291.47
961.349	2008.4
964.241	3435.52
967.134	6315.97
970.027	11340.5
972.92	19340.8
975.812	30084.4
978.705	30469.6
981.598	17777
984.49	8806.2
987.383	4819.94
990.276	2978.81
993.168	2042.27
996.061	1452.86
998.954	1055.99
1001.85	834.689
1004.74	655.184
1007.63	540.268
1010.52	409.241
1013.42	329.572
1016.31	257.528
1019.2	215.138
1022.1	151.575
1024.99	151.368
1027.88	98.7141
1030.77	93.7218
1033.67	57.2498
1036.56	30.5466
1039.45	3.22302
1042.34	7.8855
1045.24	23.0427
1048.13	25.898
1051.02	20.1385
1053.91	14.5061
1056.81	12.9902
1059.7	22.7294
1062.59	17.7537
1065.49	16.4748
1068.38	10.9476
1071.27	0.082886
1074.16	8.29736
1077.06	3.7196
1079.95	20.6738
1082.84	25.9508
1085.73	29.5699
1088.63	48.2723
1091.52	62.327
1094.41	45.822
1097.31	80.3044
1100.2	79.6458
1103.09	91.3966
1105.98	127.074
1108.88	156.359
1111.77	184.19
1114.66	218.247
1117.56	230.288
1120.45	262.789
1123.34	305.317
1126.23	381.02
1129.12	402.097
1132.02	461.199
1134.91	505.881
1137.8	561.495
1140.7	613.22
1143.59	641.925
1146.48	668.01
1149.37	738.544
1152.27	767.022
1155.16	792.118
1158.05	767.304
1160.94	666.941
1163.84	526.712
1166.73	419.726
1169.62	286.578
1172.52	194.686
1175.41	159.54
1178.3	125.433
1181.19	108.711
1184.09	81.846
1186.98	22.9922
1189.87	42.4686
1192.77	35.2994
1195.66	18.7247
1198.55	0.513062
1201.44	16.6406
1204.34	7.88348
1207.23	5.46612
1210.12	6.00928
1213.01	4.29474
1215.91	12.1325
1218.8	17.0729
1221.69	32.997
1224.58	8.11554
1227.48	11.9795
1230.37	6.31354
1233.26	7.02356
1236.15	7.92786
1239.05	23.0108
