Measurement: Raman, 514 nm, unoriented, Raman Data Processed
Mineral: Anhydrite
Rruff sample: R040012
Ideal chemistry: CaSO_4_
Locality: Moundhouse, Nevada, USA
Source: University of Arizona Mineral Museum
Description: White massive
Measured chemistry: Ca_1.00_S_1.00_O_4_
Raman shift (cm-1)	intensity
62.661	0
66.856	1.449
71.048	1.909
75.239	43.263
79.427	53.95
83.614	63.149
87.798	92.08
91.981	113.483
96.161	67.704
100.34	107.575
104.516	111.334
108.691	121.922
112.864	127.173
117.034	181.695
121.203	202.439
125.369	171.386
129.534	148.559
133.696	90.877
137.857	106.463
142.016	81.424
146.172	119.468
150.327	106.497
154.48	121.508
158.63	103.513
162.779	386.528
166.926	451.563
171.07	237.624
175.213	98.712
179.354	42.831
183.493	58.192
187.63	53.424
191.765	54.398
195.898	60.001
200.029	64.205
204.158	94.434
208.285	121.223
212.41	57.732
216.533	94
220.654	178.223
224.773	446.363
228.891	747.421
233.006	763.555
237.119	444.217
241.231	215.349
245.34	99.189
249.448	57.147
253.553	41.197
257.657	45.322
261.758	51.51
265.858	53.752
269.956	47.038
274.052	61.364
278.146	77.731
282.237	63.127
286.327	41.548
290.416	31.99
294.502	7.45
298.586	5.073
302.668	25.414
306.749	14.91
310.827	1.753
314.903	0.913
318.978	1.417
323.051	4.928
327.121	2.557
331.19	18.962
335.257	5.486
339.322	32.016
343.385	19.55
347.446	6.915
351.505	1.352
355.563	6.118
359.618	15.396
363.672	1.06
367.723	2.493
371.773	8.929
375.821	65.304
379.866	46.64
383.91	0.961
387.952	1.718
391.992	2.585
396.031	1.103
400.067	2.781
404.101	15.543
408.134	99.872
412.165	628.209
416.193	722.552
420.22	220.899
424.245	71.253
428.268	21.663
432.289	34.023
436.309	37.207
440.326	41.763
444.342	21.504
448.355	21.553
452.367	21.949
456.377	34.35
460.385	60.625
464.391	67.066
468.395	80.507
472.398	99.91
476.398	122.758
480.397	202.259
484.394	356.734
488.389	694.875
492.382	1740.35
496.373	3214.84
500.362	2442.32
504.349	1046.81
508.335	443.444
512.319	175.452
516.3	128.976
520.28	76.616
524.259	49.749
528.235	29.662
532.209	72.092
536.182	56.604
540.152	34.112
544.121	9.588
548.088	53.158
552.053	22.218
556.017	13.526
559.978	35.734
563.938	38.055
567.895	25.533
571.851	16.015
575.805	18.494
579.758	3.054
583.708	1.293
587.657	12.066
591.603	7.714
595.548	0.475
599.491	4.432
603.432	117.678
607.372	395.133
611.309	235.611
615.245	122.692
619.179	226.121
623.111	1578.69
627.041	2173.49
630.97	551.296
634.896	100.712
638.821	42.554
642.744	26.006
646.665	25.883
650.584	17.824
654.502	35.191
658.418	35.982
662.331	129.928
666.244	449.423
670.154	2650.02
674.062	7328.69
677.969	2724.15
681.874	477.38
685.777	167.598
689.678	36.807
693.577	41.996
697.475	30.161
701.371	26.302
705.265	39.427
709.157	61.538
713.047	41.627
716.936	38.71
720.823	16.759
724.708	15.952
728.591	21.787
732.472	22.35
736.352	8.9
740.23	24.87
744.106	39.083
747.98	19.738
751.853	1.327
755.723	4.702
759.592	20.69
763.459	14.39
767.325	2.063
771.188	14.314
775.05	11.836
778.91	14.215
782.768	8.684
786.625	27.096
790.479	27.472
794.332	6.762
798.183	13.05
802.033	7.311
805.88	16.533
809.726	3.714
813.57	2.874
817.413	4.005
821.253	13.055
825.092	20.063
828.929	0.021
832.764	19.953
836.598	44.869
840.429	30.771
844.259	27.659
848.088	40.534
851.914	46.398
855.739	8.217
859.562	22.06
863.383	38.894
867.203	25.719
871.02	22.537
874.836	35.349
878.65	10.155
882.463	19.052
886.274	4.709
890.083	3.919
893.89	10.071
897.695	16.61
901.499	14.272
905.301	5.21
909.102	16.942
912.9	5.713
916.697	23.349
920.492	25.635
924.285	4.348
928.077	9.337
931.867	34.222
935.655	38.179
939.442	34.821
943.226	63.51
947.009	66.667
950.791	92.882
954.57	82.611
958.348	85.872
962.124	111.514
965.899	160.889
969.671	167.763
973.442	163.045
977.211	205.696
980.979	228.085
984.745	276.202
988.509	328.362
992.271	474.563
996.032	688.797
999.791	1327.09
1003.55	1549.43
1007.3	2927.83
1011.06	8024.28
1014.81	39255.8
1018.56	50883.3
1022.31	10803.8
1026.06	3542.48
1029.8	1649.17
1033.55	971.86
1037.29	675.076
1041.03	467.169
1044.77	332.656
1048.5	274.844
1052.24	186.782
1055.97	166.148
1059.7	164.23
1063.43	150.296
1067.16	86.432
1070.89	68.612
1074.61	81.784
1078.34	96.889
1082.06	160.022
1085.78	633.423
1089.5	364.885
1093.21	108.39
1096.93	100.955
1100.64	122.564
1104.35	178.071
1108.06	346.818
1111.77	624.911
1115.48	768.621
1119.18	1243.55
1122.89	3140.76
1126.59	14967.8
1130.29	31104.8
1133.99	5957.43
1137.68	1650.62
1141.38	807.741
1145.07	489.701
1148.76	378.81
1152.45	372.887
1156.14	853.521
1159.83	3806.99
1163.51	2006.32
1167.19	462.699
1170.88	208.712
1174.56	131.889
1178.23	86.679
1181.91	57.041
1185.59	65.202
1189.26	70.596
1192.93	40.019
1196.6	26.473
1200.27	44.939
1203.94	28.423
1207.6	9.924
1211.27	24.44
1214.93	80.962
1218.59	51.491
1222.25	79.026
1225.9	43.565
1229.56	70.114
1233.21	55.67
1236.86	39.227
1240.51	28.781
1244.16	7.35
1247.81	6.072
1251.45	16.495
1255.1	8.966
1258.74	5.403
1262.38	17.22
1266.02	4.115
1269.66	2.402
1273.29	1.3
1276.93	24.035
1280.56	9.312
1284.19	27.645
1287.82	9.679
1291.45	17.686
1295.07	9.348
1298.7	18.415
1302.32	10.521
1305.94	8.369
1309.56	11.646
1313.18	0.982
1316.8	6.214
1320.41	0.503
1324.02	15.168
1327.63	74.828
1331.24	26.443
1334.85	22.018
1338.46	27.973
1342.06	28.498
1345.67	75.002
1349.27	67.526
1352.87	72.988
1356.47	69.054
1360.07	59.859
1363.66	56.265
1367.25	73.63
1370.85	78.986
1374.44	44.796
1378.03	50.159
1381.61	60.345
1385.2	47.715
1388.78	32.715
1392.37	19.353
1395.95	44.614
1399.53	42.247
1403.1	73.572
1406.68	49.419
1410.26	25.944
1413.83	60.29
1417.4	23.02
1420.97	72.912
1424.54	16.772
1428.1	18.78
1431.67	38.569
1435.23	52.426
1438.8	40.208
1442.36	26.914
1445.91	19.536
1449.47	30.068
1453.03	51.479
1456.58	53.774
1460.13	18.788
1463.68	19.013
1467.23	12.323
1470.78	17.648
1474.33	35.089
1477.87	52.526
1481.42	38.38
1484.96	41.216
1488.5	6.912
1492.04	35.331
1495.57	29.827
1499.11	26.737
1502.64	20.405
1506.17	27.378
1509.71	43.275
1513.23	20.738
1516.76	43.59
1520.29	58.142
1523.81	1.002
