Measurement: Raman, 532 nm, unoriented, Raman Data Processed
Mineral: Anhydrite
Rruff sample: R061102
Ideal chemistry: CaSO_4_
Locality: Taft, Kern County, California
Source: Michael Scott
Description: White massive with crystalline gypsum
Measured chemistry: (Ca_0.98_Fe^2+^_0.02_)_Î£=1_S_1.00_O_4_
Raman shift (cm-1)	intensity
158.378	0
161.27	50.4551
164.163	164.1
167.056	364.653
169.948	536.56
172.841	286.37
175.734	312.038
178.627	281.077
181.519	285.165
184.412	485.482
187.305	415.932
190.197	467.004
193.09	424.516
195.983	365.9
198.875	486.967
201.768	438.053
204.661	329.982
207.554	485.055
210.446	326.715
213.339	279.703
216.232	433.353
219.124	360.682
222.017	392.955
224.91	392.57
227.803	356.361
230.695	398.744
233.588	384.787
236.481	277.514
239.373	198.287
242.266	112.951
245.159	191.199
248.051	132.977
250.944	153.731
253.837	190.685
256.729	136.848
259.622	93.1797
262.515	138.422
265.408	147.588
268.3	75.1562
271.193	164.731
274.086	180.82
276.978	109.273
279.871	20.3066
282.764	143.412
285.656	21.6777
288.549	1.80469
291.442	98.4707
294.335	11.1289
297.227	22.9375
300.12	10.3984
303.013	31.625
305.905	25.8184
308.798	28.5195
311.691	21.2324
314.584	3.77148
317.476	39.3789
320.369	108.609
323.262	51.082
326.154	43.1543
329.047	51.5547
331.94	9.75977
334.832	88.6875
337.725	7.89453
340.618	115.008
343.51	143.078
346.403	105.164
349.296	40.7324
352.189	142.353
355.081	127.588
357.974	55.5293
360.867	0.902344
363.76	55.1895
366.652	57.1641
369.545	27.3066
372.438	81.1992
375.33	52.8711
378.223	10.6309
381.116	137.684
384.008	69.1055
386.901	49.834
389.794	136.117
392.687	62.8945
395.579	188.272
398.472	114.816
401.365	214.31
404.257	303.365
407.15	537.492
410.043	830.572
412.935	938.975
415.828	1616.55
418.721	1247.45
421.613	108.43
424.506	193.315
427.399	94.2383
430.292	134.656
433.184	56.1914
436.077	0.269531
438.97	50.1016
441.862	26.6094
444.755	111.314
447.648	47.6934
450.541	63.5898
453.433	47.9531
456.326	119.217
459.219	61.9941
462.111	106.932
465.004	40.9473
467.897	167.863
470.789	120.207
473.682	180.402
476.575	226.832
479.467	215.824
482.36	276.312
485.253	556.18
488.146	855.512
491.038	1296.07
493.931	1604.58
496.824	2074.66
499.716	1971.94
502.609	1262.76
505.502	558.111
508.394	331.254
511.287	323.371
514.18	56.4668
517.073	156.705
519.965	2.20898
522.858	175.971
525.751	99.5723
528.643	71.8535
531.536	93.6992
534.429	88.3184
537.322	48.4531
540.214	12.0723
543.107	56.4395
546	4.04102
548.892	132.879
551.785	68.4785
554.678	62.9473
557.57	42.7852
560.463	139.356
563.356	12.2656
566.249	9.75391
569.141	35.3867
572.034	17.4844
574.927	47.832
577.819	62.1875
580.712	52.3086
583.605	138.305
586.497	74.8477
589.39	180.731
592.283	209.129
595.176	140.789
598.068	361.898
600.961	793.918
603.854	903.008
606.746	1132.5
609.639	1609.58
612.532	585.856
615.424	467.863
618.317	498.359
621.21	922.715
624.103	1161.51
626.995	1649.79
629.888	1058.45
632.781	308.035
635.673	129.926
638.566	190.527
641.459	244.328
644.351	205.953
647.244	214.035
650.137	208.246
653.03	371.211
655.922	193.375
658.815	315.391
661.708	333.945
664.6	426
667.493	725.203
670.386	920.059
673.279	1245.73
676.171	1370.06
679.064	506.441
681.957	207.117
684.849	52.3906
687.742	115.598
690.635	47.6953
693.527	203.125
696.42	140.531
699.313	125.25
702.206	118.344
705.098	43.2812
707.991	165.269
710.884	29.832
713.776	40.3281
716.669	68.9414
719.562	55.4023
722.454	191.707
725.347	31.3906
728.24	50.6719
731.133	181.344
734.025	35.7812
736.918	19.6875
739.811	55.4531
742.703	119.457
745.596	108.016
748.489	47.2109
751.381	134.32
754.274	98.0234
757.167	74.6797
760.06	2.16016
762.952	116.539
765.845	203.644
768.738	65.8047
771.63	3.12109
774.523	98.3359
777.416	74.2344
780.308	137.289
783.201	124.984
786.094	75.2188
788.987	199.473
791.879	253.957
794.772	192.91
797.665	56.6914
800.557	50.4922
803.45	125.926
806.343	77.0859
809.236	158.789
812.128	189.793
815.021	187.32
817.914	81.6836
820.806	3.21875
823.699	82.1875
826.592	59.5273
829.484	0.027344
832.377	193.516
835.27	112.543
838.163	71.2539
841.055	111.887
843.948	102.769
846.841	143.273
849.733	105.891
852.626	139.867
855.519	50.3477
858.411	150.695
861.304	115.715
864.197	182.141
867.09	63.7031
869.982	174.066
872.875	49.9492
875.768	6.42188
878.66	104.852
881.553	95.0586
884.446	152.402
887.338	38.1758
890.231	69.4062
893.124	102.926
896.016	105.176
898.909	107.719
901.802	193.617
904.695	284.281
907.587	29.2852
910.48	41.3438
913.373	244.047
916.265	162.18
919.158	130.312
922.051	262.184
924.943	345.797
927.836	104.496
930.729	59.457
933.622	10.9297
936.514	99.6523
939.407	100.785
942.3	69.2148
945.192	38.7617
948.085	215.477
950.978	54.9961
953.87	111.477
956.763	107.359
959.656	213.402
962.549	87.8672
965.441	122.938
968.334	3.78516
971.227	14.9414
974.119	100.766
977.012	165.074
979.905	102.359
982.798	151.102
985.69	142.391
988.583	65.3555
991.476	263.023
994.368	243.004
997.261	434.695
1000.15	587.844
1003.05	942.027
1005.94	1921.3
1008.83	4677.06
1011.73	8348.96
1014.62	11827.9
1017.51	13574.9
1020.4	6967.8
1023.29	2432.88
1026.19	1213.46
1029.08	674.023
1031.97	587.836
1034.87	189.691
1037.76	279.539
1040.65	189.285
1043.54	296.074
1046.44	152.617
1049.33	128.793
1052.22	142.16
1055.12	13.3945
1058.01	88.9883
1060.9	134.707
1063.79	112.684
1066.69	18.6094
1069.58	139.473
1072.47	35.1133
1075.36	95.0195
1078.26	0.863281
1081.15	47.5195
1084.04	75.043
1086.93	173.582
1089.83	185.055
1092.72	18.5391
1095.61	57.9688
1098.51	47.4883
1101.4	184.457
1104.29	511.109
1107.18	561.043
1110.08	850.094
1112.97	655.469
1115.86	541.414
1118.76	504.938
1121.65	1383.89
1124.54	2293.68
1127.43	3141.03
1130.33	3018.67
1133.22	1217.61
1136.11	518.688
1139	213.172
1141.9	198.461
1144.79	188.731
1147.68	362.863
1150.57	374.684
1153.47	678.684
1156.36	860.184
1159.25	1414.41
1162.14	980.957
1165.04	557.496
1167.93	103.043
1170.82	64.8984
1173.72	188.484
1176.61	278.914
1179.5	79.9297
1182.39	72.6094
1185.29	13.707
1188.18	218.519
1191.07	229.41
1193.96	46.4023
1196.86	356.824
1199.75	132.484
1202.64	86.3789
1205.54	121.422
1208.43	186.266
1211.32	27.2539
1214.21	197.879
1217.11	134.773
1220	267.023
1222.89	123.617
1225.78	20.4258
1228.68	47.0977
1231.57	41.1992
1234.46	27.8203
1237.36	209.883
1240.25	168.613
1243.14	334.367
1246.03	14.3672
1248.93	155.059
1251.82	63.9961
1254.71	192.699
1257.6	195.648
1260.5	242.875
1263.39	148.172
1266.28	309.43
1269.17	147.484
1272.07	59.4297
1274.96	219.832
1277.85	288.356
1280.75	158.531
1283.64	122
1286.53	85.2305
1289.42	33.0039
1292.32	158.617
1295.21	45.1016
1298.1	91.7461
