Measurement: Raman, 514 nm, unoriented, Raman Data Processed
Mineral: Anhydrite
Rruff sample: R040061
Ideal chemistry: CaSO_4_
Locality: Chester County, Pennsylvania, USA
Source: University of Arizona Mineral Museum
Description: Pale purple fractured single crystal
Measured chemistry: Ca_0.98_S_1.01_O_4_
Raman shift (cm-1)	intensity
135.083	0
139.243	4.255
143.401	32.92
147.557	57.689
151.711	53.696
155.863	25.899
160.013	50.942
164.161	215.027
168.308	332.833
172.452	238.548
176.594	86.787
180.734	54.146
184.872	50.463
189.008	11.57
193.143	22.593
197.275	38.522
201.405	45.384
205.534	64.457
209.66	32.188
213.784	38.824
217.907	88.027
222.027	144.336
226.146	308.554
230.263	673.54
234.377	820.604
238.49	566.374
242.601	269.394
246.709	178.924
250.816	47.7
254.921	94.388
259.024	57.186
263.125	104.83
267.224	59.424
271.321	12.784
275.416	25.077
279.51	37.365
283.601	55.656
287.69	12.867
291.778	31.934
295.863	12.179
299.947	24
304.029	23.26
308.108	13.16
312.186	0.355
316.262	22.616
320.336	27.559
324.408	11.475
328.478	59.353
332.546	21.169
336.612	11.966
340.677	208.74
344.739	35.49
348.799	21.072
352.858	32.692
356.915	21.22
360.969	40.306
365.022	17.868
369.073	2.45
373.122	11.985
377.169	35.439
381.215	3.856
385.258	10.245
389.299	47.581
393.339	4.896
397.376	31.218
401.412	16.575
405.446	56.102
409.478	228.392
413.508	840.678
417.536	1183.97
421.562	374.245
425.586	144.527
429.609	75.326
433.629	26.549
437.648	53.118
441.665	32.432
445.68	22.847
449.693	33.433
453.704	20.657
457.713	27.576
461.721	78.967
465.726	48.158
469.73	88.628
473.731	78.549
477.731	139.171
481.729	213.342
485.725	291.428
489.72	599.587
493.712	1465.61
497.703	2621.74
501.691	2478.99
505.678	1007.24
509.663	432.875
513.646	231.11
517.627	82.318
521.607	101.524
525.584	59.618
529.56	67.738
533.534	25.496
537.506	92.511
541.476	97.926
545.444	56.963
549.41	18.6
553.375	22.084
557.337	6.273
561.298	58.411
565.257	24.681
569.214	37.914
573.17	38.214
577.123	42.469
581.075	38.288
585.024	60.513
588.972	32.642
592.918	57.595
596.863	23.84
600.805	34.431
604.746	151.539
608.685	287.644
612.621	92.752
616.557	140.844
620.49	279.243
624.421	1207.32
628.351	1917.58
632.279	571.871
636.205	127.388
640.129	20.761
644.051	74.367
647.972	97.507
651.89	57.438
655.807	113.938
659.722	168.84
663.636	157.734
667.547	396.173
671.457	2705.99
675.365	7044.6
679.271	2947.61
683.175	551.218
687.077	208.92
690.978	90.119
694.877	3.782
698.774	75.488
702.669	30.085
706.562	38.659
710.454	17.196
714.344	76.635
718.232	9.935
722.118	64.309
726.002	14.924
729.885	24.764
733.766	24.635
737.645	16.558
741.522	90.797
745.397	51.366
749.271	7.386
753.143	42.491
757.013	18.348
760.881	14.395
764.748	27.347
768.613	54.266
772.476	1.954
776.337	38.799
780.196	54.839
784.054	10.265
787.91	46.393
791.764	3.614
795.616	9.821
799.467	12.68
803.316	24.142
807.163	34.426
811.008	2.911
814.851	25.205
818.693	45.459
822.533	37.678
826.371	23.866
830.208	14.994
834.042	31.068
837.875	56.101
841.706	2.9
845.536	58.067
849.363	23.752
853.189	95.682
857.013	30.587
860.836	9.266
864.656	10.663
868.475	48.538
872.292	0.689
876.108	4.832
879.922	53.841
883.733	77.498
887.544	15.763
891.352	25.297
895.159	1.041
898.964	27.795
902.767	12.606
906.568	33.115
910.368	59.832
914.166	33.541
917.962	7.323
921.757	9.051
925.55	40.353
929.341	50.111
933.13	51.812
936.918	3.177
940.703	15.817
944.488	0.776
948.27	83.369
952.051	26.58
955.83	58.252
959.607	119.484
963.383	136.093
967.156	128.262
970.928	139.248
974.699	235.699
978.468	227.787
982.234	217.858
986	220.096
989.763	314.501
993.525	441.435
997.285	806.699
1001.04	1277.13
1004.8	1717.52
1008.55	3566.03
1012.31	9474.57
1016.06	45401.2
1019.81	39105.9
1023.56	9368.51
1027.31	3104.01
1031.05	1599.81
1034.79	930.663
1038.53	648.653
1042.27	444.606
1046.01	358.502
1049.75	317.553
1053.48	262.181
1057.22	224.313
1060.95	139.624
1064.68	135.738
1068.4	63.933
1072.13	130.168
1075.86	50.613
1079.58	34.887
1083.3	100.962
1087.02	98.326
1090.74	38.725
1094.45	81.615
1098.17	63.21
1101.88	125.775
1105.59	176.303
1109.3	343.965
1113.01	565.718
1116.71	813.92
1120.42	1436.77
1124.12	4071.73
1127.82	21284.1
1131.52	24841.5
1135.22	5002.87
1138.91	1569.5
1142.61	756.911
1146.3	523.845
1149.99	369.802
1153.68	405.91
1157.37	1093.86
1161.06	3865.68
1164.74	1329.68
1168.42	365.713
1172.1	204.811
1175.78	95.013
1179.46	60.006
1183.14	101.621
1186.81	80.885
1190.48	51.995
1194.15	39.456
1197.83	29.339
1201.49	76.902
1205.16	51.679
1208.82	42.997
1212.49	111.269
1216.15	95.552
1219.81	94.865
1223.46	139.028
1227.12	102.164
1230.78	104.429
1234.43	95.058
1238.08	33.094
1241.73	66.062
1245.38	70.036
1249.03	51.927
1252.67	90.684
1256.31	7.632
1259.95	20.885
1263.6	11.238
1267.23	44.442
1270.87	22.568
1274.51	36.653
1278.14	3.504
1281.77	91.433
1285.4	25.047
1289.03	1.519
1292.66	8.873
1296.28	42.132
1299.91	23.305
1303.53	47.398
1307.15	8.604
1310.77	21.686
1314.38	36.08
1318	29.755
1321.61	17.341
1325.23	69.834
1328.84	38.24
1332.45	4.56
1336.06	26.208
1339.66	122.92
1343.27	77.14
1346.87	128.19
1350.47	80.937
1354.07	68.842
1357.67	57.974
1361.26	41.731
1364.86	150.479
1368.45	100.843
1372.04	59.504
1375.63	114.102
1379.22	117.046
1382.81	108.539
1386.39	95.8
1389.98	124.903
1393.56	95.499
1397.14	80.719
1400.72	81.22
1404.3	58.544
1407.87	111.821
1411.45	81.018
1415.02	34.411
1418.59	123.831
1422.16	27.648
1425.73	48.19
1429.29	97.042
1432.86	57.401
1436.42	121.388
1439.98	100.901
1443.54	117.572
1447.1	57.352
1450.66	81.956
1454.21	99.656
1457.77	72.465
1461.32	53.405
1464.87	47.571
1468.42	100.932
1471.96	152.201
1475.51	83.18
1479.06	59.04
1482.6	86.032
1486.14	111.044
1489.68	149.08
1493.22	39.535
1496.75	1.284
1500.29	74.426
1503.82	91.719
1507.35	94.967
1510.88	32.872
1514.41	101.034
1517.94	24.479
1521.46	0.04
