Measurement: Raman, 532 nm, unoriented, Raman Data Processed
Mineral: Anhydrite
Rruff sample: R040012
Ideal chemistry: CaSO_4_
Locality: Moundhouse, Nevada, USA
Source: University of Arizona Mineral Museum
Description: White massive
Measured chemistry: Ca_1.00_S_1.00_O_4_
Raman shift (cm-1)	intensity
111.727	0
115.102	20.4377
118.476	48.5618
121.851	172.686
125.226	148.437
128.601	144.704
131.976	407.467
135.35	68.8798
138.725	3.48675
142.1	3.77957
145.475	4.15183
148.85	49.1654
152.225	80.9328
155.599	61.2224
158.974	84.7583
162.349	104.028
165.724	191.887
169.099	392.258
172.473	61.4505
175.848	9.92303
179.223	4.41615
182.598	0.750595
185.973	0.945282
189.347	1.06553
192.722	0.252579
196.097	1.38853
199.472	3.59863
202.847	5.28966
206.221	8.01196
209.596	15.8469
212.971	24.0902
216.346	39.5747
219.721	51.9585
223.096	71.5496
226.47	95.0715
229.845	114.169
233.22	114.194
236.595	68.7553
239.97	32.5186
243.345	16.1849
246.719	7.93347
250.094	6.2729
253.469	3.39479
256.844	2.46884
260.219	3.55662
263.593	9.90301
266.968	12.6432
270.343	10.151
273.718	3.68309
277.093	4.2065
280.467	0.744598
283.842	0.098885
287.217	2.19608
290.592	3.19477
293.967	1.05785
297.342	2.28059
300.716	4.11891
304.091	4.38386
307.466	3.8902
310.841	3.74239
314.216	5.61828
317.591	4.94323
320.965	6.04202
324.34	5.83835
327.715	8.95607
331.09	7.8852
334.464	3.95391
337.839	6.63129
341.214	1.33146
344.589	2.79537
347.964	0.059319
351.339	2.6686
354.713	0.201561
358.088	0.152046
361.463	1.55329
364.838	0.335121
368.213	0.053925
371.587	0.305031
374.962	1.55235
378.337	1.28263
381.712	0.77002
385.087	2.47779
388.462	2.99699
391.836	8.05115
395.211	29.2487
398.586	194.537
401.961	297.005
405.336	374.073
408.711	521.088
412.085	1012.56
415.46	2197.43
418.835	1082.72
422.21	101.379
425.585	32.9584
428.959	17.2972
432.334	7.593
435.709	4.48378
439.084	3.172
442.459	3.06471
445.833	3.09308
449.208	5.38089
452.583	6.29742
455.958	10.2831
459.333	11.9561
462.707	20.0598
466.082	29.0667
469.457	45.8343
472.832	66.9246
476.207	109.369
479.582	197.336
482.956	354.506
486.331	495.06
489.706	681.503
493.081	1004.51
496.456	1474.04
499.83	1480.06
503.205	721.147
506.58	294.954
509.955	137.763
513.33	71.4206
516.705	37.7818
520.079	23.1541
523.454	15.6818
526.829	8.33856
530.204	6.99445
533.579	9.19898
536.953	5.96035
540.328	0.314423
543.703	0.776955
547.078	3.26429
550.453	0.886688
553.828	1.42266
557.202	3.07922
560.577	2.77178
563.952	4.46878
567.327	3.19432
570.702	1.7833
574.077	3.31101
577.451	1.45564
580.826	2.72517
584.201	5.14748
587.576	13.9786
590.951	62.9164
594.325	251.442
597.7	308.582
601.075	461.931
604.45	1009.59
607.825	1732.01
611.199	1014.3
614.574	266.434
617.949	268.16
621.324	439.196
624.699	802.115
628.073	1191.35
631.448	181.36
634.823	31.3731
638.198	10.2272
641.573	3.23795
644.948	0.337402
648.322	0.344254
651.697	6.5387
655.072	25.0314
658.447	112.268
661.822	300.002
665.197	398.004
668.571	677.124
671.946	1471.29
675.321	2326.99
678.696	710.412
682.071	117.829
685.445	42.3127
688.82	18.113
692.195	7.45058
695.57	4.31355
698.945	2.69467
702.319	0.944008
705.694	0.483757
709.069	0.193977
712.444	3.60201
715.819	0.02253
719.193	1.29675
722.568	0.955299
725.943	2.17453
729.318	0.445099
732.693	0.27269
736.068	2.30924
739.442	1.23437
742.817	0.747177
746.192	7.36733
749.567	6.36397
752.942	1.80237
756.317	2.65451
759.691	5.40788
763.066	4.71744
766.441	2.97822
769.816	6.24207
773.191	6.70686
776.565	6.40179
779.94	4.34009
783.315	4.3129
786.69	2.57112
790.065	1.92696
793.439	0.463898
796.814	2.14304
800.189	1.44283
803.564	0.9533
806.939	1.17357
810.313	2.44325
813.688	4.787
817.063	3.03187
820.438	6.11336
823.813	7.15475
827.188	7.6806
830.562	9.51475
833.937	15.5071
837.312	20.3581
840.687	19.1459
844.062	18.652
847.437	17.3868
850.811	15.2342
854.186	14.7455
857.561	10.8269
860.936	10.2478
864.311	11.1914
867.685	8.54549
871.06	6.90712
874.435	5.88075
877.81	3.31216
881.185	6.16175
884.559	5.06952
887.934	2.38653
891.309	2.07563
894.684	2.19781
898.059	0.131203
901.434	0.791321
904.808	2.95547
908.183	0.927353
911.558	0.321762
914.933	0.680359
918.308	0.710022
921.683	1.81123
925.057	0.526642
928.432	0.093948
931.807	0.451141
935.182	0.824844
938.557	0.919312
941.931	0.491623
945.306	3.09265
948.681	1.89841
952.056	5.19731
955.431	5.71152
958.806	10.5802
962.18	12.3211
965.555	25.4355
968.93	28.2281
972.305	33.6404
975.68	44.7236
979.054	56.9212
982.429	69.7093
985.804	108.408
989.179	142.478
992.554	217.474
995.928	365.925
999.303	701.688
1002.68	1585.02
1006.05	3598.39
1009.43	5278.03
1012.8	9250.47
1016.18	19392.9
1019.55	12514.5
1022.93	2816.18
1026.3	1101.83
1029.68	566.856
1033.05	325.298
1036.43	208.824
1039.8	134.897
1043.18	92.6608
1046.55	71.5068
1049.93	50.6898
1053.3	33.7069
1056.67	20.971
1060.05	10.1337
1063.42	6.19665
1066.8	2.41661
1070.17	1.39352
1073.55	3.53995
1076.92	2.93631
1080.3	3.0253
1083.67	1.39146
1087.05	1.50853
1090.42	5.11592
1093.8	17.4053
1097.17	70.981
1100.55	164.854
1103.92	265.955
1107.3	504.336
1110.67	907.893
1114.05	669.473
1117.42	695.38
1120.8	884.543
1124.17	1378.05
1127.55	3030.49
1130.92	2932.65
1134.3	570.186
1137.67	193.755
1141.05	105.959
1144.42	82.8268
1147.8	132.181
1151.17	214.148
1154.55	309.979
1157.92	603.133
1161.29	949.547
1164.67	212.002
1168.04	56.5287
1171.42	22.8523
1174.79	12.8062
1178.17	6.18805
1181.54	2.67667
1184.92	0.872009
1188.29	3.32606
1191.67	0.045349
1195.04	0.428787
1198.42	1.12314
1201.79	0.4198
1205.17	0.097137
1208.54	1.34123
1211.92	6.46965
1215.29	6.6098
1218.67	7.05121
1222.04	5.81827
1225.42	1.97885
1228.79	5.39476
1232.17	5.25382
1235.54	3.59395
1238.91	3.43784
1242.29	0.159393
1245.66	1.90125
1249.04	1.55066
1252.41	1.60973
1255.79	2.48698
1259.16	1.14928
1262.54	2.23329
1265.91	1.12192
1269.29	0.435089
1272.66	2.66078
1276.04	1.47432
1279.41	0.318314
1282.79	2.23814
1286.16	1.38329
1289.54	2.11893
