Measurement: Raman, 532 nm, unoriented, Raman Data Processed
Mineral: Anhydrite
Rruff sample: R040061
Ideal chemistry: CaSO_4_
Locality: Chester County, Pennsylvania, USA
Source: University of Arizona Mineral Museum
Description: Pale purple fractured single crystal
Measured chemistry: Ca_0.98_S_1.01_O_4_
Raman shift (cm-1)	intensity
121.04	0
124.415	446.934
127.79	212.751
131.165	297.35
134.539	231.6
137.914	409.925
141.289	732.7
144.664	924.564
148.039	1073.04
151.413	1035.92
154.788	736.246
158.163	842.027
161.538	1224.83
164.913	1722.13
168.287	3348.2
171.662	1379.72
175.037	689.971
178.412	648.846
181.787	580.459
185.162	517.421
188.536	456.571
191.911	408.446
195.286	302.617
198.661	289.579
202.036	224.345
205.411	250.184
208.785	79.7041
212.16	111.02
215.535	77.7627
218.91	114.468
222.285	114.759
225.659	213.002
229.034	316.642
232.409	414.06
235.784	342.071
239.159	152.894
242.534	69.3164
245.908	60.5635
249.283	48.6201
252.658	20.6104
256.033	50.3047
259.408	14.3613
262.782	75.2148
266.157	83.2188
269.532	48.0518
272.907	54.8301
276.282	43.2607
279.657	62.2451
283.031	35.377
286.406	19.9717
289.781	44.5332
293.156	46.544
296.531	28.3193
299.906	26.0371
303.28	131.553
306.655	214.328
310.03	132.362
313.405	80.6807
316.779	51.7158
320.154	52.6103
323.529	130.976
326.904	126.329
330.279	123.231
333.654	185.356
337.029	134.69
340.403	137.016
343.778	112.168
347.153	162.681
350.528	115.589
353.903	153.768
357.277	7.94531
360.652	3.07129
364.027	88.8203
367.402	48.0986
370.777	86.1748
374.151	99.4541
377.526	136.981
380.901	50.7353
384.276	90.5107
387.651	206.254
391.026	136.961
394.4	122.292
397.775	140.585
401.15	136.233
404.525	151.793
407.9	103.012
411.274	112.954
414.649	201.883
418.024	325.278
421.399	47.2158
424.774	55.1885
428.149	17.8828
431.523	78.4189
434.898	27.4951
438.273	7.48926
441.648	42.3613
445.023	79.4981
448.397	4.35059
451.772	85.1152
455.147	73.5674
458.522	146.954
461.897	120.168
465.272	233.507
468.646	303.846
472.021	288.772
475.396	529.218
478.771	738.487
482.146	1258.77
485.521	2310.65
488.895	3957.06
492.27	6379.82
495.645	10126.6
499.02	13474.8
502.395	7562.16
505.769	2999
509.144	1350.95
512.519	650.398
515.894	401.606
519.269	208.059
522.644	164.017
526.018	74.0889
529.393	24.6113
532.768	40.8603
536.143	16.6777
539.518	57.4766
542.892	32.248
546.267	120.297
549.642	83.4297
553.017	20.4746
556.392	45.8418
559.766	143.371
563.141	63.1035
566.516	152.635
569.891	216.787
573.266	155.688
576.641	212.495
580.015	257.39
583.39	340.961
586.765	351.94
590.14	337.092
593.515	452.961
596.889	483.06
600.264	503.927
603.639	650.589
607.014	929.894
610.389	1073.75
613.764	1426.63
617.138	2029.33
620.513	3250.85
623.888	5145.83
627.263	11954.5
630.638	3498.54
634.013	1314.59
637.387	764.211
640.762	401.424
644.137	124.647
647.512	173.182
650.887	181.231
654.261	40.2344
657.636	44.1943
661.011	43.0147
664.386	153.322
667.761	526.009
671.135	1131.55
674.51	2613.71
677.885	1138.68
681.26	64.3154
684.635	39.8281
688.01	0.052734
691.385	38.4941
694.759	23.165
698.134	2.72656
701.509	17.9521
704.884	10.7979
708.259	28.3828
711.633	41.7607
715.008	76.4463
718.383	26.4189
721.758	113.529
725.133	61.3809
728.507	57.5596
731.882	94.0254
735.257	51.5986
738.632	99.8311
742.007	43.6582
745.381	40.7129
748.756	100.425
752.131	50.8691
755.506	60.4893
758.881	46.3281
762.256	56.666
765.63	20.3154
769.005	8.77148
772.38	111.713
775.755	52.206
779.13	56.166
782.505	56.7598
785.879	55.498
789.254	174.06
792.629	151.829
796.004	217.737
799.379	199.115
802.754	225.269
806.128	266.978
809.503	430.522
812.878	594.109
816.253	777.166
819.628	1129.25
823.002	1328.11
826.377	1302.21
829.752	1203.9
833.127	1136.87
836.502	1088.99
839.876	988.039
843.251	914.09
846.626	694.129
850.001	684.502
853.376	465.036
856.75	534.172
860.125	422.101
863.5	376.629
866.875	297.438
870.25	283.657
873.625	159.264
877	106.522
880.374	136.045
883.749	177.195
887.124	259.768
890.499	242.307
893.874	267.727
897.248	197.057
900.623	43.9902
903.998	110.932
907.373	44.1992
910.748	106.459
914.122	76.2715
917.497	28.6016
920.872	21.7246
924.247	166.31
927.622	111.236
930.997	31.209
934.371	108.897
937.746	45.6484
941.121	37.1328
944.496	78.2461
947.871	50.0215
951.245	35.5215
954.62	20.9062
957.995	70.959
961.37	111.053
964.745	125.897
968.12	51.209
971.494	4.89844
974.869	144.592
978.244	206.848
981.619	197.125
984.994	216.178
988.369	328.631
991.743	369.877
995.118	798.01
998.493	1447.38
1001.87	2320.36
1005.24	5136.37
1008.62	10852.2
1011.99	22829.2
1015.37	50148.9
1018.74	44756.3
1022.12	8695.9
1025.49	3397.75
1028.87	1709.98
1032.24	930.949
1035.62	738.426
1038.99	510.684
1042.37	331.066
1045.74	237.863
1049.12	176.531
1052.49	148.893
1055.87	220.748
1059.24	79.0312
1062.62	60.4805
1065.99	31.5469
1069.36	8.25
1072.74	29.877
1076.11	10.3711
1079.49	5.06445
1082.86	38.3027
1086.24	127.039
1089.61	3.66211
1092.99	94.6934
1096.36	85.7656
1099.74	172.81
1103.11	238.607
1106.49	239.85
1109.86	194.268
1113.24	407.609
1116.61	706.33
1119.99	1908.25
1123.36	3740.73
1126.74	8287.44
1130.11	9517.4
1133.49	1599.26
1136.86	609.223
1140.23	355.746
1143.61	135.092
1146.98	309.703
1150.36	826.875
1153.73	2053.31
1157.11	4635.47
1160.48	9421.01
1163.86	1878.88
1167.23	376.785
1170.61	217.609
1173.98	152.545
1177.36	85.7754
1180.73	152.949
1184.11	127.295
1187.48	68.5996
1190.86	7.87695
1194.23	34.4219
1197.61	37.373
1200.98	18.6562
1204.36	59.5234
1207.73	79.8516
1211.11	186.162
1214.48	142.262
1217.86	103.391
1221.23	134.824
1224.61	209.402
1227.98	134.519
1231.36	142.5
1234.73	228.231
1238.11	178.938
1241.48	189.555
1244.86	166.56
1248.23	206.852
1251.6	241.586
1254.98	137.504
1258.35	88.3828
1261.73	108.857
1265.1	2.82617
1268.48	122.348
1271.85	344.635
1275.23	159.897
1278.6	101.621
1281.98	112.932
1285.35	103.637
1288.73	42.8789
