Measurement: Raman, 785 nm, unoriented, Raman Data Processed
Mineral: Anhydrite
Rruff sample: R040061
Ideal chemistry: CaSO_4_
Locality: Chester County, Pennsylvania, USA
Source: University of Arizona Mineral Museum
Description: Pale purple fractured single crystal
Measured chemistry: Ca_0.98_S_1.01_O_4_
Raman shift (cm-1)	intensity
129.724	0
132.617	110.586
135.51	66.787
138.402	15.4217
141.295	83.6946
144.188	317.231
147.08	602.106
149.973	712.155
152.866	544.419
155.758	370.136
158.651	429.232
161.544	615.57
164.436	961.008
167.329	1921.11
170.222	1514.35
173.115	569.147
176.007	399.418
178.9	333.445
181.793	332.636
184.685	299.591
187.578	287.43
190.471	276.851
193.363	261.075
196.256	223.45
199.149	233.369
202.042	198.013
204.934	174.194
207.827	190.963
210.72	147.434
213.612	118.232
216.505	113.705
219.398	176.067
222.291	186.811
225.183	284.288
228.076	441.639
230.969	626.634
233.861	645.671
236.754	384.419
239.647	246.081
242.539	135.063
245.432	117.09
248.325	68.9273
251.218	55.5753
254.11	16.79
257.003	3.46143
259.896	45.5912
262.788	47.3982
265.681	66.5138
268.574	54.1585
271.466	24.635
274.359	32.6718
277.252	9.47229
280.144	24.9145
283.037	2.0907
285.93	13.7662
288.823	25.705
291.715	7.2605
294.608	16.5955
297.501	18.2122
300.393	6.59753
303.286	27.014
306.179	31.0027
309.072	14.9387
311.964	17.9463
314.857	24.2833
317.75	14.4758
320.642	2.1344
323.535	6.19495
326.428	30.0081
329.32	24.8795
332.213	30.1295
335.106	19.6116
337.998	22.0727
340.891	12.8531
343.784	23.3336
346.677	21.7098
349.569	27.6704
352.462	44.9291
355.355	17.0679
358.247	14.0621
361.14	28.783
364.033	9.4751
366.925	17.1962
369.818	19.3867
372.711	13.5303
375.604	68.7081
378.496	28.6532
381.389	23.6614
384.282	16.7179
387.174	8.03174
390.067	15.0158
392.96	36.8391
395.853	46.917
398.745	41.8511
401.638	28.5356
404.531	37.2347
407.423	27.1291
410.316	7.64417
413.209	74.6171
416.101	181.648
418.994	84.8381
421.887	49.4625
424.779	29.1542
427.672	2.7063
430.565	0.05603
433.458	5.55176
436.35	13.459
439.243	0.214966
442.136	29.8604
445.028	2.83935
447.921	1.78699
450.814	20.0021
453.707	21.0574
456.599	7.86231
459.492	15.4725
462.385	35.2936
465.277	21.9292
468.17	28.13
471.063	43.8374
473.955	47.6677
476.848	58.6641
479.741	78.5254
482.634	160.707
485.526	254.468
488.419	432.307
491.312	819.657
494.204	1386.75
497.097	2103.46
499.99	2124.14
502.882	1125.18
505.775	518.309
508.668	275.869
511.56	145.482
514.453	97.5914
517.346	43.4519
520.239	53.1218
523.131	10.5183
526.024	43.4504
528.917	28.1902
531.809	9.50464
534.702	4.41797
537.595	25.505
540.487	24.2767
543.38	34.0632
546.273	3.39465
549.166	9.70825
552.058	22.6923
554.951	26.3949
557.844	8.95776
560.736	11.011
563.629	40.4083
566.522	11.6735
569.414	5.18176
572.307	1.70154
575.2	7.9165
578.093	5.73877
580.985	16.5369
583.878	11.2618
586.771	3.30371
589.663	5.75024
592.556	25.0022
595.449	4.09851
598.341	15.4635
601.234	35.7783
604.127	48.7772
607.02	61.296
609.912	78.6193
612.805	116.758
615.698	188.545
618.59	451.072
621.483	1161.49
624.376	2432.18
627.269	5615.71
630.161	1866.76
633.054	322.039
635.947	128.674
638.839	91.001
641.732	45.5861
644.625	25.5975
647.517	1.4906
650.41	5.08667
653.303	24.3208
656.196	45.757
659.088	42.2233
661.981	79.2696
664.874	175.497
667.766	531.573
670.659	1271.75
673.552	2995.21
676.444	3833.45
679.337	645.418
682.23	171.127
685.122	69.0464
688.015	30.9906
690.908	18.8137
693.801	21.8973
696.693	29.9851
699.586	36.8312
702.479	7.42981
705.371	2.43298
708.264	8.64563
711.157	6.91125
714.049	11.958
716.942	19.9869
719.835	30.5488
722.728	45.8829
725.62	16.2194
728.513	10.0709
731.406	37.2739
734.298	24.1717
737.191	2.8042
740.084	10.4038
742.976	16.4476
745.869	7.80127
748.762	88.2198
751.655	8.71936
754.547	14.7875
757.44	26.1627
760.333	16.8455
763.225	16.894
766.118	23.9056
769.011	17.738
771.904	59.0841
774.796	31.5098
777.689	27.8657
780.582	49.9833
783.474	59.3165
786.367	44.1525
789.26	32.411
792.152	29.1008
795.045	44.0873
797.938	42.6094
800.831	24.1378
803.723	34.3705
806.616	22.7872
809.509	30.2025
812.401	21.0253
815.294	30.4026
818.187	43.673
821.079	42.757
823.972	27.1112
826.865	10.3511
829.757	34.6487
832.65	36.9613
835.543	33.7106
838.436	30.135
841.328	20.0334
844.221	17.6226
847.114	23.0294
850.006	17.9156
852.899	27.213
855.792	22.5498
858.684	24.1445
861.577	3.25427
864.47	6.48657
867.362	32.0074
870.255	9.5022
873.148	8.09668
876.041	2.65735
878.933	21.468
881.826	9.6759
884.719	11.7006
887.611	7.49036
890.504	25.792
893.397	18.8964
896.29	11.3689
899.182	2.88037
902.075	3.67444
904.968	12.8652
907.86	27.446
910.753	12.238
913.646	9.77454
916.538	24.0998
919.431	19.5901
922.324	8.14661
925.217	0.449707
928.109	12.4906
931.002	27.8243
933.895	15.9298
936.787	25.3036
939.68	10.8391
942.573	16.7427
945.466	12.8904
948.358	11.5237
951.251	0.610962
954.144	40.3794
957.036	6.18189
959.929	40.2051
962.822	14.3868
965.714	27.1574
968.607	25.6235
971.5	48.2661
974.393	40.3766
977.285	53.7627
980.178	73.444
983.071	72.5806
985.963	69.9069
988.856	102.938
991.749	127.276
994.641	216.619
997.534	359.498
1000.43	536.853
1003.32	648.761
1006.21	1178.66
1009.11	2700.92
1012	7150.51
1014.89	17299.5
1017.78	22718.5
1020.68	6031.13
1023.57	2005.46
1026.46	986.93
1029.35	593.341
1032.25	360.896
1035.14	234.815
1038.03	209.186
1040.92	124.759
1043.82	88.8893
1046.71	71.3856
1049.6	55.2633
1052.49	38.1715
1055.39	23.6912
1058.28	23.7898
1061.17	25.7501
1064.07	21.4651
1066.96	15.5662
1069.85	11.6152
1072.74	9.51221
1075.64	2.25287
1078.53	6.17981
1081.42	4.14929
1084.32	15.9726
1087.21	28.8946
1090.1	13.6648
1092.99	6.54132
1095.89	20.9138
1098.78	5.36768
1101.67	9.5976
1104.56	34.8834
1107.46	71.9815
1110.35	119.385
1113.24	195.072
1116.13	291.084
1119.03	597.078
1121.92	1563.27
1124.81	4564.18
1127.71	10979
1130.6	7453.47
1133.49	1563.82
1136.38	566.342
1139.28	333.374
1142.17	206.522
1145.06	138.282
1147.95	144.509
1150.85	206.101
1153.74	471.968
1156.63	1359.06
1159.53	3181
1162.42	1516.13
1165.31	353.639
1168.2	141.412
1171.1	80.9445
1173.99	52.868
1176.88	19.5432
1179.77	9.40247
1182.67	6.78815
1185.56	16.6633
1188.45	6.45337
1191.35	5.34094
1194.24	26.4766
1197.13	6.91907
1200.02	44.7891
1202.92	36.072
1205.81	4.96918
1208.7	25.311
1211.59	49.2476
1214.49	39.2016
1217.38	54.8015
1220.27	66.7964
1223.16	37.5369
1226.06	16.3726
1228.95	24.7569
1231.84	19.5071
1234.73	18.6581
1237.63	0.759094
1240.52	0.720459
1243.41	18.8138
1246.31	46.4502
1249.2	45.754
1252.09	1.44488
1254.98	14.7408
1257.88	0.441528
1260.77	17.8807
