Measurement: Raman, 785 nm, unoriented, Raman Data Processed
Mineral: Anhydrite
Rruff sample: R061102
Ideal chemistry: CaSO_4_
Locality: Taft, Kern County, California
Source: Michael Scott
Description: White massive with crystalline gypsum
Measured chemistry: (Ca_0.98_Fe^2+^_0.02_)_Î£=1_S_1.00_O_4_
Raman shift (cm-1)	intensity
202.306	0
205.198	34.0469
208.091	0.035156
210.984	45.25
213.876	99.3906
216.769	142.543
219.662	222.844
222.554	426.188
225.447	382.957
228.34	451.957
231.233	573.312
234.125	689.59
237.018	776.555
239.911	868.219
242.803	1055.2
245.696	1004.97
248.589	981.531
251.482	944.043
254.374	930.023
257.267	949.609
260.16	1076.91
263.052	1025.7
265.945	843.617
268.838	964.062
271.73	996.09
274.623	1216.89
277.516	1203.08
280.409	1314.78
283.301	1453.44
286.194	1401.93
289.087	1496.98
291.979	1161.93
294.872	930.281
297.765	800.812
300.657	649.148
303.55	548.945
306.443	628.043
309.336	611.477
312.228	394.106
315.121	229.356
318.014	126.035
320.906	176.367
323.799	108.406
326.692	357.57
329.584	168.898
332.477	194.629
335.37	98.6914
338.262	143.027
341.155	35.6016
344.048	159.965
346.941	22.7148
349.833	235.723
352.726	185.293
355.619	151.672
358.511	174.902
361.404	1.67188
364.297	38.3672
367.19	38.9922
370.082	29.9062
372.975	79.7578
375.868	203.57
378.76	203.727
381.653	65.3047
384.546	58.8633
387.438	10.0508
390.331	5.70312
393.224	231.027
396.116	138.777
399.009	168.269
401.902	198.859
404.795	277.918
407.687	294.168
410.58	456.875
413.473	950.856
416.365	1643.68
419.258	1128.46
422.151	303.309
425.043	273.879
427.936	21.4961
430.829	189.066
433.722	40.4336
436.614	24.8164
439.507	214.422
442.4	214.801
445.292	165.148
448.185	127.953
451.078	114.863
453.971	61.3633
456.863	122.848
459.756	35.3203
462.649	89.4258
465.541	196.906
468.434	207.754
471.327	151.57
474.219	200.582
477.112	82.2617
480.005	191.195
482.897	303.227
485.79	385.644
488.683	736.078
491.576	1096.77
494.468	1316.53
497.361	1958.81
500.254	1895.37
503.146	1108.42
506.039	617.516
508.932	350.949
511.824	270.195
514.717	299.09
517.61	162.684
520.503	139.832
523.395	106.644
526.288	134.731
529.181	97.2891
532.073	3.45312
534.966	73.5195
537.859	216.106
540.751	120.227
543.644	35.7383
546.537	69.4102
549.43	104.469
552.322	24.7344
555.215	43.6016
558.108	182.199
561	189.91
563.893	198.156
566.786	149.602
569.678	167.269
572.571	8.46484
575.464	184.566
578.356	187.957
581.249	201.133
584.142	256.164
587.035	224.352
589.927	227.699
592.82	204.5
595.713	298.715
598.605	204.539
601.498	399.379
604.391	766.277
607.284	1134.75
610.176	1467.12
613.069	502.723
615.962	282.414
618.854	346.602
621.747	440.391
624.64	756.144
627.532	1322.74
630.425	733.305
633.318	184.086
636.211	115.75
639.103	36.2148
641.996	96.5
644.889	54.1758
647.781	87.5859
650.674	15.9922
653.567	61.2188
656.459	131.824
659.352	148.918
662.245	213.383
665.138	305.506
668.03	408.836
670.923	508.577
673.816	975.273
676.708	1237.21
679.601	504.258
682.494	127.363
685.386	17.3867
688.279	47.9297
691.172	90.6602
694.064	56.5781
696.957	107.113
699.85	73.4922
702.743	110.863
705.635	123.793
708.528	118.379
711.421	151.559
714.313	139.828
717.206	109.594
720.099	228.562
722.991	204.961
725.884	47.5156
728.777	23.7656
731.67	60.5703
734.562	131.68
737.455	79.2344
740.348	52.9062
743.24	177.754
746.133	189.051
749.026	136.172
751.918	186.422
754.811	103.582
757.704	179.031
760.597	238.16
763.489	4.93359
766.382	27.0547
769.275	121.148
772.167	109.85
775.06	49.5957
777.953	153.756
780.846	160.397
783.738	126.992
786.631	161.012
789.524	146.756
792.416	236.44
795.309	148.773
798.202	43.7051
801.094	74.4473
803.987	129.984
806.88	153.393
809.773	230.941
812.665	46.166
815.558	182.559
818.451	130.861
821.343	158.606
824.236	117.32
827.129	184.711
830.021	50.7285
832.914	24.5234
835.807	34.0449
838.699	205.678
841.592	41.4414
844.485	218.629
847.378	77.2988
850.27	112.014
853.163	85.7324
856.056	156.584
858.948	61.7852
861.841	122.674
864.734	127.635
867.626	133.777
870.519	56.7559
873.412	175.889
876.305	73.5215
879.197	208.1
882.09	131.115
884.983	136.477
887.875	62.1465
890.768	125.084
893.661	15.7305
896.553	248.07
899.446	119.316
902.339	10.7266
905.232	84.9785
908.124	89.4004
911.017	178.67
913.91	63.082
916.802	89.707
919.695	101.84
922.588	50.7715
925.481	173.869
928.373	29.877
931.266	166.287
934.159	61.3516
937.051	0.527344
939.944	55.4922
942.837	115.752
945.729	131.135
948.622	11.5098
951.515	152.24
954.407	82.2285
957.3	84.7441
960.193	181.435
963.086	38.875
965.978	34.0742
968.871	92.4707
971.764	27.375
974.656	43.2832
977.549	31.9805
980.442	161.902
983.334	15.8223
986.227	71.6484
989.12	115.838
992.013	161.207
994.905	150.115
997.798	329.6
1000.69	468.465
1003.58	712.375
1006.48	1151.8
1009.37	2268.89
1012.26	4125.33
1015.15	7628.61
1018.05	8683
1020.94	4250.11
1023.83	1540.04
1026.72	708.127
1029.62	478.516
1032.51	414.16
1035.4	241.457
1038.3	277.549
1041.19	102.131
1044.08	44.8535
1046.97	101.787
1049.87	35.5781
1052.76	103.654
1055.65	15.9434
1058.55	114.596
1061.44	91.6426
1064.33	165.318
1067.22	93.8144
1070.12	16.7773
1073.01	69.1269
1075.9	96.9531
1078.79	102.838
1081.69	157.555
1084.58	210.672
1087.47	132.353
1090.36	123.842
1093.26	239.211
1096.15	151.885
1099.04	267.812
1101.93	325.09
1104.83	401.592
1107.72	436.457
1110.61	534.967
1113.51	427.361
1116.4	284.727
1119.29	236.482
1122.18	465.269
1125.08	861.553
1127.97	1640.24
1130.86	1391.2
1133.76	493.242
1136.65	104.033
1139.54	66.4902
1142.43	31
1145.33	67.5859
1148.22	19.2891
1151.11	183.637
1154	365.312
1156.9	485.69
1159.79	826.285
1162.68	685.951
1165.57	319.719
1168.47	168.42
1171.36	24.1055
1174.25	22.7637
1177.14	102.033
1180.04	168.328
1182.93	144.676
1185.82	156.025
1188.72	44.5352
1191.61	10.4551
