Measurement: Raman, 780 nm, unoriented, Raman Data Processed
Mineral: Anhydrite
Rruff sample: R040012
Ideal chemistry: CaSO_4_
Locality: Moundhouse, Nevada, USA
Source: University of Arizona Mineral Museum
Description: White massive
Measured chemistry: Ca_1.00_S_1.00_O_4_
Raman shift (cm-1)	intensity
109.938	0
113.313	4.17595
116.687	10.8297
120.062	23.4275
123.437	53.8353
126.812	31.623
130.187	41.714
133.561	37.1267
136.936	2.82546
140.311	2.37654
143.686	0.888336
147.061	4.4242
150.436	10.9428
153.81	8.67306
157.185	11.0928
160.56	13.2824
163.935	16.2267
167.31	34.0159
170.685	29.8393
174.059	4.15072
177.434	0.706319
180.809	1.18527
184.184	0.935446
187.559	1.03387
190.933	0.344105
194.308	1.43108
197.683	1.54512
201.058	0.62176
204.433	1.08358
207.808	2.40357
211.182	5.41287
214.557	6.82852
217.932	9.06265
221.307	11.1327
224.681	13.8863
228.056	15.9286
231.431	15.9805
234.806	13.0537
238.181	6.3762
241.556	3.04765
244.93	1.4594
248.305	0.729605
251.68	0.109523
255.055	0.216766
258.43	0.148385
261.805	0.631266
265.179	0.079637
268.554	0.543057
271.929	0.41529
275.304	0.053267
278.679	0.080746
282.053	0.106319
285.428	0.070649
288.803	0.287598
292.178	0.443273
295.553	0.170042
298.928	0.385042
302.302	0.683043
305.677	1.06777
309.052	1.35187
312.427	1.14265
315.802	0.651541
319.176	0.711622
322.551	1.80227
325.926	1.34974
329.301	0.863367
332.676	0.64172
336.05	0.797154
339.425	1.22946
342.8	0.773866
346.175	0.01371
349.55	0.25143
352.925	0.556731
356.299	0.13966
359.674	0.035316
363.049	0.157446
366.424	0.684811
369.799	0.016024
373.173	0.588882
376.548	1.10896
379.923	0.706551
383.298	1.23438
386.673	1.59336
390.048	2.21402
393.422	5.53303
396.797	31.0331
400.172	71.634
403.547	67.4239
406.922	92.8833
410.296	121.427
413.671	178.423
417.046	272.01
420.421	45.2536
423.796	7.03496
427.171	2.28715
430.545	0.852436
433.92	0.850693
437.295	0.801663
440.67	0.541738
444.045	0.268503
447.419	0.440627
450.794	0.280883
454.169	0.759731
457.544	1.52004
460.919	2.81158
464.293	3.92596
467.668	6.07076
471.043	9.60804
474.418	14.6681
477.793	27.8259
481.168	51.6746
484.542	72.1631
487.917	90.3771
491.292	113.543
494.667	148.514
498.042	177.027
501.416	129.831
504.791	55.4348
508.166	24.5107
511.541	12.1349
514.916	6.07085
518.29	3.16348
521.665	2.2973
525.04	1.50041
528.415	1.35586
531.79	1.05717
535.165	1.39443
538.539	0.669013
541.914	0.297405
545.289	0.573877
548.664	0.470604
552.039	0.445372
555.413	0.009133
558.788	0.184492
562.163	0.555597
565.538	0.3682
568.913	0.142708
572.288	0.255032
575.662	0.087913
579.037	0.880972
582.412	1.62437
585.787	3.03307
589.162	8.19202
592.537	50.3732
595.911	53.2976
599.286	70.8264
602.661	98.1038
606.036	139.81
609.411	204.996
612.785	53.3968
616.16	25.3797
619.535	31.6586
622.91	43.9683
626.285	84.7053
629.659	66.765
633.034	7.60807
636.409	1.23805
639.784	0.344926
643.159	0.257741
646.534	0.398938
649.908	1.11266
653.283	4.0594
656.658	16.7711
660.033	65.0228
663.408	70.6313
666.783	97.9802
670.157	133.456
673.532	200.09
676.907	178.771
680.282	29.3577
683.657	6.40362
687.031	3.02296
690.406	0.842731
693.781	0.646186
697.156	0.428202
700.531	0.025068
703.905	0.666518
707.28	0.332984
710.655	0.052197
714.03	0.305699
717.405	0.127764
720.779	0.009201
724.154	0.49347
727.529	0.236138
730.904	0.030177
734.279	0.025173
737.654	0.267602
741.028	0.242708
744.403	0.252666
747.778	0.263686
751.153	0.460362
754.528	0.181848
757.903	0.410951
761.277	0.134915
764.652	1.19519
768.027	0.581045
771.402	0.650672
774.777	0.645197
778.151	0.794152
781.526	0.321153
784.901	0.386121
788.276	0.09632
791.651	0.429525
795.025	0.361987
798.4	0.519094
801.775	0.686281
805.15	0.414569
808.525	0.521292
811.899	0.319184
815.274	0.874317
818.649	0.55798
822.024	1.17292
825.399	1.30966
828.774	1.79026
832.148	2.01312
835.523	2.14857
838.898	1.78711
842.273	2.16097
845.648	1.8394
849.023	1.71023
852.397	1.67544
855.772	1.26989
859.147	1.38851
862.522	1.38348
865.897	0.674085
869.271	0.217706
872.646	0.608687
876.021	0.253652
879.396	0.093512
882.771	0.055663
886.145	0.186119
889.52	0.09159
892.895	0.403587
896.27	0.352129
899.645	0.248301
903.02	0.351516
906.394	0.144677
909.769	0.076797
913.144	0.168398
916.519	0.091324
919.894	0.217173
923.269	0.188162
926.643	0.208094
930.018	0.162468
933.393	0.081044
936.768	0.172986
940.143	0.076241
943.517	0.202581
946.892	0.028646
950.267	0.001711
953.642	0.313425
957.017	0.078592
960.391	0.495216
963.766	1.10946
967.141	1.42701
970.516	2.26071
973.891	2.87854
977.265	3.97524
980.64	5.35557
984.015	8.41483
987.39	13.4995
990.765	20.3363
994.14	32.5403
997.514	60.7711
1000.89	142.263
1004.26	414.162
1007.64	567.147
1011.01	840.83
1014.39	1187.29
1017.76	1483.37
1021.14	464.315
1024.51	132.835
1027.89	60.5275
1031.26	32.8765
1034.64	19.8616
1038.01	12.9426
1041.39	8.65865
1044.76	5.81945
1048.14	4.2921
1051.51	2.9531
1054.89	1.66652
1058.26	1.59919
1061.64	0.651931
1065.01	0.222924
1068.39	0.100039
1071.76	0.274866
1075.13	0.787046
1078.51	0.048682
1081.88	0.28193
1085.26	0.387787
1088.63	0.919827
1092.01	1.63724
1095.38	6.70511
1098.76	18.688
1102.13	29.5014
1105.51	45.2739
1108.88	65.955
1112.26	72.3333
1115.63	76.7669
1119.01	100.602
1122.38	138.885
1125.76	202.997
1129.13	280.369
1132.51	105.32
1135.88	24.1451
1139.26	10.8448
1142.63	6.92548
1146.01	7.96935
1149.38	14.9648
1152.76	18.4763
1156.13	28.6534
1159.51	50.5863
1162.88	34.8304
1166.26	6.98401
1169.63	2.00094
1173.01	0.555
1176.38	0.506093
1179.76	0.156547
1183.13	0.320505
1186.5	0.288318
1189.88	0.182326
1193.25	0.158929
1196.63	0.340375
1200	0.09491
1203.38	0.027733
1206.75	0.266996
1210.13	0.340744
1213.5	0.685977
1216.88	0.693728
1220.25	1.44505
1223.63	0.43268
1227	0.789942
1230.38	0.261818
1233.75	0.487706
1237.13	0.704983
1240.5	0.916062
1243.88	0.185346
1247.25	0.873198
1250.63	1.24207
1254	0.829192
1257.38	0.638755
1260.75	0.315457
1264.12	0.39273
1267.5	0.284968
