Measurement: Raman, 780 nm, unoriented, Raman Data Processed
Mineral: Ankerite
Rruff sample: R050181
Ideal chemistry: CaFe^2+^(CO_3_)_2_
Locality: Cerro Sapo, Cochabamba Department, Bolivia
Source: Marcus Origlieri
Description: White coarsely crystalline massive
Measured chemistry: Ca_1.00_(Fe^2+^_0.60_Mg_0.35_Mn^2+^_0.05_)_Î£=1_(CO_3_)_2_ ; C not measured but estimated by difference and stoichiometry
Raman shift (cm-1)	intensity
114.179	0
117.554	0.276905
120.929	0.573307
124.303	1.21336
127.678	2.74891
131.053	5.12519
134.428	5.67526
137.803	11.3827
141.178	17.3537
144.552	25.2825
147.927	36.4208
151.302	45.8507
154.677	53.4575
158.052	62.8509
161.426	70.6534
164.801	76.7508
168.176	65.8297
171.551	41.0463
174.926	21.4828
178.3	11.1888
181.675	5.96331
185.05	3.05674
188.425	1.21531
191.8	0.208572
195.174	0.164793
198.549	0.442232
201.924	0.786327
205.299	0.4802
208.674	0.330099
212.049	0.054998
215.423	0.691862
218.798	1.35692
222.173	1.17198
225.548	2.7161
228.923	3.3256
232.298	5.07557
235.672	8.14448
239.047	11.7151
242.422	15.8722
245.797	22.2963
249.172	30.8541
252.546	42.6232
255.921	57.4733
259.296	75.3723
262.671	94.7137
266.046	115.046
269.42	134.145
272.795	149.377
276.17	156.032
279.545	152.275
282.92	139.172
286.295	115.918
289.669	92.1558
293.044	69.4997
296.419	48.7005
299.794	34.0757
303.169	23.1001
306.543	16.0995
309.918	10.6503
313.293	7.72057
316.668	5.94056
320.043	4.19078
323.418	4.18247
326.792	2.91959
330.167	3.23878
333.542	1.67664
336.917	1.47147
340.292	1.45491
343.666	0.913708
347.041	0.04249
350.416	0.326305
353.791	0.132103
357.166	0.216665
360.541	0.170639
363.915	0.552984
367.29	0.122707
370.665	0.391027
374.04	0.159945
377.414	0.105263
380.789	0.352409
384.164	0.354929
387.539	0.820078
390.914	0.42807
394.289	0.457591
397.663	0.041321
401.038	1.04203
404.413	0.645054
407.788	1.07873
411.163	1.22301
414.538	0.592717
417.912	0.715729
421.287	0.939197
424.662	0.472835
428.037	0.701174
431.412	0.845705
434.786	0.640616
438.161	0.686125
441.536	0.525249
444.911	0.374365
448.286	0.38081
451.661	0.722526
455.035	0.335639
458.41	0.368308
461.785	0.200678
465.16	0.499494
468.534	0.173937
471.909	0.591397
475.284	0.401484
478.659	0.236369
482.034	0.515383
485.409	0.135196
488.783	0.149851
492.158	0.517232
495.533	0.053993
498.908	0.5625
502.283	0.53517
505.658	0.593378
509.032	0.738132
512.407	0.544367
515.782	0.698201
519.157	0.71442
522.532	0.329288
525.906	1.02378
529.281	0.673259
532.656	0.688891
536.031	0.79391
539.406	0.895546
542.78	1.04964
546.155	1.35823
549.53	0.718063
552.905	1.17912
556.28	1.03756
559.654	0.976367
563.029	0.660028
566.404	0.636508
569.779	1.25511
573.154	0.837604
576.529	0.627985
579.903	0.484848
583.278	0.265205
586.653	0.474964
590.028	0.223022
593.403	0.096574
596.778	0.227929
600.152	0.533863
603.527	0.218193
606.902	0.307462
610.277	0.100548
613.652	0.039615
617.026	0.24383
620.401	0.333019
623.776	0.001079
627.151	0.222943
630.526	0.089345
633.9	0.033536
637.275	0.074759
640.65	0.076671
644.025	0.241424
647.4	0.041428
650.774	0.370209
654.149	0.204247
657.524	0.745231
660.899	0.311859
664.274	0.671979
667.649	0.631449
671.023	0.388567
674.398	1.00985
677.773	1.08027
681.148	1.67076
684.523	1.92082
687.898	2.48009
691.272	3.59474
694.647	5.16472
698.022	8.24471
701.397	12.7729
704.772	18.8731
708.146	27.0803
711.521	34.3867
714.896	42.1992
718.271	45.926
721.646	41.5412
725.02	29.83
728.395	17.6552
731.77	10.7335
735.145	5.67211
738.52	3.39001
741.895	1.63345
745.269	1.05618
748.644	0.821681
752.019	0.174597
755.394	0.071269
758.769	0.178821
762.144	0.189995
765.518	0.017453
768.893	0.08895
772.268	0.129825
775.643	0.040349
779.018	0.033785
782.392	0.391883
785.767	0.803989
789.142	0.588809
792.517	0.738398
795.892	0.471513
799.266	0.542854
802.641	0.635392
806.016	0.690629
809.391	1.24877
812.766	0.988129
816.14	1.11707
819.515	1.49985
822.89	1.12844
826.265	1.63675
829.64	2.00319
833.015	1.70084
836.389	1.58369
839.764	1.30945
843.139	1.73813
846.514	1.69921
849.889	1.86878
853.264	2.08457
856.638	1.83237
860.013	2.18399
863.388	2.38798
866.763	2.26412
870.138	2.92294
873.512	2.6199
876.887	1.456
880.262	1.11641
883.637	0.955709
887.012	0.95709
890.386	0.704562
893.761	0.85544
897.136	0.470395
900.511	0.229362
903.886	0.181796
907.26	0.481558
910.635	0.136688
914.01	0.134974
917.385	0.111651
920.76	0.036727
924.135	0.215406
927.509	0.222828
930.884	0.69297
934.259	0.459497
937.634	0.226368
941.009	0.171318
944.384	0.400572
947.758	0.300722
951.133	0.154586
954.508	0.335676
957.883	0.173578
961.258	0.078642
964.632	0.239028
968.007	0.197227
971.382	0.094069
974.757	0.001796
978.132	0.225738
981.506	0.057398
984.881	0.253476
988.256	0.144268
991.631	0.292093
995.006	0.144422
998.381	0.145153
1001.75	0.081744
1005.13	0.831766
1008.5	0.597714
1011.88	0.493836
1015.25	1.21245
1018.63	1.62787
1022	1.87939
1025.38	2.35816
1028.75	4.29297
1032.13	3.13226
1035.5	3.98228
1038.88	4.44939
1042.25	4.42541
1045.63	5.8999
1049	6.40271
1052.38	7.29783
1055.75	9.05855
1059.13	12.4785
1062.5	16.1661
1065.88	21.9124
1069.25	31.688
1072.63	49.8026
1076	105.794
1079.38	227.619
1082.75	347.811
1086.13	503.282
1089.5	641.247
1092.88	496.679
1096.25	183.686
1099.62	58.9879
1103	24.4692
1106.38	12.9344
1109.75	7.17202
1113.12	4.55715
1116.5	2.54531
1119.87	2.04883
1123.25	1.66977
1126.62	0.55589
1130	0.553924
1133.37	0.009162
1136.75	0.112184
1140.12	0.050614
1143.5	0.264691
1146.87	0.058428
1150.25	0.154744
1153.62	0.30572
1157	0.04
1160.37	0.302953
1163.75	0.082691
1167.12	0.36083
1170.5	0.566951
1173.87	0.645957
1177.25	0.555691
1180.62	0.658613
1183.99	0.987792
1187.37	1.14756
1190.74	0.659513
1194.12	1.06668
1197.49	0.694406
1200.87	0.535155
1204.24	0.407579
1207.62	0.902571
1210.99	0.656977
1214.37	0.344778
1217.74	0.470663
1221.12	0.19481
1224.49	0.171237
1227.87	0.085059
1231.24	0.133158
1234.62	0.338281
1237.99	0.53577
1241.37	0.558224
1244.74	0.461828
1248.12	0.273916
1251.49	0.298474
1254.87	0.408703
1258.24	0.590536
1261.62	0.61939
1264.99	0.646858
1268.37	0.597919
1271.74	0.723099
1275.12	0.56977
1278.49	0
