Measurement: Raman, 514 nm, unoriented, Raman Data Processed
Mineral: Ankerite
Rruff sample: R050197
Ideal chemistry: CaFe^2+^(CO_3_)_2_
Locality: Brownley Hill mine, Nenthead, Cumbria, England
Source: Marcus Origlieri
Description: Curved saddle-shaped rhombohedral crystals
Measured chemistry: Ca_1.00_(Fe^2+^_0.52_Mg_0.35_Ca_0.08_Mn^2+^_0.05_)_Î£=1_(CO_3_)_2_ ; where C was not measured but estimated by difference and stoichiometry
Raman shift (cm-1)	intensity
52.866	0
57.065	14.154
61.262	10.458
65.458	10.257
69.651	18.097
73.842	76.852
78.031	109.376
82.218	232.539
86.404	206.591
90.587	310.026
94.768	290.476
98.947	296.588
103.124	337.021
107.3	366.6
111.473	399.21
115.644	500.773
119.813	478.225
123.981	461.492
128.146	510.502
132.309	542.19
136.47	663.485
140.63	713.94
144.787	815.486
148.942	1045.28
153.096	1416.46
157.247	2172.05
161.396	3512.02
165.544	4752.38
169.689	4514.17
173.833	2909.38
177.974	1629.03
182.114	1055.04
186.251	757.349
190.387	619.948
194.52	551.782
198.652	495.843
202.782	491.128
206.909	495.627
211.035	453.335
215.159	476.243
219.281	450.528
223.4	438.439
227.518	452.633
231.634	496.123
235.748	525.962
239.86	642.599
243.97	720.737
248.079	922.069
252.185	1177.69
256.289	1537.82
260.391	2097.52
264.492	2962.39
268.59	4244.17
272.687	5876.85
276.781	7546.63
280.874	8363.1
284.964	8127.03
289.053	6999.24
293.14	5510.21
297.225	3925.02
301.308	2639.67
305.389	1767.54
309.468	1230.09
313.545	896.846
317.62	676.196
321.693	585.344
325.765	441.42
329.834	381.612
333.902	315.922
337.967	300.361
342.031	243.916
346.093	195.571
350.153	163.316
354.21	119.151
358.267	112.069
362.321	60.066
366.373	49.135
370.423	29.275
374.471	38.48
378.518	28.749
382.563	3.087
386.605	16.552
390.646	4.146
394.685	18.858
398.722	9.672
402.757	25.417
406.79	15.448
410.821	0.568
414.851	4.373
418.878	10.271
422.904	4.565
426.927	2.022
430.949	27.753
434.969	17.514
438.987	2.261
443.003	14.992
447.018	1.315
451.03	31.426
455.041	20.183
459.049	7.409
463.056	29.905
467.061	30.526
471.064	38.055
475.065	23.72
479.064	23.328
483.062	21.366
487.057	46.949
491.051	65.625
495.043	49.781
499.032	72.584
503.02	61.661
507.007	55.35
510.991	72.442
514.973	114.18
518.954	120.185
522.933	123.746
526.91	92.312
530.885	135.876
534.858	132.365
538.829	127.995
542.799	128.556
546.766	134.104
550.732	158.648
554.696	119.63
558.658	165.142
562.618	149.497
566.576	139.149
570.533	119.094
574.488	100.429
578.44	88.418
582.391	52.589
586.341	113.823
590.288	99.75
594.233	72.867
598.177	54.299
602.119	63.855
606.059	41.514
609.997	39.22
613.933	22.543
617.868	35.662
621.801	20.508
625.731	29.407
629.66	30.1
633.588	16.323
637.513	7.995
641.437	36.754
645.358	11.911
649.278	3.325
653.196	5.842
657.113	4.292
661.027	61.56
664.94	36.643
668.851	32.964
672.76	29.833
676.667	61.851
680.572	65.458
684.476	78.168
688.378	74.434
692.278	79.602
696.176	151.868
700.072	165.959
703.967	257.308
707.86	471.303
711.751	777.291
715.64	1438.21
719.527	2046.09
723.413	1900.94
727.297	1331.78
731.179	823.584
735.059	490.369
738.937	345.135
742.814	209.87
746.689	172.918
750.562	74.603
754.433	98.269
758.303	51.922
762.17	20.507
766.036	30.133
769.901	12.612
773.763	31.795
777.624	7.126
781.482	9.449
785.339	31.542
789.195	8.319
793.048	19.158
796.9	2.235
800.75	5.802
804.598	29.496
808.445	6.59
812.289	42.782
816.132	32.802
819.973	12.437
823.813	1.443
827.65	15.486
831.486	4.989
835.32	8.182
839.152	7.602
842.983	41.377
846.812	10.856
850.639	18.885
854.464	9.389
858.288	49.325
862.11	1.96
865.93	26.755
869.748	139.473
873.564	195.197
877.379	41.926
881.192	13.257
885.004	28.411
888.813	25.168
892.621	55.937
896.427	15.281
900.232	37.507
904.034	37.311
907.835	55.133
911.634	45.976
915.432	27.734
919.227	31.603
923.021	26.164
926.813	50.244
930.604	34.465
934.393	57.219
938.18	55.786
941.965	48.444
945.749	32.345
949.53	28.135
953.311	43.571
957.089	36.935
960.866	40.479
964.641	89.747
968.414	50.751
972.185	1.196
975.955	72.316
979.723	36.533
983.49	109.194
987.254	66.475
991.017	71.262
994.779	81.052
998.538	101.504
1002.3	100.844
1006.05	143.593
1009.81	142.749
1013.56	149.945
1017.31	199.23
1021.06	273.581
1024.81	307.026
1028.55	331.542
1032.3	407.136
1036.04	420.787
1039.78	530.529
1043.52	598.356
1047.26	671.898
1050.99	661.848
1054.73	761.857
1058.46	816.184
1062.19	1005.34
1065.92	1320.57
1069.65	1761.86
1073.37	2059.62
1077.1	2727.17
1080.82	4490.66
1084.54	10174.2
1088.26	32622.9
1091.97	62607.6
1095.69	34465.4
1099.4	10514.2
1103.12	3770.95
1106.83	1872.91
1110.54	1175.94
1114.24	789.049
1117.95	637.442
1121.65	518.698
1125.35	565.018
1129.06	261.525
1132.75	187.299
1136.45	194.81
1140.15	141.354
1143.84	128.201
1147.53	136.491
1151.22	115.321
1154.91	84.838
1158.6	80.53
1162.28	64.383
1165.97	65.214
1169.65	60.602
1173.33	11.326
1177.01	45.873
1180.69	27.814
1184.36	81.505
1188.04	77.227
1191.71	87.26
1195.38	46.664
1199.05	36.678
1202.71	57.823
1206.38	50.97
1210.04	15.245
1213.71	30.443
1217.37	13.577
1221.03	3.607
1224.68	7.397
1228.34	61.287
1231.99	5.312
1235.65	19.427
1239.3	10.62
1242.95	15.866
1246.59	12.559
1250.24	47.519
1253.88	14.452
1257.53	37.389
1261.17	19.693
1264.81	31.199
1268.45	55.155
1272.08	0.19
1275.72	7.449
1279.35	6.212
1282.98	18.808
1286.61	21.335
1290.24	22.224
1293.87	16.144
1297.49	4.555
1301.11	0.346
1304.73	6.803
1308.36	73.889
1311.97	10.068
1315.59	46.907
1319.2	3.814
1322.82	17.658
1326.43	21.442
1330.04	14.827
1333.65	24.813
1337.26	28.621
1340.86	25.939
1344.47	26.442
1348.07	48.906
1351.67	0.083
1355.27	15.452
1358.87	37.788
1362.46	55.877
1366.06	65.99
1369.65	25.33
1373.24	38.07
1376.83	57.542
1380.42	24.985
1384	49.143
1387.59	81.65
1391.17	77.197
1394.75	69.265
1398.33	83.562
1401.91	92.152
1405.49	141.304
1409.06	202.614
1412.64	178.797
1416.21	290.943
1419.78	360.042
1423.35	443.518
1426.91	565.728
1430.48	793.922
1434.05	1003.61
1437.61	1258.9
1441.17	1250.2
1444.73	1032.36
1448.29	787.884
1451.84	526.85
1455.4	443.004
1458.95	377.663
1462.5	244.086
1466.05	219.248
1469.6	192.418
1473.15	124.668
1476.69	124.126
1480.24	115.923
1483.78	121.955
1487.32	96.161
1490.86	57.549
1494.39	82.117
1497.93	61.009
1501.46	19.35
1505	49.2
1508.53	31.062
1512.06	4.034
1515.59	5.125
1519.11	56.368
1522.64	39.439
