Measurement: Raman, 532 nm, unoriented, Raman Data Processed
Mineral: Ankerite
Rruff sample: R050197
Ideal chemistry: CaFe^2+^(CO_3_)_2_
Locality: Brownley Hill mine, Nenthead, Cumbria, England
Source: Marcus Origlieri
Description: Curved saddle-shaped rhombohedral crystals
Measured chemistry: Ca_1.00_(Fe^2+^_0.52_Mg_0.35_Ca_0.08_Mn^2+^_0.05_)_Î£=1_(CO_3_)_2_ ; where C was not measured but estimated by difference and stoichiometry
Raman shift (cm-1)	intensity
146.808	0
150.183	5.73795
153.558	25.4607
156.933	49.5543
160.308	77.5622
163.682	119.593
167.057	153.011
170.432	143.259
173.807	96.2735
177.182	54.1091
180.556	28.5586
183.931	15.3814
187.306	7.35894
190.681	1.73524
194.056	1.2204
197.43	1.80206
200.805	1.82367
204.18	2.08639
207.555	2.17927
210.93	0.367912
214.304	0.843552
217.679	2.85238
221.054	4.83723
224.429	6.54602
227.804	8.5454
231.179	11.8062
234.553	16.713
237.928	21.1508
241.303	28.0533
244.678	35.1399
248.053	45.7324
251.428	58.4894
254.802	77.8863
258.177	103.569
261.552	140.428
264.927	183.407
268.302	239.686
271.676	305.075
275.051	370.339
278.426	423.296
281.801	447.568
285.176	438.087
288.55	394.602
291.925	332.495
295.3	256.635
298.675	185.963
302.05	133.443
305.425	93.1673
308.799	66.0546
312.174	46.4696
315.549	34.2844
318.924	26.9288
322.299	21.0484
325.673	16.4086
329.048	12.7719
332.423	10.8998
335.798	8.58955
339.173	6.61105
342.548	5.73296
345.922	3.6027
349.297	1.5818
352.672	0.6199
356.047	0.507679
359.422	0.142529
362.796	0.99218
366.171	0.933849
369.546	0.605095
372.921	1.2943
376.296	0.155724
379.671	0.073711
383.045	0.429493
386.42	0.180485
389.795	0.029556
393.17	0.982487
396.545	1.16106
399.919	0.982449
403.294	0.686993
406.669	2.00706
410.044	1.07741
413.419	1.62833
416.793	2.01134
420.168	1.53991
423.543	1.49088
426.918	1.08294
430.293	1.53449
433.668	1.01556
437.042	1.55484
440.417	1.8883
443.792	0.780491
447.167	1.33848
450.542	1.58597
453.916	1.01697
457.291	0.501369
460.666	0.508118
464.041	0.615013
467.416	0.527794
470.791	0.471519
474.165	0.328934
477.54	0.172001
480.915	0.44878
484.29	0.562466
487.665	1.1432
491.039	0.376869
494.414	1.12567
497.789	0.664803
501.164	0.04641
504.539	0.78371
507.913	0.682011
511.288	0.741821
514.663	1.44389
518.038	1.24451
521.413	1.30285
524.788	1.59488
528.162	1.88673
531.537	1.08012
534.912	1.59029
538.287	2.04759
541.662	1.38337
545.037	1.63722
548.411	2.01556
551.786	1.48614
555.161	1.73803
558.536	2.01723
561.911	1.95187
565.285	1.9243
568.66	1.73823
572.035	1.96916
575.41	1.15248
578.785	1.12682
582.159	1.75833
585.534	1.02998
588.909	1.32072
592.284	0.93074
595.659	1.26483
599.034	0.596134
602.408	0.072651
605.783	0.497227
609.158	0.250946
612.533	0.4277
615.908	0.22076
619.283	0.120186
622.657	0.196671
626.032	0.190414
629.407	0.275486
632.782	0.270199
636.157	0.194214
639.531	0.408184
642.906	0.10844
646.281	0.218006
649.656	0.407444
653.031	0.109657
656.405	0.947254
659.78	1.16776
663.155	1.64434
666.53	0.855839
669.905	1.73543
673.279	2.07907
676.654	2.52725
680.029	3.20966
683.404	3.03672
686.779	4.42021
690.154	6.03682
693.528	8.06367
696.903	10.915
700.278	16.174
703.653	25.2191
707.028	39.3724
710.403	57.6917
713.777	80.3094
717.152	107.402
720.527	123.081
723.902	109.636
727.277	72.9676
730.651	44.3463
734.026	26.8052
737.401	16.7636
740.776	10.4574
744.151	6.55511
747.525	3.80607
750.9	2.75317
754.275	1.66271
757.65	1.36089
761.025	0.867226
764.399	0.709255
767.774	1.06633
771.149	0.449631
774.524	0.574543
777.899	0.126762
781.274	0.03867
784.648	0.16584
788.023	0.052921
791.398	0.522442
794.773	0.235519
798.148	0.19273
801.523	0.4715
804.897	0.601387
808.272	0.546291
811.647	0.140972
815.022	0.514915
818.397	3.76897
821.771	0.853287
825.146	0.639095
828.521	0.802326
831.896	0.546257
835.271	0.511902
838.645	1.0509
842.02	0.869373
845.395	1.18156
848.77	0.864143
852.145	1.16922
855.52	1.69801
858.894	0.920746
862.269	1.35125
865.644	2.57998
869.019	4.6927
872.394	8.225
875.769	5.71202
879.143	3.28888
882.518	1.70563
885.893	2.05383
889.268	0.689045
892.643	1.11163
896.017	0.548813
899.392	0.550617
902.767	0.300514
906.142	0.912167
909.517	1.55034
912.891	1.46602
916.266	0.897289
919.641	0.622513
923.016	1.21618
926.391	1.77985
929.766	1.58672
933.14	1.61846
936.515	1.46548
939.89	2.5116
943.265	1.35113
946.64	2.10717
950.014	1.26762
953.389	0.988743
956.764	1.41199
960.139	0.629967
963.514	0.748882
966.889	0.222755
970.263	0.2295
973.638	0.100456
977.013	0.670666
980.388	0.008205
983.763	0.41312
987.137	1.22825
990.512	0.421368
993.887	0.219078
997.262	0.484268
1000.64	0.19297
1004.01	0.366932
1007.39	0.911972
1010.76	1.47339
1014.14	2.38092
1017.51	2.67554
1020.89	3.9624
1024.26	4.77534
1027.63	4.90954
1031.01	7.44685
1034.38	8.22756
1037.76	10.5694
1041.13	12.4333
1044.51	13.0373
1047.88	15.7295
1051.26	18.8788
1054.63	22.673
1058.01	26.5992
1061.38	34.9321
1064.76	45.9127
1068.13	65.1589
1071.51	90.007
1074.88	134.231
1078.26	260.296
1081.63	520.202
1085.01	930.435
1088.38	1758.67
1091.76	2622.04
1095.13	1767.92
1098.51	720.74
1101.88	295.344
1105.26	122.331
1108.63	57.1078
1112.01	31.3217
1115.38	20.1979
1118.76	12.7373
1122.13	7.69203
1125.51	5.08469
1128.88	2.24155
1132.26	1.87447
1135.63	0.630474
1139	0.47197
1142.38	0.20903
1145.75	0.519875
1149.13	0.364475
1152.5	0.351082
1155.88	0.429077
1159.25	0.387409
1162.63	0.151035
1166	0.660969
1169.38	0.032681
1172.75	0.7369
1176.13	0.421356
1179.5	1.06413
1182.88	0.99654
1186.25	1.04367
1189.63	1.70236
1193	1.54942
1196.38	2.46109
1199.75	1.37207
1203.13	1.50406
1206.5	1.56461
1209.88	0.31242
1213.25	1.117
1216.62	1.42432
1220	2.08949
1223.38	1.69564
1226.75	1.52917
1230.12	1.97961
1233.5	1.10749
1236.87	1.88866
1240.25	1.71269
1243.62	1.74589
1247	1.45182
1250.37	0.754147
1253.75	1.07787
1257.12	0.234325
1260.5	0.466022
1263.87	0.192955
1267.25	1.59698
1270.62	0.844311
1274	0.730644
1277.37	0.947479
1280.75	0.008385
1284.12	0.124916
1287.5	1.25401
1290.87	0.430748
1294.25	0.410866
1297.62	0.045822
1300.99	0.934563
1304.37	0.41703
