Measurement: Raman, 532 nm, unoriented, Raman Data Processed
Mineral: Ankerite
Rruff sample: R050181
Ideal chemistry: CaFe^2+^(CO_3_)_2_
Locality: Cerro Sapo, Cochabamba Department, Bolivia
Source: Marcus Origlieri
Description: White coarsely crystalline massive
Measured chemistry: Ca_1.00_(Fe^2+^_0.60_Mg_0.35_Mn^2+^_0.05_)_Î£=1_(CO_3_)_2_ ; C not measured but estimated by difference and stoichiometry
Raman shift (cm-1)	intensity
112.096	0
115.471	0.040052
118.846	2.86313
122.22	3.41286
125.595	5.45843
128.97	9.10387
132.345	15.0506
135.72	20.0307
139.094	25.2171
142.469	30.9509
145.844	42.5273
149.219	61.204
152.594	79.3899
155.968	99.3934
159.343	123.875
162.718	154.393
166.093	189.496
169.468	180.09
172.843	117.461
176.217	63.4386
179.592	35.1445
182.967	22.213
186.342	12.8461
189.717	6.52262
193.091	3.31572
196.466	1.46457
199.841	0.231285
203.216	0.548729
206.591	0.869171
209.965	0.742146
213.34	0.440296
216.715	0.204594
220.09	0.000271
223.465	0.057579
226.84	0.955357
230.214	2.26463
233.589	5.37143
236.964	10.0444
240.339	15.5619
243.714	23.225
247.089	33.2415
250.463	48.8279
253.838	67.7748
257.213	96.4862
260.588	131.196
263.963	175.305
267.337	226.095
270.712	280.745
274.087	338.456
277.462	384.115
280.837	401.543
284.211	383.704
287.586	335.338
290.961	273.97
294.336	212.066
297.711	153.478
301.086	103.968
304.46	70.7275
307.835	48.7078
311.21	33.2397
314.585	23.4318
317.96	17.5514
321.334	13.5368
324.709	10.5932
328.084	9.39977
331.459	6.80193
334.834	5.95344
338.209	4.39919
341.583	2.83957
344.958	1.71565
348.333	1.10997
351.708	0.312241
355.083	0.115826
358.457	0.162374
361.832	0.124939
365.207	0.496998
368.582	0.232592
371.957	0.757753
375.332	0.197252
378.706	0.520277
382.081	0.064787
385.456	1.08978
388.831	0.910814
392.206	0.7796
395.58	1.91506
398.955	0.728252
402.33	1.13928
405.705	2.04349
409.08	2.14065
412.454	1.6935
415.829	2.27593
419.204	1.56866
422.579	1.30762
425.954	1.11653
429.329	1.40482
432.703	0.895372
436.078	0.923494
439.453	0.503428
442.828	0.710812
446.203	0.371195
449.577	0.90136
452.952	0.598679
456.327	0.15727
459.702	0.245646
463.077	0.918028
466.452	0.685204
469.826	0.450001
473.201	0.236513
476.576	0.140324
479.951	0.848543
483.326	0.835684
486.7	0.453611
490.075	0.302309
493.45	1.19533
496.825	0.718962
500.2	1.29883
503.575	1.18969
506.949	1.85196
510.324	2.07056
513.699	2.10097
517.074	2.16774
520.448	1.76035
523.823	2.6905
527.198	2.27798
530.573	2.73518
533.948	2.66461
537.323	2.11894
540.697	2.4718
544.072	2.87095
547.447	3.47906
550.822	2.39393
554.197	3.09816
557.572	2.47341
560.946	2.78197
564.321	3.13741
567.696	2.20168
571.071	2.016
574.446	1.94183
577.82	2.34201
581.195	2.37749
584.57	1.90595
587.945	1.89389
591.32	1.81402
594.694	1.40953
598.069	1.66324
601.444	1.1711
604.819	0.386917
608.194	0.096689
611.569	0.819517
614.943	0.606791
618.318	0.422758
621.693	0.212589
625.068	0.33353
628.443	0.116348
631.817	0.61738
635.192	0.259579
638.567	0.09177
641.942	0.61516
645.317	0.139482
648.692	0.206638
652.066	0.935408
655.441	0.692421
658.816	0.065842
662.191	0.58157
665.566	0.604872
668.941	0.758415
672.315	1.0979
675.69	1.58575
679.065	2.74719
682.44	3.04491
685.815	3.36157
689.189	3.92751
692.564	5.52905
695.939	7.5087
699.314	11.3335
702.689	17.6297
706.063	27.0316
709.438	41.0634
712.813	59.609
716.188	79.8326
719.563	97.9674
722.938	94.8709
726.312	68.945
729.687	43.6043
733.062	28.1023
736.437	17.4627
739.812	10.9635
743.186	6.70233
746.561	4.92032
749.936	3.11774
753.311	2.00653
756.686	1.188
760.061	0.535168
763.435	0.544798
766.81	0.100903
770.185	0.126947
773.56	0.045244
776.935	0.177261
780.309	0.239693
783.684	0.551432
787.059	0.080971
790.434	0.376905
793.809	0.033146
797.183	0.092335
800.558	0.070517
803.933	0.265638
807.308	0.42552
810.683	0.672289
814.058	0.743099
817.432	0.256237
820.807	0.61298
824.182	0.477091
827.557	0.793236
830.932	0.840042
834.307	0.81246
837.681	0.676294
841.056	0.944679
844.431	1.0363
847.806	1.14448
851.181	0.787621
854.555	1.05922
857.93	1.45884
861.305	1.76558
864.68	2.80369
868.055	4.55094
871.429	6.36297
874.804	5.67421
878.179	2.2691
881.554	1.5439
884.929	1.2089
888.303	0.996925
891.678	0.808193
895.053	0.594975
898.428	0.797974
901.803	0.758162
905.178	0.77565
908.552	1.08614
911.927	0.723465
915.302	0.662773
918.677	0.4363
922.052	0.604809
925.427	0.235863
928.801	1.14752
932.176	0.914364
935.551	0.965897
938.926	0.546787
942.301	1.54859
945.675	0.933411
949.05	0.558245
952.425	0.670162
955.8	0.693583
959.175	0.482616
962.549	0.289961
965.924	0.158564
969.299	0.499559
972.674	0.049358
976.049	0.267414
979.423	0.046263
982.798	0.049196
986.173	0.480316
989.548	0.377773
992.923	0.32597
996.298	0.692274
999.672	0.253334
1003.05	0.318306
1006.42	0.350847
1009.8	0.984636
1013.17	0.611826
1016.55	1.7374
1019.92	2.41615
1023.3	3.4118
1026.67	5.09782
1030.05	6.25472
1033.42	7.74515
1036.8	9.54448
1040.17	11.184
1043.55	13.4927
1046.92	15.939
1050.3	16.4692
1053.67	19.0114
1057.04	22.2096
1060.42	29.0829
1063.79	37.077
1067.17	49.9507
1070.54	71.1253
1073.92	100.177
1077.29	179.041
1080.67	390.491
1084.04	685.963
1087.42	1146.93
1090.79	2006
1094.17	1925.57
1097.54	753.533
1100.92	230.54
1104.29	94.5833
1107.67	50.536
1111.04	29.73
1114.42	19.0144
1117.79	12.5142
1121.17	7.92891
1124.54	4.97243
1127.91	2.86667
1131.29	2.39547
1134.66	0.459467
1138.04	0.652048
1141.41	0.029032
1144.79	0.479336
1148.16	0.069666
1151.54	0.587801
1154.91	0.346394
1158.29	0.318142
1161.66	0.211863
1165.04	0.507783
1168.41	0.12604
1171.79	0.443053
1175.16	0.736806
1178.54	1.08144
1181.91	1.12774
1185.29	0.800407
1188.66	1.54557
1192.04	1.07217
1195.41	1.45869
1198.79	2.17093
1202.16	1.85317
1205.54	1.86142
1208.91	1.79137
1212.29	1.22627
1215.66	1.72914
1219.04	1.08535
1222.41	1.00928
1225.79	1.24468
1229.16	1.52747
1232.54	0.843596
1235.91	0.991775
1239.28	1.0957
1242.66	1.3889
1246.03	0.891871
1249.41	0.469082
1252.78	0.265504
1256.16	0.751916
1259.53	0.436783
1262.91	1.29123
1266.28	0.790307
1269.66	0.533751
1273.03	0.719758
1276.41	0.032703
1279.78	0.502015
1283.16	0.069533
1286.53	0.488734
1289.91	0.080635
1293.28	0.153531
