Measurement: Raman, 514 nm, unoriented, Raman Data Processed
Mineral: Ankerite
Rruff sample: R050181
Ideal chemistry: CaFe^2+^(CO_3_)_2_
Locality: Cerro Sapo, Cochabamba Department, Bolivia
Source: Marcus Origlieri
Description: White coarsely crystalline massive
Measured chemistry: Ca_1.00_(Fe^2+^_0.60_Mg_0.35_Mn^2+^_0.05_)_Î£=1_(CO_3_)_2_ ; C not measured but estimated by difference and stoichiometry
Raman shift (cm-1)	intensity
52.866	0
57.065	13.948
61.262	0.476
65.458	0.078
69.651	45.454
73.842	90.97
78.031	133.467
82.218	169.612
86.404	156.428
90.587	292.378
94.768	213.59
98.947	219.824
103.124	205.875
107.3	289.642
111.473	247.062
115.644	362.067
119.813	267.597
123.981	277.595
128.146	263.01
132.309	293.798
136.47	351.916
140.63	422.091
144.787	452.333
148.942	535.78
153.096	700.452
157.247	1115.44
161.396	1841.75
165.544	2300.87
169.689	1994.01
173.833	1140.93
177.974	637.037
182.114	408.3
186.251	298.685
190.387	250.181
194.52	213.78
198.652	215.478
202.782	191.27
206.909	229.152
211.035	186.12
215.159	188.239
219.281	181.156
223.4	160.171
227.518	155.631
231.634	155.8
235.748	172.172
239.86	203.083
243.97	264.336
248.079	333.597
252.185	431.058
256.289	607.469
260.391	858.833
264.492	1227.65
268.59	1759.62
272.687	2440.86
276.781	3075.69
280.874	3460.76
284.964	3237.47
289.053	2744.06
293.14	2074.8
297.225	1497.73
301.308	1007.89
305.389	663.396
309.468	463.162
313.545	313.803
317.62	249.083
321.693	207.985
325.765	187.931
329.834	176.923
333.902	138.952
337.967	117.016
342.031	98.112
346.093	79.666
350.153	58.394
354.21	31.576
358.267	8.783
362.321	31.013
366.373	4.265
370.423	1.462
374.471	20.83
378.518	15.138
382.563	8.23
386.605	3.855
390.646	2.299
394.685	15.21
398.722	13.706
402.757	4.197
406.79	4.672
410.821	9.86
414.851	2.623
418.878	19.14
422.904	30.693
426.927	6.702
430.949	9.904
434.969	15.524
438.987	9.17
443.003	9.3
447.018	5.5
451.03	14.817
455.041	0.854
459.049	3.555
463.056	20.726
467.061	11.024
471.064	11.36
475.065	3.724
479.064	35.106
483.062	26.475
487.057	47.269
491.051	35.648
495.043	24.041
499.032	56.482
503.02	44.925
507.007	81.373
510.991	50.821
514.973	67.264
518.954	77.702
522.933	70.138
526.91	74.578
530.885	96.992
534.858	98.369
538.829	97.783
542.799	98.189
546.766	89.585
550.732	83.891
554.696	87.156
558.658	79.571
562.618	92.162
566.576	97.145
570.533	101.634
574.488	110.646
578.44	54.146
582.391	53.039
586.341	86.157
590.288	60.681
594.233	52.389
598.177	62.288
602.119	55.41
606.059	40.802
609.997	31.88
613.933	31.507
617.868	41.169
621.801	23.393
625.731	36.107
629.66	47.438
633.588	19.233
637.513	32.292
641.437	34.334
645.358	33.613
649.278	50.095
653.196	26.743
657.113	47.716
661.027	44.643
664.94	35.596
668.851	56.057
672.76	64.805
676.667	76.351
680.572	77.204
684.476	71.256
688.378	84.047
692.278	101.788
696.176	119.83
700.072	188.522
703.967	207.388
707.86	420.032
711.751	647.756
715.64	1223.38
719.527	1666.99
723.413	1454.58
727.297	971.168
731.179	548.758
735.059	314.356
738.937	195.959
742.814	125.571
746.689	49.169
750.562	41.907
754.433	40.572
758.303	36.154
762.17	5.723
766.036	31.276
769.901	32.801
773.763	6.331
777.624	13.169
781.482	14.75
785.339	15.564
789.195	21.816
793.048	24.442
796.9	14.272
800.75	11.952
804.598	4.801
808.445	8.689
812.289	15.314
816.132	18.281
819.973	6.775
823.813	9.142
827.65	7.05
831.486	21.938
835.32	6.805
839.152	27.644
842.983	6.472
846.812	17.295
850.639	16.112
854.464	18.919
858.288	16.722
862.11	3.479
865.93	42.079
869.748	102.116
873.564	108.916
877.379	62.72
881.192	35.527
885.004	10.377
888.813	13.158
892.621	10.654
896.427	12.815
900.232	5.656
904.034	4.498
907.835	9.344
911.634	15.206
915.432	24.729
919.227	16.337
923.021	13.171
926.813	24.875
930.604	5.624
934.393	20.047
938.18	35.072
941.965	35.123
945.749	27.139
949.53	34.173
953.311	31.395
957.089	36.029
960.866	29.258
964.641	29.177
968.414	54.369
972.185	22.972
975.955	79.231
979.723	73.518
983.49	109.222
987.254	89.576
991.017	92.723
994.779	108.155
998.538	140.652
1002.3	110.87
1006.05	142.464
1009.81	184.903
1013.56	197.49
1017.31	177.213
1021.06	242.982
1024.81	260.806
1028.55	327.675
1032.3	327.673
1036.04	418.646
1039.78	478.665
1043.52	560.822
1047.26	620.021
1050.99	660.208
1054.73	723.255
1058.46	825.58
1062.19	987.053
1065.92	1246.48
1069.65	1601.99
1073.37	1953.5
1077.1	2569.09
1080.82	4314.74
1084.54	9707.48
1088.26	31851.7
1091.97	58277.5
1095.69	28137.5
1099.4	8192.42
1103.12	3030.43
1106.83	1476.49
1110.54	956.6
1114.24	656.191
1117.95	509.834
1121.65	581.124
1125.35	375.455
1129.06	240.821
1132.75	204.23
1136.45	151.812
1140.15	122.918
1143.84	101.442
1147.53	72.371
1151.22	82.979
1154.91	76.688
1158.6	70.841
1162.28	50.6
1165.97	61.323
1169.65	51.507
1173.33	39.295
1177.01	16.6
1180.69	51.642
1184.36	30.432
1188.04	17.492
1191.71	3.678
1195.38	11.096
1199.05	19.852
1202.71	23.851
1206.38	33.794
1210.04	20.686
1213.71	28.279
1217.37	2.293
1221.03	5.504
1224.68	20.953
1228.34	1.899
1231.99	5.305
1235.65	19.235
1239.3	15.134
1242.95	18.068
1246.59	18.985
1250.24	6.834
1253.88	16.69
1257.53	7.462
1261.17	3.617
1264.81	27.209
1268.45	26.019
1272.08	16.076
1275.72	9.573
1279.35	4.325
1282.98	15.96
1286.61	7.708
1290.24	9.11
1293.87	0.872
1297.49	3.324
1301.11	9.716
1304.73	3.74
1308.36	12.348
1311.97	3.4
1315.59	20.809
1319.2	7.976
1322.82	11.896
1326.43	15.102
1330.04	7.134
1333.65	1.887
1337.26	23.909
1340.86	2.752
1344.47	11.438
1348.07	6.697
1351.67	13.997
1355.27	3.554
1358.87	12.164
1362.46	22.762
1366.06	5.982
1369.65	28.546
1373.24	1.042
1376.83	21.433
1380.42	16.344
1384	37.531
1387.59	15.573
1391.17	33.026
1394.75	30.015
1398.33	43.955
1401.91	53.28
1405.49	51.206
1409.06	81.725
1412.64	127.147
1416.21	158.438
1419.78	209.283
1423.35	279.171
1426.91	370.462
1430.48	487.357
1434.05	634.013
1437.61	808.063
1441.17	872.413
1444.73	695.253
1448.29	515.458
1451.84	389.008
1455.4	293.349
1458.95	219.465
1462.5	148.684
1466.05	143.689
1469.6	111.506
1473.15	83.186
1476.69	88.708
1480.24	64.188
1483.78	58.005
1487.32	48.135
1490.86	26.419
1494.39	29.724
1497.93	40.064
1501.46	14.548
1505	8.679
1508.53	12.398
1512.06	45.785
1515.59	36.382
1519.11	0.572
1522.64	6.921
1526.16	0
