Measurement: Raman, 780 nm, unoriented, Raman Data Processed
Mineral: Ankinovichite
Rruff sample: R060671
Ideal chemistry: NiAl_4_(V^5+^O_3_)_2_(OH)_12_2H_2_O
Locality: Kara-Chagyr Mountain, Fergana, Fergana Valley, Osh Oblast, Kyrgyzstan
Source: Michael Scott
Description: Aggregates of pale green thin pseudohexagonal plates
Raman shift (cm-1)	intensity
94.9347	0
98.3096	9.06372
101.684	47.1682
105.059	100.822
108.434	120.648
111.809	42.5001
115.184	1.06146
118.558	3.8233
121.933	1.6911
125.308	37.9634
128.683	73.9869
132.058	96.9399
135.433	114.823
138.807	176.953
142.182	278.736
145.557	415.262
148.932	486.471
152.307	308.306
155.681	118.17
159.056	75.9514
162.431	76.7879
165.806	76.2853
169.181	62.9924
172.555	45.1737
175.93	31.8665
179.305	28.0937
182.68	31.8236
186.055	25.6068
189.43	16.2938
192.804	5.37347
196.179	0.068787
199.554	9.41724
202.929	38.0889
206.304	102.713
209.678	181.805
213.053	284.98
216.428	437.573
219.803	627.908
223.178	823.128
226.553	904.579
229.927	761.111
233.302	624.55
236.677	595.331
240.052	632.232
243.427	675.684
246.801	649.225
250.176	530.225
253.551	389.013
256.926	278.015
260.301	171.255
263.675	81.9897
267.05	31.7213
270.425	5.03033
273.8	3.76154
277.175	7.71964
280.55	7.40659
283.924	6.77463
287.299	2.79105
290.674	19.1862
294.049	43.7551
297.424	75.8665
300.798	118.218
304.173	168.296
307.548	187.832
310.923	179.443
314.298	186.132
317.673	226.323
321.047	272.33
324.422	277.934
327.797	247.48
331.172	229.623
334.547	232.159
337.921	257.092
341.296	291.608
344.671	327.135
348.046	326.623
351.421	281.936
354.796	253.929
358.17	260.466
361.545	299.365
364.92	347.531
368.295	360.848
371.67	311.56
375.044	235.157
378.419	182.603
381.794	138.541
385.169	99.6839
388.544	62.7143
391.918	35.745
395.293	18.1804
398.668	10.0825
402.043	5.14383
405.418	4.44061
408.793	2.56781
412.167	2.83017
415.542	0.921539
418.917	0.778687
422.292	3.26913
425.667	2.38373
429.041	2.51392
432.416	2.17554
435.791	1.17779
439.166	0.195343
442.541	5.88379
445.915	9.6142
449.29	16.4077
452.665	27.5448
456.04	38.6122
459.415	49.0124
462.789	59.374
466.164	64.2396
469.539	57.7764
472.914	45.855
476.289	38.937
479.664	37.2099
483.038	39.9027
486.413	50.7246
489.788	65.1244
493.163	83.1476
496.538	104.147
499.913	129.453
503.287	147.613
506.662	159.53
510.037	165.689
513.412	165.662
516.787	145.981
520.161	114.355
523.536	82.66
526.911	50.446
530.286	27.2381
533.661	10.9675
537.035	2.95312
540.41	1.12616
543.785	3.27106
547.16	3.68848
550.535	0.910583
553.909	4.5087
557.284	10.9681
560.659	20.5715
564.034	30.5949
567.409	47.1267
570.784	68.4165
574.158	93.8123
577.533	128.118
580.908	176.456
584.283	234.069
587.658	307.353
591.033	404.441
594.407	504.651
597.782	562.499
601.157	514.566
604.532	406.918
607.907	297.493
611.281	209.874
614.656	147.038
618.031	104.701
621.406	77.9942
624.781	60.9616
628.155	49.7273
631.53	42.4415
634.905	39.2243
638.28	36.951
641.655	35.165
645.029	35.245
648.404	31.9425
651.779	28.869
655.154	24.4199
658.529	19.3074
661.904	12.8078
665.278	8.2012
668.653	3.70764
672.028	1.55551
675.403	0.479736
678.778	1.64059
682.153	1.71649
685.527	0.275085
688.902	0.032562
692.277	2.11011
695.652	4.36136
699.027	4.91068
702.401	5.5614
705.776	6.75482
709.151	6.30945
712.526	6.59729
715.901	6.82617
719.275	4.68863
722.65	5.81705
726.025	5.27365
729.4	5.83929
732.775	3.44812
736.149	4.84677
739.524	4.2178
742.899	2.63577
746.274	3.04135
749.649	2.63144
753.024	3.45032
756.398	4.90582
759.773	3.89288
763.148	7.82465
766.523	7.74579
769.898	10.6171
773.273	12.4979
776.647	15.689
780.022	18.3472
783.397	19.7564
786.772	20.4737
790.146	21.5356
793.521	20.864
796.896	18.4882
800.271	15.2265
803.646	12.2791
807.021	8.88892
810.395	7.32077
813.77	5.11737
817.145	2.93881
820.52	2.42606
823.895	0.616425
827.269	1.0032
830.644	3.86044
834.019	3.85123
837.394	4.40753
840.769	3.26215
844.144	1.38809
847.518	1.95254
850.893	1.94681
854.268	1.48108
857.643	2.42835
861.018	8.23752
864.393	11.9074
867.767	19.1273
871.142	25.4177
874.517	33.0004
877.892	43.2747
881.266	54.3717
884.641	72.5305
888.016	99.3134
891.391	129.93
894.766	174.762
898.141	223.425
901.515	278.411
904.89	320.869
908.265	337.532
911.64	329.37
915.015	311.307
918.389	305.007
921.764	323.803
925.139	390.717
928.514	521.809
931.889	723.365
935.264	992.719
938.638	1336.93
942.013	1542.66
945.388	1290.96
948.763	846.05
952.138	539.38
955.512	373.747
958.887	289.382
962.262	252.126
965.637	239.919
969.012	240.504
972.386	232.689
975.761	193.32
979.136	127.129
982.511	76.3361
985.886	44.0802
989.261	22.5103
992.635	8.42779
996.01	1.04733
999.385	6.42432
1002.76	7.52948
1006.13	5.53952
1009.51	4.127
1012.88	0.408813
1016.26	5.13533
1019.63	9.64803
1023.01	11.8737
1026.38	11.3824
1029.76	11.2874
1033.13	8.25046
1036.51	7.42824
1039.88	7.24638
1043.26	8.53571
1046.63	7.61037
1050.01	8.44064
1053.38	8.51328
1056.76	8.70963
1060.13	6.19106
1063.51	4.44397
1066.88	4.21498
1070.26	0.42186
1073.63	0.371124
1077.01	0.630081
1080.38	0.64151
1083.76	1.12395
1087.13	3.15831
1090.51	2.06439
1093.88	2.26088
1097.26	2.59146
1100.63	5.11044
1104	3.87814
1107.38	3.48555
1110.75	4.32127
1114.13	3.21614
1117.5	4.00946
1120.88	4.12686
1124.25	4.36873
1127.63	4.66325
1131	2.0658
1134.38	1.84978
1137.75	1.58163
1141.13	2.77763
1144.5	1.48357
1147.88	1.26974
1151.25	1.06879
1154.63	1.10751
1158	1.00438
1161.38	1.40826
1164.75	0.598297
1168.13	0.586533
1171.5	0.634933
1174.88	0.751373
1178.25	1.60568
1181.62	2.69208
1185	1.08699
1188.38	2.65605
1191.75	2.49174
1195.12	2.77869
1198.5	3.28078
1201.87	2.69229
1205.25	2.59953
1208.62	2.71834
1212	1.9678
1215.37	2.16864
1218.75	0.951401
1222.12	0.644241
1225.5	0.654236
1228.87	1.22838
1232.25	0.556595
1235.62	0.509369
1239	0.542786
1242.37	0.274429
1245.75	0.013626
1249.12	0.094971
1252.5	0.603287
1255.87	0.846771
1259.25	0.275879
1262.62	0.868713
1265.99	0.783356
1269.37	1.47296
1272.74	1.11346
1276.12	1.1487
1279.49	0.368729
1282.87	2.07709
