Measurement: Raman, 532 nm, unoriented, Raman Data Processed
Mineral: Ankinovichite
Rruff sample: R060671
Ideal chemistry: NiAl_4_(V^5+^O_3_)_2_(OH)_12_2H_2_O
Locality: Kara-Chagyr Mountain, Fergana, Fergana Valley, Osh Oblast, Kyrgyzstan
Source: Michael Scott
Description: Aggregates of pale green thin pseudohexagonal plates
Raman shift (cm-1)	intensity
134.54	0
137.433	2464.57
140.326	5335.5
143.218	7758.7
146.111	8980.56
149.004	7028.4
151.896	3313.42
154.789	2063.82
157.682	2272.06
160.574	2812.68
163.467	3023.56
166.36	2847.6
169.253	2483.44
172.145	2053.65
175.038	1799.63
177.931	1795.92
180.823	1725.97
183.716	1670.99
186.609	1583.71
189.501	1377.63
192.394	1106.34
195.287	636.369
198.18	485.383
201.072	681.201
203.965	1248.34
206.858	2353.25
209.75	4000.47
212.643	6529.57
215.536	10099
218.428	13812.2
221.321	16396.2
224.214	16532.8
227.107	14263.9
229.999	12855
232.892	12968.8
235.785	14396.8
238.677	16209.2
241.57	17201.2
244.463	16494.7
247.355	14077.6
250.248	10941.9
253.141	8183.35
256.033	5897.02
258.926	3490.69
261.819	1845.49
264.711	976.742
267.604	443.668
270.497	64.477
273.39	162.598
276.282	129.742
279.175	235.924
282.068	428.562
284.96	398.205
287.853	161.463
290.746	273.109
293.638	918.416
296.531	1737.22
299.424	2535.79
302.317	3584.34
305.209	4456.07
308.102	5084.84
310.995	6213
313.887	7648.62
316.78	9186.82
319.673	10001
322.565	9080.16
325.458	7609.02
328.351	7039.97
331.244	7314.39
334.136	8185.4
337.029	9456.44
339.922	10781
342.814	11437.9
345.707	10753.8
348.6	9287.16
351.492	8384.41
354.385	8589.4
357.278	9712.64
360.171	11005.4
363.063	12424.8
365.956	12765.5
368.849	11528
371.741	9512.84
374.634	7869.12
377.527	6438.51
380.419	5060.11
383.312	3617.58
386.205	2481.21
389.098	1734.48
391.99	1171.56
394.883	673.551
397.776	525.107
400.668	439.48
403.561	430.303
406.454	430.277
409.346	376.693
412.239	326.393
415.132	125.596
418.025	144.385
420.917	73.943
423.81	211.059
426.703	288.438
429.595	297.139
432.488	294.287
435.381	239.533
438.273	311.6
441.166	159.596
444.059	42.211
446.952	19.775
449.844	373.092
452.737	507.418
455.63	1170.96
458.522	1249.74
461.415	1548.29
464.308	1554.15
467.2	1701.31
470.093	1216.63
472.986	1133.76
475.878	1144.53
478.771	1016.37
481.664	1045.64
484.556	1391.97
487.449	1634.48
490.342	2106.24
493.235	2910.76
496.127	3281.3
499.02	4031.85
501.913	4947.75
504.805	5397.23
507.698	5876.74
510.591	6107.96
513.484	5765.6
516.376	5080.5
519.269	4216.49
522.162	3179.77
525.054	2266.88
527.947	1748.16
530.84	1214.27
533.732	869.775
536.625	628.867
539.518	531.787
542.411	358.422
545.303	294.623
548.196	265.414
551.089	385.619
553.981	378.748
556.874	598.686
559.767	753.807
562.659	1145.28
565.552	1618.08
568.445	2118.92
571.338	2728.63
574.23	3491.7
577.123	4259.39
580.016	5397.91
582.908	6774.56
585.801	8761.54
588.694	10934.3
591.586	13007.6
594.479	14015.8
597.372	13080.6
600.265	11140.9
603.157	8786.61
606.05	6708.06
608.943	5114.02
611.835	3903.25
614.728	3011.33
617.621	2480.04
620.513	2022.54
623.406	1997.93
626.299	1685.1
629.191	1575.85
632.084	1416.27
634.977	1420.34
637.87	1476.85
640.762	1361.13
643.655	1449.18
646.548	1396.58
649.44	1343.83
652.333	1130.91
655.226	987.639
658.118	618.984
661.011	568.24
663.904	436.092
666.797	305.572
669.689	197.416
672.582	173.049
675.474	44.467
678.367	15.443
681.26	32.477
684.153	86.398
687.045	120.203
689.938	133.549
692.831	227.055
695.723	247.203
698.616	231.619
701.509	192.527
704.402	214.549
707.294	269.787
710.187	426.451
713.08	469.828
715.972	666.072
718.865	1018.39
721.758	1439.84
724.651	2045.12
727.543	2771.12
730.436	3522.79
733.328	3833.75
736.221	3666.01
739.114	2895.36
742.007	2195.14
744.899	1685.18
747.792	1401.6
750.685	908.551
753.577	533.588
756.47	409.795
759.363	182.584
762.255	51.555
765.148	128.471
768.041	139.711
770.934	14.27
773.826	61.221
776.719	177.58
779.612	130.096
782.504	24.27
785.397	14.541
788.29	104.15
791.182	158.889
794.075	4.947
796.968	178.658
799.86	91.736
802.753	51.074
805.646	163.602
808.539	314.219
811.431	220.844
814.324	25.643
817.217	60.502
820.109	8.588
823.002	168.697
825.895	103.697
828.787	238.387
831.68	191.744
834.573	14.096
837.466	68.713
840.358	52.439
843.251	328.678
846.144	452.062
849.036	400.115
851.929	638.547
854.822	769.584
857.714	1007.4
860.607	1418.69
863.5	1621.15
866.393	2001.75
869.285	2259.69
872.178	2562.92
875.071	3076.61
877.963	3750.93
880.856	4082.4
883.749	4698.87
886.641	5850.21
889.534	7080.74
892.427	8697.06
895.32	10856.6
898.212	12251.6
901.105	13574.3
903.998	14481.4
906.89	14428.7
909.783	14233
912.676	13909.2
915.568	13748.3
918.461	14407.2
921.354	16559.8
924.247	20608.3
927.139	26911.8
930.032	35755.2
932.925	47060
935.817	59599.1
938.71	67435.3
941.603	60581.7
944.495	43537.5
947.388	29690.8
950.281	21227.2
953.174	16663.3
956.066	14205.3
958.959	13340.4
961.852	13117.4
964.744	13410
967.637	13741.1
970.53	13178
973.422	11078.7
976.315	8300.52
979.208	6028.67
982.101	4367.47
984.993	3164.21
987.886	2362.93
990.779	1753.22
993.671	1194.42
996.564	894.947
999.457	786.602
1002.35	696.291
1005.24	639.498
1008.13	640.092
1011.03	733.951
1013.92	696.725
1016.81	716.373
1019.71	779.525
1022.6	753.891
1025.49	664.057
1028.38	494.529
1031.28	419.748
1034.17	283.469
1037.06	213.73
1039.95	155.184
1042.85	71.982
1045.74	54.555
1048.63	31.549
1051.53	67.219
1054.42	55.855
1057.31	30.57
1060.2	54.926
1063.1	131.975
1065.99	272.078
1068.88	136.998
1071.77	217.115
1074.67	210.193
1077.56	185.871
1080.45	157.346
1083.35	326.174
1086.24	109.018
1089.13	102.389
1092.02	70.064
1094.92	2.311
1097.81	62.963
1100.7	78.787
1103.59	8.855
1106.49	4.932
1109.38	62.693
1112.27	32.479
1115.16	4.863
1118.06	36.053
1120.95	53.662
1123.84	70.443
1126.73	106.611
1129.63	93.148
1132.52	123.311
1135.41	107.979
1138.31	37.637
1141.2	110.98
1144.09	25.32
1146.98	96.52
1149.88	89.279
1152.77	26.754
1155.66	68.387
1158.56	113.92
1161.45	78.061
1164.34	7.562
1167.23	53.383
1170.13	37.24
1173.02	19.779
1175.91	138.77
1178.8	239.994
1181.7	191.312
1184.59	315.201
1187.48	284.477
1190.38	320.299
1193.27	216.938
1196.16	251.904
1199.05	153.404
1201.94	108.664
1204.84	122.516
1207.73	148.592
1210.62	163.348
1213.52	111.1
1216.41	88.494
1219.3	73.092
1222.19	27.42
1225.09	37.096
1227.98	135.086
1230.87	99.486
1233.77	127.035
1236.66	173.078
1239.55	166.174
1242.44	50.004
1245.34	202.195
1248.23	173.049
1251.12	67.48
1254.01	0.318
1256.91	127.553
1259.8	15.266
1262.69	220.508
1265.59	118.924
1268.48	3.367
1271.37	168.697
1274.26	210.781
1277.16	82.553
1280.05	54.43
1282.94	24.191
1285.83	52.004
1288.73	20.572
