Measurement: Raman, 780 nm, unoriented, Raman Data Processed
Mineral: Annabergite
Rruff sample: R050462
Ideal chemistry: Ni^2+^_3_(As^5+^O_4_)_2_8H_2_O
Locality: Plaka mine, Laurium, Attica, Greece
Source: University of Arizona Mineral Museum
Description: Green bladed crystals
Measured chemistry: (Ni_2.97_Zn_0.03_)_Σ=3_(As_1.00_O_4_)_2_·8H_2_O; lighter vein: (Ni_2.95_Zn_0.05_)_Σ=3_(As_1.00_O_4_)_2_·8H_2_O
Raman shift (cm-1)	intensity
144.405	0
147.298	1.98015
150.191	3.95175
153.084	9.93446
155.976	13.8384
158.869	18.4951
161.762	13.5639
164.654	9.7989
167.547	6.89934
170.44	3.65324
173.333	0.745682
176.225	1.06126
179.118	0.79628
182.011	1.40129
184.903	1.66383
187.796	2.1501
190.689	2.53236
193.581	2.79594
196.474	5.74666
199.367	9.42032
202.26	13.5335
205.152	18.6234
208.045	21.8335
210.938	22.4423
213.83	23.2492
216.723	22.7318
219.616	21.1312
222.508	17.8905
225.401	16.8367
228.294	12.4285
231.187	9.54318
234.079	8.02283
236.972	7.30614
239.865	9.4834
242.757	12.3698
245.65	13.5518
248.543	12.6987
251.435	7.83462
254.328	4.62131
257.221	4.534
260.114	5.23764
263.006	6.42276
265.899	9.31464
268.792	7.79283
271.684	7.79611
274.577	10.7
277.47	10.2388
280.363	13.8903
283.255	13.5768
286.148	12.8969
289.041	10.0874
291.933	6.28253
294.826	4.27588
297.719	2.52118
300.611	1.1362
303.504	0.888
306.397	0.79068
309.289	0.078247
312.182	0.647232
315.075	0.12323
317.968	1.25978
320.86	1.77174
323.753	2.17944
326.646	0.066895
329.538	0.205368
332.431	0.102188
335.324	1.09523
338.216	1.09531
341.109	0.59111
344.002	0.379303
346.895	0.588959
349.787	0.829361
352.68	1.75691
355.573	1.74544
358.465	1.76039
361.358	2.97086
364.251	3.81682
367.144	4.08902
370.036	5.06329
372.929	5.22902
375.822	5.22737
378.714	6.09424
381.607	6.5013
384.5	7.7016
387.392	7.60068
390.285	8.50586
393.178	9.83113
396.071	8.36694
398.963	8.97394
401.856	8.2639
404.749	6.0092
407.641	4.77107
410.534	3.55731
413.427	5.61563
416.32	4.35362
419.212	5.00948
422.105	7.16692
424.998	9.32394
427.89	11.6619
430.783	14.905
433.676	20.6179
436.568	23.1394
439.461	26.0652
442.354	28.1743
445.247	27.419
448.139	23.6069
451.032	20.8644
453.925	19.4724
456.817	16.505
459.71	14.6289
462.603	14.0426
465.495	13.0668
468.388	10.4769
471.281	8.27075
474.173	5.91299
477.066	3.21677
479.959	1.77631
482.852	1.68256
485.744	1.12471
488.637	0.781479
491.53	0.460526
494.422	0.42424
497.315	0.423538
500.208	0.066147
503.101	0.53701
505.993	0.236389
508.886	0.122307
511.779	0.163353
514.671	0.402245
517.564	1.10471
520.457	0.820015
523.349	0.673393
526.242	0.113655
529.135	0.268478
532.028	0.279945
534.92	1.12769
537.813	0.08522
540.706	0.216713
543.598	0.002022
546.491	1.27969
549.384	0.919998
552.277	1.2524
555.169	1.64458
558.062	1.1485
560.955	1.57581
563.847	0.736801
566.74	2.30463
569.633	1.03638
572.525	0.277214
575.418	0.213394
578.311	1.31221
581.203	0.074043
584.096	0.381813
586.989	0.736595
589.882	0.147644
592.774	1.10985
595.667	2.04055
598.56	0.542458
601.452	0.911789
604.345	0.651062
607.238	1.67801
610.13	1.54887
613.023	0.805565
615.916	1.24134
618.809	0.44342
621.701	1.49903
624.594	1.2851
627.487	0.590782
630.379	0.889565
633.272	0.124008
636.165	0.590569
639.058	0.367775
641.95	2.72893
644.843	1.41836
647.736	0.855843
650.628	0.562889
653.521	1.22678
656.414	2.07987
659.307	3.20613
662.199	2.61462
665.092	2.77783
667.985	2.55575
670.877	3.46137
673.77	1.88904
676.663	2.80173
679.555	2.44076
682.448	1.56789
685.341	0.821815
688.234	0.908318
691.126	0.98909
694.019	1.00697
696.912	0.890778
699.804	0.366928
702.697	0.385056
705.59	0.519859
708.482	0.107475
711.375	1.14056
714.268	0.376373
717.16	0.23877
720.053	0.250504
722.946	0.234253
725.839	0.282372
728.731	0.233421
731.624	0.006714
734.517	0.036369
737.409	0.119415
740.302	0.363441
743.195	0.644905
746.087	0.35775
748.98	0.107697
751.873	0.160873
754.766	0.419693
757.658	0.572464
760.551	0.424133
763.444	1.16257
766.336	2.5116
769.229	3.72604
772.122	5.73198
775.014	7.01659
777.907	10.9446
780.8	15.998
783.693	26.2472
786.585	37.7941
789.478	52.3683
792.371	68.4893
795.263	85.7042
798.156	97.0424
801.049	100.46
803.942	97.1074
806.834	83.1502
809.727	64.3029
812.62	45.4805
815.512	31.4559
818.405	24.1767
821.298	18.6376
824.19	14.2134
827.083	10.0635
829.976	7.75644
832.869	7.91444
835.761	6.66782
838.654	8.35282
841.547	9.55712
844.439	12.4055
847.332	17.2515
850.225	20.2493
853.117	26.7492
856.01	29.491
858.903	32.7216
861.796	31.4281
864.688	28.199
867.581	25.3419
870.474	18.1347
873.366	13.2066
876.259	9.01314
879.152	6.11905
882.044	2.4958
884.937	1.8992
887.83	0.79657
890.723	1.36543
893.615	0.27507
896.508	0.453773
899.401	0.606064
902.293	0.062737
905.186	0.102798
908.079	0.418808
910.971	0.462776
913.864	0.083298
916.757	0.518402
919.65	1.05037
922.542	1.44615
925.435	0.813103
928.328	0.946243
931.22	1.18568
934.113	1.63018
937.006	1.04218
939.899	1.4759
942.791	0.948448
945.684	0.658943
948.577	0.788429
951.469	1.59544
954.362	0.720573
957.255	0.472221
960.148	0.401779
963.04	0.473145
965.933	0.277916
968.826	0.783882
971.718	0.09111
974.611	1.06234
977.504	0.320419
980.396	0.158691
983.289	0.020432
986.182	0.498512
989.074	0.305008
991.967	1.52021
994.86	0.379044
997.753	0.029739
1000.64	0.982491
1003.54	0.788651
1006.43	0.945976
1009.32	0.959023
1012.22	0.352463
1015.11	0.531357
1018	0.546654
1020.89	0.541039
1023.79	0.989304
1026.68	0.835205
1029.57	2.00498
1032.46	0.950623
1035.36	1.46655
1038.25	1.08778
1041.14	0.643097
1044.04	1.17149
1046.93	0.45948
1049.82	0.510147
1052.71	0.258278
1055.61	0.024323
1058.5	0.16272
1061.39	0.423149
1064.29	0.546951
1067.18	1.18067
1070.07	1.60549
1072.96	1.25111
1075.86	0.893814
1078.75	1.51652
1081.64	0.868561
1084.53	0.89817
1087.43	0.947449
1090.32	0.676643
1093.21	1.32643
1096.1	0.326042
1099	0.229408
1101.89	0.271393
1104.78	0.401413
1107.67	0.714195
1110.57	0.708916
1113.46	0.983238
1116.35	0.04586
1119.25	1.2812
1122.14	0.119385
1125.03	0.543953
1127.92	0.286041
1130.82	0.064758
1133.71	0.513237
1136.6	1.02103
1139.49	0.489555
1142.39	1.6592
1145.28	1.2701
1148.17	0.802689
1151.07	1.20451
1153.96	1.09918
1156.85	0.910461
1159.74	1.15353
1162.64	0.823647
1165.53	1.11436
1168.42	1.14872
1171.32	0.003441
1174.21	1.02354
1177.1	1.70083
1179.99	1.37582
1182.88	0.962982
1185.78	0.652275
1188.67	0.990898
1191.56	0.658905
1194.46	0.616219
1197.35	0.469322
1200.24	0.196945
1203.13	1.10205
1206.03	0.133026
1208.92	1.47965
1211.81	1.08841
1214.7	0.606941
1217.6	1.3635
1220.49	0.947411
1223.38	0.950928
1226.28	0.462929
1229.17	0.305351
1232.06	0.517761
1234.95	0.85701
1237.85	0.331024
1240.74	0.65535
1243.63	0.045441
1246.53	1.01456
1249.42	1.10246
1252.31	0.778526
1255.2	0.932175
1258.1	0.054108
1260.99	0.465141
1263.88	1.02385
1266.77	0.673653
1269.67	0.283714
1272.56	0.855835
1275.45	0.373108
1278.35	0.574867
1281.24	0.607712
1284.13	0.261223
1287.02	0.002716
