Measurement: Raman, 532 nm, unoriented, Raman Data Processed
Mineral: Annabergite
Rruff sample: R060564
Ideal chemistry: Ni^2+^_3_(As^5+^O_4_)_2_8H_2_O
Locality: Candelaria mine, Mineral County, Nevada, USA
Source: Michael Scott
Description: Aggregates of green thin bladed crystals
Raman shift (cm-1)	intensity
96.452	0
99.826	101.333
103.201	150.444
106.576	65.679
109.951	127.92
113.326	593.832
116.701	1547.05
120.075	3291.82
123.45	1552.37
126.825	33.333
130.2	192.797
133.575	22.281
136.949	385.805
140.324	716.885
143.699	522.631
147.074	390.58
150.449	1091.58
153.824	2759.48
157.198	5370.08
160.573	6416.8
163.948	5716.4
167.323	4745.3
170.698	2952.64
174.072	1736.82
177.447	1182.42
180.822	1037.7
184.197	1169.63
187.572	1312.11
190.947	455.75
194.321	58.067
197.696	590.779
201.071	2344.91
204.446	5081.67
207.821	6857.95
211.195	7250.75
214.57	8633.64
217.945	9764.09
221.32	9222.11
224.695	7358.02
228.07	4474.18
231.444	1865.4
234.819	320.405
238.194	80.936
241.569	831.281
244.944	1754.35
248.318	2447.77
251.693	1723.71
255.068	757.477
258.443	761.029
261.818	1357.72
265.193	1943.78
268.567	2106.75
271.942	2270.88
275.317	3112.33
278.692	4565.15
282.067	5833.34
285.441	6232.93
288.816	5155.14
292.191	3637.52
295.566	2233.98
298.941	1264.65
302.316	615.05
305.69	258.876
309.065	89.374
312.44	89.229
315.815	317.104
319.19	518.357
322.565	657.112
325.939	410.466
329.314	48.905
332.689	319.653
336.064	302.71
339.439	160.501
342.813	29.51
346.188	342.396
349.563	699.054
352.938	977.499
356.313	1160.01
359.688	1413.25
363.062	1823.3
366.437	2324.61
369.812	2667.89
373.187	2709.96
376.562	2540.26
379.936	2435.71
383.311	2481.3
386.686	2716.82
390.061	2770.39
393.436	2756.13
396.81	2829.81
400.185	2968.09
403.56	3063.33
406.935	2951.04
410.31	2430.16
413.685	1796.49
417.06	1222.22
420.434	951.796
423.809	998.032
427.184	1257.3
430.559	1993.58
433.934	3120.21
437.308	4546.85
440.683	6010.65
444.058	6998.33
447.433	6952.71
450.808	6152.63
454.182	5427.27
457.557	4778.97
460.932	4427.82
464.307	4132.38
467.682	3766.38
471.057	2902.94
474.431	1955.62
477.806	1206.68
481.181	784.842
484.556	468.379
487.931	254.714
491.306	92.535
494.68	12.039
498.055	64.133
501.43	96.293
504.805	77.366
508.18	71.66
511.554	65.336
514.929	23.944
518.304	3.8
521.679	66.632
525.054	102.646
528.429	145.173
531.803	162.825
535.178	188.515
538.553	251.694
541.928	260.867
545.303	315.202
548.677	317.692
552.052	314.262
555.427	313.66
558.802	294.703
562.177	241.042
565.552	210.777
568.926	116.871
572.301	95.348
575.676	76.035
579.051	52.099
582.426	61.979
585.8	33.282
589.175	28.679
592.55	59.477
595.925	36.49
599.3	56.288
602.674	109.107
606.049	123.33
609.424	96.386
612.799	149.259
616.174	163.864
619.549	200.793
622.923	182.941
626.298	152.174
629.673	122.519
633.048	184.867
636.423	223.613
639.797	248.613
643.172	311.118
646.547	386.47
649.922	482.276
653.297	637.277
656.672	765.422
660.046	893.458
663.421	1088.68
666.796	1136.27
670.171	1247.34
673.546	1230.39
676.92	1080.28
680.295	970.303
683.67	825.452
687.045	626.363
690.42	469.685
693.795	349.769
697.169	178.474
700.544	102.498
703.919	72.397
707.294	15.057
710.669	6.402
714.044	57.439
717.418	21.899
720.793	15.907
724.168	19.267
727.543	6.931
730.918	13.999
734.292	16.068
737.667	48.693
741.042	47.076
744.417	36.34
747.792	84.617
751.167	11.506
754.541	18.677
757.916	158.62
761.291	293.509
764.666	580.6
768.041	915.478
771.416	1491.43
774.79	2323.72
778.165	3682.23
781.54	5896.31
784.915	9326.4
788.29	14458.6
791.664	21724.4
795.039	30687.5
798.414	38942.5
801.789	43298.1
805.164	42768.8
808.539	35997.9
811.913	25926.2
815.288	17203.2
818.663	11160.6
822.038	7620.85
825.413	5317.67
828.787	3633.98
832.162	2562.87
835.537	2092.13
838.912	2042.68
842.287	2305.77
845.661	3017.89
849.036	4085.88
852.411	5566.73
855.786	6937.78
859.161	7868.97
862.536	8030.89
865.91	7179.79
869.285	5912.85
872.66	4205.52
876.035	2641.38
879.41	1546.42
882.784	748.562
886.159	283.9
889.534	59.054
892.909	80.678
896.284	85.038
899.659	102.274
903.033	61.053
906.408	77.018
909.783	4.653
913.158	52.805
916.533	66.785
919.907	120.934
923.282	208.746
926.657	310.993
930.032	456.735
933.407	574.623
936.782	692.807
940.156	860.33
943.531	951.897
946.906	944.005
950.281	906.679
953.656	778.929
957.031	663.544
960.405	401.457
963.78	295.975
967.155	174.755
970.53	122.14
973.905	70.369
977.279	60.37
980.654	50.407
984.029	67.484
987.404	81.705
990.779	105.19
994.154	94.551
997.528	101.72
1000.9	115.956
1004.28	73.962
1007.65	69.581
1011.03	76.042
1014.4	81.55
1017.78	63.333
1021.15	71.716
1024.53	51.583
1027.9	77.047
1031.28	64.681
1034.65	28.912
1038.03	22.397
1041.4	34.39
1044.78	53.019
1048.15	24.733
1051.53	42.352
1054.9	1.061
1058.28	11.872
1061.65	14.853
1065.03	38.563
1068.4	40.676
1071.77	23.682
1075.15	10.415
1078.52	35.306
1081.9	48.382
1085.27	45.168
1088.65	35.507
1092.02	64.108
1095.4	51.018
1098.77	40.669
1102.15	68.759
1105.52	24.536
1108.9	40.964
1112.27	61.333
1115.65	16.861
1119.02	22.821
1122.4	24.882
1125.77	50.022
1129.15	22.421
1132.52	19.989
1135.9	23.567
1139.27	15.706
1142.65	41.568
1146.02	29.857
1149.39	31.538
1152.77	4.786
1156.14	2.898
1159.52	44.933
1162.89	20.954
1166.27	14.828
1169.64	4.993
1173.02	21.596
1176.39	18.03
1179.77	29.601
1183.14	1.349
1186.52	11.056
1189.89	8.67
1193.27	42.923
1196.64	45.991
1200.02	28.996
1203.39	37.108
1206.77	13.085
1210.14	38.032
1213.52	44.939
1216.89	35.048
1220.27	28.59
1223.64	33.468
1227.02	31.616
1230.39	23.725
1233.77	43.319
1237.14	6.043
1240.52	62.565
1243.89	24.589
1247.27	37.859
1250.64	29.061
1254.02	28.601
1257.39	33.93
1260.76	30.223
1264.14	22.498
1267.51	23.721
