Measurement: Raman, 532 nm, unoriented, Raman Data Processed
Mineral: Annabergite
Rruff sample: R050462
Ideal chemistry: Ni^2+^_3_(As^5+^O_4_)_2_8H_2_O
Locality: Plaka mine, Laurium, Attica, Greece
Source: University of Arizona Mineral Museum
Description: Green bladed crystals
Measured chemistry: (Ni_2.97_Zn_0.03_)_Σ=3_(As_1.00_O_4_)_2_·8H_2_O; lighter vein: (Ni_2.95_Zn_0.05_)_Σ=3_(As_1.00_O_4_)_2_·8H_2_O
Raman shift (cm-1)	intensity
145.005	0
147.898	3.88287
150.79	24.1719
153.683	71.4178
156.576	144.72
159.468	193.127
162.361	125.385
165.254	102.864
168.147	75.4848
171.039	38.8557
173.932	17.0075
176.825	11.7134
179.717	2.4079
182.61	10.9784
185.503	2.16913
188.395	19.8787
191.288	28.0008
194.181	28.4091
197.073	50.6744
199.966	102.989
202.859	184.427
205.752	272.83
208.644	292.472
211.537	269.904
214.43	286.039
217.322	308.011
220.215	290.278
223.108	263.14
226	226.483
228.893	167.004
231.786	114.662
234.679	87.3159
237.571	91.9172
240.464	120.987
243.357	180.758
246.249	212.244
249.142	217.1
252.035	141.003
254.928	80.5573
257.82	63.9692
260.713	76.3184
263.606	80.246
266.498	76.08
269.391	70.9401
272.284	59.7286
275.176	64.0388
278.069	83.7613
280.962	112.397
283.854	133.879
286.747	142.849
289.64	119.665
292.533	86.0953
295.425	54.3729
298.318	28.4739
301.211	13.5541
304.103	3.47504
306.996	8.23865
309.889	11.6898
312.781	17.0068
315.674	25.1558
318.567	40.1535
321.46	59.0768
324.352	63.7841
327.245	37.345
330.138	9.15832
333.03	7.68903
335.923	10.3312
338.816	9.01001
341.709	10.1796
344.601	5.20209
347.494	1.82159
350.387	11.2897
353.279	12.5414
356.172	6.35413
359.065	8.11072
361.957	9.854
364.85	18.446
367.743	21.0757
370.635	28.1747
373.528	37.7117
376.421	42.1171
379.314	54.1622
382.206	64.2717
385.099	78.864
387.992	102.81
390.884	118.152
393.777	126.768
396.67	130.165
399.562	127.923
402.455	120.531
405.348	109.142
408.241	98.1395
411.133	79.0193
414.026	66.8666
416.919	60.6359
419.811	57.7167
422.704	79.864
425.597	104.501
428.49	148.004
431.382	205.437
434.275	268.702
437.168	345.824
440.06	418.055
442.953	459.283
445.846	444.3
448.738	385.32
451.631	323.378
454.524	274.965
457.416	246.035
460.309	229.533
463.202	225.386
466.095	214.426
468.987	185.757
471.88	141.437
474.773	93.8304
477.665	61.9455
480.558	38.1461
483.451	24.7811
486.344	14.9752
489.236	11.4833
492.129	5.79864
495.022	3.28265
497.914	1.97797
500.807	1.93732
503.7	2.12299
506.592	2.41864
509.485	2.6347
512.378	1.48456
515.27	6.17133
518.163	4.24542
521.056	0.811401
523.949	1.61328
526.841	3.974
529.734	4.18481
532.627	6.30353
535.519	7.04852
538.412	10.7423
541.305	11.0571
544.197	12.8204
547.09	10.8706
549.983	9.22211
552.876	9.59045
555.768	12.643
558.661	10.1508
561.554	10.3493
564.446	6.35114
567.339	5.49457
570.232	7.35608
573.125	4.13825
576.017	8.64307
578.91	2.33051
581.803	3.97986
584.695	1.0249
587.588	2.96649
590.481	0.445129
593.373	0.716553
596.266	1.26672
599.159	0.414917
602.052	1.95288
604.944	3.67481
607.837	2.29492
610.73	6.46301
613.622	7.21851
616.515	4.97681
619.408	2.98474
622.3	4.06457
625.193	2.19061
628.086	1.11273
630.979	3.14795
633.871	1.28333
636.764	5.60022
639.657	5.46497
642.549	11.3731
645.442	5.57257
648.335	9.37219
651.227	13.6026
654.12	15.3707
657.013	21.2908
659.905	25.2913
662.798	32.0689
665.691	32.6502
668.584	36.9399
671.476	41.8785
674.369	45.1535
677.262	42.404
680.154	42.2033
683.047	36.2003
685.94	35.4198
688.832	26.7101
691.725	23.6183
694.618	20.3554
697.511	16.7318
700.403	13.7962
703.296	9.91901
706.189	11.6023
709.081	9.10657
711.974	8.64654
714.867	8.40631
717.76	6.08502
720.652	3.2904
723.545	1.98303
726.438	1.87018
729.33	0.102112
732.223	1.26544
735.116	3.30872
738.008	1.40436
740.901	0.458435
743.794	1.36395
746.687	2.75989
749.579	4.37811
752.472	0.791321
755.365	0.945374
758.257	3.90265
761.15	9.18341
764.043	13.8116
766.935	23.8604
769.828	38.5971
772.721	53.9709
775.614	83.7893
778.506	127.212
781.399	191.384
784.292	290.835
787.184	432.356
790.077	636.63
792.97	889.932
795.862	1193.87
798.755	1428.25
801.648	1551.94
804.54	1518.68
807.433	1312.47
810.326	987.988
813.219	685.27
816.111	469.742
819.004	332.934
821.897	252.099
824.789	182.535
827.682	133.739
830.575	106.66
833.467	102.821
836.36	101.523
839.253	121.07
842.146	150.988
845.038	209.606
847.931	277.009
850.824	372.936
853.716	485.718
856.609	587.347
859.502	640.245
862.394	652.324
865.287	617.059
868.18	528.979
871.073	420.458
873.965	298.742
876.858	196.644
879.751	123.102
882.643	74.0805
885.536	41.4438
888.429	19.281
891.322	8.53168
894.214	3.96289
897.107	6.14435
900	5.56885
902.892	4.47015
905.785	0.196167
908.678	3.68262
911.57	0.532654
914.463	0.264709
917.356	1.67621
920.249	3.56586
923.141	2.65686
926.034	8.98999
928.927	7.98047
931.819	10.7041
934.712	16.0685
937.605	21.0438
940.497	18.5987
943.39	21.8782
946.283	24.1401
949.176	24.6064
952.068	20.2737
954.961	13.5248
957.854	13.4859
960.746	7.74713
963.639	5.42029
966.532	3.16296
969.424	2.25134
972.317	0.753174
975.21	1.28748
978.102	3.75476
980.995	11.4993
983.888	10.6175
986.781	9.96661
989.673	3.91974
992.566	6.76636
995.459	9.26337
998.351	10.5588
1001.24	12.6512
1004.14	12.2152
1007.03	8.80048
1009.92	7.85687
1012.82	13.2678
1015.71	10.5745
1018.6	3.12915
1021.49	10.444
1024.39	10.3834
1027.28	9.07117
1030.17	5.74133
1033.06	0.297729
1035.96	2.55847
1038.85	0.299194
1041.74	2.02106
1044.63	3.06299
1047.53	3.22376
1050.42	3.07538
1053.31	0.962952
1056.2	0.194458
1059.1	0.664429
1061.99	2.38635
1064.88	6.01623
1067.78	5.77081
1070.67	1.43707
1073.56	7.77283
1076.45	4.38501
1079.35	0.536438
1082.24	4.84796
1085.13	3.69702
1088.03	5.09192
1090.92	6.3855
1093.81	4.4093
1096.7	2.25092
1099.6	4.18713
1102.49	2.22498
1105.38	0.802551
1108.27	2.22461
1111.17	3.67743
1114.06	0.097534
1116.95	1.51904
1119.85	1.49304
1122.74	2.7544
1125.63	2.34479
1128.52	4.17188
1131.42	4.98083
1134.31	5.0426
1137.2	4.15491
1140.09	7.52637
1142.99	3.75171
1145.88	3.66467
1148.77	1.15894
1151.66	0.607544
1154.56	3.15674
1157.45	1.5957
1160.34	1.94934
1163.23	1.19885
1166.13	4.24268
1169.02	3.9032
1171.91	2.02808
1174.81	5.44092
1177.7	4.57068
1180.59	3.92749
1183.48	0.441528
1186.38	0.354004
1189.27	5.49146
1192.16	2.70129
1195.06	4.84595
1197.95	6.4596
1200.84	6.13025
1203.73	2.29224
1206.63	5.99878
1209.52	5.84717
1212.41	5.22058
1215.3	9.7063
1218.2	6.38989
1221.09	2.69336
1223.98	5.28418
1226.88	5.4552
1229.77	0.47583
1232.66	1.97974
1235.55	0.646973
1238.44	5.61658
1241.34	6.41455
1244.23	4.73413
1247.12	1.88757
1250.02	1.33643
1252.91	2.36646
1255.8	4.4491
1258.69	0.530273
1261.59	1.42407
1264.48	1.67188
1267.37	0.855225
1270.27	1.41528
1273.16	3.00147
1276.05	5.97925
1278.94	4.35596
1281.84	2.48767
