Measurement: Raman, 532 nm, unoriented, Raman Data Processed
Mineral: Annite
Rruff sample: R060204
Ideal chemistry: KFe^2+^_3_AlSi_3_O_10_(OH)_2_
Locality: Mont Saint-Hilaire, Rouville County, Quebec, Canada
Source: Royal Ontario Museum
Description: Black mica with pseudohexagonal outines
Measured chemistry: (K_0.96_Na_0.04_)_Σ=1_(Fe^2+^_2.04_Mg_0.81_Mn_0.09_Ti_0.03_[box]_0.03_)_Σ=3_(Si_3.00_Al_1.00_)O_10_((OH)_1.54_F_0.46_)_Σ=2_
Raman shift (cm-1)	intensity
145.593	0
148.968	12.7575
152.343	146.216
155.718	307.083
159.092	431.548
162.467	558.269
165.842	700.02
169.217	887.208
172.592	1075.87
175.966	1192.4
179.341	1182.02
182.716	1024.41
186.091	830.917
189.466	626.381
192.84	453.949
196.215	312.855
199.59	212.269
202.965	140.569
206.34	80.7864
209.715	47.9952
213.089	19.9441
216.464	6.99847
219.839	2.79126
223.214	9.4151
226.589	10.3394
229.964	5.45898
233.338	2.86871
236.713	4.2829
240.088	0.908081
243.463	12.6279
246.838	20.973
250.212	30.9061
253.587	41.8652
256.962	55.0157
260.337	63.4613
263.712	76.6617
267.086	93.5961
270.461	105.012
273.836	115.691
277.211	111.805
280.586	100.699
283.961	75.1003
287.335	56.2516
290.71	37.6346
294.085	21.5504
297.46	10.9216
300.835	7.22174
304.209	1.5285
307.584	0.227722
310.959	3.01434
314.334	1.18951
317.709	0.450073
321.084	1.30225
324.458	1.43933
327.833	0.943237
331.208	3.65723
334.583	4.46075
337.958	5.74988
341.332	11.2965
344.707	9.37482
348.082	17.6998
351.457	16.5878
354.832	19.5749
358.207	19.4473
361.581	17.9257
364.956	15.8803
368.331	13.342
371.706	10.1704
375.08	6.71417
378.455	2.57288
381.83	2.83899
385.205	3.69772
388.58	5.49249
391.955	10.9847
395.329	11.3447
398.704	14.3787
402.079	18.3739
405.454	19.7864
408.829	17.9665
412.204	18.3004
415.578	17.6736
418.953	18.2839
422.328	14.1879
425.703	9.56223
429.078	9.57724
432.452	4.61392
435.827	3.09348
439.202	3.41507
442.577	1.57526
445.952	1.49561
449.327	2.34509
452.701	1.03879
456.076	0.614746
459.451	2.65927
462.826	3.34625
466.201	6.61612
469.575	9.80514
472.95	12.7285
476.325	18.8627
479.7	24.7441
483.075	27.4608
486.45	32.5887
489.824	36.9233
493.199	36.731
496.574	39.9928
499.949	43.0207
503.324	43.1949
506.698	44.0924
510.073	44.7379
513.448	45.7894
516.823	46.4484
520.198	44.7573
523.572	48.1818
526.947	50.4978
530.322	51.8195
533.697	56.5473
537.072	58.3133
540.447	58.1414
543.821	58.0617
547.196	56.5235
550.571	52.2049
553.946	47.4942
557.321	39.0811
560.695	31.5415
564.07	27.6197
567.445	19.7637
570.82	14.345
574.195	8.33282
577.569	4.94437
580.944	1.17908
584.319	2.58813
587.694	4.61923
591.069	0.727783
594.443	4.32504
597.818	2.3273
601.193	6.42023
604.568	14.9518
607.943	22.1674
611.318	34.498
614.692	44.3209
618.067	54.8712
621.442	65.0385
624.817	65.5702
628.192	69.8542
631.567	66.9374
634.941	74.528
638.316	87.7455
641.691	105.238
645.066	124.86
648.441	156.298
651.815	200.106
655.19	263.23
658.565	337.92
661.94	430.927
665.315	537.636
668.689	642.667
672.064	726.235
675.439	750.845
678.814	685.846
682.189	570.476
685.564	445.296
688.938	345.399
692.313	270.992
695.688	214.344
699.063	174.359
702.438	139.539
705.812	110.94
709.187	92.3377
712.562	75.5298
715.937	58.9756
719.312	48.114
722.687	34.1112
726.061	23.5062
729.436	12.6813
732.811	3.68842
736.186	1.51883
739.561	4.65533
742.936	4.41977
746.31	4.11023
749.685	2.4596
753.06	6.54575
756.435	13.4622
759.81	22.1624
763.184	27.5284
766.559	32.5692
769.934	34.0343
773.309	33.5262
776.684	32.9612
780.058	28.4551
783.433	26.706
786.808	21.5159
790.183	15.8225
793.558	12.9365
796.933	9.284
800.307	5.83578
803.682	2.01224
807.057	1.09134
810.432	0.562378
813.807	1.9602
817.181	0.813263
820.556	1.87796
823.931	5.24161
827.306	4.47006
830.681	4.48697
834.056	7.15134
837.43	5.65793
840.805	7.92795
844.18	9.66873
847.555	9.75055
850.93	11.52
854.304	11.6599
857.679	11.4895
861.054	13.9689
864.429	16.1723
867.804	16.7281
871.178	15.4913
874.553	13.8154
877.928	13.6327
881.303	9.05869
884.678	10.7604
888.053	7.41409
891.427	6.80411
894.802	7.07178
898.177	3.63055
901.552	4.08704
904.927	2.96469
908.302	1.84235
911.676	1.84259
915.051	0.499115
918.426	0.560303
921.801	1.56045
925.176	1.32086
928.55	1.39111
931.925	1.7348
935.3	0.338196
938.675	0.657074
942.05	0.835968
945.424	0.940277
948.799	2.37473
952.174	0.839661
955.549	0.820068
958.924	0.383026
962.298	3.17786
965.673	0.713715
969.048	5.57962
972.423	9.78653
975.798	18.0656
979.173	24.8153
982.547	29.7913
985.922	44.1041
989.297	53.1282
992.672	71.4464
996.047	86.9446
999.421	106.631
1002.8	137.841
1006.17	178.49
1009.55	225.338
1012.92	285.752
1016.3	315.074
1019.67	342.262
1023.04	352.428
1026.42	335.488
1029.8	309.817
1033.17	270.723
1036.54	237.235
1039.92	207.253
1043.29	179.896
1046.67	164.653
1050.04	150.266
1053.42	138.989
1056.79	131.915
1060.17	126.277
1063.54	118.082
1066.92	108.374
1070.29	102.257
1073.67	93.945
1077.04	86.476
1080.42	71.9254
1083.79	64.3212
1087.17	51.2968
1090.54	36.9024
1093.92	26.0348
1097.29	15.8019
1100.67	5.6716
1104.04	0.106018
1107.42	1.59946
1110.79	3.323
1114.16	3.14181
1117.54	1.47403
1120.91	0.924561
1124.29	1.07935
1127.66	1.01819
1131.04	3.83734
1134.41	4.70627
1137.79	6.91428
1141.16	8.66257
1144.54	10.9533
1147.91	12.0004
1151.29	13.0442
1154.66	13.9048
1158.04	13.8633
1161.41	15.9025
1164.79	17.3389
1168.16	17.4474
1171.54	15.2537
1174.91	13.8542
1178.29	12.3099
1181.66	9.44339
1185.04	9.29416
1188.41	9.00732
1191.79	6.88879
1195.16	7.09647
1198.54	6.2356
1201.91	6.71948
1205.29	7.63794
1208.66	6.3902
1212.04	6.33798
1215.41	6.37231
1218.79	5.78357
1222.16	5.05832
1225.53	5.71606
1228.91	3.60132
1232.28	2.43793
1235.66	5.2933
1239.03	2.28198
1242.41	1.51504
1245.78	4.19434
1249.16	2.50943
1252.53	2.09933
1255.91	1.02313
1259.28	3.1926
1262.66	1.72659
1266.03	1.42923
1269.41	2.08945
1272.78	2.83283
1276.16	1.14429
1279.53	0.621307
1282.91	2.14889
1286.28	0.23822
1289.66	1.58603
1293.03	1.54108
1296.4	1.57849
1299.78	2.04217
1303.15	0.057983
