Measurement: Raman, 532 nm, unoriented, Raman Data Processed
Mineral: Anorthite
Rruff sample: R070598
Ideal chemistry: CaAl_2_Si_2_O_8_
Locality: Eyscott Hill, Keswick, Cumberland, England
Source: James Shigley
Description: Massive, greyish-green heterogenous aggregates on plagioclase matrix
Measured chemistry: light gray: Na_0.25_K_0.03_Ca_0.72_(Al_1.70_Fe^3+^_0.02_Si_2.28_)O_8_
Raman shift (cm-1)	intensity
173.475	0
176.368	84.5239
179.261	213.44
182.154	344.593
185.046	606.668
187.939	820.512
190.832	1018.87
193.724	1231.14
196.617	1367.26
199.51	1444.18
202.402	1410.83
205.295	1335.58
208.188	1107.28
211.081	883.365
213.973	574.307
216.866	555.499
219.759	511.35
222.651	305.743
225.544	4.63574
228.437	86.9136
231.329	86.5376
234.222	45.3628
237.115	33.0727
240.007	257.421
242.9	682.155
245.793	1035.85
248.685	1583.82
251.578	2167.68
254.471	2763.7
257.364	3555.47
260.256	4350.86
263.149	4707.71
266.042	4346.38
268.934	3437.3
271.827	2571.13
274.72	2082.07
277.613	1779.1
280.505	1624.63
283.398	1686.22
286.291	1574.25
289.183	1480.41
292.076	1098.74
294.969	806.191
297.861	486.577
300.754	404.28
303.647	408.769
306.539	397.089
309.432	444.441
312.325	599.556
315.218	905.435
318.11	1029.87
321.003	862.591
323.896	617.135
326.788	328.734
329.681	308.75
332.574	277.01
335.466	135.206
338.359	59.4727
341.252	64.4653
344.145	15.1108
347.037	35.2944
349.93	11.6973
352.823	17.4023
355.715	129.452
358.608	168.172
361.501	247.538
364.394	147.523
367.286	234.34
370.179	466.852
373.072	682.974
375.964	753.947
378.857	1049.65
381.75	1191.21
384.642	1591.04
387.535	2071.92
390.428	2003.89
393.32	1504.22
396.213	1282.06
399.106	1270.1
401.998	1273.03
404.891	1289.97
407.784	1244.59
410.677	1152.54
413.569	1082.62
416.462	889.2
419.355	742.664
422.247	450.285
425.14	241.677
428.033	121.966
430.925	167.152
433.818	2.77148
436.711	12.9985
439.604	31.0703
442.496	17.6792
445.389	11.8008
448.282	49.3355
451.174	6.33984
454.067	141.958
456.96	157.833
459.853	191.591
462.745	516.034
465.638	659.579
468.531	935.069
471.423	1201.7
474.316	1542.07
477.209	1939.72
480.101	2172.36
482.994	1970.87
485.887	1396.72
488.779	1211.87
491.672	1281.64
494.565	1684.84
497.458	2256.87
500.35	2995.52
503.243	4036.51
506.136	4761.03
509.028	5270.65
511.921	5121.99
514.814	4551.88
517.707	4145.88
520.599	3888.47
523.492	3173.49
526.385	2269.76
529.277	1505.81
532.17	1018.07
535.063	698.396
537.955	697.383
540.848	592.586
543.741	513.336
546.633	288.78
549.526	251.658
552.419	92.46
555.312	12.0474
558.204	35.7573
561.097	70.5908
563.99	61.2837
566.882	52.8027
569.775	74.687
572.668	80.4502
575.56	36.1157
578.453	3.36523
581.346	38.666
584.239	7.30713
587.131	31.9912
590.024	38.3501
592.917	50.4385
595.809	178.532
598.702	210.999
601.595	265.366
604.487	380.38
607.38	476.909
610.273	474.336
613.165	384.248
616.058	320.532
618.951	382.848
621.844	331.615
624.736	455.521
627.629	353.35
630.522	419.014
633.414	315.54
636.307	331.182
639.2	309.772
642.092	197.249
644.985	126.817
647.878	98.8921
650.771	9.82617
653.663	51.1304
656.556	0.51123
659.449	36.7905
662.341	7.68408
665.234	0.742676
668.127	78.3208
671.019	82.7563
673.912	185.579
676.805	322.563
679.698	547.453
682.59	703.791
685.483	1090.22
688.376	1336.62
691.268	1538.28
694.161	1728.53
697.054	2016.44
699.946	2097.05
702.839	2187.24
705.732	1891.68
708.625	1445.54
711.517	1011.03
714.41	649.669
717.303	410.675
720.195	181.629
723.088	75.5098
725.981	21.96
728.873	0.953125
731.766	21.2422
734.659	42.7734
737.552	158.231
740.444	251.343
743.337	359.406
746.23	443.95
749.122	551.274
752.015	676.378
754.908	637.62
757.8	712.282
760.693	730.767
763.586	710.476
766.479	608.305
769.371	584.457
772.264	640.46
775.157	732.356
778.049	715.812
780.942	684.236
783.835	599.64
786.727	398.757
789.62	364.19
792.513	322.405
795.405	320.21
798.298	328.17
801.191	295.561
804.084	354.914
806.976	444.109
809.869	382.726
812.762	347.977
815.654	358.091
818.547	245.909
821.44	90.5303
824.332	8.06201
827.225	20.5176
830.118	19.813
833.011	63.2358
835.903	4.64453
838.796	38.0972
841.689	81.771
844.581	14.313
847.474	94.2353
850.367	10.3193
853.26	51.0996
856.152	0.240723
859.045	16.8906
861.938	38.2769
864.83	48.23
867.723	58.4145
870.616	28.6191
873.508	44.123
876.401	86.6152
879.294	2.78565
882.186	27.127
885.079	57.5073
887.972	142.852
890.865	52.5786
893.757	129.84
896.65	172.953
899.543	164.559
902.435	202.933
905.328	229.614
908.221	315.381
911.113	293.546
914.006	314.291
916.899	277.882
919.792	292.354
922.684	336.631
925.577	392.423
928.47	500.246
931.362	667.656
934.255	716.675
937.148	706.453
940.04	707.05
942.933	730.456
945.826	647.219
948.718	605.851
951.611	619.515
954.504	513.277
957.396	450.303
960.289	332.466
963.182	149.284
966.075	129.711
968.967	129.93
971.86	132.249
974.753	176.404
977.645	332.255
980.538	478.769
983.431	645.971
986.323	688.99
989.216	705.132
992.109	636.42
995.002	479.18
997.894	317.799
1000.79	147.286
1003.68	93.5781
1006.57	30.9165
1009.47	32.1318
1012.36	48.2534
1015.25	51.1914
1018.14	48.2827
1021.04	9.3042
1023.93	29.9487
1026.82	4.66113
1029.71	2.29053
1032.61	49.706
1035.5	6.87354
1038.39	20.2559
1041.29	80.9448
1044.18	6.49463
1047.07	10.0185
1049.96	46.3897
1052.86	96.2017
1055.75	154.274
1058.64	168.402
1061.53	214.677
1064.43	221.46
1067.32	279.368
1070.21	417.136
1073.1	459.113
1076	572.228
1078.89	624.697
1081.78	711.565
1084.67	576.713
1087.57	399.342
1090.46	306.815
1093.35	292.229
1096.25	346.873
1099.14	354.726
1102.03	256.901
1104.92	275.728
1107.82	306.767
1110.71	315.701
1113.6	305.257
1116.49	231.516
1119.39	238.139
1122.28	175.962
1125.17	146.564
1128.07	165.314
1130.96	147.469
1133.85	110.218
1136.74	148.805
1139.64	112.417
1142.53	129.234
1145.42	31.9009
1148.32	23.7114
1151.21	60.4473
1154.1	102.153
1156.99	25.8091
1159.88	114.744
1162.78	11.4565
1165.67	25.0273
1168.56	31.6421
1171.46	51.2217
1174.35	45.6855
1177.24	77.1968
1180.13	48.9209
1183.03	46.7734
1185.92	110.915
1188.81	146.804
1191.7	62.2583
1194.6	80.8389
1197.49	19.2241
1200.38	42.5161
1203.28	44.523
1206.17	80.73
1209.06	82.0977
1211.95	124.22
1214.85	97.229
1217.74	107.056
1220.63	35.1992
1223.53	135.43
1226.42	77.4688
1229.31	78.1851
1232.2	43.6855
1235.1	64.7148
1237.99	9.20654
1240.88	64.1045
1243.77	116.907
1246.67	53.1548
1249.56	24.6958
1252.45	62.5791
1255.34	94.145
1258.24	60.6958
1261.13	62.0855
1264.02	90.1001
1266.91	81.7549
1269.81	83.9292
1272.7	42.2861
1275.59	91.1602
1278.49	113.438
1281.38	16.7847
1284.27	45.4429
1287.16	26.5293
1290.06	18.2939
1292.95	51.977
1295.84	19.0293
