Measurement: Raman, 532 nm, unoriented, Raman Data Processed
Mineral: Anorthite
Rruff sample: R040059
Ideal chemistry: CaAl_2_Si_2_O_8_
Locality: Miyakejima, Japan
Source: University of Arizona Mineral Museum
Description: Colorless fragments of crystals
Measured chemistry: (Ca_0.94_Na_0.04_Fe_0.02_)(Al_0.98_Si_0.02_)_2_Si_2.00_O_8_
Raman shift (cm-1)	intensity
129.392	0
132.766	33.5383
136.141	50.5352
139.516	78.4776
142.891	126.898
146.266	161.356
149.64	93.7936
153.015	25.141
156.39	2.36676
159.765	9.12707
163.14	9.92828
166.514	45.9556
169.889	89.8167
173.264	127.299
176.639	165.322
180.014	206.722
183.388	252.205
186.763	273.707
190.138	277.097
193.513	268.106
196.888	234.532
200.263	187.807
203.637	159.573
207.012	141.979
210.387	117.825
213.762	82.4328
217.137	43.744
220.512	33.58
223.886	18.5212
227.261	1.53088
230.636	6.22833
234.011	9.27081
237.386	31.6436
240.76	74.0556
244.135	114.448
247.51	148.929
250.885	161.318
254.26	175.873
257.635	176.886
261.009	166.603
264.384	161.298
267.759	187.764
271.134	220.485
274.509	238.133
277.883	260.092
281.258	278.33
284.633	280.496
288.008	238.232
291.383	193.102
294.757	127.087
298.132	77.8308
301.507	53.1228
304.882	43.1846
308.257	33.1118
311.632	28.4277
315.006	26.5997
318.381	41.0186
321.756	51.8792
325.131	41.9138
328.506	17.8738
331.88	0.759857
335.255	2.09311
338.63	2.23831
342.005	1.09262
345.38	0.826233
348.755	3.93716
352.129	4.16312
355.504	2.10751
358.879	7.88229
362.254	18.3516
365.629	36.1512
369.003	49.003
372.378	42.9267
375.753	35.1419
379.128	37.3627
382.503	51.6349
385.877	53.2229
389.252	60.7111
392.627	82.4644
396.002	104.634
399.377	118.915
402.752	126.472
406.126	118.824
409.501	97.5621
412.876	62.1211
416.251	42.7976
419.626	49.6813
423	78.3272
426.375	116.169
429.75	123.059
433.125	93.9469
436.5	67.119
439.875	48.797
443.249	23.4298
446.624	2.27905
449.999	8.67902
453.374	6.61713
456.749	9.20679
460.123	20.6817
463.498	22.011
466.873	34.6129
470.248	76.8413
473.623	119.01
476.998	167.231
480.372	245.149
483.747	365.688
487.122	446.658
490.497	420.718
493.872	420.239
497.246	537.029
500.621	742.38
503.996	861.509
507.371	732.098
510.746	504.607
514.12	350.538
517.495	230.963
520.87	138.534
524.245	98.7728
527.62	66.8091
530.995	33.7073
534.369	14.6484
537.744	14.9888
541.119	22.6376
544.494	53.6072
547.869	94.2056
551.244	143.352
554.618	191.516
557.993	193.808
561.368	156.134
564.743	105.1
568.118	57.7843
571.492	25.6159
574.867	6.77136
578.242	1.61639
581.617	6.42731
584.992	4.36597
588.366	6.17011
591.741	16.0833
595.116	22.1939
598.491	23.0312
601.866	18.5058
605.24	7.70502
608.615	1.07068
611.99	0.532227
615.365	1.6763
618.74	8.50177
622.115	13.6457
625.489	14.6164
628.864	6.2464
632.239	3.6962
635.614	2.64175
638.989	0.730988
642.364	2.53082
645.738	2.71985
649.113	0.619598
652.488	2.03998
655.863	3.39249
659.237	7.81653
662.612	14.5698
665.987	31.7505
669.362	44.6767
672.737	68.2579
676.112	95.65
679.486	117.254
682.861	113.643
686.236	90.6999
689.611	63.7303
692.986	42.616
696.361	24.3448
699.735	19.219
703.11	13.5214
706.485	11.3077
709.86	10.7733
713.235	7.29627
716.609	6.56091
719.984	10.6164
723.359	10.5008
726.734	15.7265
730.109	25.6344
733.484	36.586
736.858	53.78
740.233	73.3041
743.608	80.4078
746.983	76.4124
750.358	80.4537
753.732	93.4654
757.107	118.053
760.482	141.868
763.857	150.175
767.232	136.142
770.606	100.118
773.981	78.0646
777.356	52.8004
780.731	37.5968
784.106	25.422
787.481	21.9939
790.855	13.8177
794.23	13.7505
797.605	12.631
800.98	6.22815
804.355	2.64771
807.729	1.68661
811.104	0.309418
814.479	2.0585
817.854	2.99667
821.229	1.68054
824.604	3.12396
827.978	1.01059
831.353	0.41217
834.728	1.38651
838.103	2.16412
841.478	0.513245
844.852	0.884094
848.227	1.03192
851.602	0.516113
854.977	2.52954
858.352	1.10669
861.726	0.336121
865.101	2.24487
868.476	2.41461
871.851	1.01862
875.226	1.9021
878.601	3.27271
881.975	5.39795
885.35	10.3524
888.725	9.30987
892.1	18.2021
895.475	22.6145
898.85	28.0123
902.224	35.0679
905.599	41.933
908.974	52.8332
912.349	54.9616
915.724	50.5804
919.098	38.2797
922.473	24.4639
925.848	13.9281
929.223	15.7833
932.598	15.767
935.972	20.5059
939.347	26.9432
942.722	38.9237
946.097	46.9012
949.472	67.4687
952.847	85.0081
956.221	96.3254
959.596	92.3603
962.971	75.9058
966.346	74.3297
969.721	87.6695
973.096	105.753
976.47	117.02
979.845	114.518
983.22	100.416
986.595	78.3657
989.97	57.6946
993.344	43.1928
996.719	29.4981
1000.09	20.7901
1003.47	14.9862
1006.84	9.17847
1010.22	2.97321
1013.59	3.8949
1016.97	4.60583
1020.34	1.29394
1023.72	1.20715
1027.09	0.398865
1030.47	0.374512
1033.84	0.495361
1037.22	2.93603
1040.59	3.07843
1043.97	6.89771
1047.34	11.0705
1050.72	15.9332
1054.09	14.8632
1057.47	10.9131
1060.84	14.3217
1064.21	11.9399
1067.59	13.3573
1070.96	14.9083
1074.34	20.4153
1077.71	23.6548
1081.09	20.1423
1084.46	14.233
1087.84	9.25421
1091.21	6.44275
1094.59	3.95221
1097.96	1.50751
1101.34	1.05634
1104.71	3.39294
1108.09	0.499329
1111.46	0.032288
1114.84	6.68189
1118.21	6.43518
1121.59	7.09418
1124.96	7.13745
1128.34	6.54224
1131.71	5.27124
1135.09	5.52771
1138.46	5.4259
1141.84	6.47668
1145.21	7.40228
1148.59	6.19708
1151.96	7.67322
1155.34	8.07599
1158.71	3.47662
1162.09	6.27002
1165.46	5.09088
1168.84	4.59198
1172.21	5.31152
1175.58	5.9707
1178.96	4.08301
1182.33	2.64008
1185.71	2.84442
1189.08	3.68103
1192.46	0.079773
1195.83	6.13409
1199.21	2.6618
1202.58	0.033203
1205.96	0.271362
1209.33	3.73712
1212.71	0.085449
1216.08	3.41595
1219.46	2.06525
1222.83	4.24036
1226.21	1.69672
1229.58	4.59735
1232.96	1.88757
1236.33	3.862
1239.71	2.85059
1243.08	3.52948
1246.46	4.99445
1249.83	3.39484
1253.2	2.03357
1256.58	5.95752
1259.95	2.97186
1263.33	3.07648
1266.7	2.49432
1270.08	2.60632
1273.45	5.71387
1276.83	5.7038
1280.2	2.11322
1283.58	2.44934
1286.95	1.22858
1290.33	0
