Measurement: Raman, 780 nm, unoriented, Raman Data Processed
Mineral: Anorpiment
Rruff sample: R110016
Ideal chemistry: As_2_S_3_
Locality: Palomo mine, Huancavelica Department, Peru
Source: Bob Jenkins
Description: Platy transparent olive green crystals coating botryoidal yellow orpiment. Co-type specimen.
Measured chemistry: As_1.96_S_3.04_
Raman shift (cm-1)	intensity
93.4982	0
96.873	980.35
100.248	806.071
103.623	13.419
106.997	57.5239
110.372	512.271
113.747	1631.38
117.122	4608.74
120.497	2536.46
123.871	639.155
127.246	816.226
130.621	1838.95
133.996	5452.81
137.371	2256.36
140.746	932.279
144.12	231.541
147.495	77.6385
150.87	111.654
154.245	754.563
157.62	1478.91
160.994	609.418
164.369	634.459
167.744	1225.64
171.119	1769.94
174.494	2449.4
177.869	1956.11
181.243	942.322
184.618	1526.12
187.993	1327.99
191.368	1253.97
194.743	848.741
198.117	249.045
201.492	142.964
204.867	85.4487
208.242	19.6194
211.617	7.90735
214.992	3.29828
218.366	1.00256
221.741	11.1393
225.116	0.254578
228.491	34.3129
231.866	66.7217
235.24	68.4185
238.615	78.5658
241.99	49.4486
245.365	48.4514
248.74	57.7495
252.114	95.5808
255.489	78.9116
258.864	43.9099
262.239	7.81335
265.614	6.53455
268.988	21.8518
272.363	39.3635
275.738	41.3359
279.113	11.1251
282.488	35.783
285.863	88.8533
289.237	139.426
292.612	231.921
295.987	373.255
299.362	708.262
302.737	1664.78
306.111	3367.06
309.486	5097.76
312.861	8121.07
316.236	16942
319.611	27784.7
322.986	33365.5
326.36	32419
329.735	45122.7
333.11	71792.8
336.485	28480.8
339.86	7438.52
343.234	3559.88
346.609	2395.86
349.984	2468.78
353.359	1553.85
356.734	1739.6
360.108	2363.25
363.483	2347.68
366.858	3486.73
370.233	6638.61
373.608	13613.3
376.983	8441.38
380.357	3295.78
383.732	3668.15
387.107	5864.31
390.482	2925.79
393.857	468.716
397.231	105.005
400.606	13.7576
403.981	19.3934
407.356	23.396
410.731	32.8248
414.106	33.5366
417.48	14.0295
420.855	2.25519
424.23	3.12781
427.605	0.890381
430.98	5.69244
434.354	13.0922
437.729	23.8649
441.104	33.4946
444.479	54.18
447.854	77.0707
451.228	96.6909
454.603	99.5305
457.978	90.7042
461.353	86.6667
464.728	87.0975
468.103	87.4451
471.477	86.6291
474.852	83.166
478.227	86.2159
481.602	82.596
484.977	85.4634
488.351	98.4224
491.726	90.9486
495.101	94.2588
498.476	95.7666
501.851	93.3107
505.226	98.7017
508.6	96.4795
511.975	90.3124
515.35	84.0538
518.725	81.0999
522.1	74.5596
525.474	71.9022
528.849	62.5207
532.224	58.3148
535.599	54.4421
538.974	58.7162
542.348	54.5202
545.723	58.346
549.098	56.9548
552.473	65.5008
555.848	63.9046
559.222	56.2414
562.597	59.8556
565.972	48.4259
569.347	26.3981
572.722	17.3823
576.097	12.7229
579.471	0.020569
582.846	2.59311
586.221	8.42697
589.596	0.102386
592.971	1.32727
596.346	4.37231
599.72	12.3156
603.095	3.82449
606.47	9.64523
609.845	8.05914
613.22	3.34531
616.594	6.94269
619.969	28.547
623.344	67.4888
626.719	154.252
630.094	268.167
633.468	431.231
636.843	613.912
640.218	732.087
643.593	705.956
646.968	633.841
650.342	507.483
653.717	396.004
657.092	294.849
660.467	245.418
663.842	228.909
667.217	213.433
670.591	203.012
673.966	197.748
677.341	180.639
680.716	169.66
684.091	157.416
687.466	151.749
690.84	139.46
694.215	155.237
697.59	188.503
700.965	220.336
704.34	244.225
707.714	224.427
711.089	207.153
714.464	153.311
717.839	145.876
721.214	103.65
724.588	86.4829
727.963	77.087
731.338	48.2969
734.713	40.4247
738.088	41.9832
741.462	76.7962
744.837	102.75
748.212	123.993
751.587	104.176
754.962	63.1182
758.337	28.4721
761.711	8.50391
765.086	22.4874
768.461	35.7789
771.836	43.2091
775.211	37.4946
778.586	35.5318
781.96	8.6752
785.335	0.454132
788.71	7.34582
792.085	10.8227
795.46	7.57465
798.834	4.21405
802.209	4.59757
805.584	1.40057
808.959	8.54623
812.334	8.73663
815.708	10.2697
819.083	18.3419
822.458	20.6381
825.833	14.2597
829.208	23.5482
832.582	25.4775
835.957	22.3365
839.332	22.8432
842.707	32.8589
846.082	28.9788
849.457	33.688
852.831	27.8387
856.206	19.4293
859.581	26.0123
862.956	21.2997
866.331	16.212
869.706	12.225
873.08	14.9545
876.455	15.9349
879.83	24.3875
883.205	21.511
886.58	10.2035
889.954	12.4062
893.329	12.4722
896.704	16.4379
900.079	15.6575
903.454	5.94028
906.828	14.8259
910.203	3.95847
913.578	12.5915
916.953	10.2587
920.328	1.44452
923.702	11.4736
927.077	8.95822
930.452	12.7139
933.827	3.45126
937.202	0.460632
940.577	9.66226
943.951	4.67398
947.326	1.15152
950.701	4.10043
954.076	6.00958
957.451	16.3781
960.825	0.355286
964.2	2.06929
967.575	10.0209
970.95	4.78362
974.325	3.04167
977.699	5.75288
981.074	7.61356
984.449	6.22957
987.824	0.271454
991.199	3.79068
994.574	4.3828
997.948	6.59256
1001.32	9.6904
1004.7	7.38023
1008.07	6.58063
1011.45	9.08714
1014.82	5.60496
1018.2	5.77475
1021.57	2.06276
1024.95	4.62811
1028.32	9.44063
1031.7	5.62384
1035.07	9.91461
1038.45	7.16608
1041.82	9.79919
1045.2	8.82356
1048.57	14.3985
1051.94	3.94463
1055.32	10.8504
1058.69	8.37256
1062.07	3.51494
1065.44	6.49675
1068.82	3.8997
1072.19	13.943
1075.57	10.6776
1078.94	9.35896
1082.32	8.91931
1085.69	8.45514
1089.07	3.45342
1092.44	8.06282
1095.82	2.85046
1099.19	4.36346
1102.57	0.607864
1105.94	6.8381
1109.32	4.07297
1112.69	5.27034
1116.07	4.15555
1119.44	4.94295
1122.82	8.08832
1126.19	4.8999
1129.57	0.766113
1132.94	7.41505
1136.32	10.816
1139.69	13.516
1143.07	11.8778
1146.44	3.72681
1149.82	5.8284
1153.19	8.21796
1156.57	5.68452
1159.94	4.26869
1163.31	9.40244
1166.69	7.4339
1170.06	8.61478
1173.44	8.67221
1176.81	9.62472
1180.19	1.60591
1183.56	13.7766
1186.94	2.97758
1190.31	5.75493
1193.69	10.3274
1197.06	3.13319
1200.44	12.8244
1203.81	8.05833
1207.19	11.7744
1210.56	5.73384
1213.94	14.4736
1217.31	10.2835
1220.69	3.3994
1224.06	6.40041
1227.44	5.92873
1230.81	6.99704
1234.18	0.425598
1237.56	7.23532
1240.93	4.09988
1244.31	7.09305
1247.68	6.80466
1251.06	9.17075
1254.43	5.68025
1257.81	15.9347
1261.18	11.6378
1264.56	10.8332
1267.93	7.49126
1271.31	4.70638
1274.68	6.27397
1278.06	6.95705
1281.43	0.062759
1284.81	0
