Measurement: Raman, 532 nm, unoriented, Raman Data Processed
Mineral: Anorthite
Rruff sample: R070510
Ideal chemistry: CaAl_2_Si_2_O_8_
Locality: Larvik, Vestfold, Norway
Source: James Shigley
Description: Colorless to white vitreous crystals
Measured chemistry: Na_0.20_Ca_0.80_(Al_1.80_Si_2.20_)_Î£=4_O_8_
Raman shift (cm-1)	intensity
162.208	0
165.101	5.88086
167.994	35.0967
170.886	174.782
173.779	344.413
176.672	435.808
179.565	607.807
182.457	925.135
185.35	1036.09
188.243	1041.45
191.135	1119.3
194.028	1159.35
196.921	1208.84
199.813	998.871
202.706	536.915
205.599	337.798
208.492	196.609
211.384	119.049
214.277	6.7876
217.17	5.98193
220.062	19.9707
222.955	7.68799
225.848	19.0591
228.74	24.9453
231.633	10.0815
234.526	78.4609
237.418	127.558
240.311	186.643
243.204	221.719
246.097	251.375
248.989	290.989
251.882	358.009
254.775	387.675
257.667	427.63
260.56	431.965
263.453	494.741
266.346	539.48
269.238	604.036
272.131	697.668
275.024	754.025
277.916	785.314
280.809	895.598
283.702	949.938
286.594	863.346
289.487	747.467
292.38	636.477
295.272	470.519
298.165	347.173
301.058	205.952
303.951	103.208
306.843	27.6709
309.736	48.6782
312.629	15.2402
315.521	65.5894
318.414	99.0972
321.307	191.225
324.2	334.914
327.092	345.257
329.985	607.794
332.878	880.144
335.77	999.646
338.663	1167.86
341.556	1295.43
344.449	1297.71
347.341	1328.92
350.234	975
353.127	378.752
356.019	178.12
358.912	57.0942
361.805	46.8887
364.697	6.49268
367.59	23.3955
370.483	6.54834
373.375	22.2759
376.268	21.9507
379.161	43.5889
382.054	4.99951
384.946	65.7031
387.839	75.8188
390.732	128.716
393.624	204.05
396.517	313.547
399.41	408.281
402.303	404.36
405.195	285.139
408.088	283.058
410.981	186.182
413.873	113.033
416.766	77.6538
419.659	14.647
422.551	111.044
425.444	116.032
428.337	37.7822
431.229	31.7876
434.122	50.1289
437.015	65.4883
439.908	67.479
442.8	22.6685
445.693	18.6099
448.586	25.395
451.478	39.1489
454.371	8.71533
457.264	63.8306
460.156	129.385
463.049	171.741
465.942	228.586
468.835	383.986
471.727	637.36
474.62	857.826
477.513	1229.15
480.405	1659.73
483.298	2008.5
486.191	1966.69
489.084	1674.78
491.976	1603.84
494.869	1939.48
497.762	2635.49
500.654	3349.69
503.547	3763.14
506.44	3216.35
509.332	2568.16
512.225	2074.26
515.118	1584.52
518.01	1220.59
520.903	909.315
523.796	818.84
526.689	761.406
529.581	772.628
532.474	738.956
535.367	758.932
538.259	764.144
541.152	785.091
544.045	750.349
546.938	664.848
549.83	546.465
552.723	317.143
555.616	343.587
558.508	333.328
561.401	302.1
564.294	310.592
567.186	199.595
570.079	178.282
572.972	114.454
575.865	61.771
578.757	4.89893
581.65	70.0156
584.543	12.6655
587.435	28.5142
590.328	21.0855
593.221	35.5557
596.114	54.6714
599.006	33.165
601.899	102.226
604.792	60.0928
607.684	58.2212
610.577	42.2656
613.47	43.686
616.362	48.5747
619.255	80.7217
622.148	68.6152
625.04	94.0942
627.933	105.414
630.826	49.2602
633.719	84.3921
636.611	64.1743
639.504	90.8774
642.397	13.2114
645.289	5.67969
648.182	9.61914
651.075	5.23096
653.967	15.4536
656.86	22.5283
659.753	8.44385
662.646	48.3355
665.538	47.6484
668.431	66.9434
671.324	127.54
674.216	131.909
677.109	174.848
680.002	204.025
682.894	244.617
685.787	199.646
688.68	160.362
691.573	96.2974
694.465	84.8413
697.358	80.293
700.251	57.269
703.143	94.0312
706.036	85.4204
708.929	53.6284
711.822	69.2695
714.714	82.7588
717.607	29.1265
720.5	2.83545
723.392	15.228
726.285	76.8076
729.178	101.921
732.07	118.486
734.963	148.216
737.856	174.279
740.749	260.463
743.641	334.124
746.534	222.691
749.427	262.587
752.319	201.197
755.212	219.019
758.105	242.362
760.997	285.805
763.89	302.217
766.783	286.016
769.676	238.967
772.568	201.682
775.461	203.258
778.354	180.73
781.246	154.966
784.139	96.9761
787.032	71.6504
789.924	75.7612
792.817	50.9648
795.71	33.7837
798.602	28.8486
801.495	30.356
804.388	10.668
807.281	65.374
810.173	59.9067
813.066	16.2485
815.959	15.9883
818.851	15.8945
821.744	38.6992
824.637	72.8442
827.529	16.0913
830.422	68.0684
833.315	17.916
836.208	41.5967
839.1	21.1445
841.993	0.015625
844.886	31.5742
847.778	12.0884
850.671	33.2725
853.564	47.3701
856.457	17.0449
859.349	10.583
862.242	13.9805
865.135	29.0322
868.027	71.0791
870.92	15.9155
873.813	48.5801
876.705	10.0312
879.598	8.53369
882.491	48.2905
885.384	2.40869
888.276	72.6885
891.169	24.1382
894.062	32.5449
896.954	40.7168
899.847	47.002
902.74	43.4243
905.632	69.4741
908.525	102.434
911.418	110.689
914.311	88.8628
917.203	110.247
920.096	69.8227
922.989	54.4834
925.881	40.9321
928.774	33.001
931.667	17.085
934.559	74.8926
937.452	80.2134
940.345	115.086
943.237	95.27
946.13	98.7134
949.023	51.1543
951.916	57.5513
954.808	88.0151
957.701	62.0488
960.594	77.0786
963.486	94.6768
966.379	164.723
969.272	280.565
972.165	283.613
975.057	363.457
977.95	362.922
980.843	293.448
983.735	330.692
986.628	236.03
989.521	197.019
992.413	164.656
995.306	81.1802
998.199	157.37
1001.09	153.944
1003.98	96.146
1006.88	112.422
1009.77	118.704
1012.66	74.6636
1015.55	111.653
1018.45	122.455
1021.34	8.04834
1024.23	63.4131
1027.13	16.8809
1030.02	95.9116
1032.91	52.2744
1035.8	34.6865
1038.7	7.55029
1041.59	18.5312
1044.48	2.15772
1047.38	8.32422
1050.27	7.55371
1053.16	15.834
1056.05	15.3023
1058.95	12.6196
1061.84	23.2212
1064.73	22.2461
1067.62	50.9375
1070.52	41.7124
1073.41	74.438
1076.3	75.6523
1079.19	31.9175
1082.09	20.7505
1084.98	38.9858
1087.87	42.2505
1090.77	4.70361
1093.66	20.0977
1096.55	31.1797
1099.44	53.7676
1102.34	16.4194
1105.23	68.9868
1108.12	28.2197
1111.01	76.4394
1113.91	91.8203
1116.8	100.457
1119.69	1.83838
1122.59	37.7344
1125.48	37.0015
1128.37	42.915
1131.26	67.8296
1134.16	26.9424
1137.05	74.811
1139.94	72.4268
1142.83	61.0723
1145.73	28.7534
1148.62	21.5088
1151.51	9.84473
1154.4	5.60693
1157.3	27.7007
1160.19	33.9946
1163.08	4.65137
1165.98	21.6152
1168.87	78.9648
1171.76	25.5527
1174.65	79.5845
1177.55	65.9858
1180.44	65.375
1183.33	78.4634
1186.22	61.8047
1189.12	88.1099
1192.01	32.585
1194.9	30.3535
1197.8	14.7529
1200.69	80.0186
1203.58	23.1343
1206.47	21.332
1209.37	24.1919
1212.26	56.9336
1215.15	29.2988
1218.04	39.2524
1220.94	128.855
1223.83	83.6836
1226.72	21.0376
1229.62	59.77
1232.51	52.8706
1235.4	93.1123
1238.29	65.5396
1241.19	114.139
1244.08	71.5898
1246.97	16.0996
1249.86	40.1728
1252.76	55.4482
1255.65	71.9858
1258.54	14.5762
1261.43	71.7188
1264.33	78.7744
1267.22	81.2227
1270.11	79.6606
1273.01	60.831
1275.9	12.3643
1278.79	59.3164
1281.68	0
