Measurement: Raman, 532 nm, unoriented, Raman Data Processed
Mineral: Anorthite
Rruff sample: R060275
Ideal chemistry: CaAl_2_Si_2_O_8_
Locality: Madagascar
Source: Herb Obodda
Description: Colorless to light gray fragment
Measured chemistry: (Na_0.44_K_0.03_Ca_0.53_)_Î£=1_Al_1.53_Si_2.47_O_8_
Raman shift (cm-1)	intensity
160.399	0
163.292	5.31903
166.185	22.984
169.077	45.0441
171.97	81.553
174.863	111.367
177.755	150.64
180.648	175.651
183.541	224.829
186.433	254.376
189.326	270.222
192.219	285.937
195.112	286.364
198.004	294.703
200.897	285.113
203.79	272.416
206.682	235.759
209.575	187.817
212.468	140.586
215.36	89.0163
218.253	46.0955
221.146	20.2457
224.038	0.372742
226.931	1.08438
229.824	8.55518
232.717	12.3477
235.609	0.609528
238.502	0.899353
241.395	10.3958
244.287	22.558
247.18	32.7774
250.073	50.456
252.965	58.8428
255.858	67.7383
258.751	74.7976
261.644	91.3191
264.536	102.105
267.429	116.305
270.322	133.839
273.214	148.026
276.107	171.095
279	176.81
281.892	192.075
284.785	186.082
287.678	175.026
290.571	157.229
293.463	133.042
296.356	97.3456
299.249	72.7918
302.141	49.5886
305.034	33.7863
307.927	21.1214
310.82	11.7558
313.712	12.3668
316.605	17.7354
319.498	12.5972
322.39	17.7541
325.283	19.7818
328.176	27.3568
331.068	21.404
333.961	20.2055
336.854	10.8763
339.747	11.5041
342.639	3.93167
345.532	7.49896
348.425	2.28073
351.317	2.11536
354.21	1.31851
357.103	0.429871
359.995	1.99371
362.888	5.59994
365.781	0.056152
368.673	2.94
371.566	3.43607
374.459	6.66214
377.352	9.62064
380.244	13.5182
383.137	10.8368
386.03	18.8674
388.922	27.8565
391.815	32.4153
394.708	39.4554
397.601	52.7084
400.493	68.8264
403.386	86.454
406.279	95.1693
409.171	89.3125
412.064	73.35
414.957	46.1636
417.849	29.4806
420.742	8.1373
423.635	4.59225
426.527	7.14462
429.42	8.56427
432.313	2.02469
435.206	0.946625
438.098	2.32178
440.991	8.00391
443.884	16.3387
446.776	30.552
449.669	37.3603
452.562	49.7998
455.454	75.5217
458.347	96.1378
461.24	147.612
464.133	197.679
467.025	278.897
469.918	377.502
472.811	507.158
475.703	652.305
478.596	778.668
481.489	823.968
484.382	771.823
487.274	650.237
490.167	569.485
493.06	559.088
495.952	656.628
498.845	828.626
501.738	1058.51
504.63	1263.16
507.523	1392.42
510.416	1388.62
513.308	1237.07
516.201	957.423
519.094	682.125
521.987	458.094
524.879	306.04
527.772	200.519
530.665	120.249
533.557	65.5449
536.45	36.9477
539.343	32.3396
542.236	34.4953
545.128	32.5875
548.021	42.5858
550.914	61.9271
553.806	80.4993
556.699	98.9173
559.592	127.487
562.484	164.729
565.377	186.5
568.27	184.744
571.163	142.148
574.055	94.749
576.948	48.9001
579.841	25.3245
582.733	6.70962
585.626	1.56357
588.519	5.55798
591.411	0.421509
594.304	0.115875
597.197	1.17252
600.09	0.695404
602.982	2.47702
605.875	4.85477
608.768	0.882141
611.66	5.72125
614.553	8.23425
617.446	0.880035
620.338	4.77332
623.231	4.86557
626.124	14.8566
629.016	6.32303
631.909	16.1796
634.802	17.0897
637.695	14.3214
640.587	12.2817
643.48	16.1259
646.373	10.0573
649.265	12.1657
652.158	3.3963
655.051	6.26608
657.943	6.47623
660.836	7.88919
663.729	10.5417
666.622	0.881683
669.514	0.04657
672.407	2.06653
675.3	0.594055
678.192	4.17084
681.085	5.68835
683.978	2.57602
686.87	2.38696
689.763	5.82297
692.656	0.608612
695.549	0.013855
698.441	6.1337
701.334	3.3801
704.227	6.70874
707.119	7.54443
710.012	6.21585
712.905	14.0425
715.798	13.4329
718.69	15.858
721.583	12.1535
724.476	19.7162
727.368	17.2054
730.261	24.8865
733.154	30.4037
736.046	39.9975
738.939	48.656
741.832	56.4875
744.725	60.565
747.617	65.2293
750.51	69.4677
753.403	71.981
756.295	79.3198
759.188	83.3187
762.081	82.0139
764.973	89.5277
767.866	90.5915
770.759	102.491
773.652	98.9086
776.544	98.4446
779.437	101.729
782.33	100.145
785.222	113.884
788.115	127.848
791.008	140.487
793.9	156.83
796.793	147.238
799.686	136.521
802.578	121.813
805.471	108.741
808.364	95.2075
811.257	94.1505
814.149	83.2444
817.042	40.9134
819.935	24.0541
822.827	11.057
825.72	9.4418
828.613	5.94144
831.505	5.33466
834.398	0.590607
837.291	5.53214
840.184	5.05148
843.076	5.95126
845.969	4.25601
848.862	1.86676
851.754	5.17938
854.647	1.05057
857.54	0.181366
860.433	4.07129
863.325	0.269318
866.218	1.17993
869.111	7.21417
872.003	3.13031
874.896	1.66022
877.789	2.8429
880.681	1.5611
883.574	2.65411
886.467	2.573
889.36	6.31833
892.252	0.663086
895.145	9.23554
898.038	10.9476
900.93	14.7115
903.823	14.7896
906.716	19.7686
909.608	15.8243
912.501	17.3073
915.394	8.00952
918.287	13.1361
921.179	18.2459
924.072	11.5411
926.965	12.1656
929.857	13.3234
932.75	6.26208
935.643	2.69684
938.535	4.50607
941.428	4.1991
944.321	6.41574
947.213	4.79001
950.106	3.36539
952.999	7.20679
955.892	17.7182
958.784	17.5244
961.677	26.3087
964.57	31.4448
967.462	42.9487
970.355	51.6484
973.248	61.2539
976.14	71.5256
979.033	75.3956
981.926	80.7959
984.819	73.9929
987.711	64.1044
990.604	55.3555
993.497	49.5059
996.389	34.376
999.282	28.4012
1002.17	33.4294
1005.07	22.7646
1007.96	17.6797
1010.85	14.118
1013.75	18.4979
1016.64	19.9683
1019.53	19.3047
1022.42	18.1697
1025.32	8.59564
1028.21	17.2113
1031.1	12.3995
1033.99	7.978
1036.89	12.0798
1039.78	6.17587
1042.67	3.81119
1045.57	8.59665
1048.46	12.5375
1051.35	8.98529
1054.24	14.2527
1057.14	9.77762
1060.03	14.8187
1062.92	11.6678
1065.81	4.19455
1068.71	2.97134
1071.6	6.16016
1074.49	8.08856
1077.38	0.561218
1080.28	0.008759
1083.17	2.01132
1086.06	5.05685
1088.96	1.70749
1091.85	3.33392
1094.74	2.92139
1097.63	0.149658
1100.53	0.508362
1103.42	1.70505
1106.31	1.09106
1109.2	1.38617
1112.1	2.98221
1114.99	5.2645
1117.88	4.83197
1120.78	10.8913
1123.67	4.05472
1126.56	1.04681
1129.45	5.63443
1132.35	4.15674
1135.24	2.32187
1138.13	5.67871
1141.02	3.94345
1143.92	3.84271
1146.81	3.36343
1149.7	2.60931
1152.6	5.85358
1155.49	3.41751
1158.38	5.21555
1161.27	9.5108
1164.17	6.63165
1167.06	5.0574
1169.95	8.61554
1172.84	11.3762
1175.74	13.1989
1178.63	5.99274
1181.52	8.42813
1184.41	15.9842
1187.31	8.05307
1190.2	10.125
1193.09	11.6013
1195.99	11.9933
1198.88	13.7687
1201.77	7.67648
1204.66	8.12354
1207.56	6.26886
1210.45	8.31531
1213.34	7.17114
1216.23	0.472198
1219.13	1.05716
1222.02	0.759918
1224.91	8.87314
1227.81	8.28946
1230.7	9.49719
1233.59	9.52045
1236.48	11.6437
1239.38	4.77515
1242.27	10.5322
1245.16	8.37268
1248.05	12.1867
1250.95	10.4933
1253.84	11.2998
1256.73	11.5944
1259.62	9.52176
1262.52	9.10959
1265.41	5.67709
1268.3	8.28351
1271.2	1.97223
1274.09	3.87552
1276.98	10.644
1279.87	1.76889
1282.77	6.97473
1285.66	5.9715
1288.55	7.62878
1291.44	5.26901
1294.34	10.1327
1297.23	3.49927
1300.12	0.774567
1303.02	0
