Measurement: Raman, 532 nm, unoriented, Raman Data Processed
Mineral: Anorthoclase
Rruff sample: R060054
Ideal chemistry: (Na,K)AlSi_3_O_8_
Locality: Mt. Erebus, Antarctica
Source: Marcus Origlieri
Description: Dark gray bladed crystal
Measured chemistry: (Na_0.67_K_0.18_Ca_0.15_)_Σ=1_Al_1.00_(Si_2.85_Al_0.15_)_Σ=3_O_8_
Raman shift (cm-1)	intensity
94.3086	0
97.6834	13.8715
101.058	3.08344
104.433	3.08063
107.808	17.4304
111.183	28.8686
114.558	84.7555
117.932	138.037
121.307	166.674
124.682	193.617
128.057	239.765
131.432	328.599
134.806	385.609
138.181	465.781
141.556	545.063
144.931	654.66
148.306	794.287
151.68	977.967
155.055	1185.07
158.43	1418.08
161.805	1654.47
165.18	1843.57
168.554	1925.66
171.929	1872.52
175.304	1693.7
178.679	1496.49
182.054	1337.08
185.429	1204.52
188.803	1092.11
192.178	982.794
195.553	871.286
198.928	731.428
202.303	576.311
205.678	419.428
209.052	282.237
212.427	170.123
215.802	94.2439
219.177	37.1857
222.552	7.37579
225.926	13.231
229.301	20.2068
232.676	17.0325
236.051	5.2962
239.426	21.3171
242.8	47.1619
246.175	91.0709
249.55	145.665
252.925	219.021
256.3	300.778
259.675	389.731
263.049	498.467
266.424	614.115
269.799	741.266
273.174	876.652
276.549	1001.25
279.923	1092.07
283.298	1104.81
286.673	999.137
290.048	819.842
293.423	618.387
296.798	447.088
300.172	312.054
303.547	210.226
306.922	132.2
310.297	82.6256
313.672	44.264
317.046	23.6141
320.421	9.69324
323.796	1.98013
327.171	3.39188
330.546	0.264709
333.921	2.64529
337.295	4.26779
340.67	3.28378
344.045	5.06265
347.42	1.52161
350.795	2.77533
354.169	2.46652
357.544	4.98221
360.919	11.0245
364.294	21.3082
367.669	28.4964
371.043	43.0431
374.418	57.8432
377.793	67.1867
381.168	76.1952
384.543	75.3254
387.918	69.6572
391.292	68.8424
394.667	73.708
398.042	76.8223
401.417	87.2232
404.792	95.0329
408.166	84.3241
411.541	59.3974
414.916	36.1112
418.291	12.595
421.666	4.25842
425.041	10.4114
428.415	9.58466
431.79	8.93487
435.165	2.43744
438.54	13.4417
441.915	34.7603
445.289	65.1949
448.664	104.036
452.039	160.26
455.414	240.728
458.789	336.958
462.163	479.764
465.538	635.722
468.913	794.705
472.288	916.561
475.663	941.613
479.038	847.455
482.412	698.532
485.787	570.814
489.162	530.487
492.537	608.367
495.912	787.321
499.286	1077.57
502.661	1501.43
506.036	2035.11
509.411	2509.22
512.786	2554.01
516.16	2018.38
519.535	1298.63
522.91	764.914
526.285	441.279
529.66	256.134
533.034	145.826
536.409	77.6846
539.784	39.3762
543.159	16.6465
546.534	3.97684
549.909	5.10877
553.283	10.6591
556.658	21.1728
560.033	38.7072
563.408	61.5837
566.783	76.8699
570.158	81.5723
573.532	68.1849
576.907	47.584
580.282	23.2685
583.657	3.12296
587.032	0.977844
590.406	9.21381
593.781	5.19971
597.156	6.11722
600.531	4.41766
603.906	3.01804
607.28	1.10492
610.655	1.90414
614.03	8.61963
617.405	8.17526
620.78	18.5665
624.155	21.6288
627.529	24.9483
630.904	30.9925
634.279	34.8406
637.654	36.3753
641.029	37.3508
644.404	31.7315
647.778	31.3644
651.153	23.4708
654.528	18.4494
657.903	14.7293
661.278	6.84262
664.652	5.98157
668.027	3.78671
671.402	0.177948
674.777	1.20065
678.152	0.496277
681.526	1.16599
684.901	1.18497
688.276	0.496002
691.651	1.5144
695.026	0.84082
698.4	3.64453
701.775	7.91504
705.15	8.66739
708.525	14.4044
711.9	14.3728
715.275	19.6092
718.649	22.1666
722.024	22.8292
725.399	22.4461
728.774	23.4323
732.149	23.2321
735.524	23.8449
738.898	26.3037
742.273	28.1946
745.648	36.2629
749.023	38.3096
752.398	48.3169
755.772	55.0624
759.147	61.8093
762.522	73.2447
765.897	77.8288
769.272	89.8128
772.646	92.7188
776.021	97.6166
779.396	94.9191
782.771	92.183
786.146	90.0527
789.52	89.6407
792.895	83.9707
796.27	78.2082
799.645	72.8262
803.02	64.2856
806.395	56.8837
809.769	50.6195
813.144	37.2157
816.519	25.4952
819.894	16.91
823.269	9.388
826.644	3.71326
830.018	0.452942
833.393	0.259857
836.768	0.087738
840.143	1.47504
843.518	0.742737
846.892	0.896179
850.267	0.683228
853.642	2.01724
857.017	1.93555
860.392	3.26282
863.766	2.76929
867.141	3.95898
870.516	0.918335
873.891	3.83752
877.266	2.65045
880.641	2.33652
884.015	4.66101
887.39	0.597748
890.765	0.881989
894.14	4.18072
897.515	3.93753
900.889	6.16458
904.264	8.0314
907.639	7.18774
911.014	8.29648
914.389	9.5293
917.764	6.9292
921.138	12.3517
924.513	6.5954
927.888	7.3057
931.263	6.24835
934.638	6.33652
938.012	4.23172
941.387	4.2413
944.762	2.93124
948.137	0.152679
951.512	1.36334
954.886	1.26828
958.261	0.516357
961.636	1.73538
965.011	2.86182
968.386	0.804382
971.761	4.01581
975.135	4.91473
978.51	4.19107
981.885	3.16122
985.26	3.57266
988.635	5.69052
992.01	4.93167
995.384	8.75317
998.759	8.69754
1002.13	13.8543
1005.51	13.1447
1008.88	14.8617
1012.26	15.2226
1015.63	15.9471
1019.01	18.3913
1022.38	21.9159
1025.76	20.4094
1029.13	23.7331
1032.51	24.3257
1035.88	21.0763
1039.26	14.457
1042.63	7.01016
1046.01	4.22855
1049.38	3.80655
1052.76	0.82196
1056.13	0.191803
1059.51	1.02527
1062.88	1.57605
1066.26	5.05283
1069.63	10.4904
1073.01	13.1639
1076.38	12.8083
1079.76	18.0774
1083.13	23.6633
1086.5	25.9523
1089.88	28.0568
1093.25	30.187
1096.63	35.4874
1100	37.9649
1103.38	44.7696
1106.75	47.0337
1110.13	48.621
1113.5	48.2004
1116.88	46.6587
1120.25	44.8837
1123.63	43.9587
1127	37.7882
1130.38	33.738
1133.75	32.0209
1137.13	26.9291
1140.5	22.4522
1143.88	18.499
1147.25	15.5283
1150.63	12.1568
1154	8.59665
1157.38	11.2043
1160.75	9.08466
1164.12	7.24237
1167.5	9.86679
1170.88	3.60501
1174.25	2.46701
1177.62	3.68838
1181	3.54541
1184.37	6.1192
1187.75	4.36725
1191.12	3.09323
1194.5	0.503876
1197.87	0.724274
1201.25	0.224274
1204.62	1.98584
1208	0.955566
1211.37	1.87564
1214.75	0.644318
1218.12	0.634735
1221.5	1.81915
1224.87	4.88647
1228.25	3.22894
1231.62	4.52704
1235	7.16855
1238.37	9.47015
1241.75	5.52408
1245.12	8.5585
1248.49	11.9253
1251.87	13.4224
1255.24	10.0636
1258.62	9.33984
1261.99	8.70544
1265.37	8.71857
1268.74	6.87143
1272.12	9.26083
1275.49	4.43271
1278.87	5.82004
1282.24	6.55917
1285.62	5.2103
1288.99	5.25732
1292.37	2.66022
1295.74	2.98935
1299.12	1.91141
1302.49	3.00885
