Measurement: Raman, 514 nm, unoriented, Raman Data Processed
Mineral: Anorthite
Rruff sample: R050104
Ideal chemistry: CaAl_2_Si_2_O_8_
Locality: unknown
Source: Rock Currier
Description: Iridescent slab
Measured chemistry: Ca_0.50_Na_0.47_K_0.03_Al_1.50_Si_2.50_O_8_
Raman shift (cm-1)	intensity
115.644	0
119.813	87.481
123.981	49.078
128.146	0.683
132.309	265.051
136.47	1305.68
140.63	2473.33
144.787	4229.56
148.942	5986.58
153.096	7668.75
157.247	9166.93
161.396	11744.6
165.544	15097.1
169.689	19255.1
173.833	22969.3
177.974	24498.4
182.114	24038.2
186.251	21566.1
190.387	18643.1
194.52	16507.4
198.652	14776.7
202.782	13770.3
206.909	12500.4
211.035	10031.1
215.159	7235.96
219.281	4837.15
223.4	3151.83
227.518	2069.17
231.634	1647.17
235.748	1573.12
239.86	2077.24
243.97	2531.52
248.079	3219.93
252.185	4091.76
256.289	4916.62
260.391	5746.99
264.492	7009.01
268.59	8816.44
272.687	10715.3
276.781	13128.5
280.874	15078.2
284.964	15486.2
289.053	14557.5
293.14	12002.6
297.225	9089.09
301.308	6233.57
305.389	4423.61
309.468	3215.74
313.545	2134.61
317.62	1465.85
321.693	1036.24
325.765	678.657
329.834	660.96
333.902	459.073
337.967	573.922
342.031	300.379
346.093	86.106
350.153	25.792
354.21	191.629
358.267	391.508
362.321	272.256
366.373	276.895
370.423	206.341
374.471	87.436
378.518	201.09
382.563	388.533
386.605	682.115
390.646	1086.95
394.685	1380.93
398.722	1633.49
402.757	2103.16
406.79	2362.35
410.821	2447.05
414.851	1900.57
418.878	1339.59
422.904	1162.14
426.927	1523.22
430.949	1737.21
434.969	2032.24
438.987	2951.2
443.003	3177.78
447.018	3475.88
451.03	3535.55
455.041	3704.8
459.049	4634.53
463.056	6047.94
467.061	8371.45
471.064	12172.7
475.065	16356.1
479.064	20538.6
483.062	20002.7
487.057	16370.2
491.051	14467.1
495.043	16790.6
499.032	24533.8
503.02	34793.7
507.007	41601.5
510.991	41856.4
514.973	33928.3
518.954	23359.6
522.933	14961.1
526.91	9551.66
530.885	6506.41
534.858	4595.94
538.829	3411.88
542.799	3404.8
546.766	3052.81
550.732	3329.35
554.696	3486.27
558.658	3904.1
562.618	4990.68
566.576	5486.66
570.533	4705.1
574.488	3211.94
578.44	1753.14
582.391	986.691
586.341	690.586
590.288	710.814
594.233	282.354
598.177	120.115
602.119	150.92
606.059	108.754
609.997	18.438
613.933	212.094
617.868	45.738
621.801	209.426
625.731	223.031
629.66	28.416
633.588	92.875
637.513	488.539
641.437	320.344
645.358	109.336
649.278	161.545
653.196	481.992
657.113	157.703
661.027	183.652
664.94	571.01
668.851	64.598
672.76	402.803
676.667	688.869
680.572	643.428
684.476	866.086
688.378	596.734
692.278	725.092
696.176	785.336
700.072	1030.48
703.967	658.701
707.86	1345.68
711.751	1285.79
715.64	1468.33
719.527	1747.34
723.413	1653.69
727.297	1982.06
731.179	1994.11
735.059	2116.43
738.937	2557.94
742.814	2691.3
746.689	2960.56
750.562	2704.05
754.433	3226.36
758.303	3435.32
762.17	3151.06
766.036	3400.04
769.901	3894.02
773.763	3952.86
777.624	3749.99
781.482	3569.18
785.339	3489.98
789.195	3810.88
793.048	4166.39
796.9	3855.54
800.75	3590.79
804.598	2804.29
808.445	1965.43
812.289	1289.53
816.132	847.402
819.973	553.182
823.813	427.879
827.65	27.344
831.486	20.838
835.32	93.756
839.152	37.143
842.983	268.117
846.812	202.502
850.639	270.121
854.464	241.645
858.288	42.506
862.11	59.605
865.93	146.438
869.748	87.371
873.564	18.059
877.379	118.98
881.192	127.375
885.004	215.391
888.813	495.092
892.621	422.502
896.427	465.65
900.232	751.553
904.034	1079.25
907.835	1611.84
911.634	1558.44
915.432	2156.16
919.227	2240.84
923.021	2016.75
926.813	2223.85
930.604	2147.05
934.393	2262.38
938.18	2613.84
941.965	2552.32
945.749	2362.77
949.53	2686.24
953.311	2790.68
957.089	3084.11
960.866	3680.53
964.641	4354.21
968.414	4274.25
972.185	4756.28
975.955	5481.55
979.723	5697.84
983.49	5983.56
987.254	5435.29
991.017	5141.44
994.779	4836.22
998.538	4850.23
1002.3	4179.13
1006.05	4253.02
1009.81	3980.13
1013.56	4069.76
1017.31	3967.4
1021.06	3794.55
1024.81	4103.2
1028.55	3634.34
1032.3	3662.62
1036.04	3732.23
1039.78	3649.35
1043.52	3768.7
1047.26	3624.86
1050.99	3390.29
1054.73	3616.79
1058.46	3791.43
1062.19	3765.01
1065.92	3643.38
1069.65	3393.45
1073.37	3573.86
1077.1	3283.93
1080.82	3485.25
1084.54	3490.62
1088.26	3015.75
1091.97	3048.07
1095.69	2737.58
1099.4	2566.15
1103.12	2527.5
1106.83	2070.06
1110.54	2371.9
1114.24	2093.02
1117.95	1813.75
1121.65	1831.94
1125.35	1763.12
1129.06	1012.79
1132.75	1211.81
1136.45	1345.61
1140.15	569.035
1143.84	795.074
1147.53	845.148
1151.22	536.074
1154.91	364.504
1158.6	654.523
1162.28	489.25
1165.97	684.375
1169.65	650.816
1173.33	414.957
1177.01	643.109
1180.69	232.004
1184.36	515.121
1188.04	514.203
1191.71	472.266
1195.38	319.945
1199.05	38.027
1202.71	878.543
1206.38	413.477
1210.04	165.484
1213.71	313.469
1217.37	135.984
1221.03	159.457
1224.68	218.883
1228.34	302.555
1231.99	173.332
1235.65	379.199
1239.3	30.773
1242.95	259.773
1246.59	382.512
1250.24	349.109
1253.88	154.641
1257.53	312.512
1261.17	176.457
1264.81	164.395
1268.45	100.684
1272.08	284.559
1275.72	127.273
1279.35	305.242
1282.98	50.379
1286.61	102.707
1290.24	258.871
1293.87	25.605
1297.49	214.02
1301.11	63.105
1304.73	205.609
1308.36	361.848
1311.97	6.066
1315.59	409.512
1319.2	93.73
1322.82	90.828
1326.43	428.984
1330.04	90.191
1333.65	158.02
1337.26	37.203
1340.86	462.609
1344.47	218.504
1348.07	653.742
1351.67	521.637
1355.27	576.574
1358.87	794.105
1362.46	406.598
1366.06	623.789
1369.65	949.316
1373.24	656.094
1376.83	490.207
1380.42	687.246
1384	636.016
1387.59	392.621
1391.17	660.738
1394.75	626.227
1398.33	362.035
1401.91	666.367
1405.49	481.27
1409.06	445.637
1412.64	677.668
1416.21	314.68
1419.78	794.191
1423.35	402.445
1426.91	405.996
1430.48	436.879
1434.05	564.223
1437.61	888.871
1441.17	689.277
1444.73	758.477
1448.29	355.992
1451.84	852.855
1455.4	1156.68
1458.95	785.977
1462.5	291.82
1466.05	150.363
1469.6	449.098
1473.15	66.809
1476.69	8.383
1480.24	56.816
