Measurement: Raman, 532 nm, unoriented, Raman Data Processed
Mineral: Anorpiment
Rruff sample: R110016
Ideal chemistry: As_2_S_3_
Locality: Palomo mine, Huancavelica Department, Peru
Source: Bob Jenkins
Description: Platy transparent olive green crystals coating botryoidal yellow orpiment. Co-type specimen.
Measured chemistry: As_1.96_S_3.04_
Raman shift (cm-1)	intensity
139.729	0
143.104	6.10082
146.479	3.02481
149.853	18.0583
153.228	48.7204
156.603	122.988
159.978	224.209
163.353	263.892
166.728	355.554
170.102	533.528
173.477	847.139
176.852	1491.48
180.227	925.383
183.602	479.214
186.976	709.049
190.351	630.719
193.726	661.597
197.101	294.188
200.476	119.801
203.851	87.2858
207.225	69.6661
210.6	49.4646
213.975	42.3767
217.35	34.7528
220.725	21.2539
224.1	14.6215
227.474	10.8282
230.849	12.9424
234.224	14.4445
237.599	11.5334
240.974	5.79349
244.348	2.46201
247.723	6.18985
251.098	7.25101
254.473	2.35965
257.848	7.38144
261.223	5.62707
264.597	6.74793
267.972	2.91803
271.347	3.67377
274.722	0.130707
278.097	7.1589
281.471	34.2848
284.846	66.7912
288.221	101.6
291.596	127.865
294.971	163.555
298.346	209.976
301.72	290.932
305.095	509.273
308.47	993.252
311.845	1648.44
315.22	2672.86
318.594	5788.97
321.969	10346.6
325.344	12099.4
328.719	14490.3
332.094	24405.2
335.469	32065.8
338.843	9005.44
342.218	2715.88
345.593	1405.74
348.968	1151.58
352.343	1092.59
355.717	463.783
359.092	376.885
362.467	519.326
365.842	608.553
369.217	930.957
372.592	1900.1
375.966	3154.33
379.341	1828.05
382.716	792.518
386.091	621.425
389.466	699.504
392.841	258.683
396.215	31.3064
399.59	3.6232
402.965	7.29942
406.34	10.3048
409.715	12.8365
413.089	8.11809
416.464	3.63318
419.839	1.97557
423.214	3.48581
426.589	7.79605
429.964	5.61003
433.338	1.92198
436.713	11.4614
440.088	13.6303
443.463	12.3835
446.838	20.4538
450.212	22.2456
453.587	31.1443
456.962	30.0568
460.337	25.4115
463.712	22.6361
467.087	23.3137
470.461	23.8237
473.836	17.2711
477.211	24.162
480.586	19.8145
483.961	20.8576
487.336	24.4395
490.71	23.8779
494.085	25.4776
497.46	23.535
500.835	28.1655
504.21	29.1339
507.584	29.9539
510.959	29.938
514.334	30.5224
517.709	26.6378
521.084	23.659
524.458	21.8199
527.833	20.5074
531.208	19.6279
534.583	19.0424
537.958	17.8421
541.333	20.311
544.707	20.0046
548.082	23.0393
551.457	24.3022
554.832	20.5989
558.207	20.2495
561.582	20.4044
564.956	16.956
568.331	13.9554
571.706	8.49391
575.081	10.4943
578.456	8.06768
581.83	4.37309
585.205	1.54374
588.58	1.11728
591.955	1.60268
595.33	1.54547
598.705	2.55989
602.079	1.38857
605.454	2.19445
608.829	3.70198
612.204	1.52618
615.579	0.435364
618.953	5.95702
622.328	16.58
625.703	34.1026
629.078	67.3718
632.453	121.067
635.828	191.468
639.202	247.913
642.577	269.947
645.952	238.791
649.327	188.48
652.702	140.565
656.077	109.993
659.451	92.4317
662.826	90.2814
666.201	95.2328
669.576	101.275
672.951	98.6775
676.325	98.3951
679.7	96.5597
683.075	93.3647
686.45	85.1783
689.825	84.5515
693.199	83.7692
696.574	88.9738
699.949	99.6056
703.324	108.776
706.699	104.23
710.074	92.4631
713.448	79.5062
716.823	62.1442
720.198	52.7105
723.573	44.7346
726.948	34.8915
730.323	22.6515
733.697	16.1212
737.072	13.2436
740.447	17.1715
743.822	27.4797
747.197	34.348
750.572	39.5066
753.946	31.4005
757.321	18.2812
760.696	7.25171
764.071	4.99683
767.446	7.93228
770.82	11.9403
774.195	18.9724
777.57	18.2767
780.945	13.742
784.32	3.78442
787.694	1.55172
791.069	4.01366
794.444	3.61435
797.819	4.0004
801.194	0.685455
804.569	1.57633
807.943	0.284981
811.318	3.17171
814.693	2.09768
818.068	5.07912
821.443	7.53176
824.818	7.76642
828.192	10.2846
831.567	10.9698
834.942	12.4037
838.317	10.4622
841.692	13.8637
845.067	12.6623
848.441	12.5181
851.816	10.1187
855.191	8.12425
858.566	10.0001
861.941	10.4577
865.315	9.59294
868.69	7.97992
872.065	6.39369
875.44	6.99811
878.815	7.11325
882.189	3.49471
885.564	4.69983
888.939	7.02888
892.314	5.24041
895.689	3.60976
899.064	5.45965
902.438	4.93235
905.813	4.83017
909.188	1.63221
912.563	3.44501
915.938	3.84525
919.312	2.98468
922.687	3.31313
926.062	2.48164
929.437	2.94994
932.812	3.67459
936.187	1.94711
939.562	3.16414
942.936	0.445099
946.311	1.67331
949.686	1.03568
953.061	0.145477
956.436	0.876015
959.81	0.006569
963.185	0.467209
966.56	5.16437
969.935	1.90841
973.31	0.439011
976.684	0.419106
980.059	0.533958
983.434	1.92062
986.809	2.50156
990.184	1.62597
993.559	2.22205
996.933	2.41383
1000.31	3.23083
1003.68	4.15715
1007.06	2.00974
1010.43	0.628845
1013.81	1.53323
1017.18	2.60305
1020.56	2.04078
1023.93	3.42075
1027.31	1.30744
1030.68	1.8455
1034.06	2.02483
1037.43	2.91058
1040.81	1.68877
1044.18	2.13144
1047.56	1.73765
1050.93	4.83095
1054.31	0.205215
1057.68	1.48255
1061.06	2.77463
1064.43	1.2206
1067.81	3.1831
1071.18	4.03887
1074.55	0.365791
1077.93	0.274483
1081.3	3.87515
1084.68	1.63061
1088.05	1.42232
1091.43	1.29298
1094.8	2.11433
1098.18	3.66565
1101.55	2.09682
1104.93	1.27759
1108.3	3.0657
1111.68	1.32414
1115.05	0.725288
1118.43	4.29886
1121.8	3.59257
1125.18	3.39265
1128.55	3.26495
1131.93	2.51094
1135.3	2.46024
1138.68	0.475929
1142.05	1.064
1145.43	1.06363
1148.8	1.52538
1152.17	2.10471
1155.55	2.49089
1158.92	3.44564
1162.3	0.24424
1165.67	2.62045
1169.05	1.28632
1172.42	1.38603
1175.8	2.15412
1179.17	0.90152
1182.55	3.93056
1185.92	1.47741
1189.3	0.172211
1192.67	1.29235
1196.05	0.239799
1199.42	2.3118
1202.8	1.50549
1206.17	1.77478
1209.55	1.45936
1212.92	2.96813
1216.3	3.31388
1219.67	1.28125
1223.05	2.11901
1226.42	2.22424
1229.8	2.81934
1233.17	4.61604
1236.55	4.6749
1239.92	2.3801
1243.3	2.31743
1246.67	4.55586
1250.05	2.69894
1253.42	2.51141
1256.8	1.15746
1260.17	0.788513
1263.54	4.72071
1266.92	1.19849
1270.29	4.45902
1273.67	4.08681
1277.04	5.8467
1280.42	0.103027
1283.79	2.70754
1287.17	3.68421
1290.54	5.54853
1293.92	2.01202
1297.29	0.894432
1300.67	0.025162
