Measurement: Raman, 785 nm, unoriented, Raman Data Processed
Mineral: Anorthite
Rruff sample: R070510
Ideal chemistry: CaAl_2_Si_2_O_8_
Locality: Larvik, Vestfold, Norway
Source: James Shigley
Description: Colorless to white vitreous crystals
Measured chemistry: Na_0.20_Ca_0.80_(Al_1.80_Si_2.20_)_Î£=4_O_8_
Raman shift (cm-1)	intensity
166.719	0
169.13	35.917
171.54	176.994
173.951	167.739
176.361	238.442
178.772	272.455
181.182	291.071
183.593	404.417
186.004	360.917
188.414	479.125
190.825	508.998
193.235	758.223
195.646	837.426
198.056	868.868
200.467	793.821
202.878	647.461
205.288	455.009
207.699	241.273
210.109	83.9502
212.52	36.4658
214.931	52.418
217.341	61.6938
219.752	52.5395
222.162	14.0454
224.573	74.4702
226.983	150.664
229.394	297.312
231.805	396.25
234.215	538.647
236.626	756.058
239.036	1024.51
241.447	1270.88
243.858	1559.6
246.268	1875.98
248.679	1939.31
251.089	2093.97
253.5	2065.71
255.911	2071.25
258.321	1973.21
260.732	2008.42
263.142	1955.78
265.553	1995.87
267.963	2019.93
270.374	1918.05
272.784	1890.52
275.195	1823.46
277.606	1802.92
280.016	1805.57
282.427	1845.33
284.837	1823.32
287.248	1729.38
289.659	1525.99
292.069	1186.38
294.48	958.202
296.89	763.554
299.301	532.799
301.712	316.237
304.122	207.548
306.533	120.81
308.943	46.6489
311.354	25.8799
313.764	6.68164
316.175	69.3144
318.586	64.5195
320.996	169.807
323.407	177.231
325.817	255.614
328.228	203.179
330.639	137.089
333.049	129.273
335.46	179.523
337.87	155.752
340.281	151.756
342.691	188.677
345.102	184.703
347.513	186.35
349.923	122.84
352.334	72.2993
354.744	24.2388
357.155	62.271
359.565	9.99805
361.976	48.4512
364.387	81.2837
366.797	119.383
369.208	65.833
371.618	33.5801
374.029	31.7695
376.44	17.7773
378.85	45.8081
381.261	7.61719
383.671	53.273
386.082	76.0933
388.493	156.089
390.903	250.286
393.314	396.571
395.724	581.64
398.135	730.911
400.545	936.734
402.956	977.265
405.366	887.968
407.777	749.378
410.188	637.969
412.598	507.347
415.009	349.69
417.42	196.371
419.83	296.343
422.241	328.207
424.651	339.253
427.062	275.032
429.472	221.88
431.883	139.848
434.293	9.82861
436.704	62.2163
439.115	89.355
441.525	32.1973
443.936	65.9482
446.346	63.3154
448.757	16.6773
451.168	52.6465
453.578	6.83545
455.989	51.688
458.399	122.671
460.81	175.184
463.221	156.695
465.631	307.106
468.042	395.461
470.452	598.245
472.863	810.672
475.273	1066.45
477.684	1358.46
480.095	1768.22
482.505	2142.16
484.916	2368.35
487.326	2267.61
489.737	2166.4
492.147	2040.63
494.558	2227.08
496.969	2760.08
499.379	3439.59
501.79	4078.33
504.2	4227.29
506.611	3817.6
509.022	3171.84
511.432	2575.02
513.843	2063.88
516.253	1601.68
518.664	1262.91
521.074	949.495
523.485	759.472
525.896	698.335
528.306	664.239
530.717	503.319
533.127	409.642
535.538	310.784
537.948	288.047
540.359	208.949
542.77	218.369
545.18	179.817
547.591	178.46
550.001	216.738
552.412	247.074
554.823	285.1
557.233	287.757
559.644	308.288
562.054	256.4
564.465	254.981
566.875	177.722
569.286	108.325
571.697	88.1938
574.107	47.9727
576.518	29.3418
578.928	7.60205
581.339	5.17383
583.75	14.6357
586.16	40.5234
588.571	12.5015
590.981	15.938
593.392	67.9419
595.803	19.626
598.213	31.7886
600.624	50.3867
603.034	87.9536
605.445	1.55176
607.855	65.6528
610.266	43.4453
612.677	82.2378
615.087	99.958
617.498	125.436
619.908	97.5557
622.319	137.102
624.73	165.133
627.14	184.83
629.551	179.241
631.961	139.814
634.372	57.2139
636.782	74.6284
639.193	126.314
641.604	69.3857
644.014	74.7764
646.425	54.4902
648.835	51.7144
651.246	1.89941
653.657	4.1167
656.067	19.6543
658.478	17.0801
660.888	23.3066
663.299	105.999
665.709	105.144
668.12	113.362
670.531	220.476
672.941	258.373
675.352	389.032
677.762	389.771
680.173	382.795
682.583	304.713
684.994	372.406
687.405	297.913
689.815	209.102
692.226	169.367
694.636	161.735
697.047	53.2607
699.457	77.1719
701.868	81.6172
704.279	15.0962
706.689	21.3115
709.1	41.7602
711.51	19.0064
713.921	21.9824
716.332	6.90771
718.742	70.8613
721.153	7.29102
723.563	7.68164
725.974	15.9009
728.385	42.5474
730.795	95.4932
733.206	141.368
735.616	190.988
738.027	254.645
740.437	282.567
742.848	365.617
745.259	301.025
747.669	251.315
750.08	255.976
752.49	228.383
754.901	261.889
757.312	264.869
759.722	262.569
762.133	310.574
764.543	311.637
766.954	249.434
769.364	214.774
771.775	235.203
774.186	179.665
776.596	161.33
779.007	93.2373
781.417	104.955
783.828	64.9477
786.239	52.5708
788.649	52.9507
791.06	78.3096
793.47	115.939
795.881	99.3789
798.291	52.5962
800.702	74.4536
803.112	74.9067
805.523	60.4399
807.934	60.2681
810.344	3.0625
812.755	30.7607
815.165	34.6128
817.576	50.1235
819.987	3.08691
822.397	17.2231
824.808	4.26807
827.218	20.1689
829.629	2.32227
832.04	20.5918
834.45	16.1411
836.861	49.9434
839.271	36.6621
841.682	34.5312
844.092	97.4077
846.503	39.1831
848.914	88.7612
851.324	18.6553
853.735	30.9902
856.145	7.11572
858.556	24.0049
860.966	1.17383
863.377	28.3374
865.788	51.2578
868.198	9.93115
870.609	3.39893
873.019	10.7051
875.43	17.4863
877.841	15.8989
880.251	18.6958
882.662	7.4541
885.072	21.916
887.483	36.5317
889.894	49.0195
892.304	8.73779
894.715	26.6899
897.125	74.5161
899.536	54.8784
901.946	62.9697
904.357	83.7251
906.768	129.636
909.178	115.57
911.589	143.901
913.999	131.56
916.41	82.8398
918.821	131.742
921.231	81.2993
923.642	75.3491
926.052	91.4902
928.463	36.4053
930.873	104.774
933.284	71.3648
935.695	82.1352
938.105	100.959
940.516	56.6567
942.926	91.769
945.337	91.8769
947.747	119.248
950.158	115.783
952.569	196.418
954.979	165.955
957.39	208.556
959.8	190.816
962.211	174.487
964.621	211.173
967.032	242.543
969.443	300.716
971.853	263.068
974.264	284.935
976.674	356.407
979.085	339.665
981.496	382.295
983.906	315.142
986.317	270.834
988.727	276.902
991.138	273.158
993.548	161.707
995.959	217.775
998.37	181.377
1000.78	198.747
1003.19	196.956
1005.6	164.293
1008.01	140.559
1010.42	181.917
1012.83	155.745
1015.24	142.587
1017.65	121.517
1020.07	109.453
1022.48	101.935
1024.89	54.0762
1027.3	76.7632
1029.71	51.9102
1032.12	9.91943
1034.53	19.4439
1036.94	10.5742
1039.35	43.8594
1041.76	22.1577
1044.17	3.93555
1046.58	66.4834
1048.99	59.4585
1051.4	80.7568
1053.81	57.5454
1056.22	132.449
1058.63	99.0942
1061.05	125.455
1063.45	90.2563
1065.87	121.597
1068.28	150.35
1070.69	125.332
1073.1	168.808
1075.51	130.743
1077.92	85.7144
1080.33	67.0625
1082.74	97.7803
1085.15	47.856
1087.56	39.7505
1089.97	20.5225
1092.38	0
