Measurement: Raman, 514 nm, unoriented, Raman Data Processed
Mineral: Anorthite
Rruff sample: R040059
Ideal chemistry: CaAl_2_Si_2_O_8_
Locality: Miyakejima, Japan
Source: University of Arizona Mineral Museum
Description: Colorless fragments of crystals
Measured chemistry: (Ca_0.94_Na_0.04_Fe_0.02_)(Al_0.98_Si_0.02_)_2_Si_2.00_O_8_
Raman shift (cm-1)	intensity
126.758	0
130.922	97.398
135.083	655.769
139.243	1425.76
143.401	2243.77
147.557	1691.82
151.711	467.855
155.863	45.377
160.013	153.688
164.161	922.672
168.308	2224.33
172.452	3720.44
176.594	5346.33
180.734	7401.26
184.872	8509.36
189.008	8159.49
193.143	7112.81
197.275	5351.68
201.405	4036.72
205.534	3148.41
209.66	2499.2
213.784	1270.12
217.907	748.068
222.027	182.283
226.146	202.674
230.263	184.852
234.377	582.176
238.49	1387.42
242.601	2428.19
246.709	3076.57
250.816	3385.44
254.921	3274.67
259.024	3257.39
263.125	3130.76
267.224	3629.75
271.321	4100.2
275.416	4689.07
279.51	5583.46
283.601	5883.4
287.69	5126.91
291.778	4015.66
295.863	2685.86
299.947	1404.97
304.029	606.869
308.108	201.795
312.186	127.777
316.262	351.959
320.336	643.264
324.408	716.078
328.478	343.906
332.546	89.711
336.612	136.137
340.677	94.645
344.739	117.057
348.799	6.955
352.858	162.525
356.915	161.973
360.969	187.387
365.022	567.225
369.073	733.391
373.122	608.932
377.169	554.844
381.215	539.125
385.258	763.65
389.299	925.729
393.339	1872.66
397.376	2946.7
401.412	3537.74
405.446	3344.15
409.478	2627.08
413.508	1722.59
417.536	1543.62
421.562	2311.71
425.586	3169.98
429.609	3250.52
433.629	2525.56
437.648	2278.08
441.665	1594.06
445.68	1234.51
449.693	904.266
453.704	729.402
457.713	1108.19
461.721	1245.75
465.726	1435.82
469.73	1761.13
473.731	2650.88
477.731	3927.61
481.729	6334.78
485.725	8478.97
489.72	8063.9
493.712	7958.13
497.703	11547.8
501.691	17704.1
505.678	17734.1
509.663	12546.1
513.646	9230.39
517.627	6584.92
521.607	5456.06
525.584	5069.22
529.56	3896.97
533.534	2761.55
537.506	1966.55
541.476	1557.29
545.444	1739.74
549.41	2703.76
553.375	4136.05
557.337	4746.63
561.298	4478.25
565.257	3333.96
569.214	2160.06
573.17	1246.63
577.123	649.676
581.075	363.195
585.024	398.148
588.972	343.512
592.918	487.293
596.863	344.5
600.805	201.105
604.746	187.832
608.685	71.633
612.621	62.074
616.557	201.59
620.49	71.533
624.421	231.779
628.351	115.637
632.279	87.91
636.205	74.736
640.129	73.127
644.051	352.098
647.972	227.275
651.89	214.162
655.807	195.014
659.722	259.205
663.636	207.037
667.547	551.148
671.457	1243.75
675.365	1900
679.271	2687.21
683.175	2487.47
687.077	1800.63
690.978	1508.32
694.877	553.574
698.774	926.244
702.669	653.527
706.562	697.963
710.454	398.33
714.344	766.816
718.232	229.828
722.118	557.363
726.002	643.455
729.885	693.111
733.766	1114.34
737.645	1629.7
741.522	2045.2
745.397	2025.23
749.271	1571.79
753.143	1775.86
757.013	2045.68
760.881	2374.78
764.748	3065.26
768.613	2568.84
772.476	1823.26
776.337	1124.01
780.196	955.311
784.054	470.16
787.91	534.488
791.764	145.072
795.616	76.52
799.467	48.422
803.316	129.053
807.163	431.537
811.008	37.082
814.851	72.273
818.693	93.586
822.533	31.736
826.371	3.725
830.208	16.988
834.042	123.549
837.875	53.498
841.706	56.324
845.536	89.008
849.363	143.404
853.189	479.676
857.013	226.816
860.836	52.404
864.656	95.053
868.475	329.445
872.292	243.68
876.108	324.414
879.922	614.17
883.733	648.994
887.544	842.881
891.352	829.768
895.159	1188.67
898.964	1309.61
902.767	1373.59
906.568	1282.62
910.368	1562.84
914.166	1964.19
917.962	1979.76
921.757	1525.89
925.55	1730.36
929.341	1907.07
933.13	2344.93
936.918	2922.98
940.703	2878.29
944.488	3013.57
948.27	3308.81
952.051	3592.04
955.83	3758.65
959.607	3702.54
963.383	3174.98
967.156	3368.05
970.928	3779.16
974.699	4654.53
978.468	4986.27
982.234	4760.73
986	3866.75
989.763	3225.12
993.525	3225.2
997.285	3193.93
1001.04	2716.07
1004.8	3087.67
1008.55	2756.32
1012.31	2501.39
1016.06	2403.5
1019.81	2283.6
1023.56	2088.92
1027.31	1648.52
1031.05	1494.53
1034.79	1582.68
1038.53	2017.61
1042.27	1905.75
1046.01	1734.73
1049.75	1551.66
1053.48	1776.19
1057.22	1205.72
1060.95	1325.98
1064.68	1153.75
1068.4	925.164
1072.13	963.68
1075.86	1105.74
1079.58	784.004
1083.3	1009.66
1087.02	812.109
1090.74	572.422
1094.45	463.895
1098.17	352.375
1101.88	614.852
1105.59	458.793
1109.3	694.426
1113.01	472.645
1116.71	376.223
1120.42	714.816
1124.12	563.434
1127.82	641.484
1131.52	808.746
1135.22	403.141
1138.91	225.094
1142.61	181.543
1146.3	27.863
1149.99	204.137
1153.68	199.434
1157.37	49.602
1161.06	79.887
1164.74	143.023
1168.42	105.652
1172.1	26.957
1175.78	3.25
1179.46	233.508
1183.14	53.09
1186.81	141.234
1190.48	226.621
1194.15	440.168
1197.83	377.152
1201.49	597.848
1205.16	163.453
1208.82	350.465
1212.49	0.164
1216.15	127.285
1219.81	401.086
1223.46	414.172
1227.12	626.711
1230.78	480.852
1234.43	247.551
1238.08	212.754
1241.73	443.422
1245.38	255.199
1249.03	429.82
1252.67	23.691
1256.31	284.551
1259.95	393.109
1263.6	134.441
1267.23	177.707
1270.87	263.848
1274.51	130.852
1278.14	345.18
1281.77	356.438
1285.4	67.812
1289.03	112.352
1292.66	229.738
1296.28	210.09
1299.91	47.316
1303.53	130.172
1307.15	197.988
1310.77	161.094
1314.38	200.691
1318	17.875
1321.61	245.148
1325.23	410.777
1328.84	208.102
1332.45	244.367
1336.06	112.055
1339.66	142.371
1343.27	505.961
1346.87	416.637
1350.47	350.047
1354.07	135.254
1357.67	242.105
1361.26	569.137
1364.86	417.934
1368.45	621.855
1372.04	448.559
1375.63	570.617
1379.22	645.469
1382.81	547.832
1386.39	650.48
1389.98	804.762
1393.56	538.586
1397.14	418.41
1400.72	710.988
1404.3	456.734
1407.87	437.953
1411.45	647.176
1415.02	123.75
1418.59	309.078
1422.16	158.035
1425.73	588.945
1429.29	542.305
1432.86	570.93
1436.42	173.797
1439.98	336.805
1443.54	575.391
1447.1	313.547
1450.66	629.789
1454.21	462.574
1457.77	300.062
1461.32	239.984
1464.87	225.164
1468.42	855.859
1471.96	571.609
1475.51	540.844
1479.06	198.289
1482.6	105.129
1486.14	143.773
1489.68	70.684
1493.22	6.676
1496.75	0
