Measurement: Raman, 785 nm, unoriented, Raman Data Processed
Mineral: Anthophyllite
Rruff sample: R070245
Ideal chemistry: [box]Mg_7_Si_8_O_22_(OH)_2_
Locality: Shartash, Zlatoust, Ilmen Mts, Chelyabinsk Oblast', Urals Region, Russia
Source: Michael Scott
Description: Translucent to transparent grey bladed crystals with satin luster (fibrous appearance) associated with hematite
Raman shift (cm-1)	intensity
172.606	0
175.499	97.875
178.391	459.19
181.284	1313.55
184.177	2538.08
187.069	3671.15
189.962	2921.76
192.855	2767.56
195.748	3057.4
198.64	3333.21
201.533	3502.14
204.426	3307.45
207.318	3148.07
210.211	2602.96
213.104	1802.72
215.996	1246.37
218.889	1039.58
221.782	981.194
224.674	906.564
227.567	771.648
230.46	535.741
233.353	83.3496
236.245	70.3877
239.138	55.7959
242.031	288.539
244.923	1024.12
247.816	1075.57
250.709	805.299
253.601	813.809
256.494	824.628
259.387	1285.81
262.28	1941.73
265.172	1698.32
268.065	816.332
270.958	229.892
273.85	19.834
276.743	171.184
279.636	52.959
282.529	140.626
285.421	430.032
288.314	861.991
291.207	1581.81
294.099	2705.33
296.992	3333.82
299.885	4100.06
302.777	2922.11
305.67	1498.04
308.563	723.811
311.455	296.198
314.348	24.0781
317.241	80.4824
320.134	42.044
323.026	60.9756
325.919	283.522
328.812	435.299
331.704	768.025
334.597	1083.6
337.49	1420.98
340.382	1309.43
343.275	846.445
346.168	453.96
349.061	351.557
351.953	239.91
354.846	246.986
357.739	382.638
360.631	613.579
363.524	686.012
366.417	855.111
369.31	1044.97
372.202	1248.21
375.095	1411.06
377.988	2057.81
380.88	2707.18
383.773	3364.76
386.666	3248.37
389.558	2661.44
392.451	2561.67
395.344	2174.46
398.236	1839.74
401.129	2054.7
404.022	2741.8
406.915	4246.39
409.807	6240.86
412.7	6610.79
415.593	4623.25
418.485	2775.62
421.378	1942.4
424.271	1729.46
427.163	1837.06
430.056	2153.97
432.949	1940.67
435.842	1215.9
438.734	632.28
441.627	318.545
444.52	245.58
447.412	129.725
450.305	27.8506
453.198	15.6035
456.091	65.9951
458.983	67.4189
461.876	6.42188
464.769	1.80566
467.661	53.25
470.554	95.5908
473.447	20.7383
476.339	67.5107
479.232	29.9512
482.125	117.216
485.017	150.546
487.91	250.921
490.803	349.499
493.696	540.276
496.588	658.215
499.481	692.345
502.374	717.998
505.266	515.673
508.159	532.267
511.052	404.2
513.944	354.434
516.837	433.209
519.73	439.569
522.623	549.889
525.515	589.782
528.408	633.406
531.301	619.622
534.193	769.635
537.086	832.023
539.979	672.102
542.871	404.79
545.764	298.938
548.657	211.179
551.55	33.3506
554.442	11.542
557.335	16.3818
560.228	73.8184
563.12	6.34668
566.013	63.3809
568.906	4.63965
571.798	39.8496
574.691	51.2197
577.584	149.889
580.477	138.478
583.369	4.15918
586.262	46.5869
589.155	71.9141
592.047	3.49902
594.94	34.4365
597.833	234.416
600.726	337.175
603.618	679.197
606.511	1090.93
609.404	1460.04
612.296	1806.82
615.189	1458.73
618.082	908.902
620.974	564.602
623.867	168.699
626.76	111.445
629.653	1.80762
632.545	94.1631
635.438	95.8779
638.331	123.267
641.223	202.156
644.116	325.345
647.009	529.782
649.901	657.326
652.794	1096.08
655.687	1836.38
658.58	3213.6
661.472	5360.02
664.365	8531.21
667.258	12850.1
670.15	17538.8
673.043	19095.7
675.936	14599.6
678.828	9007.78
681.721	5191.95
684.614	3183.71
687.506	2053.19
690.399	1423.02
693.292	1070.98
696.185	964.042
699.077	785.874
701.97	480.228
704.863	309.68
707.755	183.221
710.648	159.181
713.541	175.159
716.433	231.106
719.326	177.837
722.219	126.64
725.112	30.293
728.004	5.51758
730.897	6.34277
733.79	21.1807
736.682	38.043
739.575	35.3643
742.468	59.2988
745.361	16.0723
748.253	248.13
751.146	366.953
754.039	414.76
756.931	402.626
759.824	448.513
762.717	409.179
765.609	360.458
768.502	323.031
771.395	359.776
774.288	356.141
777.18	406.075
780.073	491.617
782.966	452.505
785.858	310.091
788.751	189.56
791.644	107.841
794.536	249.292
797.429	68.4102
800.322	13.5366
803.215	49.0034
806.107	83.7363
809	135.719
811.893	91.2339
814.785	51.4302
817.678	87.0147
820.571	47.6606
823.463	103.759
826.356	24.395
829.249	45.3418
832.141	64.6626
835.034	36.002
837.927	100.735
840.82	105.833
843.712	73.9912
846.605	45.5469
849.498	101.067
852.39	114.685
855.283	67.7847
858.176	72.1929
861.068	4.94385
863.961	71.0723
866.854	103.309
869.747	76.8418
872.639	63.977
875.532	58.9009
878.425	30.5059
881.317	92.7022
884.21	99.2358
887.103	97.666
889.995	136.773
892.888	152.631
895.781	116.108
898.674	140.553
901.566	158.206
904.459	180.917
907.352	91.5356
910.244	147.518
913.137	130.046
916.03	90.3237
918.923	163.786
921.815	215.651
924.708	242.301
927.601	240.109
930.493	187.322
933.386	165.575
936.279	2.93506
939.171	11.6045
942.064	3.58643
944.957	4.18213
947.85	24.4668
950.742	64.1611
953.635	25.04
956.528	52.5098
959.42	62.417
962.313	89.9966
965.206	95.8506
968.098	348.071
970.991	384.389
973.884	503.414
976.777	463.601
979.669	385.183
982.562	298.436
985.455	289.809
988.347	304.027
991.24	380.404
994.133	348.471
997.025	389.907
999.918	367.513
1002.81	377.328
1005.7	355.079
1008.6	257.427
1011.49	254.535
1014.38	249.908
1017.27	149.406
1020.17	126.789
1023.06	163.213
1025.95	171.536
1028.85	311.131
1031.74	394.448
1034.63	750.899
1037.52	1105.06
1040.42	1398.68
1043.31	1249.05
1046.2	848.466
1049.09	503.898
1051.99	299.9
1054.88	164.399
1057.77	191.325
1060.66	144.024
1063.56	204.302
1066.45	199.343
1069.34	213.789
1072.24	108.076
1075.13	106.764
1078.02	81.5928
1080.91	25.3037
1083.81	58.4522
1086.7	35.5425
1089.59	41.8735
1092.48	44.3965
1095.38	91.2593
1098.27	115.136
1101.16	191.903
1104.06	345.246
1106.95	257.132
1109.84	202.383
1112.73	138.222
1115.63	129.288
1118.52	61.1265
1121.41	0.348145
1124.3	7.19629
1127.2	41.1284
1130.09	94.1108
1132.98	31.2886
1135.88	10.669
1138.77	4.46582
1141.66	107.576
1144.55	41.7568
1147.45	117.525
1150.34	5.46436
1153.23	97.1616
1156.12	47.9595
1159.02	51.4985
1161.91	52.4888
1164.8	85.7773
1167.69	50.8272
1170.59	131.053
1173.48	32.0601
1176.37	48.8423
1179.27	11.2109
1182.16	76.4512
1185.05	75.835
1187.94	31.1104
1190.84	133.52
1193.73	90.001
1196.62	133.152
1199.51	66.2481
1202.41	60.624
1205.3	140.5
1208.19	88.0391
1211.09	68.8047
1213.98	101.238
1216.87	51.8516
1219.76	9.59326
1222.66	78.1963
1225.55	58.6108
1228.44	4.05957
1231.33	112.963
1234.23	79.2261
1237.12	91.7139
1240.01	165.234
1242.9	0
