Measurement: Raman, 532 nm, unoriented, Raman Data Processed
Mineral: Anthophyllite
Rruff sample: R070245
Ideal chemistry: [box]Mg_7_Si_8_O_22_(OH)_2_
Locality: Shartash, Zlatoust, Ilmen Mts, Chelyabinsk Oblast', Urals Region, Russia
Source: Michael Scott
Description: Translucent to transparent grey bladed crystals with satin luster (fibrous appearance) associated with hematite
Raman shift (cm-1)	intensity
181.482	0
184.374	1125.86
187.267	2195.93
190.16	1148.71
193.052	1613.73
195.945	2121.75
198.838	2656.94
201.731	2968.37
204.623	3100.8
207.516	2827.49
210.409	2922.42
213.301	2147.93
216.194	1394.35
219.087	1458.95
221.979	1292.79
224.872	1241.9
227.765	812.223
230.657	335.316
233.55	140.559
236.443	279.012
239.336	177.719
242.228	210.723
245.121	881.012
248.014	1157.53
250.906	1582.06
253.799	1579.27
256.692	2087.72
259.584	2646.74
262.477	3150.5
265.37	2186.66
268.263	1184.8
271.155	492.312
274.048	297.398
276.941	229.141
279.833	111.961
282.726	271.402
285.619	524.406
288.512	663.328
291.404	1001.71
294.297	1305.16
297.19	1874.93
300.082	2468.68
302.975	2070.3
305.868	1075.31
308.76	533.074
311.653	201.609
314.546	78.4062
317.438	131.129
320.331	103.312
323.224	40.8633
326.117	144.383
329.009	547.781
331.902	731.328
334.795	1080.28
337.687	1516.2
340.58	1177.57
343.473	851.742
346.365	402.32
349.258	265.238
352.151	379.91
355.044	539.512
357.936	1240.16
360.829	1018.03
363.722	1186.06
366.614	1323.26
369.507	1604.26
372.4	1861.75
375.293	2615.68
378.185	3690.17
381.078	4567.57
383.971	5159.02
386.863	4567.72
389.756	3392.06
392.649	3296.61
395.541	2278.34
398.434	1282.15
401.327	980.316
404.219	1256.62
407.112	1672.09
410.005	2187.95
412.898	1993.76
415.79	1229.85
418.683	1047.38
421.576	1518.8
424.469	1845.34
427.361	2318.77
430.254	2766.87
433.147	2285.36
436.039	1231.76
438.932	616.93
441.825	637.547
444.717	255.328
447.61	344.055
450.503	280.914
453.396	141.75
456.288	115.578
459.181	52.0234
462.074	61.625
464.966	25.2031
467.859	43.4453
470.752	44.2266
473.644	91.6328
476.537	32.5
479.43	224.898
482.322	184.438
485.215	436.656
488.108	181.359
491.001	532.695
493.893	547.891
496.786	792.547
499.679	1172.9
502.571	1234.31
505.464	962.492
508.357	891.039
511.25	1126.34
514.142	1043.17
517.035	1267.61
519.928	1604.3
522.82	1838.26
525.713	1740.53
528.606	1586.53
531.498	1778.48
534.391	1890.84
537.284	2068.32
540.177	1451.45
543.069	1137.46
545.962	638.5
548.855	454.688
551.747	235.547
554.64	118.102
557.533	292.742
560.425	67.5391
563.318	91.6641
566.211	179.57
569.104	57.2188
571.996	192.266
574.889	112.359
577.782	336.055
580.674	104.25
583.567	83.1484
586.46	85.8438
589.352	85.6328
592.245	15.3672
595.138	19.4766
598.031	12.8672
600.923	67.4062
603.816	86.3047
606.709	129.055
609.601	276.305
612.494	179.062
615.387	283.719
618.279	248.625
621.172	333.672
624.065	208.633
626.958	300.359
629.85	479.07
632.743	625.438
635.636	814.086
638.528	966.328
641.421	1337.39
644.314	1558.19
647.207	1821.81
650.099	2355.66
652.992	3442.62
655.885	4780.81
658.777	7759.62
661.67	12398.1
664.563	18530
667.455	26465.1
670.348	33648.2
673.241	32704.4
676.134	23323.9
679.026	13918.7
681.919	8558.55
684.812	5337.2
687.704	3784.86
690.597	3149.93
693.49	2980.5
696.382	2749.62
699.275	2009.8
702.168	1298.11
705.061	1065.03
707.953	635.789
710.846	608.172
713.739	782.352
716.631	655.336
719.524	654.523
722.417	274.203
725.309	114.75
728.202	6.21875
731.095	41.4609
733.987	79.7734
736.88	48.0938
739.773	87.375
742.666	76.5312
745.558	96.1406
748.451	289.969
751.344	703.609
754.236	1016.45
757.129	1258.41
760.022	1252.85
762.915	1764.15
765.807	1451.12
768.7	1037.88
771.593	864.672
774.485	868.25
777.378	736.664
780.271	702.125
783.163	605.656
786.056	304.312
788.949	317.266
791.842	434.266
794.734	130.391
797.627	78.5156
800.52	74.25
803.412	184.516
806.305	4.39844
809.198	220.969
812.091	195.992
814.983	185.891
817.876	174.938
820.769	1.89844
823.661	16.1797
826.554	197.812
829.447	136.039
832.339	135.422
835.232	186.336
838.125	217.484
841.018	55.2734
843.91	165.078
846.803	31.5469
849.696	130.867
852.588	292.062
855.481	103.469
858.374	92.5078
861.266	81.8672
864.159	148.164
867.052	291.047
869.944	47.8359
872.837	266.43
875.73	322.508
878.623	316.539
881.515	128.641
884.408	375.836
887.301	572.633
890.193	361.445
893.086	614.773
895.979	634.445
898.871	461.289
901.764	615.531
904.657	418.258
907.55	364.414
910.442	514.766
913.335	468.461
916.228	937.984
919.12	1034.73
922.013	1634.12
924.906	1440.75
927.798	1175.58
930.691	966.273
933.584	402.195
936.477	215.203
939.369	115.312
942.262	16.3906
945.155	48.6641
948.047	82.6953
950.94	57.7266
953.833	28.2891
956.726	3.19531
959.618	173.148
962.511	177.961
965.404	450.227
968.296	558.891
971.189	938.797
974.082	1142.85
976.974	1007.16
979.867	829.148
982.76	789.398
985.653	898.461
988.545	1083.96
991.438	1323.41
994.331	940.438
997.223	1199.87
1000.12	1128.21
1003.01	1031.98
1005.9	915.406
1008.79	928.734
1011.69	554.711
1014.58	776.453
1017.47	459.977
1020.37	681.25
1023.26	676.344
1026.15	1012.52
1029.04	1521.6
1031.94	2835.12
1034.83	4616.81
1037.72	6527.07
1040.61	7422.95
1043.51	6191.83
1046.4	3946.7
1049.29	2374.02
1052.18	1405.54
1055.08	1023.5
1057.97	578.336
1060.86	639.836
1063.76	491.133
1066.65	412.148
1069.54	192.297
1072.43	37.7656
1075.33	274.203
1078.22	262.352
1081.11	110.148
1084	53.9766
1086.9	36.6484
1089.79	27.5469
1092.68	87.2266
1095.58	191.016
1098.47	321.32
1101.36	509.141
1104.25	577.055
1107.15	625.633
1110.04	230.766
1112.93	277.586
1115.82	258.742
1118.72	379.008
1121.61	178.43
1124.5	296.266
1127.39	168.922
1130.29	268.016
1133.18	54.0312
1136.07	146.125
1138.97	10.7109
1141.86	157.906
1144.75	356.57
1147.64	68.3828
1150.54	357.078
1153.43	166.984
1156.32	31.8125
1159.21	175.938
1162.11	16.4375
1165	137.438
1167.89	191.406
1170.79	67.1172
1173.68	128.047
1176.57	230.93
1179.46	389.898
1182.36	163.922
1185.25	158.039
1188.14	264.359
1191.03	502.258
1193.93	96.0625
1196.82	321.57
1199.71	278.844
1202.61	368.75
1205.5	109.086
1208.39	147.633
1211.28	395.688
1214.18	124.992
1217.07	91.9141
1219.96	217.656
1222.85	237.5
1225.75	177.727
1228.64	186.055
1231.53	79.4219
1234.42	169.234
1237.32	51.9219
1240.21	119.414
1243.1	304.922
1246	75.1094
1248.89	268.195
1251.78	273.031
1254.67	277.898
1257.57	183.312
1260.46	260.812
1263.35	46.4688
1266.24	256.586
1269.14	217.836
1272.03	423.5
1274.92	230.797
1277.82	201.008
1280.71	353.109
1283.6	341.562
1286.49	380.5
1289.39	191.203
1292.28	99.0859
1295.17	222.656
1298.06	375.781
1300.96	347.305
1303.85	161.297
1306.74	261.961
1309.63	440.531
1312.53	131.32
