Measurement: Raman, 532 nm, unoriented, Raman Data Processed
Mineral: Antigorite
Rruff sample: R070228
Ideal chemistry: Mg_3_Si_2_O_5_(OH)_4_
Locality: Wood's Chrome Mine (Wood's Mine), Texas, Lancaster County, Pennsylvania, USA
Source: Michael Scott
Description: Compact massive, light to dark green associated with chromite
Measured chemistry: (Mg_2.93_Fe_0.07_)_Î£=3_Si_2.00_O_5_(OH)_4_ ; trace amounts of Al and Mn; OH estimated by difference
Raman shift (cm-1)	intensity
155.929	0
158.822	58.5049
161.715	29.874
164.607	44.3227
167.5	14.5947
170.393	69.7407
173.286	113.882
176.178	143.488
179.071	106.928
181.964	189.193
184.856	311.002
187.749	312.659
190.642	360.082
193.535	500.411
196.427	658.335
199.32	685.614
202.213	867.628
205.105	968.814
207.998	999.509
210.891	1311.92
213.783	1718.05
216.676	1951.37
219.569	2216.32
222.462	2548.93
225.354	3066.75
228.247	3709.79
231.14	4024.87
234.032	3233.87
236.925	1905.91
239.818	1087.33
242.71	649.809
245.603	483.045
248.496	373.709
251.388	328.814
254.281	239.852
257.174	244.684
260.067	157.046
262.959	210.396
265.852	206.225
268.745	85.9004
271.637	28.3213
274.53	32.2998
277.423	55.2568
280.315	25.6548
283.208	68.4697
286.101	20.1025
288.994	27.9477
291.886	60.2476
294.779	125.422
297.672	153.701
300.564	149.102
303.457	163.32
306.35	180.246
309.243	75.8452
312.135	79.7642
315.028	135.435
317.921	147.139
320.813	130.227
323.706	198.564
326.599	234.159
329.491	293.426
332.384	361.261
335.277	391.595
338.17	478.099
341.062	621.464
343.955	805.212
346.848	1019.02
349.74	1271.73
352.633	1597.41
355.526	1958.12
358.418	2423.02
361.311	2909.84
364.204	3403.77
367.097	3941.66
369.989	4615.92
372.882	5218.98
375.775	4987.28
378.667	3529.88
381.56	2058.8
384.453	1239.1
387.346	716.531
390.238	430.432
393.131	262.26
396.024	197.019
398.916	134.964
401.809	146.061
404.702	101.802
407.594	56.4429
410.487	93.6148
413.38	66.521
416.272	16.0898
419.165	13.2383
422.058	8.42334
424.951	32.6885
427.843	103.361
430.736	111.427
433.629	240.491
436.521	304.247
439.414	320.017
442.307	422.521
445.2	595.384
448.092	691.439
450.985	908.539
453.878	1082.69
456.77	1229.37
459.663	1043.96
462.556	753.423
465.448	475.148
468.341	243.054
471.234	78.5581
474.127	28.8794
477.019	25.1992
479.912	8.98877
482.805	3.81836
485.697	0.334473
488.59	8.8916
491.483	25.624
494.375	40.1196
497.268	50.6895
500.161	82.3208
503.053	72.0347
505.946	53.4673
508.839	101.482
511.732	65.2061
514.624	226.019
517.517	192.136
520.41	364.517
523.302	403.175
526.195	492.178
529.088	424.183
531.981	373.759
534.873	319.549
537.766	309.188
540.659	190.365
543.551	226.924
546.444	89.5317
549.337	161.863
552.229	56.5547
555.122	55.3276
558.015	13.6484
560.908	62.9336
563.8	6.36719
566.693	34.7373
569.586	12.6611
572.478	16.5645
575.371	67.813
578.264	25.7236
581.156	20.1899
584.049	4.69727
586.942	86.8174
589.835	141.602
592.727	164.968
595.62	374.778
598.513	418.826
601.405	597.001
604.298	587.748
607.191	710.187
610.083	759.781
612.976	799.871
615.869	795.754
618.762	845.791
621.654	935.097
624.547	963.253
627.44	1014.82
630.332	1083.52
633.225	1195.79
636.118	1181.97
639.01	1250.18
641.903	1271.53
644.796	1200.36
647.689	1161.87
650.581	1079.92
653.474	1059.87
656.367	1055.69
659.259	1100.64
662.152	1238.01
665.045	1529.77
667.938	1840.17
670.83	2252.34
673.723	2884.76
676.616	3522.5
679.508	4118.46
682.401	4239.24
685.294	4208.73
688.186	3722.45
691.079	3201.09
693.972	2593.26
696.865	2102.42
699.757	1605.05
702.65	1120.55
705.543	980.939
708.435	888.352
711.328	910.785
714.221	865.486
717.113	753.714
720.006	655.438
722.899	488.461
725.792	324.012
728.684	173.876
731.577	16.0146
734.47	14.3076
737.362	69.4609
740.255	8.91895
743.148	66.8535
746.04	0.56543
748.933	28.1816
751.826	51.582
754.719	155.464
757.611	60.3711
760.504	147.961
763.397	114.036
766.289	2.73535
769.182	1.69824
772.075	1.00879
774.967	111.045
777.86	125.67
780.753	130.022
783.646	153.459
786.538	141.033
789.431	79.6602
792.324	123.696
795.216	50.5645
798.109	106.44
801.002	40.5371
803.894	96.0518
806.787	69.3135
809.68	106.778
812.573	70.9824
815.465	83.3447
818.358	25.9473
821.251	70.8477
824.143	64.9981
827.036	61.3682
829.929	58.6777
832.822	17.9473
835.714	121.816
838.607	45.2822
841.5	82.9365
844.392	92.2832
847.285	42.0684
850.178	52.2178
853.07	53.6787
855.963	83.7353
858.856	29.793
861.749	126.972
864.641	114.992
867.534	121.308
870.427	62.8955
873.319	52.2178
876.212	51.7666
879.105	97.9375
881.997	16.6025
884.89	126.463
887.783	32.4463
890.676	97.4062
893.568	0.016602
896.461	26.2178
899.354	79.6465
902.246	45.5957
905.139	31.4268
908.032	64.9941
910.924	13.0947
913.817	5.54199
916.71	11.3447
919.602	7.50781
922.495	82.6875
925.388	21.1035
928.281	104.477
931.173	47.5078
934.066	42.2978
936.959	30.3682
939.851	11.585
942.744	3.20508
945.637	11.1943
948.529	1.80957
951.422	56.5664
954.315	55.6191
957.208	87.8769
960.1	165.399
962.993	112.388
965.886	117.886
968.778	70.3506
971.671	8.07031
974.564	89.6094
977.457	89.1377
980.349	62.6865
983.242	11.335
986.135	77.3428
989.027	49.7432
991.92	73.9951
994.813	27.5576
997.705	20.1162
1000.6	69.9873
1003.49	7.16602
1006.38	41.1875
1009.28	51.377
1012.17	18.9561
1015.06	76.1084
1017.95	55.0381
1020.85	54.8193
1023.74	71.7031
1026.63	121.223
1029.53	185.674
1032.42	351.563
1035.31	671.705
1038.2	1058.02
1041.1	1787.7
1043.99	2380.22
1046.88	2490.36
1049.77	1625.48
1052.67	720.58
1055.56	329.926
1058.45	151.292
1061.35	90.5527
1064.24	132.643
1067.13	93.5635
1070.02	121.598
1072.92	95.4102
1075.81	97.6357
1078.7	143.611
1081.59	82.0469
1084.49	88.6533
1087.38	19.6484
1090.27	56.5039
1093.16	68.6709
1096.06	79.2256
1098.95	48.2197
1101.84	79.7881
1104.73	27.835
1107.63	96.6562
1110.52	26.041
1113.41	126.614
1116.31	73.6504
1119.2	104.07
1122.09	72.8535
1124.98	43.8877
1127.88	6.38769
1130.77	49.6279
1133.66	71.1172
1136.56	41.3897
1139.45	175.201
1142.34	73.041
1145.23	25.4697
1148.13	64.5107
1151.02	64.0781
1153.91	80.8652
1156.8	118.62
1159.7	97.2725
1162.59	68.9385
1165.48	78.3818
1168.38	137.746
1171.27	6.62891
1174.16	90.292
1177.05	93.0908
1179.95	4.8916
1182.84	124.448
1185.73	117.501
1188.62	104.117
1191.52	3.39551
1194.41	63.0137
1197.3	118.42
1200.19	105.855
1203.09	58.8076
1205.98	52.7344
1208.87	33.9609
1211.77	118.516
1214.66	54.4092
1217.55	79.0186
1220.44	136.638
1223.34	100.166
1226.23	40.7031
1229.12	32.3867
1232.01	67.2842
1234.91	119.441
1237.8	136.305
1240.69	15.6641
1243.59	73.4746
1246.48	121.659
1249.37	52.8047
1252.26	92.5449
1255.16	20.2148
1258.05	88.5215
1260.94	77.5391
1263.83	136.414
1266.73	40.1953
1269.62	58.6641
1272.51	131.428
1275.4	116.934
1278.3	54.4727
1281.19	46.8848
1284.08	6.11523
1286.98	108.666
1289.87	40.5215
1292.76	77.6465
1295.65	106.576
1298.55	93.2773
1301.44	85.6836
1304.33	29.3594
