Measurement: Raman, 785 nm, unoriented, Raman Data Processed
Mineral: Antigorite
Rruff sample: R070228
Ideal chemistry: Mg_3_Si_2_O_5_(OH)_4_
Locality: Wood's Chrome Mine (Wood's Mine), Texas, Lancaster County, Pennsylvania, USA
Source: Michael Scott
Description: Compact massive, light to dark green associated with chromite
Measured chemistry: (Mg_2.93_Fe_0.07_)_Î£=3_Si_2.00_O_5_(OH)_4_ ; trace amounts of Al and Mn; OH estimated by difference
Raman shift (cm-1)	intensity
175.981	0
178.873	36.6634
181.766	45.2441
184.659	51.922
187.552	50.3093
190.444	73.4578
193.337	90.0895
196.23	120.496
199.122	158.788
202.015	184.817
204.908	218.816
207.8	259.805
210.693	277.798
213.586	306.751
216.478	423.535
219.371	468.219
222.264	519.94
225.157	627.408
228.049	712.841
230.942	860.738
233.835	800.518
236.727	511.442
239.62	320.91
242.513	239.006
245.405	174.1
248.298	134.016
251.191	111.527
254.084	81.9329
256.976	100.566
259.869	90.2571
262.762	88.6558
265.654	78.4805
268.547	27.1582
271.44	38.3313
274.332	34.7163
277.225	18.9783
280.118	2.76611
283.011	7.41064
285.903	12.9126
288.796	1.9397
291.689	10.6602
294.581	37.8535
297.474	76.0073
300.367	43.8159
303.26	91.6011
306.152	95.4019
309.045	55.0425
311.938	46.3408
314.83	41.6948
317.723	14.5149
320.616	77.0029
323.508	79.6162
326.401	78.199
329.294	114.659
332.187	119.571
335.079	133.986
337.972	156.115
340.865	175.688
343.757	196.178
346.65	300.997
349.543	406.597
352.435	509.368
355.328	595.808
358.221	755.793
361.113	960.132
364.006	1139.35
366.899	1282.26
369.792	1488.78
372.684	1763.53
375.577	1890.27
378.47	1514.5
381.362	935.523
384.255	515.515
387.148	321.537
390.041	205.46
392.933	111.314
395.826	91.156
398.719	34.8281
401.611	36.1494
404.504	28.5784
407.397	21.0916
410.289	34.3193
413.182	5.54565
416.075	50.0828
418.967	23.9309
421.86	10.0549
424.753	17.5767
427.646	60.2588
430.538	100.79
433.431	118.849
436.324	135.948
439.216	173.991
442.109	213.762
445.002	253.642
447.894	311.968
450.787	359.291
453.68	411.726
456.573	444.93
459.465	431.014
462.358	376.09
465.251	200.266
468.143	121.992
471.036	52.8935
473.929	13.7104
476.822	13.2297
479.714	0.489258
482.607	3.0415
485.5	12.0896
488.392	4.42578
491.285	7.56665
494.178	31.0994
497.07	53.9858
499.963	30.7883
502.856	14.8169
505.748	13.7034
508.641	28.9946
511.534	53.971
514.427	59.4187
517.319	66.5727
520.212	108.997
523.105	115.515
525.997	133.596
528.89	144.124
531.783	116.793
534.676	128.749
537.568	65.0415
540.461	59.7012
543.354	24.8513
546.246	48.3057
549.139	84.6211
552.032	27.1238
554.924	37.4072
557.817	4.57861
560.71	19.2964
563.602	3.10864
566.495	1.84595
569.388	6.12769
572.281	29.7688
575.173	0.162109
578.066	0.420654
580.959	32.7148
583.851	25.7986
586.744	17.1855
589.637	30.511
592.529	25.5845
595.422	37.8296
598.315	93.1419
601.208	122.844
604.1	128.028
606.993	180.041
609.886	203.206
612.778	219.992
615.671	232.8
618.564	247.858
621.457	265.603
624.349	272.853
627.242	280.539
630.135	290.694
633.027	306.448
635.92	288.358
638.813	305.842
641.705	284.597
644.598	297.538
647.491	270.328
650.384	268.233
653.276	237.973
656.169	221.19
659.062	276.773
661.954	323.59
664.847	403.836
667.74	463.062
670.632	580.709
673.525	707.253
676.418	975.07
679.311	1123.48
682.203	1308.91
685.096	1314.53
687.989	1294.29
690.881	1102.81
693.774	971.867
696.667	839.946
699.559	674.057
702.452	544.507
705.345	425.182
708.237	354.85
711.13	356.348
714.023	307.688
716.916	352.064
719.808	316.909
722.701	261.945
725.594	183.748
728.486	75.5027
731.379	32.553
734.272	12.9744
737.164	4.26538
740.057	12.2654
742.95	4.38843
745.843	17.2759
748.735	2.5083
751.628	14.8342
754.521	21.0647
757.413	0.05603
760.306	57.2256
763.199	40.2617
766.091	43.1008
768.984	40.6077
771.877	39.4258
774.77	42.7098
777.662	42.781
780.555	56.8718
783.448	32.8407
786.34	53.6724
789.233	0.476685
792.126	40.8906
795.019	12.1658
797.911	1.13928
800.804	34.8173
803.697	6.74817
806.589	5.80994
809.482	33.3026
812.375	45.6425
815.267	50.0261
818.16	40.9952
821.053	43.7103
823.946	30.3606
826.838	59.7985
829.731	57.8033
832.624	20.7585
835.516	20.0231
838.409	15.0869
841.302	50.9691
844.194	47.7488
847.087	69.4171
849.98	64.295
852.872	32.3069
855.765	56.819
858.658	75.405
861.551	35.2278
864.443	27.2521
867.336	41.5949
870.229	69.6083
873.121	21.4966
876.014	43.1151
878.907	38.0978
881.799	32.5607
884.692	45.406
887.585	36.0983
890.478	41.2891
893.37	41.8621
896.263	36.4629
899.156	23.9282
902.048	8.71777
904.941	34.4836
907.834	30.1825
910.726	32.8051
913.619	7.51843
916.512	8.0116
919.405	31.0605
922.297	15.2356
925.19	27.791
928.083	20.7808
930.975	41.5531
933.868	15.7484
936.761	10.9304
939.654	3.43994
942.546	7.61011
945.439	11.0797
948.332	27.4594
951.224	22.6144
954.117	31.7239
957.01	59.4658
959.902	50.1923
962.795	35.3543
965.688	50.3623
968.581	53.8236
971.473	40.1902
974.366	3.82849
977.259	27.5796
980.151	38.9568
983.044	43.2661
985.937	29.8591
988.829	10.4402
991.722	13.9983
994.615	38.1951
997.508	50.4021
1000.4	25.9355
1003.29	2.92651
1006.19	38.9313
1009.08	4.88196
1011.97	5.26709
1014.86	1.05298
1017.76	17.0794
1020.65	39.2024
1023.54	27.9264
1026.43	12.4178
1029.33	4.70935
1032.22	17.3779
1035.11	65.3767
1038.01	162.772
1040.9	233.46
1043.79	392.174
1046.68	447.403
1049.58	326.852
1052.47	170.812
1055.36	84.025
1058.25	51.3805
1061.15	7.875
1064.04	10.8893
1066.93	0.240234
1069.83	19.5232
1072.72	25.7601
1075.61	36.3957
1078.5	36.9088
1081.4	27.2722
1084.29	21.7388
1087.18	11.0029
1090.07	9.97754
1092.97	55.0682
1095.86	45.11
1098.75	36.5665
1101.64	29.814
1104.54	31.8088
1107.43	67.5309
1110.32	79.335
1113.21	38.8743
1116.11	55.7531
1119	56.8153
1121.89	24.3939
1124.79	9.67248
1127.68	54.1224
1130.57	45.6411
1133.46	26.2338
1136.36	17.0919
1139.25	24.2499
1142.14	30.1574
1145.04	33.2886
1147.93	41.228
1150.82	20.7504
1153.71	36.7546
1156.61	14.9285
1159.5	5.64734
1162.39	36.2882
1165.28	17.3645
1168.18	9.18408
1171.07	26.1626
1173.96	31.08
1176.86	25.6541
1179.75	30.9386
1182.64	37.4896
1185.53	33.4247
1188.43	36.7389
1191.32	48.4622
1194.21	27.0223
1197.1	71.126
1200	27.7478
1202.89	16.948
1205.78	53.1887
1208.67	37.2886
1211.57	8.05652
1214.46	33.0531
1217.35	27.5924
1220.24	33.9539
1223.14	38.5695
1226.03	47.9984
1228.92	32.8298
1231.82	22.1525
1234.71	18.308
