Measurement: Raman, 780 nm, unoriented, Raman Data Processed
Mineral: Antimony
Rruff sample: R050654
Ideal chemistry: Sb
Locality: Sarawak, Borneo
Source: University of Arizona Mineral Museum
Description: Silver metallic crystals
Measured chemistry: Sb
Raman shift (cm-1)	intensity
92.0254	0
95.4002	7.24632
98.775	13.0954
102.15	39.1757
105.525	80.3244
108.9	112.452
112.274	127.067
115.649	103.275
119.024	51.4878
122.399	26.3239
125.773	21.2776
129.148	29.0054
132.523	49.2988
135.898	74.7759
139.273	124.476
142.648	163.383
146.022	205.76
149.397	212.448
152.772	152.259
156.147	54.6844
159.522	14.3865
162.897	1.20548
166.271	2.74593
169.646	3.40715
173.021	0.156113
176.396	0.931396
179.771	7.84706
183.145	14.0589
186.52	20.4555
189.895	16.1258
193.27	15.9078
196.645	8.51575
200.019	3.98163
203.394	1.6519
206.769	3.01523
210.144	0.152855
213.519	1.30247
216.893	4.6863
220.268	10.8362
223.643	14.5714
227.018	19.9279
230.393	20.679
233.768	17.9512
237.142	19.214
240.517	17.1653
243.892	15.4093
247.267	15.8352
250.642	20.5815
254.017	24.0734
257.391	20.2078
260.766	21.1097
264.141	28.5978
267.516	35.8511
270.891	45.0506
274.265	48.85
277.64	57.4795
281.015	58.6161
284.39	57.9511
287.765	57.7745
291.139	66.4758
294.514	77.1463
297.889	82.696
301.264	81.6126
304.639	77.6418
308.014	59.9961
311.388	37.3043
314.763	19.1977
318.138	5.81116
321.513	6.18538
324.888	2.18534
328.262	1.05678
331.637	4.24544
335.012	1.30323
338.387	3.5839
341.762	1.69215
345.137	2.96725
348.511	1.63806
351.886	0.585238
355.261	5.33359
358.636	1.45447
362.01	1.65533
365.385	0.351704
368.76	8.73375
372.135	4.15837
375.51	6.52621
378.885	7.49442
382.259	6.74732
385.634	8.46926
389.009	5.59628
392.384	6.17835
395.759	3.32627
399.134	7.82484
402.508	2.43603
405.883	2.79302
409.258	3.1738
412.633	0.736916
416.008	2.14545
419.382	5.24104
422.757	2.3578
426.132	4.30508
429.507	3.35018
432.882	1.94966
436.257	3.51243
439.631	0.934906
443.006	3.45644
446.381	6.92849
449.756	7.9585
453.13	3.06266
456.505	3.38408
459.88	4.83262
463.255	3.17481
466.63	5.0707
470.005	6.59415
473.379	4.00425
476.754	5.8618
480.129	3.60094
483.504	1.75637
486.879	1.48876
490.253	1.31948
493.628	2.57304
497.003	1.25153
500.378	3.7884
503.753	2.89553
507.128	2.27583
510.502	4.03991
513.877	1.32233
517.252	6.32765
520.627	4.60635
524.002	8.72762
527.376	3.03539
530.751	2.01839
534.126	5.26593
537.501	2.92962
540.876	3.03512
544.25	1.34044
547.625	0.42564
551	3.32292
554.375	5.32138
557.75	3.598
561.125	3.51554
564.499	4.36896
567.874	1.03171
571.249	1.07466
574.624	1.53423
577.999	0.172125
581.374	6.74418
584.748	5.53003
588.123	4.0135
591.498	5.88848
594.873	2.26352
598.248	3.49556
601.622	3.50234
604.997	3.14823
608.372	3.43542
611.747	5.94546
615.122	1.77375
618.496	5.57126
621.871	4.77921
625.246	3.78642
628.621	2.11911
631.996	2.7178
635.37	1.20589
638.745	1.58909
642.12	4.14692
645.495	1.22929
648.87	4.54215
652.245	3.21536
655.619	0.390828
658.994	1.98219
662.369	0.570265
665.744	3.25991
669.119	2.01734
672.494	7.29864
675.868	1.99365
679.243	3.55825
682.618	0.721478
685.993	1.52857
689.368	3.21306
692.742	5.09053
696.117	2.89796
699.492	0.956284
702.867	5.197
706.242	4.27166
709.616	0.774771
712.991	2.82773
716.366	4.36087
719.741	3.51553
723.116	3.42228
726.49	2.05681
729.865	0.525236
733.24	3.20793
736.615	0.156845
739.99	2.26334
743.365	2.68927
746.739	0.550266
750.114	2.67762
753.489	2.5134
756.864	4.11762
760.239	3.04974
763.614	3.5103
766.988	0.735619
770.363	4.67696
773.738	4.22752
777.113	2.70212
780.487	4.89235
783.862	3.58541
787.237	0.051418
790.612	6.15537
793.987	1.0739
797.362	5.10928
800.736	4.26072
804.111	6.55759
807.486	5.14332
810.861	4.1899
814.236	1.6141
817.611	1.20381
820.985	1.9378
824.36	2.34441
827.735	3.07059
831.11	4.04789
834.485	4.37073
837.859	1.64572
841.234	4.29811
844.609	3.5789
847.984	3.43793
851.359	1.83178
854.734	4.33275
858.108	6.18951
861.483	7.74995
864.858	1.90081
868.233	1.1999
871.607	3.64411
874.982	0.360423
878.357	1.07292
881.732	0.722483
885.107	0.99543
888.482	6.65848
891.856	1.58695
895.231	4.68457
898.606	4.02319
901.981	3.64019
905.356	3.5851
908.731	2.48224
912.105	0.937337
915.48	0.16887
918.855	4.50025
922.23	1.1657
925.605	3.69642
928.979	2.35789
932.354	4.89621
935.729	1.30817
939.104	1.38623
942.479	1.32253
945.854	4.88387
949.228	1.7784
952.603	4.11319
955.978	0.750026
959.353	4.08754
962.727	3.01232
966.102	2.1353
969.477	4.208
972.852	1.99767
976.227	7.0917
979.602	4.21785
982.976	2.51679
986.351	1.83487
989.726	4.27921
993.101	0.479305
996.476	4.06731
999.851	4.5251
1003.23	5.23245
1006.6	3.16139
1009.98	4.37228
1013.35	2.17507
1016.73	1.10815
1020.1	3.3996
1023.47	2.32344
1026.85	1.89299
1030.22	2.34724
1033.6	0.384407
1036.97	0.961875
1040.35	3.7475
1043.72	6.61765
1047.1	5.41616
1050.47	3.88652
1053.85	0.687232
1057.22	2.96663
1060.6	4.72217
1063.97	3.93946
1067.35	3.68484
1070.72	4.76339
1074.1	3.28425
1077.47	5.32762
1080.85	0.653665
1084.22	0.211724
1087.6	4.93558
1090.97	5.88638
1094.35	2.0848
1097.72	5.45145
1101.1	5.60195
1104.47	7.8692
1107.84	2.63586
1111.22	4.05495
1114.59	5.36501
1117.97	6.86902
1121.34	6.17475
1124.72	7.00976
1128.09	2.99799
1131.47	2.71748
1134.84	2.59225
1138.22	4.44765
1141.59	4.61575
1144.97	3.69381
1148.34	3.69583
1151.72	4.95459
1155.09	0.947648
1158.47	9.40085
1161.84	2.47547
1165.22	6.1302
1168.59	4.07502
1171.97	6.32352
1175.34	3.98777
1178.72	8.07746
1182.09	4.36217
1185.46	4.30061
1188.84	3.91995
1192.21	0.441041
1195.59	0.418545
1198.96	3.08962
1202.34	8.16388
1205.71	6.46348
1209.09	3.22623
1212.46	3.39152
1215.84	1.58095
1219.21	3.45781
1222.59	3.42935
1225.96	0.783876
1229.34	4.53465
1232.71	1.00032
1236.09	1.88518
1239.46	4.1247
1242.84	1.95542
1246.21	2.04123
1249.59	2.08359
1252.96	2.03402
1256.34	1.85133
1259.71	2.39305
1263.09	2.59666
1266.46	2.49631
1269.84	2.43974
1273.21	2.31836
1276.59	0.092722
1279.96	1.27704
1283.34	2.68896
