Measurement: Raman, 532 nm, unoriented, Raman Data Processed
Mineral: Antimony
Rruff sample: R050654
Ideal chemistry: Sb
Locality: Sarawak, Borneo
Source: University of Arizona Mineral Museum
Description: Silver metallic crystals
Measured chemistry: Sb
Raman shift (cm-1)	intensity
100.388	0
103.763	0.792212
107.138	1.10062
110.513	0.747413
113.887	1.16353
117.262	0.010349
120.637	3.42605
124.012	10.8949
127.387	17.3891
130.762	28.7371
134.136	55.2431
137.511	91.4633
140.886	115.719
144.261	156.565
147.636	238.769
151.011	354.79
154.385	259.639
157.76	124.091
161.135	72.5183
164.51	51.1875
167.885	42.0708
171.259	45.8189
174.634	29.9935
178.009	20.6622
181.384	17.0353
184.759	16.7707
188.133	15.5088
191.508	18.8445
194.883	9.13152
198.258	5.31581
201.633	5.52897
205.008	3.97349
208.382	3.87692
211.757	3.08388
215.132	1.01736
218.507	1.5363
221.882	0.696989
225.256	1.13037
228.631	0.292843
232.006	1.17827
235.381	0.196407
238.756	3.70018
242.131	5.35916
245.505	4.33045
248.88	10.8948
252.255	19.107
255.63	27.2486
259.005	10.0437
262.38	7.76651
265.754	7.11515
269.129	7.64281
272.504	7.41727
275.879	6.34135
279.254	6.10174
282.628	6.6582
286.003	3.19183
289.378	3.8809
292.753	3.45492
296.128	3.05429
299.503	1.83964
302.877	1.4994
306.252	1.03639
309.627	0.668066
313.002	1.62537
316.377	0.354942
319.752	0.795141
323.126	0.118242
326.501	0.537918
329.876	1.94528
333.251	1.09179
336.626	2.51316
340	0.113476
343.375	1.59213
346.75	1.65728
350.125	2.23013
353.5	3.82593
356.875	1.89266
360.249	2.24766
363.624	0.602047
366.999	3.55392
370.374	2.35051
373.749	2.99399
377.123	3.79083
380.498	3.03252
383.873	2.09398
387.248	1.53681
390.623	1.86665
393.998	1.18445
397.372	2.63148
400.747	0.851385
404.122	0.494347
407.497	1.55372
410.872	0.408634
414.247	1.2502
417.621	1.92425
420.996	0.926413
424.371	0.918348
427.746	2.55596
431.121	0.825008
434.495	1.70256
437.87	0.509773
441.245	2.28689
444.62	4.30439
447.995	3.72133
451.37	5.22617
454.744	3.97892
458.119	3.88854
461.494	0.399702
464.869	1.97802
468.244	4.31157
471.618	3.1068
474.993	3.80681
478.368	4.94109
481.743	7.86413
485.118	5.58768
488.493	0.363663
491.867	0.421289
495.242	0.511908
498.617	1.86504
501.992	2.09274
505.367	0.484327
508.741	1.18737
512.116	2.56057
515.491	0.866899
518.866	0.417147
522.241	2.81883
525.616	0.681654
528.99	1.31503
532.365	2.16634
535.74	1.08643
539.115	0.863693
542.49	1.71907
545.865	1.06201
549.239	1.58922
552.614	1.78095
555.989	1.04714
559.364	0.928528
562.739	0.129045
566.114	0.353544
569.488	2.81962
572.863	0.207762
576.238	2.29563
579.613	2.61169
582.987	0.667316
586.362	0.343184
589.737	1.06696
593.112	0.84337
596.487	1.07831
599.862	2.41353
603.236	1.72894
606.611	1.0517
609.986	0.166637
613.361	0.3211
616.736	0.466158
620.111	1.74138
623.485	0.205183
626.86	2.73782
630.235	0.430779
633.61	1.44259
636.985	0.846502
640.36	0.372948
643.734	1.25921
647.109	1.00773
650.484	1.44647
653.859	1.08565
657.234	0.207756
660.609	0.745176
663.983	0.34919
667.358	0.569128
670.733	0.513439
674.108	2.18001
677.482	0.902102
680.857	1.09233
684.232	0.545851
687.607	1.1203
690.982	0.650114
694.357	2.89578
697.731	1.03388
701.106	0.526693
704.481	2.43766
707.856	2.21451
711.231	1.45682
714.606	1.5852
717.98	1.56007
721.355	1.12188
724.73	0.780973
728.105	1.07882
731.48	0.071274
734.855	1.39258
738.229	0.520296
741.604	0.834461
744.979	0.333389
748.354	1.47811
751.729	1.0793
755.103	1.42357
758.478	1.30181
761.853	0.716469
765.228	1.91643
768.603	0.361244
771.977	0.978304
775.352	1.79917
778.727	2.25808
782.102	0.793131
785.477	2.28524
788.852	1.62794
792.226	1.17492
795.601	1.76483
798.976	0.254082
802.351	0.768757
805.726	1.20042
809.101	0.939663
812.475	0.826483
815.85	2.19116
819.225	1.54894
822.6	1.59264
825.975	1.84556
829.35	0.16946
832.724	1.72116
836.099	0.808414
839.474	1.88221
842.849	0.806774
846.224	2.4836
849.598	0.724752
852.973	1.9059
856.348	0.511602
859.723	1.46067
863.098	2.45359
866.472	2.52915
869.847	0.232386
873.222	0.658007
876.597	1.43224
879.972	0.131905
883.347	0.046787
886.721	0.670738
890.096	0.970812
893.471	0.715332
896.846	0.866823
900.221	0.904339
903.596	2.00314
906.97	1.59422
910.345	1.19911
913.72	1.37051
917.095	1.50973
920.47	1.52057
923.845	1.7569
927.219	0.070667
930.594	0.630352
933.969	2.02435
937.344	1.84378
940.719	0.218483
944.093	2.46143
947.468	1.41626
950.843	0.005259
954.218	0.050579
957.593	2.03553
960.967	0.368162
964.342	0.901281
967.717	0.220125
971.092	1.26974
974.467	0.60981
977.842	1.32424
981.216	1.27755
984.591	3.23755
987.966	1.77692
991.341	1.12597
994.716	1.59186
998.091	2.46708
1001.47	0.584394
1004.84	1.52382
1008.22	1.47961
1011.59	1.03967
1014.97	1.2204
1018.34	1.63701
1021.71	1.09692
1025.09	0.417253
1028.46	1.88035
1031.84	1.82823
1035.21	1.08202
1038.59	1.7889
1041.96	0.258532
1045.34	0.753252
1048.71	1.01573
1052.09	1.58031
1055.46	1.01904
1058.84	2.05648
1062.21	0.226479
1065.59	1.62382
1068.96	2.60059
1072.34	1.84739
1075.71	1.79855
1079.09	1.89168
1082.46	1.48278
1085.84	1.44942
1089.21	1.27182
1092.59	2.01259
1095.96	1.47368
1099.34	0.802656
1102.71	1.15765
1106.09	0.699335
1109.46	0.203442
1112.83	1.55981
1116.21	2.97043
1119.58	0.947515
1122.96	1.86774
1126.33	3.11577
1129.71	2.57013
1133.08	0.958645
1136.46	3.15208
1139.83	1.53388
1143.21	2.16594
1146.58	1.09437
1149.96	1.68304
1153.33	2.22297
1156.71	1.38031
1160.08	1.4269
1163.46	1.34102
1166.83	0.165257
1170.21	2.38848
1173.58	0.654325
1176.96	1.81947
1180.33	1.28217
1183.71	3.1182
1187.08	1.27859
1190.45	1.83238
1193.83	0.436497
1197.2	1.72644
1200.58	1.66745
1203.95	1.32787
1207.33	1.70569
1210.7	0.165958
1214.08	0.859169
1217.45	1.41313
1220.83	1.97131
1224.2	1.56248
1227.58	1.59147
1230.95	1.25959
1234.33	0.975988
1237.7	1.7039
1241.08	0.086126
1244.45	1.63471
1247.83	0.696238
1251.2	1.32569
1254.58	1.82774
1257.95	0.871271
1261.33	1.19522
1264.7	1.65397
1268.08	0.57612
1271.45	0.101585
1274.83	1.11583
1278.2	1.75123
1281.58	0.937395
1284.95	1.04594
1288.33	1.33649
1291.7	0.619249
1295.08	0.404966
1298.45	0.626955
1301.82	0
