Measurement: Raman, 532 nm, unoriented, Raman Data Processed
Mineral: Antimony
Rruff sample: R070318
Ideal chemistry: Sb
Locality: Arechuybo, Chihuahua, Mexico
Source: James Shigley
Description: Bright silver metallic lamellar
Raman shift (cm-1)	intensity
133.27	0
136.645	497.707
140.019	1605.95
143.394	3225.72
146.769	6269.7
150.144	10994.8
153.519	6817.09
156.894	2237.53
160.268	969.279
163.643	404.597
167.018	121.414
170.393	104.506
173.768	21.52
177.143	3.271
180.517	19.9849
183.892	53.2549
187.267	43.8018
190.642	86.7871
194.017	67.5269
197.391	18.0601
200.766	12.7534
204.141	6.36719
207.516	28.3896
210.891	38.9526
214.266	11.0449
217.64	13.6958
221.015	17.5801
224.39	25.2734
227.765	27.2573
231.14	3.15234
234.514	38.772
237.889	3.26025
241.264	91.708
244.639	169.804
248.014	145.652
251.388	149.774
254.763	207.656
258.138	349.062
261.513	396.459
264.888	427.819
268.263	489.205
271.637	414.175
275.012	382.08
278.387	357.947
281.762	324.852
285.137	315.718
288.512	306.813
291.886	237.625
295.261	129.407
298.636	104.928
302.011	113.836
305.386	105.752
308.76	86.4927
312.135	34.1069
315.51	76.4634
318.885	56.352
322.26	58.7637
325.635	70.2446
329.009	50.7856
332.384	68.3687
335.759	42.6338
339.134	19.9282
342.509	60.502
345.883	12.2725
349.258	86.3062
352.633	54.7852
356.008	7.52344
359.383	108.496
362.757	31.4619
366.132	15.9946
369.507	8.77051
372.882	79.2515
376.257	67.3706
379.632	29.3335
383.006	52.373
386.381	12.3442
389.756	34.9526
393.131	50.7197
396.506	86.9717
399.88	51.7051
403.255	54.834
406.63	108.447
410.005	68.6567
413.38	49.7183
416.755	31.9004
420.129	64.5356
423.504	34.8428
426.879	49.7407
430.254	32.7105
433.629	31.2432
437.003	65.1992
440.378	57.3472
443.753	53.2378
447.128	92.7319
450.503	18.2671
453.878	47.5386
457.252	5.39062
460.627	53.8828
464.002	137.619
467.377	47.6763
470.752	34.0796
474.127	39.4805
477.501	62.6738
480.876	21.2778
484.251	82.6377
487.626	44.6606
491.001	100.543
494.375	51.0464
497.75	25.3501
501.125	56.7363
504.5	86.8936
507.875	98.6777
511.25	100.12
514.624	60.3652
517.999	86.1074
521.374	65.6094
524.749	119.026
528.124	32.6016
531.498	41.502
534.873	33.8227
538.248	58.4199
541.623	57.6714
544.998	90.583
548.372	49.521
551.747	78.4814
555.122	38.001
558.497	53.2642
561.872	49.2012
565.247	89.3809
568.621	49.3477
571.996	62.3008
575.371	51.7329
578.746	65.418
582.121	29.5571
585.495	59.8804
588.87	31.7432
592.245	36.6387
595.62	9.48047
598.995	50.082
602.37	5.02002
605.744	23.9917
609.119	10.4155
612.494	74.3174
615.869	63.98
619.244	48.6333
622.619	58.6606
625.993	32.769
629.368	64.6211
632.743	82.3149
636.118	85.1162
639.493	93.4604
642.867	16.8184
646.242	111.91
649.617	131.223
652.992	54.1714
656.367	34.8389
659.741	58.5371
663.116	61.1235
666.491	20.8457
669.866	1.78076
673.241	42.2549
676.616	74.4238
679.99	53.4717
683.365	12.3203
686.74	41.9853
690.115	57.9443
693.49	26.2539
696.865	45.2578
700.239	53.9043
703.614	33.3164
706.989	65.9238
710.364	81.0986
713.739	40.4668
717.113	16.2354
720.488	43.1699
723.863	39.0039
727.238	72.125
730.613	28.8154
733.987	92.543
737.362	57.0273
740.737	54.0098
744.112	26.6846
747.487	27.9199
750.862	53.4824
754.236	31.457
757.611	11.0322
760.986	63.543
764.361	0.135742
767.736	31.3633
771.111	114.967
774.485	75.8926
777.86	94.3779
781.235	85.3994
784.61	70.3633
787.985	100.163
791.359	26.9199
794.734	29.0752
798.109	14.2656
801.484	23.7881
804.859	19.6025
808.234	66.4326
811.608	5.22852
814.983	44.583
818.358	18.9648
821.733	28.9961
825.108	8.21973
828.482	71.1992
831.857	61.8457
835.232	4.60254
838.607	60.669
841.982	65.1113
845.356	31.0615
848.731	5.69727
852.106	116.004
855.481	49.4062
858.856	20.5371
862.231	83.3916
865.605	16.082
868.98	71.0693
872.355	75.3096
875.73	95.4189
879.105	58.0605
882.48	54.6855
885.854	37.2246
889.229	54.8828
892.604	92.8936
895.979	57.7217
899.354	17.3447
902.729	47.1846
906.103	112.228
909.478	12.0352
912.853	72.3272
916.228	76.0566
919.602	43.5547
922.977	70.2529
926.352	56.9121
929.727	58.7588
933.102	0.041016
936.477	64.4424
939.851	103.194
943.226	39.8428
946.601	48.5547
949.976	23.4199
953.351	123.28
956.726	79.6455
960.1	89.6592
963.475	34.206
966.85	38.1865
970.225	69.1807
973.6	96.3428
976.974	125.663
980.349	79.0234
983.724	21.791
987.099	40.0654
990.474	76.7246
993.848	44.8291
997.223	78.0361
1000.6	36.9385
1003.97	49.5049
1007.35	98.041
1010.72	71.3301
1014.1	115.742
1017.47	62.3818
1020.85	33.1699
1024.22	40.2578
1027.6	63.5898
1030.97	45.3125
1034.35	30.2119
1037.72	130.793
1041.1	66.4102
1044.47	35.043
1047.85	58.0957
1051.22	42.0107
1054.6	17.7783
1057.97	64.5742
1061.35	61.6787
1064.72	77.6523
1068.09	72.4209
1071.47	67.2539
1074.84	2.16113
1078.22	79.5049
1081.59	115.164
1084.97	142.654
1088.34	137.684
1091.72	60.4912
1095.09	30.126
1098.47	69.1934
1101.84	28.7695
1105.22	14.2188
1108.59	101.056
1111.97	90.3115
1115.34	75.0117
1118.72	115.103
1122.09	19.5469
1125.47	110.645
1128.84	10.1104
1132.22	60.2432
1135.59	85.9688
1138.97	28.9688
1142.34	125.131
1145.71	57.7315
1149.09	137.83
1152.46	69.2656
1155.84	36.4355
1159.21	158.062
1162.59	86.6172
1165.96	55.874
1169.34	66.1523
1172.71	112.745
1176.09	23.6074
1179.46	114.047
1182.84	86.1436
1186.21	72.2852
1189.59	134.377
1192.96	18.9121
1196.34	68.9863
1199.71	35.706
1203.09	27.5352
1206.46	128.523
1209.84	14.2529
1213.21	87.415
1216.59	33.0918
1219.96	101.338
1223.34	89.4414
1226.71	15.8496
1230.09	50.5137
1233.46	118.924
1236.84	97.5361
1240.21	5.50195
1243.59	75.5801
1246.96	76.2373
1250.34	42.373
1253.71	7.14062
1257.08	39.2959
1260.46	23.1064
1263.83	7.22559
1267.21	55.8506
1270.58	80.3516
1273.96	13.2295
1277.33	65.9834
1280.71	46.9746
1284.08	1.16602
1287.46	12.1221
1290.83	1.25293
1294.21	148.958
1297.58	44.1768
