Measurement: Raman, 785 nm, unoriented, Raman Data Processed
Mineral: Antimony
Rruff sample: R070318
Ideal chemistry: Sb
Locality: Arechuybo, Chihuahua, Mexico
Source: James Shigley
Description: Bright silver metallic lamellar
Raman shift (cm-1)	intensity
138.376	0
141.268	307.358
144.161	484.55
147.054	2888.22
149.946	6378.88
152.839	5464.83
155.732	1471.43
158.625	610.708
161.517	1041.32
164.41	1015.56
167.303	808.665
170.195	372.57
173.088	323.169
175.981	132.038
178.873	99.9688
181.766	59.7554
184.659	92.7283
187.552	109.387
190.444	48.7197
193.337	91.4354
196.23	20.5194
199.122	55.25
202.015	0.952515
204.908	83.7174
207.8	111.311
210.693	115.493
213.586	128.752
216.478	200.434
219.371	215.048
222.264	255.126
225.157	230.625
228.049	220.093
230.942	238.784
233.835	227.243
236.727	249.819
239.62	270.982
242.513	298.89
245.405	294.57
248.298	321.09
251.191	345.806
254.084	434.101
256.976	414.897
259.869	429.423
262.762	394.986
265.654	424.25
268.547	415.62
271.44	429.611
274.332	361.356
277.225	326.017
280.118	292.8
283.011	223.753
285.903	168.852
288.796	150.655
291.689	85.7414
294.581	77.0577
297.474	52.8132
300.367	70.3323
303.26	44.3362
306.152	82.5675
309.045	73.3987
311.938	70.9999
314.83	42.0157
317.723	64.9316
320.616	17.8436
323.508	28.7818
326.401	20.7175
329.294	51.9724
332.187	6.47595
335.079	16.363
337.972	0.617798
340.865	24.5269
343.757	30.3173
346.65	38.5932
349.543	33.5674
352.435	7.05328
355.328	27.3185
358.221	5.41522
361.113	28.9655
364.006	23.3174
366.899	13.5422
369.792	2.01398
372.684	14.386
375.577	34.7351
378.47	19.3116
381.362	39.0993
384.255	37.7191
387.148	36.5463
390.041	34.986
392.933	35.9308
395.826	44.4634
398.719	29.3183
401.611	33.7921
404.504	43.0377
407.397	31.9293
410.289	52.5811
413.182	66.1807
416.075	26.4196
418.967	43.996
421.86	29.1477
424.753	29.9322
427.646	27.2783
430.538	0.10083
433.431	10.9672
436.324	17.0796
439.216	30.2132
442.109	21.9206
445.002	21.3747
447.894	31.4164
450.787	11.7437
453.68	19.848
456.573	34.5148
459.465	37.0734
462.358	24.4699
465.251	13.754
468.143	16.7457
471.036	19.8209
473.929	13.5286
476.822	32.3234
479.714	11.6653
482.607	13.0312
485.5	34.1875
488.392	39.3956
491.285	56.9659
494.178	14.7524
497.07	24.1581
499.963	38.1149
502.856	46.9651
505.748	19.0988
508.641	12.7031
511.534	25.9277
514.427	31.5678
517.319	21.9735
520.212	15.3845
523.105	24.4938
525.997	24.4794
528.89	16.359
531.783	22.4191
534.676	27.7697
537.568	25.504
540.461	13.1928
543.354	6.6803
546.246	28.3369
549.139	12.116
552.032	9.67346
554.924	9.60022
557.817	18.7892
560.71	16.2323
563.602	20.5213
566.495	28.3373
569.388	16.7895
572.281	15.3263
575.173	29.9727
578.066	22.3276
580.959	13.1985
583.851	39.1813
586.744	42.215
589.637	30.1167
592.529	22.1813
595.422	39.4355
598.315	5.69019
601.208	16.86
604.1	29.1637
606.993	1.71997
609.886	11.2012
612.778	27.7014
615.671	33.7173
618.564	10.2662
621.457	26.5109
624.349	30.3392
627.242	7.28803
630.135	31.9435
633.027	3.75049
635.92	21.3511
638.813	7.9577
641.705	2.2666
644.598	24.6768
647.491	1.06073
650.384	11.8269
653.276	34.5834
656.169	22.2857
659.062	30.2732
661.954	12.4026
664.847	23.2433
667.74	26.1025
670.632	32.5196
673.525	18.8645
676.418	17.2392
679.311	35.7595
682.203	15.1091
685.096	14.8715
687.989	22.9688
690.881	3.61078
693.774	11.4878
696.667	28.4122
699.559	23.3207
702.452	27.7197
705.345	29.6098
708.237	25.6584
711.13	15.4829
714.023	35.5893
716.916	22.0235
719.808	4.6825
722.701	35.6918
725.594	29.6823
728.486	6.43994
731.379	41.3794
734.272	45.2028
737.164	8.34387
740.057	22.5867
742.95	39.2473
745.843	11.2198
748.735	24.5027
751.628	22.6799
754.521	12.8016
757.413	38.1245
760.306	21.7403
763.199	15.6895
766.091	14.5124
768.984	15.3422
771.877	15.0323
774.77	25.059
777.662	30.9514
780.555	21.0944
783.448	24.1083
786.34	26.3461
789.233	37.8298
792.126	12.6476
795.019	10.829
797.911	28.746
800.804	26.3641
803.697	34.8964
806.589	19.424
809.482	32.559
812.375	33.8359
815.267	12.4499
818.16	18.2966
821.053	48.2412
823.946	22.7034
826.838	10.7815
829.731	23.7439
832.624	6.03815
835.516	36.2841
838.409	5.08136
841.302	10.5845
844.194	32.4485
847.087	14.474
849.98	8.64179
852.872	35.1061
855.765	19.1469
858.658	22.17
861.551	47.5997
864.443	20.8843
867.336	24.7614
870.229	19.0253
873.121	1.56897
876.014	10.0613
878.907	2.2713
881.799	22.823
884.692	22.3663
887.585	3.64471
890.478	55.5477
893.37	37.8968
896.263	6.67401
899.156	19.6058
902.048	36.9832
904.941	5.71606
907.834	15.1462
910.726	25.4932
913.619	4.3504
916.512	17.2706
919.405	0.446472
922.297	7.56647
925.19	27.9158
928.083	27.8029
930.975	27.4592
933.868	32.1327
936.761	20.3357
939.654	22.5929
942.546	20.5608
945.439	17.0151
948.332	20.2053
951.224	0.660034
954.117	0.348877
957.01	0.578491
959.902	11.6185
962.795	32.9785
965.688	35.6353
968.581	41.5065
971.473	28.1651
974.366	45.5345
977.259	16.9206
980.151	40.9391
983.044	15.6769
985.937	28.1117
988.829	20.081
991.722	20.2983
994.615	17.3744
997.508	39.8246
1000.4	11.0594
1003.29	30.9778
1006.19	48.4128
1009.08	34.0411
1011.97	50.9111
1014.86	16.9128
1017.76	33.1324
1020.65	29.0428
1023.54	30.8843
1026.43	25.1595
1029.33	23.9847
1032.22	18.3619
1035.11	31.9166
1038.01	5.34619
1040.9	22.6099
1043.79	41.8437
1046.68	37.1504
1049.58	16.2316
1052.47	18.9166
1055.36	37.6381
1058.25	51.1891
1061.15	23.3805
1064.04	21.155
1066.93	7.23468
1069.83	25.7092
1072.72	25.1113
1075.61	5.91718
1078.5	29.9982
1081.4	44.4346
1084.29	24.1425
1087.18	54.6835
1090.07	14.4868
1092.97	0.046082
1095.86	23.1677
1098.75	17.8058
1101.64	19.0881
1104.54	26.3096
1107.43	17.2234
1110.32	27.9547
1113.21	23.7122
1116.11	24.7413
1119	26.4769
1121.89	24.3304
1124.79	36.8952
1127.68	27.1562
1130.57	22.3864
1133.46	21.4041
1136.36	32.7811
1139.25	2.28149
1142.14	2.92792
1145.04	12.3622
1147.93	21.7447
1150.82	40.1333
1153.71	0.080994
1156.61	33.2003
1159.5	27.853
1162.39	32.4616
1165.28	22.5008
1168.18	25.6324
1171.07	13.4475
1173.96	17.9797
1176.86	6.77344
1179.75	11.6678
1182.64	16.6568
1185.53	13.2045
1188.43	18.6401
1191.32	22.5633
1194.21	42.0314
1197.1	32.8791
1200	19.5393
1202.89	2.59772
1205.78	37.8074
1208.67	18.1546
1211.57	20.8979
1214.46	19.0364
1217.35	4.16229
1220.24	23.1603
1223.14	42.6345
1226.03	38.6196
1228.92	23.6303
1231.82	30.6553
