Measurement: Raman, 514 nm, unoriented, Raman Data Processed
Mineral: Antlerite
Rruff sample: R050212
Ideal chemistry: Cu^2+^_3_SO_4_(OH)_4_
Locality: Chuquicamata mine, Calama, Antofagasta Province, Chile
Source: John Dagenais
Description: Deep green tabular crystals
Measured chemistry: Cu_3.00_S_1.00_O_4_(OH)_4_
Raman shift (cm-1)	intensity
73.842	0
78.031	520.812
82.218	747.799
86.404	429.893
90.587	2358.04
94.768	8303.46
98.947	4822.89
103.124	1143.64
107.3	856.505
111.473	278.499
115.644	426.387
119.813	961.489
123.981	1519.56
128.146	559.102
132.309	229.437
136.47	493.164
140.63	996.58
144.787	1972.86
148.942	1942.29
153.096	782.76
157.247	355.955
161.396	230.78
165.544	340.609
169.689	392.888
173.833	252.079
177.974	117.259
182.114	156.465
186.251	115.36
190.387	139.777
194.52	224.781
198.652	326.562
202.782	512.859
206.909	876.889
211.035	1140.59
215.159	876.902
219.281	597.905
223.4	609.137
227.518	1297.1
231.634	915.363
235.748	343.349
239.86	201.483
243.97	80.342
248.079	47.476
252.185	85.836
256.289	89.447
260.391	183.775
264.492	284.43
268.59	186.169
272.687	7.194
276.781	70.845
280.874	141.99
284.964	55.756
289.053	62.109
293.14	198.923
297.225	253.316
301.308	79.02
305.389	9.033
309.468	81.921
313.545	70.759
317.62	33.51
321.693	158.887
325.765	540.497
329.834	1110.33
333.902	898.367
337.967	823.614
342.031	934.737
346.093	687.633
350.153	312.663
354.21	112.846
358.267	74.837
362.321	46.755
366.373	68.84
370.423	49.14
374.471	121.661
378.518	190.153
382.563	341.574
386.605	455.249
390.646	706.848
394.685	1092.73
398.722	1876.27
402.757	3296.3
406.79	6638.23
410.821	16219.4
414.851	32632.8
418.878	26381.4
422.904	12773.6
426.927	7667.27
430.949	6509.07
434.969	7801.77
438.987	10823.5
443.003	12043.3
447.018	8999.32
451.03	5612.41
455.041	4167.54
459.049	4058.69
463.056	5407.89
467.061	6728.38
471.064	5658.19
475.065	3495.76
479.064	2786.42
483.062	2587.63
487.057	2287
491.051	1548.41
495.043	1613.85
499.032	2216.33
503.02	2528.83
507.007	1654.35
510.991	956.906
514.973	655.671
518.954	477.746
522.933	363.303
526.91	234.426
530.885	207.801
534.858	157.212
538.829	114.725
542.799	4.302
546.766	50.894
550.732	44.384
554.696	46.986
558.658	20.963
562.618	49.584
566.576	10.079
570.533	21.9
574.488	59.617
578.44	91.21
582.391	194.74
586.341	346.274
590.288	929.816
594.233	2661.37
598.177	7181.01
602.119	6584.85
606.059	4883.86
609.997	3281.98
613.933	1583.13
617.868	904.313
621.801	785.517
625.731	1294.8
629.66	1490.23
633.588	752.902
637.513	329.715
641.437	334.604
645.358	459.535
649.278	635.852
653.196	718.452
657.113	547.568
661.027	312.821
664.94	228
668.851	101.239
672.76	17.537
676.667	4.884
680.572	19.716
684.476	74.292
688.378	7.05
692.278	27.607
696.176	57.165
700.072	53.972
703.967	5.016
707.86	59.709
711.751	47.883
715.64	140.191
719.527	205.663
723.413	326.649
727.297	569.379
731.179	897.65
735.059	1151.43
738.937	1880.67
742.814	2770.35
746.689	3714.23
750.562	3620.3
754.433	2677.58
758.303	1909.06
762.17	1179.75
766.036	842.643
769.901	714.75
773.763	690.075
777.624	584.621
781.482	578.391
785.339	598.665
789.195	474.615
793.048	296.072
796.9	285.763
800.75	66.691
804.598	66.841
808.445	19.208
812.289	106.816
816.132	64.675
819.973	59.787
823.813	145.158
827.65	251.337
831.486	402.622
835.32	602.8
839.152	793.426
842.983	837.86
846.812	663.281
850.639	441.288
854.464	211.214
858.288	98.831
862.11	122.588
865.93	47.562
869.748	279.405
873.564	184.746
877.379	57.57
881.192	130.89
885.004	85.711
888.813	182.963
892.621	187.568
896.427	215.497
900.232	247.749
904.034	269.319
907.835	181.208
911.634	209.419
915.432	184.95
919.227	192.798
923.021	128.961
926.813	133.441
930.604	172.236
934.393	156.345
938.18	273.787
941.965	230.551
945.749	263.626
949.53	353.012
953.311	374.707
957.089	530.369
960.866	658.104
964.641	836.679
968.414	1280.47
972.185	1641.7
975.955	2744.23
979.723	5224.05
983.49	14517.2
987.254	47688.7
991.017	32768.5
994.779	9258.26
998.538	3343.23
1002.3	1603.55
1006.05	1023.28
1009.81	699.115
1013.56	549.162
1017.31	399.708
1021.06	305.324
1024.81	207.938
1028.55	117.704
1032.3	79.271
1036.04	79.869
1039.78	86.522
1043.52	114.896
1047.26	85.755
1050.99	182.167
1054.73	197.381
1058.46	284.784
1062.19	466.913
1065.92	751.668
1069.65	1498.59
1073.37	4263.68
1077.1	6361.93
1080.82	4016.34
1084.54	1657.9
1088.26	799.854
1091.97	448.71
1095.69	303.699
1099.4	159.82
1103.12	91.271
1106.83	80.664
1110.54	136.389
1114.24	39.03
1117.95	17.787
1121.65	118.651
1125.35	56.618
1129.06	58.683
1132.75	234.215
1136.45	205.461
1140.15	2.013
1143.84	0.376
1147.53	26.135
1151.22	16.212
1154.91	97.146
1158.6	39.103
1162.28	17.709
1165.97	27.685
1169.65	13.728
1173.33	23.585
1177.01	59.267
1180.69	43.75
1184.36	31.381
1188.04	20.345
1191.71	43.887
1195.38	16.446
1199.05	110.089
1202.71	179.851
1206.38	16.902
1210.04	69.502
1213.71	100.112
1217.37	133.733
1221.03	99.36
1224.68	108.99
1228.34	61.622
1231.99	8.749
1235.65	101.85
1239.3	92.408
1242.95	78.744
1246.59	55.748
1250.24	67
1253.88	86.492
1257.53	95.96
1261.17	147.126
1264.81	85.957
1268.45	126.329
1272.08	103.7
1275.72	79.005
1279.35	100.271
1282.98	56.476
1286.61	94.412
1290.24	67.989
1293.87	130.219
1297.49	45.469
1301.11	104.1
1304.73	35.107
1308.36	83.159
1311.97	26.991
1315.59	31.719
1319.2	31.675
1322.82	40.611
1326.43	23.527
1330.04	8.501
1333.65	69.002
1337.26	48.321
1340.86	100.803
1344.47	25.679
1348.07	5.974
1351.67	60.266
1355.27	61.112
1358.87	46.217
1362.46	93.142
1366.06	58.988
1369.65	39.935
1373.24	96.721
1376.83	24.224
1380.42	76.878
1384	87.541
1387.59	76.91
1391.17	55.172
1394.75	69.544
1398.33	48.812
1401.91	73.533
1405.49	29.334
1409.06	93.244
1412.64	15.993
1416.21	30.004
1419.78	65.551
1423.35	68.15
1426.91	70.089
1430.48	42.331
1434.05	64.388
1437.61	123.656
1441.17	66.845
1444.73	67
1448.29	17.873
1451.84	52.249
1455.4	97.475
1458.95	79.743
1462.5	118.071
1466.05	17.134
1469.6	27.636
1473.15	31.818
1476.69	55.561
1480.24	67.864
1483.78	66.34
1487.32	33.355
1490.86	24.698
1494.39	24.206
1497.93	26.728
1501.46	59.455
1505	16.416
1508.53	49.478
1512.06	28.584
1515.59	11.209
1519.11	0.163
