Measurement: Raman, 532 nm, unoriented, Raman Data Processed
Mineral: Antlerite
Rruff sample: R050212
Ideal chemistry: Cu^2+^_3_SO_4_(OH)_4_
Locality: Chuquicamata mine, Calama, Antofagasta Province, Chile
Source: John Dagenais
Description: Deep green tabular crystals
Measured chemistry: Cu_3.00_S_1.00_O_4_(OH)_4_
Raman shift (cm-1)	intensity
136.793	0
140.168	8.31775
143.543	62.4936
146.918	106.722
150.292	188.628
153.667	53.3983
157.042	5.28755
160.417	11.7752
163.792	43.0059
167.167	58.9113
170.541	111.336
173.916	168.745
177.291	66.6878
180.666	0.793304
184.041	5.96946
187.415	4.1465
190.79	4.96993
194.165	22.146
197.54	44.1596
200.915	72.0607
204.29	105.748
207.664	149.669
211.039	209.472
214.414	260.989
217.789	277.563
221.163	234.007
224.538	188.973
227.913	200.394
231.288	252.394
234.663	196.79
238.038	208.581
241.412	247.143
244.787	318.276
248.162	473.843
251.537	428.784
254.912	196.579
258.286	163.905
261.661	209.131
265.036	356.337
268.411	442.198
271.786	147.204
275.161	43.8877
278.535	17.4154
281.91	9.24587
285.285	7.11765
288.66	13.2437
292.035	21.8736
295.409	30.6143
298.784	25.5802
302.159	6.39259
305.534	3.98898
308.909	0.258148
312.284	5.47234
315.658	20.3628
319.033	38.946
322.408	60.5722
325.783	93.8561
329.158	137.766
332.533	170.898
335.907	193.42
339.282	224.41
342.657	221.691
346.032	156.806
349.407	94.4678
352.781	54.495
356.156	32.8572
359.531	18.1704
362.906	4.759
366.281	4.93398
369.656	9.76965
373.03	8.80237
376.405	10.1607
379.78	5.63126
383.155	2.45075
386.529	6.57247
389.904	24.7014
393.279	57.8317
396.654	132.639
400.029	270.899
403.404	431.729
406.778	669.871
410.153	1045.93
413.528	1671.66
416.903	2135.66
420.278	1451.66
423.652	711.603
427.027	422.326
430.402	322.068
433.777	306.177
437.152	342.289
440.527	390.347
443.901	383.192
447.276	292.427
450.651	205.019
454.026	174.384
457.401	179.759
460.776	239.465
464.15	352.902
467.525	492.404
470.9	556.737
474.275	546.512
477.65	539.247
481.024	552.265
484.399	527.006
487.774	467.188
491.149	371.852
494.524	324.864
497.899	375.387
501.273	456.052
504.648	421.736
508.023	272.104
511.398	148.818
514.773	93.677
518.147	64.2369
521.522	38.1945
524.897	19.6513
528.272	8.12928
531.647	1.97353
535.021	2.67461
538.396	5.80051
541.771	7.71026
545.146	7.74367
548.521	6.31096
551.895	4.19774
555.27	0.573681
558.645	1.9309
562.02	5.50217
565.395	9.69607
568.77	14.5664
572.144	16.7909
575.519	28.0028
578.894	38.9554
582.269	63.6023
585.644	97.9428
589.019	139.587
592.393	209.414
595.768	318.899
599.143	427.731
602.518	370.755
605.893	254.964
609.267	210.352
612.642	139.483
616.017	89.9525
619.392	71.6912
622.767	76.7411
626.141	94.4688
629.516	113.365
632.891	82.4376
636.266	57.788
639.641	59.4966
643.016	68.4333
646.39	80.9437
649.765	93.3566
653.14	89.7543
656.515	68.5711
659.89	48.2421
663.264	36.6812
666.639	32.3519
670.014	25.8014
673.389	17.6148
676.764	8.34442
680.139	3.07762
683.513	1.16406
686.888	2.36371
690.263	0.537426
693.638	0.888678
697.013	1.32796
700.388	0.668121
703.762	0.006542
707.137	0.669531
710.512	1.60741
713.887	2.28001
717.261	3.23957
720.636	4.66996
724.011	5.38571
727.386	9.05148
730.761	9.22206
734.136	10.951
737.51	16.9995
740.885	20.4971
744.26	24.3995
747.635	28.1264
751.01	28.1828
754.385	27.3086
757.759	25.9087
761.134	26.5399
764.509	31.7399
767.884	32.5223
771.259	33.6102
774.633	33.0181
778.008	35.3802
781.383	40.5559
784.758	44.2781
788.133	35.0495
791.507	21.1107
794.882	11.3534
798.257	4.83566
801.632	3.02077
805.007	0.904963
808.381	0.373259
811.756	0.643425
815.131	1.74782
818.506	0.875128
821.881	1.00854
825.256	0.529903
828.63	1.41473
832.005	4.25747
835.38	6.50787
838.755	14.3392
842.13	19.8574
845.505	30.2999
848.879	46.0406
852.254	63.4157
855.629	87.2573
859.004	108.701
862.379	105.695
865.753	80.2459
869.128	57.3976
872.503	42.7783
875.878	34.7418
879.253	30.7632
882.628	30.9659
886.002	35.1587
889.377	36.4941
892.752	38.6726
896.127	34.1904
899.502	31.1
902.876	25.2431
906.251	19.0587
909.626	12.2322
913.001	8.36485
916.376	6.03919
919.75	3.06313
923.125	1.0335
926.5	0.807121
929.875	0.199577
933.25	1.37619
936.625	0.563202
939.999	0.156448
943.374	0.053776
946.749	2.46866
950.124	5.08998
953.499	10.8072
956.874	16.4916
960.248	25.9838
963.623	43.2096
966.998	73.5447
970.373	129.084
973.747	246.134
977.122	540.173
980.497	882.318
983.872	1498.51
987.247	2872.09
990.622	3304.63
993.996	1082.54
997.371	360.009
1000.75	167.631
1004.12	93.6876
1007.5	58.3325
1010.87	34.9162
1014.25	25.1703
1017.62	18.5954
1021	17.9153
1024.37	21.6352
1027.74	18.0218
1031.12	6.70466
1034.49	0.690796
1037.87	1.25578
1041.24	1.95822
1044.62	1.09891
1047.99	0.396778
1051.37	3.98693
1054.74	12.3803
1058.12	27.535
1061.49	58.5979
1064.87	133.069
1068.24	232.311
1071.62	393.558
1074.99	699.414
1078.37	570.953
1081.74	286.816
1085.12	248.741
1088.49	205.682
1091.87	87.6102
1095.24	40.1189
1098.62	16.5887
1101.99	7.93201
1105.37	2.91229
1108.74	0.169741
1112.12	2.10582
1115.49	1.19501
1118.87	2.55999
1122.24	15.4692
1125.61	35.1276
1128.99	77.7678
1132.36	156.937
1135.74	156.361
1139.11	70.9652
1142.49	23.7895
1145.86	8.41336
1149.24	4.93684
1152.61	4.17195
1155.99	12.8347
1159.36	39.1762
1162.74	92.7309
1166.11	163.663
1169.49	347.255
1172.86	576.54
1176.24	177.796
1179.61	47.5711
1182.99	19.3386
1186.36	11.7571
1189.74	7.27383
1193.11	6.45627
1196.48	5.18671
1199.86	4.8253
1203.23	5.60528
1206.61	4.14244
1209.98	3.25984
1213.36	1.36982
1216.73	0.274279
1220.11	1.70815
1223.48	0.803448
1226.86	0.559729
1230.23	0.08103
1233.61	0.756495
1236.98	0.119694
1240.36	0.523705
1243.73	0.406112
1247.11	1.69902
1250.48	0.332809
1253.86	2.92172
1257.23	4.05628
1260.61	5.30171
1263.98	4.9394
1267.36	6.77435
1270.73	5.6876
1274.11	4.98107
1277.48	4.26904
1280.86	3.38944
1284.23	1.0389
1287.61	0.875916
1290.98	0.907991
1294.36	0.471072
