Measurement: Raman, 532 nm, unoriented, Raman Data Processed
Mineral: Antlerite
Rruff sample: R110045
Ideal chemistry: Cu^2+^_3_SO_4_(OH)_4_
Locality: Childs Aldwinkle mine, Bunker Hill District, Copper Creek, Pinal County, Arizona, USA
Source: Bob Downs, collected March 2011
Description: Green granular aggregate
Raman shift (cm-1)	intensity
175.345	0
178.237	11.5602
181.13	13.2924
184.023	2.58344
186.916	36.2263
189.808	30.8236
192.701	39.6675
195.594	28.0183
198.486	87.7301
201.379	124.536
204.272	169.314
207.164	228.72
210.057	285.538
212.95	309.538
215.843	248.399
218.735	214.423
221.628	179.921
224.521	234.953
227.413	315.525
230.306	374.346
233.199	171.424
236.091	107.022
238.984	95.0853
241.877	63.7626
244.769	69.992
247.662	76.2324
250.555	111.826
253.448	83.4463
256.34	149.647
259.233	178.03
262.126	266.721
265.018	269.362
267.911	232.048
270.804	71.5929
273.697	3.11774
276.589	12.6992
279.482	6.39593
282.375	31.972
285.267	70.3798
288.16	98.3484
291.053	145.552
293.945	261.306
296.838	306.981
299.731	207.468
302.623	101.375
305.516	48.2305
308.409	34.8012
311.302	17.8306
314.194	37.1278
317.087	62.2664
319.98	101.791
322.872	154.001
325.765	238.143
328.658	333.279
331.55	338.451
334.443	268.829
337.336	232.245
340.229	216.493
343.121	187.943
346.014	164.344
348.907	102.584
351.799	42.7528
354.692	23.5423
357.585	5.46399
360.478	27.8182
363.37	9.72046
366.263	33.4337
369.156	10.8382
372.048	13.9571
374.941	23.4921
377.834	6.10944
380.726	17.7985
383.619	24.1598
386.512	68.0759
389.404	86.0205
392.297	149.915
395.19	261.481
398.083	504.124
400.975	860.811
403.868	1472.69
406.761	2260.52
409.653	3526.07
412.546	5427.95
415.439	7233.78
418.332	6335.16
421.224	3626.68
424.117	2149.01
427.01	1567.44
429.902	1425.03
432.795	1502.66
435.688	1788.17
438.58	2145.61
441.473	2376.6
444.366	2197.05
447.259	1629.46
450.151	1113.5
453.044	850.423
455.937	740.381
458.829	763.8
461.722	900.125
464.615	1111.71
467.507	1265.52
470.4	1128.24
473.293	824.57
476.185	594.61
479.078	528.106
481.971	537.06
484.864	514.45
487.756	423.822
490.649	321.329
493.542	265.185
496.434	292.065
499.327	360.804
502.22	392.075
505.113	330.965
508.005	188.565
510.898	128.476
513.791	97.1571
516.683	19.7701
519.576	14.9465
522.469	10.9299
525.361	13.1249
528.254	10.2017
531.147	21.6673
534.04	39.7588
536.932	22.5411
539.825	0.250366
542.718	10.9564
545.61	11.6069
548.503	25.8678
551.396	17.5494
554.288	11.9227
557.181	3.77301
560.074	5.35284
562.967	7.21808
565.859	30.9923
568.752	49.8497
571.645	48.448
574.537	43.132
577.43	53.3889
580.323	103.717
583.216	146.531
586.108	221.638
589.001	372.313
591.894	589.782
594.786	971.364
597.679	1516.38
600.572	1863.98
603.464	1339.46
606.357	1033.12
609.25	826.296
612.142	535.273
615.035	368.131
617.928	295.487
620.821	339.432
623.713	421.141
626.606	612.718
629.499	721.221
632.391	411.574
635.284	222.757
638.177	154.964
641.069	135.979
643.962	118.343
646.855	175.207
649.747	197.976
652.64	207.034
655.533	162.369
658.426	103.407
661.318	97.1976
664.211	61.2086
667.104	55.9817
669.996	35.6888
672.889	24.3155
675.782	11.4779
678.674	17.8065
681.567	3.6286
684.46	10.6396
687.353	17.532
690.245	7.84552
693.138	4.07727
696.031	5.98144
698.923	16.4038
701.816	14.8389
704.709	0.07373
707.601	23.7862
710.494	22.5806
713.387	52.7501
716.28	27.7922
719.172	71.831
722.065	80.7267
724.958	116.556
727.85	156.714
730.743	210.629
733.636	281.098
736.529	361.714
739.421	464.684
742.314	582.104
745.207	685.407
748.099	750.928
750.992	663.621
753.885	561.512
756.777	461.107
759.67	343.753
762.563	277.129
765.456	240.07
768.348	216.939
771.241	209.349
774.134	188.564
777.026	176.344
779.919	191.569
782.812	196.597
785.704	223.545
788.597	183.056
791.49	104.245
794.383	55.9612
797.275	37.9708
800.168	9.50903
803.061	4.92761
805.953	11.2441
808.846	3.37488
811.739	10.3765
814.631	6.06934
817.524	6.10925
820.417	3.80237
823.309	22.1025
826.202	42.3119
829.095	36.6599
831.988	80.7548
834.88	80.8258
837.773	142.36
840.666	148.732
843.558	141.713
846.451	128.242
849.344	82.6771
852.236	50.4906
855.129	22.2662
858.022	17.6556
860.915	18.1649
863.807	38.1728
866.7	34.7881
869.593	42.3756
872.485	39.3668
875.378	22.3332
878.271	17.8099
881.163	12.9113
884.056	7.86316
886.949	15.6901
889.842	28.494
892.734	35.8469
895.627	41.0625
898.52	25.7753
901.412	44.6777
904.305	40.0658
907.198	15.077
910.091	37.4804
912.983	16.3534
915.876	44.7964
918.769	6.76025
921.661	0.512939
924.554	17.4548
927.447	12.2711
930.339	5.86743
933.232	0.033447
936.125	13.0725
939.018	9.65344
941.91	24.7651
944.803	36.962
947.696	31.6382
950.588	52.4685
953.481	59.3575
956.374	60.4973
959.266	99.2029
962.159	124.394
965.052	194.622
967.944	286.619
970.837	376.797
973.73	592.409
976.623	1057.72
979.515	2034.55
982.408	3574.75
985.301	6452.6
988.193	10536.8
991.086	6889.4
993.979	2223.53
996.871	918.895
999.764	460.869
1002.66	287.294
1005.55	173.865
1008.44	113.816
1011.34	52.3
1014.23	70.1487
1017.12	28.0967
1020.01	11.4677
1022.91	12.6773
1025.8	3.50659
1028.69	13.5886
1031.58	2.1134
1034.48	4.33923
1037.37	5.01831
1040.26	1.08044
1043.15	6.49841
1046.05	6.5575
1048.94	16.9569
1051.83	27.4551
1054.73	36.5271
1057.62	47.7498
1060.51	100.887
1063.4	180.298
1066.3	288.991
1069.19	482.962
1072.08	826.014
1074.97	1331.88
1077.87	1415.82
1080.76	964.046
1083.65	433.152
1086.55	245.986
1089.44	149.612
1092.33	89.9556
1095.22	70.5981
1098.12	48.6986
1101.01	17.0537
1103.9	9.01782
1106.79	17.7537
1109.69	5.60632
1112.58	17.7523
1115.47	13.6862
1118.37	15.244
1121.26	30.2476
1124.15	28.365
1127.04	39.9739
1129.94	81.9481
1132.83	105.628
1135.72	90.6182
1138.61	59.1484
1141.51	21.0731
1144.4	29.241
1147.29	16.8656
1150.18	1.86035
1153.08	13.1127
1155.97	3.91333
1158.86	3.80042
1161.76	0.168823
1164.65	14.749
1167.54	38.7053
1170.43	32.8597
1173.33	34.3586
1176.22	15.8562
1179.11	4.65967
1182	3.05542
1184.9	19.1558
1187.79	16.312
1190.68	29.1002
1193.58	0.508179
1196.47	17.868
1199.36	26.136
1202.25	23.906
1205.15	34.3198
1208.04	36.2189
1210.93	16.9844
1213.82	49.53
1216.72	17.2317
1219.61	39.9382
1222.5	24.292
1225.39	28.0454
1228.29	18.0465
1231.18	37.5857
1234.07	20.8195
1236.97	23.3899
1239.86	25.0998
1242.75	16.402
1245.64	33.0393
1248.54	14.8486
1251.43	25.7811
1254.32	22.0678
1257.21	24.1049
1260.11	25.6547
1263	19.151
1265.89	27.7181
1268.79	20.2006
1271.68	23.8543
1274.57	40.3429
1277.46	29.9477
1280.36	30.5966
1283.25	33.9984
1286.14	23.5483
1289.03	29.3367
1291.93	26.7053
1294.82	28.9993
1297.71	15.2046
1300.61	4.72583
