Measurement: Raman, 532 nm, unoriented, Raman Data Processed
Mineral: Aphthitalite
Rruff sample: R050651
Ideal chemistry: K_3_Na(SO_4_)_2_
Locality: Searles Lake, Trona, San Bernardino County, California, USA
Source: University of Arizona Mineral Museum
Description: Colorless hexagonal crystals displaying P-3m1 space group symmetry, associated with halite.
Raman shift (cm-1)	intensity
149.564	0
152.457	84.927
155.35	102.379
158.242	96.686
161.135	103.646
164.028	75.1511
166.92	47.3
169.813	36.3733
172.706	23.7698
175.598	31.1455
178.491	13.8652
181.384	8.78857
184.277	4.52539
187.169	16.5474
190.062	8.02954
192.955	4.20776
195.847	0.814209
198.74	9.88525
201.633	9.15454
204.525	13.7329
207.418	4.25269
210.311	11.6628
213.204	12.7239
216.096	21.8206
218.989	12.7327
221.882	14.5776
224.774	21.594
227.667	19.1875
230.56	17.9475
233.452	26.3496
236.345	26.7439
239.238	24.8142
242.131	25.5727
245.023	22.4966
247.916	1.71191
250.809	6.22168
253.701	19.9949
256.594	10.199
259.487	6.72974
262.38	9.4707
265.272	13.3218
268.165	23.7117
271.058	0.159668
273.95	7.61914
276.843	8.88818
279.736	10.2659
282.628	1.10742
285.521	11.8052
288.414	12.2251
291.307	6.99048
294.199	8.01221
297.092	11.5686
299.985	10.7034
302.877	9.68701
305.77	0.475586
308.663	21.7324
311.555	9.21118
314.448	27.9939
317.341	32.3464
320.234	9.54126
323.126	15.6008
326.019	19.6582
328.912	16.8257
331.804	30.4531
334.697	28.1006
337.59	29.2217
340.483	20.9678
343.375	13.04
346.268	26.428
349.161	25.4807
352.053	23.0549
354.946	14.0928
357.839	1.06689
360.731	1.97681
363.624	8.83203
366.517	2.57617
369.41	7.49683
372.302	14.6816
375.195	3.46435
378.088	9.05469
380.98	9.90234
383.873	2.32837
386.766	0.769287
389.659	7.22607
392.551	11.9148
395.444	16.3704
398.337	3.31348
401.229	8.73633
404.122	9.90015
407.015	5.41455
409.907	12.4731
412.8	4.11231
415.693	0.063477
418.586	8.41162
421.478	7.23877
424.371	18.647
427.264	0.661865
430.156	13.7058
433.049	7.56494
435.942	45.1585
438.834	87.4504
441.727	101.11
444.62	127.306
447.513	197.06
450.405	297.38
453.298	321.238
456.191	94.7334
459.083	51.7393
461.976	21.0625
464.869	12.7163
467.762	5.45386
470.654	10.9512
473.547	3.36621
476.44	9.51733
479.332	10.6865
482.225	13.4043
485.118	3.1438
488.01	3.48413
490.903	4.87891
493.796	7.37939
496.688	1.34204
499.581	9.10815
502.474	17.5959
505.367	19.575
508.259	3.2749
511.152	9.77295
514.045	6.75415
516.938	6.87256
519.83	2.38769
522.723	9.625
525.616	6.66309
528.508	0.785889
531.401	6.94189
534.294	9.44971
537.186	3.30225
540.079	14.4307
542.972	3.25122
545.865	16.0056
548.757	15.0217
551.65	9.21899
554.543	11.3103
557.435	12.3184
560.328	12.7407
563.221	8.5791
566.114	5.82739
569.006	10.5095
571.899	11.2766
574.792	8.88599
577.684	24.1514
580.577	24.7058
583.47	12.4087
586.362	22.4758
589.255	15.7075
592.148	6.44873
595.04	14.9751
597.933	21.7173
600.826	21.7664
603.719	52.6057
606.611	105.591
609.504	137.922
612.397	181.098
615.289	244.476
618.182	341.926
621.075	421.602
623.967	193.274
626.86	126.488
629.753	171.894
632.646	26.4885
635.538	26.8953
638.431	17.239
641.324	7.21411
644.216	3.12647
647.109	9.57812
650.002	8.97778
652.894	18.5405
655.787	17.6919
658.68	12.144
661.573	18
664.465	20.9294
667.358	6.32715
670.251	17.2004
673.144	14.1914
676.036	15.9546
678.929	14.1631
681.822	10.0171
684.714	14.9665
687.607	11.571
690.5	17.5557
693.392	6.12646
696.285	17.8494
699.178	19.3662
702.071	17.9033
704.963	13.9724
707.856	2.59131
710.749	13.4065
713.641	9.17432
716.534	23.5591
719.427	4.66089
722.319	17.1992
725.212	4.61084
728.105	5.93628
730.998	19.8596
733.89	15.0596
736.783	8.62231
739.676	22.1628
742.568	23.8826
745.461	16.1562
748.354	2.15674
751.246	0.020752
754.139	0.106689
757.032	2.87476
759.925	15.0171
762.817	6.83203
765.71	9.75195
768.603	10.5015
771.495	2.95142
774.388	0.30542
777.281	4.69873
780.173	0.182861
783.066	0.694336
785.959	19.2036
788.852	10.1233
791.744	4.08667
794.637	18.6597
797.53	6.08716
800.422	12.2268
803.315	15.3237
806.208	30.0415
809.101	28.6267
811.993	36.4487
814.886	28.4485
817.779	33.1045
820.671	31.9534
823.564	33.1379
826.457	40.6277
829.35	61.1648
832.242	41.7002
835.135	33.4695
838.028	28.105
840.92	31.0046
843.813	26.9605
846.706	28.8413
849.598	19.9133
852.491	22.0713
855.384	17.3835
858.277	9.64648
861.169	10.1733
864.062	4.70044
866.955	7.03418
869.847	10.0535
872.74	2.72827
875.633	5.05884
878.525	2.30298
881.418	3.97925
884.311	10.04
887.204	1.54248
890.096	11.0457
892.989	1.90625
895.882	13.031
898.774	22.7485
901.667	27.0608
904.56	20.5615
907.452	19.0117
910.345	14.6663
913.238	21.1394
916.131	34.9665
919.023	30.4334
921.916	12.8638
924.809	11.7969
927.701	11.96
930.594	1.35156
933.487	1.1438
936.38	18.6597
939.272	21.8569
942.165	13.4883
945.058	13.4348
947.95	0.219971
950.843	10.3618
953.736	7.68457
956.629	13.9607
959.521	13.9683
962.414	17.7461
965.307	33.5566
968.199	53.4309
971.092	62.655
973.985	94.7454
976.877	181.763
979.77	447.324
982.663	796.794
985.556	1123.49
988.448	1704.51
991.341	2654.45
994.234	2065.62
997.126	554.853
1000.02	223.32
1002.91	109.196
1005.8	76.8889
1008.7	37.0081
1011.59	35.1855
1014.48	25.1509
1017.38	15.9692
1020.27	19.7395
1023.16	12.8882
1026.05	8.26123
1028.95	15.3479
1031.84	3.5791
1034.73	17.5676
1037.62	1.91162
1040.52	9.30127
1043.41	7.74561
1046.3	9.53784
1049.19	11.2466
1052.09	0.095703
1054.98	4.49927
1057.87	0.835693
1060.77	8.82861
1063.66	20.9341
1066.55	18.012
1069.44	58.6621
1072.34	86.3052
1075.23	102.161
1078.12	132.638
1081.02	159.885
1083.91	138.667
1086.8	82.0281
1089.69	49.5994
1092.59	27.2541
1095.48	21.5371
1098.37	17.1995
1101.26	21.5701
1104.16	20.0662
1107.05	21.1018
1109.94	38.5381
1112.83	45.0415
1115.73	32.0996
1118.62	14.9143
1121.51	20.719
1124.4	3.6355
1127.3	7.38501
1130.19	18.5806
1133.08	13.8408
1135.98	5.88769
1138.87	8.67993
1141.76	10.0115
1144.65	8.57764
1147.55	29.3447
1150.44	15.3709
1153.33	11.3318
1156.22	2.04981
1159.12	1.25561
1162.01	0.910645
1164.9	15.7095
1167.8	9.65869
1170.69	10.3745
1173.58	15.8291
1176.47	16.6201
1179.37	10.1367
1182.26	13.4053
1185.15	24.5117
1188.05	22.71
1190.94	26.9712
1193.83	26.0347
1196.72	34.5083
1199.62	36.688
1202.51	54.8379
1205.4	46.5732
1208.29	13.3096
1211.19	9.22559
1214.08	36.1738
1216.97	19.042
1219.87	40.0855
1222.76	22.1123
1225.65	28.2051
1228.54	16.7583
1231.43	32.5464
1234.33	18.3672
1237.22	27.0064
1240.11	16.2861
1243.01	10.3848
1245.9	11.0435
1248.79	9.67773
1251.68	15.2988
1254.58	13.8325
1257.47	10.3291
1260.36	0.654785
1263.26	2.01123
1266.15	1.60693
1269.04	28.6221
1271.93	13.2358
1274.83	31.8726
1277.72	17.7031
1280.61	8.11768
1283.5	7.39697
1286.4	7.97852
1289.29	22.0005
1292.18	15.187
1295.08	9.9873
1297.97	9.54834
1300.86	0.197266
