Measurement: Raman, 532 nm, unoriented, Raman Data Processed
Mineral: Apjohnite
Rruff sample: R060231
Ideal chemistry: Mn^2+^Al_2_(SO_4_)_4_22H_2_O
Locality: Val d'Adige, Bolzano, Italy
Source: Michael Scott
Description: Colorless acicular crystals
Raman shift (cm-1)	intensity
158.61	0
161.503	0.95072
164.396	0.075671
167.288	1.09688
170.181	2.8311
173.074	5.8297
175.966	9.35847
178.859	7.23217
181.752	6.02051
184.644	5.07481
187.537	7.46666
190.43	8.65322
193.323	6.89288
196.215	10.6588
199.108	7.58761
202.001	11.7253
204.893	13.2558
207.786	17.5212
210.679	19.6346
213.571	24.6379
216.464	23.6696
219.357	24.7188
222.25	22.1625
225.142	22.6194
228.035	19.9863
230.928	17.7715
233.82	13.51
236.713	10.7932
239.606	7.63589
242.499	6.50377
245.391	6.58166
248.284	5.42676
251.177	1.12125
254.069	2.72995
256.962	2.21954
259.855	0.08793
262.747	0.370014
265.64	0.73695
268.533	0.50439
271.425	1.32301
274.318	0.132419
277.211	0.94898
280.104	0.815074
282.996	3.0479
285.889	3.93335
288.782	8.31252
291.674	13.8246
294.567	15.7576
297.46	21.1928
300.353	23.9578
303.245	25.2959
306.138	32.3204
309.031	33.4662
311.923	34.752
314.816	40.6677
317.709	35.1108
320.601	32.0846
323.494	25.2783
326.387	23.3939
329.279	23.1525
332.172	21.926
335.065	20.6987
337.958	18.0969
340.85	14.6324
343.743	13.7272
346.636	12.5237
349.528	11.6041
352.421	10.4116
355.314	9.50499
358.207	4.97503
361.099	4.37752
363.992	3.30243
366.885	0.421741
369.777	0.836888
372.67	0.194674
375.563	0.027492
378.455	0.710244
381.348	0.855277
384.241	0.244598
387.134	0.554575
390.026	0.601838
392.919	2.75001
395.812	3.84333
398.704	5.91242
401.597	6.69288
404.49	9.81271
407.382	14.4591
410.275	20.3363
413.168	28.8333
416.06	38.2655
418.953	51.1802
421.846	59.4591
424.739	65.103
427.631	62.5123
430.524	58.0706
433.417	52.5063
436.309	49.8514
439.202	49.3324
442.095	51.0302
444.987	54.7395
447.88	58.1208
450.773	68.6496
453.666	75.5057
456.558	81.2782
459.451	88.7344
462.344	93.6075
465.236	96.1082
468.129	91.591
471.022	87.9522
473.914	82.7927
476.807	76.209
479.7	62.2139
482.592	47.778
485.485	37.9975
488.378	24.2802
491.271	16.2835
494.163	10.2422
497.056	3.9112
499.949	2.43828
502.841	0.093756
505.734	1.49246
508.627	0.181706
511.519	3.04669
514.412	0.766394
517.305	1.13104
520.198	1.42826
523.09	4.071
525.983	6.04335
528.876	9.25055
531.768	10.1361
534.661	6.78816
537.554	6.00966
540.447	1.45948
543.339	2.07932
546.232	0.659551
549.125	0.203906
552.017	0.203182
554.91	0.411183
557.803	0.940442
560.695	0.316034
563.588	0.105242
566.481	0.044597
569.374	2.19505
572.266	2.83267
575.159	7.21131
578.052	10.0253
580.944	12.9122
583.837	16.1623
586.73	20.7031
589.622	26.0257
592.515	31.1419
595.408	40.2513
598.301	49.1899
601.193	56.4815
604.086	64.587
606.979	68.8212
609.871	73.2978
612.764	73.7822
615.657	73.8184
618.549	73.1646
621.442	69.992
624.335	64.7953
627.227	60.8415
630.12	51.1901
633.013	44.5469
635.906	37.7103
638.798	30.6504
641.691	26.0244
644.584	20.3151
647.476	17.2821
650.369	12.538
653.262	9.32048
656.154	8.28358
659.047	5.65704
661.94	4.04069
664.833	3.23288
667.725	2.30712
670.618	2.5518
673.511	3.45716
676.403	0.614504
679.296	0.667242
682.189	0.279433
685.082	0.40053
687.974	0.319163
690.867	1.13351
693.76	0.408992
696.652	0.463695
699.545	1.58651
702.438	1.60289
705.33	0.884934
708.223	0.698337
711.116	2.43466
714.009	0.996699
716.901	0.972139
719.794	1.53113
722.687	2.82843
725.579	2.79933
728.472	2.50843
731.365	2.05848
734.257	3.75501
737.15	1.34487
740.043	3.86046
742.936	0.95947
745.828	2.3325
748.721	0.148839
751.614	0.081126
754.506	0.730178
757.399	2.18236
760.292	0.172925
763.184	1.63942
766.077	1.27787
768.97	1.8461
771.862	1.41346
774.755	0.128253
777.648	2.01739
780.541	0.144288
783.433	1.07117
786.326	2.73434
789.219	0.59728
792.111	0.479682
795.004	2.60535
797.897	1.38182
800.789	1.40455
803.682	0.875655
806.575	2.76786
809.467	3.54946
812.36	0.191119
815.253	2.77235
818.146	2.69548
821.038	0.972337
823.931	3.75418
826.824	1.70695
829.716	0.347392
832.609	0.550883
835.502	0.779737
838.394	0.898238
841.287	0.221276
844.18	0.915603
847.073	0.376136
849.965	0.311599
852.858	1.57975
855.751	2.37307
858.643	2.52218
861.536	3.7462
864.429	6.14544
867.322	5.4606
870.214	4.54699
873.107	5.06257
876	2.48846
878.892	3.17704
881.785	4.86177
884.678	2.58045
887.57	1.11157
890.463	3.24397
893.356	0.491865
896.249	1.69437
899.141	0.956831
902.034	0.961875
904.927	0.819655
907.819	0.496609
910.712	0.924016
913.605	0.544029
916.497	0.463696
919.39	0.122767
922.283	0.40114
925.176	0.784542
928.068	0.681392
930.961	2.96027
933.854	3.44019
936.746	6.90249
939.639	11.911
942.532	15.7035
945.424	20.7005
948.317	30.535
951.21	34.9201
954.102	47.5046
956.995	61.7782
959.888	80.1555
962.781	103.739
965.673	141.208
968.566	195.815
971.459	261.499
974.351	330.05
977.244	345.544
980.137	280.049
983.029	262.584
985.922	352.522
988.815	553.2
991.708	780.543
994.6	848.583
997.493	841.885
1000.39	565.247
1003.28	289.738
1006.17	146.779
1009.06	78.9941
1011.96	42.9558
1014.85	26.0946
1017.74	14.1512
1020.63	5.56529
1023.53	2.73607
1026.42	1.01187
1029.31	0.657099
1032.2	1.76604
1035.1	0.605203
1037.99	0.74859
1040.88	0.603303
1043.78	1.028
1046.67	0.799776
1049.56	4.92007
1052.45	6.56344
1055.35	9.50107
1058.24	11.3826
1061.13	13.7107
1064.03	17.1093
1066.92	19.5761
1069.81	19.6314
1072.7	21.5906
1075.6	21.0904
1078.49	21.8553
1081.38	21.2769
1084.27	21.5136
1087.17	23.7497
1090.06	20.1682
1092.95	16.7215
1095.85	14.2671
1098.74	10.8926
1101.63	10.9793
1104.52	11.722
1107.42	11.6638
1110.31	12.962
1113.2	14.524
1116.09	14.9406
1118.99	15.3812
1121.88	14.6853
1124.77	15.3657
1127.66	12.5451
1130.56	15.7108
1133.45	19.863
1136.34	24.6477
1139.23	29.2095
1142.13	29.244
1145.02	29.2491
1147.91	29.2242
1150.81	25.7653
1153.7	23.7961
1156.59	15.1932
1159.48	12.0586
1162.38	9.71575
1165.27	5.06021
1168.16	3.67465
1171.06	2.26015
1173.95	1.01538
1176.84	1.69885
1179.73	0.41482
1182.63	0.06218
1185.52	0.231713
1188.41	2.05326
1191.3	0.147575
1194.2	1.33231
1197.09	0.057769
1199.98	0.53376
1202.88	0.123794
1205.77	0.304778
1208.66	0.077361
1211.55	1.74684
1214.44	2.51126
1217.34	1.80616
1220.23	3.09937
1223.12	5.75495
1226.02	5.43823
1228.91	0.928003
1231.8	3.3457
1234.69	3.91431
1237.59	0.559155
1240.48	2.59933
1243.37	4.81839
1246.27	5.08429
1249.16	1.44183
1252.05	3.88138
1254.94	1.09723
1257.84	1.94062
1260.73	3.64118
1263.62	2.46581
1266.51	1.5178
1269.41	5.63825
1272.3	2.76436
1275.19	1.53159
1278.09	0.038933
1280.98	1.69346
1283.87	1.94268
1286.76	1.85656
1289.66	1.6972
1292.55	1.20328
1295.44	1.35596
1298.33	0.198811
1301.23	0.035273
1304.12	0
