Measurement: Raman, 780 nm, unoriented, Raman Data Processed
Mineral: Apjohnite
Rruff sample: R060231
Ideal chemistry: Mn^2+^Al_2_(SO_4_)_4_22H_2_O
Locality: Val d'Adige, Bolzano, Italy
Source: Michael Scott
Description: Colorless acicular crystals
Raman shift (cm-1)	intensity
150.163	0
153.056	2.19335
155.949	0.706335
158.841	2.39715
161.734	2.99801
164.627	0.366701
167.519	3.38312
170.412	6.2143
173.305	3.785
176.198	7.5865
179.09	1.74646
181.983	0.641417
184.876	0.734612
187.768	3.28048
190.661	8.4473
193.554	8.73681
196.446	12.01
199.339	11.379
202.232	12.5394
205.125	11.411
208.017	25.3886
210.91	26.3096
213.803	28.9653
216.695	31.9491
219.588	28.3453
222.481	26.1643
225.374	25.3925
228.266	21.5935
231.159	20.5734
234.052	14.3639
236.944	12.2904
239.837	10.143
242.73	8.28761
245.622	14.2602
248.515	1.65509
251.408	1.63286
254.3	3.21929
257.193	4.95994
260.086	0.557674
262.978	0.498231
265.871	0.04651
268.764	0.53567
271.657	2.84852
274.549	1.98868
277.442	4.47576
280.335	8.73465
283.227	12.8979
286.12	12.539
289.013	16.1549
291.906	23.0007
294.798	25.9767
297.691	31.4028
300.584	32.5283
303.476	35.4445
306.369	39.4007
309.262	45.3447
312.154	35.142
315.047	40.8462
317.94	32.739
320.833	31.606
323.725	21.9325
326.618	22.5502
329.511	26.1194
332.403	19.3317
335.296	20.1541
338.189	14.2993
341.082	12.0972
343.974	10.6141
346.867	11.6538
349.76	6.93434
352.652	7.74862
355.545	5.87702
358.438	2.26666
361.33	0.394707
364.223	1.50188
367.116	0.85611
370.009	0.085177
372.901	0.01008
375.794	0.743596
378.687	5.46052
381.579	1.62929
384.472	1.37956
387.365	0.437185
390.257	1.66462
393.15	6.88932
396.043	5.46839
398.935	10.6891
401.828	8.50769
404.721	24.0485
407.614	30.6878
410.506	40.0494
413.399	51.4059
416.292	58.7482
419.184	71.0355
422.077	73.875
424.97	71.9917
427.863	75.3171
430.755	70.4387
433.648	62.6775
436.541	60.0963
439.433	69.1649
442.326	68.6096
445.219	77.4099
448.111	78.5723
451.004	93.3312
453.897	104.549
456.789	104.478
459.682	110.528
462.575	112.414
465.467	104.705
468.36	100.737
471.253	94.6265
474.146	84.3013
477.038	68.7512
479.931	54.0941
482.824	43.4253
485.716	29.6511
488.609	16.6105
491.502	12.3925
494.394	7.33013
497.287	3.00079
500.18	8.46589
503.073	0.185025
505.965	0.177954
508.858	0.749138
511.751	0.972299
514.643	1.47755
517.536	3.96729
520.429	5.31958
523.322	3.80562
526.214	6.93077
529.107	7.70358
532	1.48241
534.892	0.792604
537.785	0.548565
540.678	0.585906
543.57	1.07071
546.463	0.074132
549.356	1.85322
552.249	0.383408
555.141	2.08943
558.034	0.936851
560.927	2.81872
563.819	3.39113
566.712	0.690591
569.605	3.98871
572.497	9.45073
575.39	11.4103
578.283	10.7379
581.176	17.1195
584.068	22.1208
586.961	24.3437
589.854	35.5718
592.746	46.012
595.639	56.8443
598.532	60.1349
601.424	71.0369
604.317	73.5231
607.21	84.5512
610.102	81.546
612.995	87.894
615.888	85.7977
618.781	80.0779
621.673	75.1673
624.566	72.4944
627.459	58.0494
630.351	52.3909
633.244	43.4479
636.137	32.8028
639.029	28.5426
641.922	25.7152
644.815	19.8889
647.708	15.3749
650.6	12.5014
653.493	8.74059
656.386	4.65811
659.278	5.03503
662.171	0.369843
665.064	6.35645
667.957	4.08334
670.849	3.37562
673.742	3.68294
676.635	1.16818
679.527	1.23713
682.42	1.12019
685.313	1.25466
688.205	2.19075
691.098	1.59285
693.991	1.98015
696.884	2.70749
699.776	0.90166
702.669	0.363833
705.562	0.371158
708.454	3.64927
711.347	6.81773
714.24	1.99162
717.132	3.17979
720.025	2.12965
722.918	5.46622
725.811	0.40805
728.703	6.75908
731.596	6.72042
734.489	6.31483
737.381	6.19172
740.274	5.47234
743.167	5.86838
746.059	2.74216
748.952	0.098589
751.845	4.91008
754.737	6.56
757.63	3.74865
760.523	0.264874
763.416	2.56521
766.308	2.17122
769.201	0.276821
772.094	0.266821
774.986	0.571356
777.879	3.59225
780.772	4.2057
783.665	2.61384
786.557	2.61652
789.45	0.80799
792.343	1.51998
795.235	0.075063
798.128	0.420134
801.021	4.5574
803.913	1.34899
806.806	3.38266
809.699	5.24509
812.592	2.68778
815.484	1.22781
818.377	7.15628
821.27	2.59923
824.162	3.2999
827.055	1.16988
829.948	6.48698
832.84	3.35388
835.733	5.52953
838.626	5.85186
841.519	0.695841
844.411	0.832668
847.304	3.35617
850.197	5.76464
853.089	8.14234
855.982	4.91236
858.875	6.78337
861.767	4.20114
864.66	6.12538
867.553	17.4974
870.446	8.09295
873.338	0.060131
876.231	8.11402
879.124	4.81674
882.016	1.62353
884.909	5.76521
887.802	6.73844
890.694	0.060388
893.587	2.59541
896.48	0.239797
899.372	0.742701
902.265	1.57862
905.158	1.13861
908.051	5.10466
910.943	1.17225
913.836	1.74396
916.729	1.48743
919.621	3.01429
922.514	2.71861
925.407	1.3152
928.299	2.65977
931.192	6.56333
934.085	9.52504
936.978	11.077
939.87	8.28718
942.763	16.9644
945.656	16.225
948.548	31.3962
951.441	37.8254
954.334	53.3545
957.226	66.9259
960.119	92.9324
963.012	116.992
965.905	151.296
968.797	191.614
971.69	236.001
974.583	259.877
977.475	245.77
980.368	237.409
983.261	304.71
986.154	423.108
989.046	573.955
991.939	624.344
994.832	602.048
997.724	449.695
1000.62	241.463
1003.51	119.462
1006.4	61.3775
1009.29	36.5957
1012.19	18.1238
1015.08	9.23258
1017.97	3.7003
1020.87	0.973002
1023.76	1.01375
1026.65	1.12248
1029.54	0.468284
1032.44	0.903939
1035.33	1.18938
1038.22	1.66234
1041.12	2.42316
1044.01	4.7352
1046.9	8.81573
1049.79	8.21453
1052.69	8.41068
1055.58	10.9205
1058.47	13.8637
1061.36	12.3116
1064.26	17.3008
1067.15	13.83
1070.04	15.7548
1072.93	16.4721
1075.83	22.7246
1078.72	17.7628
1081.61	16.0759
1084.51	15.9744
1087.4	13.77
1090.29	8.40999
1093.18	8.52679
1096.08	4.37645
1098.97	6.34696
1101.86	2.43333
1104.75	5.59969
1107.65	2.64203
1110.54	7.85423
1113.43	11.3028
1116.33	8.16813
1119.22	9.76756
1122.11	15.623
1125	12.0994
1127.9	12.2411
1130.79	14.8766
1133.68	19.9846
1136.57	21.1285
1139.47	23.2507
1142.36	21.018
1145.25	17.2086
1148.14	19.0771
1151.04	14.2683
1153.93	10.112
1156.82	13.2056
1159.71	3.17175
1162.61	6.32052
1165.5	1.20884
1168.39	1.01801
1171.29	0.457656
1174.18	0.562876
1177.07	0.391998
1179.96	0.786162
1182.86	0.124082
1185.75	0.476712
1188.64	0.225391
1191.54	1.08554
1194.43	0.566149
1197.32	1.03413
1200.21	4.1389
1203.11	1.54528
1206	0.356807
1208.89	0.272348
1211.78	3.26787
1214.68	3.3332
1217.57	1.34153
1220.46	0.447105
1223.36	3.28774
1226.25	1.90478
1229.14	4.40653
1232.03	0.06898
1234.93	1.33827
1237.82	5.62991
1240.71	3.11783
1243.6	10.1294
1246.5	9.82969
1249.39	9.52768
1252.28	19.4875
1255.17	16.5489
1258.07	19.8887
1260.96	12.9089
1263.85	25.2717
1266.74	15.2902
1269.64	14.2516
1272.53	7.14982
1275.42	8.60249
1278.32	1.09007
1281.21	5.45542
1284.1	0.616036
