Measurement: Raman, 780 nm, unoriented, Raman Data Processed
Mineral: Apophyllite-(KOH)
Rruff sample: R110121
Ideal chemistry: KCa_4_Si_8_O_20_(OH)8H_2_O
Locality: Kandivali quarry, Malad (near Poona), Marashtra State, India
Source: Marcus Origlieri
Description: White to colorless prismatic crystals on a basalt matrix
Raman shift (cm-1)	intensity
178.867	0
181.759	1.57465
184.652	9.29875
187.545	8.17064
190.437	8.64551
193.33	17.8223
196.223	33.5959
199.115	51.7601
202.008	72.2414
204.901	75.1051
207.794	75.785
210.686	71.4936
213.579	66.9702
216.472	60.1494
219.364	58.4855
222.257	61.0112
225.15	69.7735
228.042	71.9231
230.935	60.3213
233.828	38.511
236.721	18.8307
239.613	5.15802
242.506	0.81274
245.399	3.02418
248.291	3.61244
251.184	2.06362
254.077	3.16441
256.969	8.22994
259.862	14.5587
262.755	22.0706
265.648	28.9207
268.54	31.9998
271.433	27.3938
274.326	22.6532
277.218	20.3653
280.111	20.1277
283.004	22.1258
285.897	26.8716
288.789	32.6609
291.682	41.9633
294.575	55.5427
297.467	62.5553
300.36	66.8234
303.253	65.5485
306.145	70.993
309.038	78.3526
311.931	85.3065
314.824	91.0352
317.716	93.2645
320.609	97.3481
323.502	94.2258
326.394	84.0422
329.287	73.9431
332.18	65.1204
335.072	65.6574
337.965	65.1281
340.858	60.2358
343.75	46.5897
346.643	33.4396
349.536	22.6549
352.429	17.1469
355.321	9.67401
358.214	5.25839
361.107	0.029621
364	1.14294
366.892	1.60188
369.785	1.29384
372.678	0.707008
375.57	2.84106
378.463	4.39951
381.356	9.43087
384.248	18.9345
387.141	27.1682
390.034	41.633
392.926	58.0656
395.819	72.0683
398.712	79.7947
401.605	76.2728
404.497	65.0128
407.39	53.7116
410.283	45.2883
413.175	42.4098
416.068	46.7318
418.961	54.2649
421.853	69.9159
424.746	91.2191
427.639	125.519
430.532	156.801
433.424	150.332
436.317	99.656
439.21	55.5697
442.102	29.0532
444.995	12.5461
447.888	1.62102
450.781	3.01759
453.673	4.34898
456.566	3.021
459.459	1.00514
462.351	7.37783
465.244	14.9108
468.137	27.3003
471.029	45.4193
473.922	76.747
476.815	124.196
479.707	191.511
482.6	253.92
485.493	246.726
488.386	170.956
491.278	97.5322
494.171	53.8755
497.064	31.1864
499.956	17.7797
502.849	10.5729
505.742	4.89706
508.635	0.700417
511.527	1.53932
514.42	0.127403
517.313	7.26063
520.205	18.4743
523.098	33.8365
525.991	55.5058
528.883	80.0016
531.776	107.839
534.669	135.384
537.562	152.524
540.454	156.8
543.347	154.282
546.24	147.534
549.132	143.779
552.025	141.909
554.918	148.981
557.81	160.788
560.703	181.776
563.596	205.779
566.489	245.576
569.381	295.412
572.274	355.609
575.167	419.519
578.059	475.745
580.952	511.796
583.845	493.223
586.737	424.749
589.63	330.066
592.523	240.412
595.415	168.54
598.308	116.58
601.201	79.5437
604.094	53.3843
606.986	37.1619
609.879	24.1055
612.772	15.6463
615.664	6.8879
618.557	3.78284
621.45	0.233788
624.342	1.32315
627.235	1.63013
630.128	2.45959
633.021	1.99131
635.913	0.419975
638.806	1.14293
641.699	4.04393
644.591	5.25704
647.484	9.99984
650.377	13.0677
653.269	17.9611
656.162	22.0038
659.055	24.4921
661.948	25.719
664.84	24.019
667.733	21.3836
670.626	16.4002
673.518	12.7886
676.411	7.76201
679.304	6.60905
682.197	4.51551
685.089	3.41941
687.982	1.1266
690.875	0.549879
693.767	0.38814
696.66	0.205488
699.553	0.229467
702.445	0.234301
705.338	1.56706
708.231	0.899521
711.124	2.36844
714.016	2.50286
716.909	1.60014
719.802	2.67536
722.694	2.32012
725.587	3.70877
728.48	3.01179
731.372	2.81986
734.265	4.57749
737.158	3.29522
740.051	3.87067
742.943	4.13173
745.836	4.95548
748.729	3.55787
751.621	3.54567
754.514	4.56171
757.407	4.34908
760.299	5.08169
763.192	5.41157
766.085	6.14986
768.977	5.49933
771.87	5.17934
774.763	5.35497
777.656	5.92556
780.548	7.26395
783.441	9.6926
786.334	11.3575
789.226	15.5333
792.119	14.3797
795.012	9.54194
797.904	5.967
800.797	2.99489
803.69	1.5088
806.583	0.877556
809.475	0.341074
812.368	0.08106
815.261	0.116863
818.153	0.466003
821.046	0.094271
823.939	0.737463
826.832	0.097155
829.724	1.01176
832.617	0.822443
835.51	1.08144
838.402	1.82478
841.295	1.59434
844.188	1.99443
847.08	3.12366
849.973	2.62833
852.866	1.95983
855.759	1.8687
858.651	1.84225
861.544	2.07841
864.437	1.89725
867.329	1.68641
870.222	0.902523
873.115	1.16863
876.007	2.0442
878.9	1.93047
881.793	2.28901
884.686	1.71605
887.578	2.52534
890.471	2.27382
893.364	2.37948
896.256	2.0213
899.149	2.57962
902.042	2.45449
904.934	1.15905
907.827	1.92351
910.72	1.01101
913.612	1.19683
916.505	0.814621
919.398	0.25299
922.291	0.390234
925.183	0.505057
928.076	0.017307
930.969	0.111048
933.861	0.59676
936.754	0.030947
939.647	0.101969
942.539	0.201496
945.432	0.455622
948.325	0.330147
951.218	0.874962
954.11	1.63629
957.003	0.345308
959.896	0.05271
962.788	0.422745
965.681	0.542395
968.574	0.411745
971.466	0.489166
974.359	0.590815
977.252	0.118065
980.145	0.300472
983.037	0.2815
985.93	0.10729
988.823	0.479229
991.715	0.835905
994.608	1.69525
997.501	1.77033
1000.39	4.67539
1003.29	6.10819
1006.18	7.16796
1009.07	7.01135
1011.96	3.36221
1014.86	2.72887
1017.75	2.01119
1020.64	2.47105
1023.53	4.49499
1026.43	6.45852
1029.32	11.437
1032.21	16.7715
1035.11	23.6686
1038	35.1505
1040.89	48.8503
1043.78	69.3842
1046.68	103.497
1049.57	155.75
1052.46	230.299
1055.36	336.929
1058.25	445.241
1061.14	457.918
1064.03	350.494
1066.93	232.295
1069.82	150.359
1072.71	98.3905
1075.6	66.3314
1078.5	47.2599
1081.39	36.1035
1084.28	29.9068
1087.17	25.9606
1090.07	22.6287
1092.96	16.9843
1095.85	10.5378
1098.74	7.46378
1101.64	5.21483
1104.53	4.46452
1107.42	5.35969
1110.32	4.0241
1113.21	3.3792
1116.1	3.37352
1118.99	2.37345
1121.89	0.127157
1124.78	0.236399
1127.67	0.967621
1130.57	0.700605
1133.46	0.359923
1136.35	0.351042
1139.24	0.090502
1142.14	0.645097
1145.03	0.530727
1147.92	0.193312
1150.81	0.515795
1153.71	0.191954
1156.6	0.60027
1159.49	0.042581
1162.38	0.946179
1165.28	1.05951
1168.17	1.4913
1171.06	1.30226
1173.96	1.10609
1176.85	2.41927
1179.74	1.49985
1182.63	1.96358
1185.53	1.38824
1188.42	1.40924
1191.31	2.25833
1194.2	1.95898
1197.1	2.20099
1199.99	1.77544
1202.88	1.80517
1205.78	2.05905
1208.67	1.50581
1211.56	0.946656
1214.45	1.05604
1217.35	1.07763
1220.24	0.616327
1223.13	1.10507
1226.02	1.58371
1228.92	0.992414
1231.81	1.14614
1234.7	1.05638
1237.6	1.23826
1240.49	1.16455
1243.38	0.973753
1246.27	0.340705
1249.17	0.876306
1252.06	1.11913
1254.95	0.928276
1257.84	1.1992
1260.74	0.816157
1263.63	1.48853
1266.52	0.659431
1269.41	0.266099
1272.31	0.015659
1275.2	0.502579
1278.09	0.796188
1280.98	0.396458
1283.88	0.066523
