Measurement: Raman, 785 nm, unoriented, Raman Data Processed
Mineral: Apophyllite-(KOH)
Rruff sample: R050169
Ideal chemistry: KCa_4_Si_8_O_20_(OH)8H_2_O
Locality: Christmas mine, Christmas, Gila County, Arizona, USA
Source: Marcus Origlieri
Description: Colorless prismatic crystals associated with kinoite, R050168
Measured chemistry: K_1.00_Ca_4.00_Si_8.00_O_20_((OH)_0.98_F_0.02_)_Σ=1_·8H_2_O
Raman shift (cm-1)	intensity
129.697	0
132.59	15.5511
135.483	61.1514
138.376	134.102
141.268	221.461
144.161	184.822
147.054	147.014
149.946	156.325
152.839	161.752
155.732	178.257
158.625	235.034
161.517	406.75
164.41	737.925
167.303	762.555
170.195	391.748
173.088	233.49
175.981	213.065
178.873	178.196
181.766	241.407
184.659	313.825
187.552	374.848
190.444	432.493
193.337	547.661
196.23	706.271
199.122	723.089
202.015	594.66
204.908	455.863
207.8	355.52
210.693	305.614
213.586	258.759
216.478	218.055
219.371	262.502
222.264	325.178
225.157	391.413
228.049	440.434
230.942	361.587
233.835	216.293
236.727	86.4982
239.62	17.9605
242.513	8.30601
245.405	4.18499
248.298	3.71113
251.191	7.37802
254.084	13.1573
256.976	42.2098
259.869	64.3121
262.762	117.456
265.654	143.113
268.547	165.356
271.44	194.673
274.332	167.654
277.225	143.879
280.118	148.693
283.011	157.539
285.903	191.012
288.796	205.981
291.689	276.62
294.581	373.659
297.474	451.736
300.367	514.397
303.26	546.555
306.152	641.889
309.045	694.216
311.938	783.354
314.83	805.079
317.723	844.768
320.616	805.1
323.508	717.978
326.401	625.304
329.294	475.964
332.187	415.921
335.079	334.406
337.972	295.246
340.865	233.601
343.757	140.196
346.65	87.7317
349.543	63.2689
352.435	27.1103
355.328	16.2437
358.221	12.9628
361.113	7.70065
364.006	8.89264
366.899	6.65442
369.792	14.0361
372.684	27.4965
375.577	38.5363
378.47	27.3305
381.362	29.2584
384.255	56.8041
387.148	107.987
390.041	150.127
392.933	243.826
395.826	351.914
398.719	458.223
401.611	499.457
404.504	471.214
407.397	415.809
410.289	391.012
413.182	385.686
416.075	473.025
418.967	594.25
421.86	764.84
424.753	1036.71
427.646	1215.86
430.538	1221.84
433.431	834.108
436.324	451.003
439.216	200.354
442.109	96.2472
445.002	31.3496
447.894	13.948
450.787	0.223728
453.68	-5.90936
456.573	1.87408
459.465	1.56262
462.358	5.02272
465.251	32.3249
468.143	111.692
471.036	253.75
473.929	459.954
476.822	814.482
479.714	1304.7
482.607	1790.44
485.5	1690.61
488.392	1062.78
491.285	598.708
494.178	356.541
497.07	251.238
499.963	179.619
502.856	118.479
505.748	84.8362
508.641	79.1574
511.534	79.7447
514.427	102.824
517.319	175.825
520.212	278.45
523.105	450.57
525.997	651.483
528.89	881.539
531.783	1061.85
534.676	1162.83
537.568	1156.86
540.461	1018.72
543.354	835.728
546.246	729.626
549.139	628.481
552.032	622.682
554.924	627.518
557.817	673.689
560.71	793.085
563.602	1044.67
566.495	1335.52
569.388	1777.67
572.281	2287.86
575.173	2883.42
578.066	3440.88
580.959	3588.49
583.851	3226.99
586.744	2503.11
589.637	1711.08
592.529	1111.69
595.422	733.149
598.315	452.797
601.208	292.144
604.1	199.783
606.993	126.62
609.886	44.2508
612.778	18.061
615.671	15.7043
618.564	16.6242
621.457	6.50351
624.349	-1.71785
627.242	6.80236
630.135	2.97935
633.027	3.33763
635.92	16.5712
638.813	32.4324
641.705	49.2316
644.598	82.0336
647.491	102.054
650.384	147.618
653.276	205.178
656.169	232.066
659.062	297.106
661.954	317.712
664.847	304.75
667.74	274.031
670.632	225.642
673.525	170.861
676.418	121.71
679.311	92.1909
682.203	59.1598
685.096	32.2689
687.989	13.5325
690.881	10.1935
693.774	4.58066
696.667	7.37869
699.559	1.64038
702.452	12.5541
705.345	4.43881
708.237	11.0266
711.13	26.2844
714.023	15.4378
716.916	5.6311
719.808	5.51062
722.701	1.57861
725.594	8.39865
728.486	2.42801
731.379	8.17154
734.272	9.91547
737.164	7.20093
740.057	11.1161
742.95	13.6345
745.843	18.5418
748.735	21.2829
751.628	22.3276
754.521	32.6221
757.413	35.2646
760.306	23.728
763.199	30.8253
766.091	27.9643
768.984	28.1971
771.877	28.7613
774.77	20.0247
777.662	48.4551
780.555	44.0438
783.448	49.581
786.34	97.631
789.233	125.747
792.126	135.715
795.019	121.15
797.911	61.7895
800.804	39.3635
803.697	28.6398
806.589	1.8338
809.482	21.5852
812.375	8.79932
815.267	0.032562
818.16	5.8255
821.053	7.00934
823.946	9.95685
826.838	2.30661
829.731	11.321
832.624	3.4173
835.516	17.9147
838.409	15.0125
841.302	22.008
844.194	34.2649
847.087	27.5453
849.98	17.8877
852.872	29.852
855.765	27.7996
858.658	21.2484
861.551	24.7104
864.443	15.2685
867.336	13.7141
870.229	19.7409
873.121	22.2163
876.014	7.56291
878.907	12.8273
881.799	10.0036
884.692	13.2062
887.585	10.1397
890.478	16.0808
893.37	4.62378
896.263	17.0262
899.156	11.1472
902.048	8.46661
904.941	10.0623
907.834	14.4808
910.726	1.17932
913.619	20.4177
916.512	9.22172
919.405	12.5701
922.297	12.2431
925.19	13.9885
928.083	3.09799
930.975	14.8051
933.868	4.98917
936.761	12.1654
939.654	6.90782
942.546	5.71448
945.439	1.6698
948.332	5.73737
951.224	6.02806
954.117	13.4227
957.01	5.46034
959.902	5.32143
962.795	3.61168
965.688	0.169601
968.581	35.2961
971.473	11.3224
974.366	2.33119
977.259	8.55521
980.151	0.382477
983.044	0.349792
985.937	9.53981
988.829	1.19989
991.722	0.59549
994.615	2.72473
997.508	14.0428
1000.4	25.136
1003.29	55.7035
1006.19	67.9684
1009.08	82.6204
1011.97	47.711
1014.86	36.4834
1017.76	20.2411
1020.65	18.9731
1023.54	13.4352
1026.43	32.7204
1029.33	47.837
1032.22	68.5235
1035.11	118.481
1038.01	179.757
1040.9	287.345
1043.79	491.492
1046.68	891.96
1049.58	1506.45
1052.47	2508.39
1055.36	3719.42
1058.25	4233.85
1061.15	3360.88
1064.04	2067.99
1066.93	1249.68
1069.83	780.659
1072.72	518.817
1075.61	384.003
1078.5	308.496
1081.4	298.521
1084.29	332.071
1087.18	363.418
1090.07	219.822
1092.97	135.546
1095.86	89.7705
1098.75	49.5452
1101.64	56.5254
1104.54	39.253
1107.43	39.9991
1110.32	42.6433
1113.21	47.9804
1116.11	48.2032
1119	15.628
1121.89	13.2025
1124.79	9.17886
1127.68	0.66423
1130.57	11.0041
1133.46	2.66586
1136.36	1.09207
1139.25	3.79849
1142.14	5.97464
1145.04	3.97757
1147.93	7.59773
1150.82	14.0254
1153.71	16.3403
1156.61	11.5845
1159.5	4.0896
1162.39	11.1143
1165.28	21.5914
1168.18	22.0491
1171.07	8.87295
1173.96	10.8384
1176.86	14.583
1179.75	17.4754
1182.64	10.3721
1185.53	23.6656
1188.43	23.7864
1191.32	11.1338
1194.21	13.5554
1197.1	11.1794
1200	1.88361
1202.89	9.26942
1205.78	1.93286
1208.67	8.81766
1211.57	11.9129
1214.46	2.38774
1217.35	15.3569
1220.24	16.6252
1223.14	14.2644
1226.03	13.41
1228.92	10.8445
1231.82	25.2213
1234.71	6.93089
1237.6	1.19331
