Measurement: Raman, 532 nm, unoriented, Raman Data Processed
Mineral: Apophyllite-(KF)
Rruff sample: R050021
Ideal chemistry: KCa_4_Si_8_O_20_F8H_2_O
Locality: Poona, Maharashtra State, India
Source: Eugene Schlepp
Description: Colorless tetragonal prisms
Measured chemistry: (K_0.98_Na_0.02_)_Σ=1_Ca_4.00_Si_8.00_O_20_(F_0.84_(OH)_0.16_)_Σ=1_·8H_2_O
Raman shift (cm-1)	intensity
130.377	0
133.752	533.862
137.127	1248.84
140.502	2220.35
143.876	367.012
147.251	49.5378
150.626	123.663
154.001	433.991
157.376	505.843
160.75	1215.46
164.125	2912.39
167.5	3988.36
170.875	1290.34
174.25	366.507
177.625	148.833
180.999	23.4004
184.374	60.5938
187.749	374.278
191.124	829.866
194.499	1734.86
197.874	2698.84
201.248	3911.37
204.623	5065.39
207.998	6710.61
211.373	6616.13
214.748	3621.16
218.122	2086.16
221.497	1578.88
224.872	1763.36
228.247	2377.05
231.622	2376.55
234.996	1338.42
238.371	560.474
241.746	182.105
245.121	23.189
248.496	103.189
251.871	60.7903
255.245	60.0005
258.62	85.1084
261.995	199.107
265.37	415.133
268.745	529.125
272.12	475.787
275.494	291.967
278.869	290.868
282.244	481.013
285.619	719.456
288.994	1221.73
292.368	2022.4
295.743	2933.57
299.118	3103.8
302.493	2480.86
305.868	2097.7
309.243	2157.6
312.617	2258.44
315.992	2421.47
319.367	2697.65
322.742	2768.11
326.117	2503.44
329.491	2222.8
332.866	2197.11
336.241	2412.81
339.616	2279.22
342.991	1578.82
346.365	862.029
349.74	428.278
353.115	247.878
356.49	80.1509
359.865	63.7097
363.24	55.8789
366.614	75.1497
369.989	323.669
373.364	572.509
376.739	340.021
380.114	37.2617
383.488	73.8542
386.863	256.777
390.238	595.785
393.613	977.311
396.988	1399.5
400.363	1559.69
403.737	1397.69
407.112	1145.83
410.487	1055.28
413.862	1133.54
417.237	1543.43
420.611	2459.99
423.986	4251.1
427.361	6864.57
430.736	10048.1
434.111	7527.92
437.486	3096.31
440.86	1310.77
444.235	480.867
447.61	203.583
450.985	88.3806
454.36	38.6135
457.735	26.4785
461.109	-0.88127
464.484	29.7398
467.859	104.799
471.234	465.578
474.609	1298.67
477.983	2805.26
481.358	5088.71
484.733	7366.22
488.108	5155.15
491.483	2252.59
494.858	986.071
498.232	742.467
501.607	659.028
504.982	508.447
508.357	333.95
511.732	239.419
515.106	259.348
518.481	388.74
521.856	744.373
525.231	1476.3
528.606	2232.93
531.981	3227.93
535.355	4177.42
538.73	4525.51
542.105	4022.65
545.48	3316.23
548.855	2662.04
552.229	2371.58
555.604	2214.35
558.979	2384.97
562.354	2963.56
565.729	3919.65
569.104	5617.81
572.478	8075.56
575.853	11467.5
579.228	15305
582.603	18018.4
585.978	16163.4
589.352	11070.9
592.727	6603.25
596.102	3837.45
599.477	2223.59
602.852	1287.21
606.227	654.469
609.601	393.153
612.976	244.522
616.351	161.016
619.726	114.831
623.101	53.1101
626.476	49.0584
629.85	89.134
633.225	191.911
636.6	300.056
639.975	449.898
643.35	678.169
646.724	951.986
650.099	1317.17
653.474	1780.74
656.849	2243.87
660.224	2602.09
663.598	2626.68
666.973	2361.68
670.348	1716.54
673.723	1163.24
677.098	798.734
680.472	448.474
683.847	219.72
687.222	125.924
690.597	126.108
693.972	52.2605
697.347	16.7837
700.721	14.9231
704.096	34.2849
707.471	2.08887
710.846	49.0615
714.221	10.9238
717.596	41.0767
720.97	46.478
724.345	11.9741
727.72	21.1531
731.095	49.479
734.47	26.749
737.844	45.2471
741.219	80.6387
744.594	36.927
747.969	56.7795
751.344	78.98
754.719	98.5608
758.093	79.0796
761.468	102.12
764.843	120.415
768.218	123.251
771.593	143.675
774.967	132.161
778.342	178.589
781.717	302.087
785.092	482.556
788.467	715.013
791.842	801.83
795.216	594.706
798.591	289.818
801.966	157.293
805.341	95.7671
808.716	57.0813
812.091	34.614
815.465	11.1902
818.84	42.8203
822.215	30.6162
825.59	49.3303
828.965	16.9658
832.339	137.967
835.714	114.845
839.089	157.676
842.464	166.981
845.839	257.524
849.213	319.805
852.588	299.06
855.963	292.123
859.338	231.885
862.713	185.725
866.087	103.694
869.462	88.2156
872.837	62.8823
876.212	31.8498
879.587	61.9287
882.962	49.3586
886.337	16.3865
889.711	9.09937
893.086	38.1372
896.461	20.5991
899.836	12.5542
903.211	59.47
906.585	18.385
909.96	54.0303
913.335	20.1619
916.71	15.719
920.085	40.4929
923.46	8.71924
926.834	0.82251
930.209	44.4321
933.584	28.1523
936.959	23.2488
940.334	31.5496
943.708	29.3206
947.083	14.8154
950.458	33.231
953.833	14.863
957.208	13.946
960.582	0.288574
963.957	6.80713
967.332	24.0261
970.707	9.34839
974.082	33.7227
977.457	40.1157
980.831	4.24854
984.206	9.4248
987.581	26.4678
990.956	12.7139
994.331	14.1973
997.705	41.4697
1001.08	182.556
1004.46	151.812
1007.83	319.475
1011.21	213.419
1014.58	58.8579
1017.95	86.25
1021.33	104.273
1024.7	138.445
1028.08	197.137
1031.45	365.951
1034.83	512.163
1038.2	822.465
1041.58	1355.69
1044.95	2437.55
1048.33	4503.04
1051.7	8816.73
1055.08	15666.3
1058.45	23544.6
1061.83	21483.4
1065.2	11960.1
1068.58	6402.54
1071.95	3739.12
1075.33	2330.3
1078.7	1652.12
1082.08	1350.33
1085.45	1311.1
1088.83	1258.59
1092.2	998.45
1095.58	638.408
1098.95	389.319
1102.33	306.84
1105.7	340.995
1109.07	525.961
1112.45	707.618
1115.82	744.938
1119.2	327.753
1122.57	155.618
1125.95	111.184
1129.32	29.5312
1132.7	2.4209
1136.07	22.3613
1139.45	8.84277
1142.82	67.3618
1146.2	24.3145
1149.57	12.8237
1152.95	59.5107
1156.32	46.999
1159.7	26.3809
1163.07	2.43652
1166.45	75.7832
1169.82	23.5176
1173.2	69.7578
1176.57	16.9395
1179.95	55.2974
1183.32	43.811
1186.69	97.6836
1190.07	67.1982
1193.44	25.5806
1196.82	65.6255
1200.19	70.8701
1203.57	22.127
1206.94	5.61572
1210.32	26.8789
1213.69	39.3608
1217.07	72.7725
1220.44	40.251
1223.82	21.6987
1227.19	47.2471
1230.57	48.0298
1233.94	39.166
1237.32	41.5059
1240.69	25.4898
1244.07	61.0317
1247.44	86.3589
1250.82	14.6719
1254.19	40.9873
1257.57	37.919
1260.94	117.295
1264.32	98.5171
1267.69	43.9082
1271.07	23.8501
1274.44	21.8701
1277.82	44.7109
1281.19	13.9541
1284.57	42.457
1287.94	26.8047
1291.32	47.7315
1294.69	66.4453
1298.06	48.5127
1301.44	93.5059
1304.81	32.3623
1308.19	49.064
