Measurement: Raman, 785 nm, unoriented, Raman Data Processed
Mineral: Apophyllite-(KF)
Rruff sample: R050084
Ideal chemistry: KCa_4_Si_8_O_20_F8H_2_O
Locality: near Ahmednagar, Maharashtra, India
Source: Rock Currier
Description: Greenish-white prismatic single crystal associated with scolecite
Measured chemistry: (K_0.98_Na_0.02_)Ca_4.00_Si_8.00_O_20_F_1.00_Â·8H_2_O
Raman shift (cm-1)	intensity
129.697	0
132.59	583.497
135.483	571.319
138.376	227.055
141.268	2.41724
144.161	7.72565
147.054	371.625
149.946	851.086
152.839	1117.62
155.732	1075.68
158.625	1458.12
161.517	2050.38
164.41	1450.32
167.303	711.204
170.195	378.222
173.088	391.604
175.981	571.042
178.873	954.805
181.766	1856.52
184.659	3020.22
187.552	2638.38
190.444	1668.16
193.337	1458.39
196.23	1718.86
199.122	2137.74
202.015	2685.11
204.908	3670.23
207.8	5122.29
210.693	5580.36
213.586	4325.66
216.478	3064.23
219.371	2562.5
222.264	2399.89
225.157	2406.65
228.049	2407.92
230.942	1919.05
233.835	1242.55
236.727	648.423
239.62	301.235
242.513	123.635
245.405	13.3037
248.298	73.1408
251.191	58.6729
254.084	56.7238
256.976	16.4916
259.869	119.138
262.762	268.762
265.654	466.197
268.547	457.225
271.44	277.701
274.332	147.198
277.225	76.6062
280.118	131.591
283.011	268.554
285.903	495.531
288.796	773.922
291.689	1147.71
294.581	1604.5
297.474	1848.22
300.367	1579.15
303.26	1049.29
306.152	634.074
309.045	370.495
311.938	231.437
314.83	143.513
317.723	143.453
320.616	173.965
323.508	254.424
326.401	346.431
329.294	493.964
332.187	667.01
335.079	837.318
337.972	822.198
340.865	673.51
343.757	420.306
346.65	215.583
349.543	89.2163
352.435	29.27
355.328	24.9032
358.221	13.8085
361.113	73.0394
364.006	141.504
366.899	269.835
369.792	443.525
372.684	617.708
375.577	517.362
378.47	238.759
381.362	64.9741
384.255	13.521
387.148	56.7778
390.041	18.4959
392.933	6.00656
395.826	28.9296
398.719	68.0568
401.611	85.8289
404.504	98.7557
407.397	165.002
410.289	199.885
413.182	279.518
416.075	397.607
418.967	638.163
421.86	1016.17
424.753	1493.95
427.646	2424.9
430.538	3625.95
433.431	3765.56
436.324	2143.8
439.216	1064.81
442.109	593.773
445.002	348.016
447.894	204.634
450.787	170.935
453.68	180.817
456.573	215.47
459.465	292.933
462.358	348.705
465.251	289.3
468.143	178.851
471.036	73.6439
473.929	36.4778
476.822	5.849
479.714	43.5226
482.607	101.617
485.5	130.197
488.392	89.5662
491.285	6.84967
494.178	20.0094
497.07	38.291
499.963	19.5403
502.856	37.3878
505.748	38.0986
508.641	86.7607
511.534	147.481
514.427	134.517
517.319	135.75
520.212	108.481
523.105	132.988
525.997	128.758
528.89	169.845
531.783	236.912
534.676	268.94
537.568	302.426
540.461	254.295
543.354	198.266
546.246	150.039
549.139	109.411
552.032	109.292
554.924	100.081
557.817	123.525
560.71	204.629
563.602	287.045
566.495	447.579
569.388	696.326
572.281	1015.03
575.173	1441.6
578.066	1873.02
580.959	2336.89
583.851	2524.19
586.744	2227.92
589.637	1613.92
592.529	1086.85
595.422	673.054
598.315	389.889
601.208	196.346
604.1	120.477
606.993	28.3492
609.886	1.8678
612.778	25.2799
615.671	13.8888
618.564	22.7352
621.457	54.1606
624.349	89.3221
627.242	133.843
630.135	135.564
633.027	205.638
635.92	243.212
638.813	302.752
641.705	412.183
644.598	525.338
647.491	694.995
650.384	897.836
653.276	1126.04
656.169	1387.95
659.062	1557.4
661.954	1711.64
664.847	1619.77
667.74	1409.24
670.632	1103.29
673.525	832.558
676.418	611.026
679.311	436.662
682.203	302.365
685.096	198.473
687.989	137.044
690.881	111.692
693.774	73.3029
696.667	24.1716
699.559	10.1726
702.452	6.13107
705.345	4.26413
708.237	0.012268
711.13	12.461
714.023	14.0562
716.916	2.38464
719.808	11.1149
722.701	16.4269
725.594	19.6478
728.486	6.285
731.379	2.86209
734.272	8.1315
737.164	18.5666
740.057	7.90436
742.95	22.4482
745.843	1.59662
748.735	39.9315
751.628	74.0128
754.521	118.933
757.413	160.802
760.306	244.05
763.199	295.325
766.091	310.262
768.984	288.783
771.877	185.196
774.77	151.819
777.662	129.593
780.555	137.161
783.448	160.549
786.34	253.418
789.233	301.987
792.126	323.16
795.019	244.716
797.911	156.268
800.804	45.0727
803.697	38.5099
806.589	40.1301
809.482	13.3441
812.375	20.6942
815.267	20.8817
818.16	26.5904
821.053	61.6174
823.946	71.8925
826.838	99.8542
829.731	87.2613
832.624	124.908
835.516	159.242
838.409	155.539
841.302	163.51
844.194	196.212
847.087	193.754
849.98	172.703
852.872	194.491
855.765	144.411
858.658	145.199
861.551	82.8469
864.443	88.3721
867.336	51.9133
870.229	37.3406
873.121	73.8007
876.014	31.8442
878.907	20.2927
881.799	35.1189
884.692	22.1714
887.585	21.7492
890.478	36.136
893.37	18.6408
896.263	9.26727
899.156	14.7211
902.048	6.56216
904.941	8.38812
907.834	25.4332
910.726	9.81757
913.619	19.1777
916.512	10.7531
919.405	12.9631
922.297	4.16513
925.19	4.46951
928.083	29.777
930.975	30.8887
933.868	31.1854
936.761	4.74335
939.654	21.4249
942.546	9.21927
945.439	14.5427
948.332	23.5571
951.224	15.8237
954.117	6.01443
957.01	33.8688
959.902	37.7959
962.795	37.7451
965.688	41.0381
968.581	82.9732
971.473	89.9633
974.366	37.4335
977.259	29.3643
980.151	13.0612
983.044	15.6991
985.937	1.98053
988.829	26.2197
991.722	53.2959
994.615	73.6324
997.508	106.635
1000.4	151.851
1003.29	219.051
1006.19	259.34
1009.08	228.11
1011.97	144.058
1014.86	66.5414
1017.76	37.6929
1020.65	30.8968
1023.54	35.123
1026.43	40.5782
1029.33	122.86
1032.22	138.534
1035.11	149.832
1038.01	230.696
1040.9	308.296
1043.79	442.217
1046.68	724.061
1049.58	1163.53
1052.47	1857.82
1055.36	2870.86
1058.25	3848.23
1061.15	3689.03
1064.04	2409.16
1066.93	1366.84
1069.83	758.138
1072.72	431.755
1075.61	248.353
1078.5	117.187
1081.4	75.4748
1084.29	75.3265
1087.18	10.8041
1090.07	1.66797
1092.97	8.37015
1095.86	3.54584
1098.75	6.08069
1101.64	44.7217
1104.54	82.1711
1107.43	160.383
1110.32	269.362
1113.21	305.774
1116.11	295.853
1119	198.001
1121.89	54.3445
1124.79	36.8457
1127.68	23.7326
1130.57	0.910828
1133.46	0.025879
1136.36	18.8118
1139.25	7.01018
1142.14	5.14726
1145.04	8.92366
1147.93	2.7283
1150.82	19.2552
1153.71	27.4873
1156.61	22.8787
1159.5	0.760117
1162.39	4.71901
1165.28	2.44823
1168.18	1.20349
1171.07	28.3715
1173.96	16.0318
1176.86	10.4173
1179.75	19.7861
1182.64	34.195
1185.53	28.958
1188.43	36.1063
1191.32	23.5255
1194.21	24.4648
1197.1	8.1161
1200	17.2868
1202.89	18.2168
1205.78	13.2462
1208.67	22.7483
1211.57	15.9938
1214.46	18.2685
1217.35	13.8774
1220.24	20.2293
1223.14	0.844849
1226.03	25.6597
