Measurement: Raman, 785 nm, unoriented, Raman Data Processed
Mineral: Apophyllite-(KF)
Rruff sample: R040095
Ideal chemistry: KCa_4_Si_8_O_20_F8H_2_O
Locality: unknown
Source: University of Arizona Mineral Museum
Description: Colorless crystals
Measured chemistry: (K_0.90_Na_0.04_)Ca_3.96_Si_8.00_O_20_(F_0.82_(OH)_0.18_)Â·8H_2_O
Raman shift (cm-1)	intensity
125.004	0
127.897	28.4594
130.79	265.51
133.682	573.862
136.575	693.78
139.468	864.612
142.36	429.933
145.253	584.783
148.146	668.57
151.038	705.274
153.931	628.295
156.824	720.79
159.717	1161.74
162.609	1951.93
165.502	2551.74
168.395	1779.14
171.287	848.952
174.18	417.467
177.073	230.508
179.965	99.6163
182.858	67.7542
185.751	84.2159
188.644	219.109
191.536	388.121
194.429	681.216
197.322	964.425
200.214	1266.13
203.107	1586.03
206	1848.49
208.893	1943.11
211.785	1498.1
214.678	909.304
217.571	596.852
220.463	519.853
223.356	575.551
226.249	703.183
229.141	777.594
232.034	589.998
234.927	308.828
237.82	170.989
240.712	28.0749
243.605	26.9132
246.498	56.161
249.39	68.3938
252.283	26.5713
255.176	6.99866
258.068	48.7561
260.961	97.8532
263.854	177.783
266.747	206.972
269.639	243.993
272.532	178.966
275.425	120.973
278.317	116.994
281.21	117.22
284.103	160.065
286.995	243.15
289.888	382.982
292.781	612.029
295.673	751.709
298.566	832.303
301.459	763.691
304.352	738.429
307.244	782.669
310.137	852.79
313.03	892.305
315.922	937.894
318.815	1022.96
321.708	1033.03
324.601	946.091
327.493	822.719
330.386	766.253
333.279	763.714
336.171	852.48
339.064	781.048
341.957	580.75
344.849	380.633
347.742	206.927
350.635	156.472
353.527	108.049
356.42	23.3723
359.313	19.2747
362.206	10.4476
365.098	24.708
367.991	50.4111
370.884	95.58
373.776	103.501
376.669	62.8262
379.562	38.85
382.454	49.7435
385.347	108.044
388.24	254.324
391.133	403.387
394.025	615.599
396.918	707.095
399.811	760.789
402.703	696.247
405.596	584.542
408.489	490.135
411.382	419.639
414.274	402.244
417.167	489.467
420.06	743.917
422.952	1202.61
425.845	1918.4
428.738	2695.48
431.63	2961.23
434.523	1881.9
437.416	924.985
440.308	457.796
443.201	213.703
446.094	71.9222
448.987	9.04407
451.879	56.2717
454.772	30.9667
457.665	25.9857
460.557	20.5792
463.45	23.0096
466.343	14.958
469.236	84.4531
472.128	312.009
475.021	742.553
477.914	1487.79
480.806	2409.61
483.699	3115.98
486.592	2558.28
489.484	1415.96
492.377	753.953
495.27	422.877
498.163	271.469
501.055	222.768
503.948	184.69
506.841	79.6633
509.733	76.7169
512.626	24.9642
515.519	58.9653
518.411	114.626
521.304	228.419
524.197	458.36
527.09	708.801
529.982	991.058
532.875	1415.11
535.768	1652.67
538.66	1765.5
541.553	1662.64
544.446	1503.34
547.338	1258.86
550.231	1198.56
553.124	1108.12
556.016	1134.68
558.909	1196.74
561.802	1309.81
564.695	1560.96
567.587	1953.03
570.48	2617.73
573.373	3484.46
576.265	4582.85
579.158	5592.52
582.051	6172.04
584.943	5811.17
587.836	4555.68
590.729	3142.97
593.621	2113.21
596.514	1379.62
599.407	910.531
602.3	561.988
605.192	382.295
608.085	228.25
610.978	127.067
613.87	37.0327
616.763	8.80035
619.656	31.4564
622.548	14.5148
625.441	31.4835
628.334	17.8466
631.227	12.1533
634.119	12.8071
637.012	57.983
639.905	58.4866
642.797	114.621
645.69	132.13
648.583	211.135
651.476	268.307
654.368	357.048
657.261	427.697
660.154	468.08
663.046	454.171
665.939	406.976
668.832	329.069
671.724	275.041
674.617	193.134
677.51	153.588
680.403	92.8816
683.295	59.8513
686.188	52.7582
689.081	26.5153
691.973	10.3675
694.866	3.95886
697.759	18.4807
700.651	10.5973
703.544	22.9085
706.437	6.5603
709.33	44.4966
712.222	48.4137
715.115	34.4494
718.008	30.5332
720.9	28.2525
723.793	34.059
726.686	38.6831
729.578	38.2549
732.471	24.5177
735.364	24.576
738.256	44.8285
741.149	36.5427
744.042	14.2295
746.935	32.1934
749.827	50.4664
752.72	40.6556
755.613	34.9033
758.505	46.8274
761.398	37.7882
764.291	47.7341
767.183	26.2621
770.076	36.814
772.969	38.3758
775.862	22.4965
778.754	43.8136
781.647	91.4373
784.54	116.497
787.432	171.388
790.325	237.16
793.218	181.516
796.111	84.4681
799.003	35.2368
801.896	1.26041
804.789	21.9362
807.681	47.9229
810.574	30.0576
813.467	26.0809
816.359	30.0579
819.252	9.03119
822.145	5.72586
825.038	7.15192
827.93	17.0731
830.823	9.12973
833.716	12.7409
836.608	17.489
839.501	33.0586
842.394	35.3343
845.286	34.8717
848.179	40.1103
851.072	30.6795
853.965	42.3892
856.857	33.0152
859.75	32.7308
862.643	25.6434
865.535	23.787
868.428	21.095
871.321	14.0334
874.213	16.3461
877.106	14.3402
879.999	27.7185
882.891	23.8918
885.784	12.4834
888.677	13.4153
891.57	11.752
894.462	26.2436
897.355	32.5289
900.248	3.90057
903.14	31.1686
906.033	31.0025
908.926	32.6654
911.818	32.4981
914.711	2.48233
917.604	29.792
920.497	32.776
923.389	10.8075
926.282	15.4137
929.175	13.6858
932.067	22.288
934.96	13.5197
937.853	23.5284
940.745	14.0916
943.638	31.3147
946.531	29.3886
949.424	29.3998
952.316	15.1077
955.209	18.3596
958.102	39.0366
960.994	17.946
963.887	7.89313
966.78	22.1686
969.673	8.82324
972.565	13.7392
975.458	28.0783
978.351	18.9068
981.243	7.89932
984.136	12.2103
987.029	3.46643
989.921	13.477
992.814	15.9624
995.707	8.33008
998.6	14.9246
1001.49	35.0191
1004.38	46.6472
1007.28	65.8993
1010.17	39.7551
1013.06	40.5059
1015.96	26.9931
1018.85	11.1274
1021.74	7.26917
1024.63	26.16
1027.53	28.566
1030.42	103.547
1033.31	131.347
1036.2	223.007
1039.1	266.432
1041.99	408.841
1044.88	618.759
1047.78	1071.81
1050.67	1831.53
1053.56	3215.57
1056.45	5212.79
1059.35	6461.3
1062.24	5328.09
1065.13	3356.3
1068.02	2043.19
1070.92	1267.7
1073.81	881.758
1076.7	606.761
1079.6	472.91
1082.49	367.477
1085.38	344.163
1088.27	318.096
1091.17	264.234
1094.06	150.506
1096.95	125.542
1099.84	95.4536
1102.74	67.8912
1105.63	90.0595
1108.52	75.0322
1111.41	113.422
1114.31	93.9183
1117.2	45.5856
1120.09	47.1257
1122.99	20.177
1125.88	15.7524
1128.77	0.796204
1131.66	3.56073
1134.56	8.40393
1137.45	0.176025
1140.34	0.345673
1143.23	3.03641
1146.13	0.704651
1149.02	0.933838
1151.91	12.7499
1154.81	7.15857
1157.7	15.2669
1160.59	2.49805
1163.48	1.23612
1166.38	13.3645
1169.27	4.04816
1172.16	20.2551
1175.05	6.98245
1177.95	26.6438
1180.84	26.3054
1183.73	31.7287
1186.62	13.264
1189.52	33.831
1192.41	24.641
1195.3	14.4246
1198.2	25.9109
1201.09	36.9401
1203.98	4.72455
1206.87	25.9011
1209.77	2.90646
1212.66	28.351
1215.55	9.64285
1218.44	42.6006
1221.34	27.3115
1224.23	18.448
1227.12	30.7655
1230.02	20.5982
1232.91	3.87958
1235.8	7.84314
1238.69	21.5169
1241.59	27.3929
1244.48	1.51025
1247.37	23.6714
1250.26	29.9539
1253.16	13.6748
1256.05	55.6452
1258.94	16.3813
1261.84	13.378
1264.73	5.67191
1267.62	6.70877
1270.51	7.94083
