Measurement: Raman, 532 nm, unoriented, Raman Data Processed
Mineral: Apophyllite-(KOH)
Rruff sample: R050169
Ideal chemistry: KCa_4_Si_8_O_20_(OH)8H_2_O
Locality: Christmas mine, Christmas, Gila County, Arizona, USA
Source: Marcus Origlieri
Description: Colorless prismatic crystals associated with kinoite, R050168
Measured chemistry: K_1.00_Ca_4.00_Si_8.00_O_20_((OH)_0.98_F_0.02_)_Σ=1_·8H_2_O
Raman shift (cm-1)	intensity
153.037	0
156.411	1461.43
159.786	4034.36
163.161	5203.55
166.536	1569.85
169.911	74.7451
173.286	82.6084
176.66	1368.39
180.035	4024.56
183.41	7961.12
186.785	7614.15
190.16	4425.65
193.535	3778.09
196.909	4627.9
200.284	6142.59
203.659	7861.23
207.034	8665.67
210.409	8178.51
213.783	6592.39
217.158	6605.95
220.533	7007.47
223.908	7551.84
227.283	7073.4
230.657	4732.2
234.032	2343.65
237.407	908.398
240.782	137.82
244.157	69.9473
247.532	109.84
250.906	223.955
254.281	441.81
257.656	579.275
261.031	519.744
264.406	754.787
267.781	760.664
271.155	424.766
274.53	415.172
277.905	561.986
281.28	866.471
284.655	1073.51
288.029	1556.81
291.404	2680.65
294.779	3862.63
298.154	3678.52
301.529	2266.11
304.904	955.898
308.278	329.481
311.653	146.469
315.028	36.957
318.403	169.185
321.778	317.006
325.152	595.91
328.527	679.607
331.902	730.969
335.277	749.318
338.652	589.098
342.026	278.988
345.401	34.2363
348.776	139.627
352.151	115.518
355.526	67.7363
358.901	167.682
362.275	476.269
365.65	827.516
369.025	1356.58
372.4	1581.72
375.775	1224.62
379.149	404.258
382.524	336.584
385.899	246.787
389.274	268.772
392.649	153.209
396.024	91.5801
399.398	157.885
402.773	116.844
406.148	251.902
409.523	149.084
412.898	158.367
416.272	520.299
419.647	1148.81
423.022	2432.22
426.397	4516.9
429.772	7009.87
433.147	5362.62
436.521	2028.39
439.896	1131.37
443.271	436.826
446.646	257.07
450.021	296.334
453.396	795.037
456.77	1248.75
460.145	1371.35
463.52	1172.62
466.895	437.002
470.27	72.1055
473.644	25.9414
477.019	27.2559
480.394	34.9023
483.769	273.106
487.144	158.269
490.519	42.1348
493.893	112.539
497.268	227.938
500.643	222.82
504.018	393.059
507.393	326.078
510.767	216.643
514.142	229.707
517.517	151.106
520.892	182.688
524.267	323.373
527.641	494.018
531.016	771.582
534.391	572.322
537.766	486.242
541.141	264.754
544.516	144.522
547.89	37.4473
551.265	46.1094
554.64	19.6699
558.015	40.0586
561.39	295.859
564.764	715.791
568.139	1321.03
571.514	2222.42
574.889	3371
578.264	4356.17
581.639	4830.69
585.013	4043.77
588.388	2773.96
591.763	1721.73
595.138	904.336
598.513	514.346
601.888	344.353
605.262	258.143
608.637	484.611
612.012	526.514
615.387	546.963
618.762	767.521
622.136	922.133
625.511	1010.85
628.886	1084.16
632.261	1180.11
635.636	1097.48
639.01	1180.56
642.385	1387.36
645.76	1659.61
649.135	2121.51
652.51	2761.45
655.885	3124.45
659.259	3550.55
662.634	3609.73
666.009	3112.86
669.384	2253.32
672.759	1553.97
676.134	996.57
679.508	622.246
682.883	432.957
686.258	320.039
689.633	71.8555
693.008	126.49
696.382	1.20312
699.757	47.2188
703.132	61.7656
706.507	88.666
709.882	65.5625
713.256	34.3301
716.631	119.086
720.006	65.916
723.381	40.0215
726.756	206.812
730.131	303.293
733.505	232.043
736.88	373.25
740.255	437.082
743.63	587.264
747.005	671.564
750.38	774.029
753.754	1100.6
757.129	1435.19
760.504	1625.06
763.879	1593.92
767.254	1450.15
770.628	1112.91
774.003	814.049
777.378	554.758
780.753	516.875
784.128	529.871
787.503	650.426
790.877	540.256
794.252	419.25
797.627	95.8848
801.002	1.04297
804.377	4.94336
807.751	49.1094
811.126	75.043
814.501	171.227
817.876	205.287
821.251	254.074
824.625	324.709
828	510.232
831.375	600.303
834.75	753.619
838.125	797.646
841.5	1097.2
844.874	1290.38
848.249	1166.53
851.624	1244.88
854.999	1181.2
858.374	1176.25
861.749	1068.05
865.123	856.791
868.498	738.168
871.873	569.299
875.248	661.197
878.623	615.818
881.997	557.818
885.372	570.963
888.747	509.588
892.122	405.357
895.497	469.025
898.871	400.406
902.246	430.115
905.621	386.455
908.996	302.783
912.371	412.961
915.746	172.488
919.12	49.4121
922.495	54.832
925.87	73.4609
929.245	72.3906
932.62	6.875
935.995	163.131
939.369	80.1035
942.744	30.2383
946.119	96.9844
949.494	20.6582
952.869	34.0215
956.243	228.15
959.618	53.8242
962.993	256.594
966.368	660.732
969.743	996.492
973.117	557.426
976.492	334.184
979.867	233.91
983.242	222.559
986.617	296.963
989.992	523.08
993.366	664.443
996.741	883.178
1000.12	1313.5
1003.49	1870.44
1006.87	2478.19
1010.24	1882.86
1013.62	1437.63
1016.99	727.439
1020.37	260.594
1023.74	186.744
1027.12	54.0781
1030.49	194.504
1033.86	157.16
1037.24	359.973
1040.61	781.057
1043.99	1377.56
1047.36	2455.29
1050.74	4738.05
1054.11	7739.52
1057.49	9546.59
1060.86	7681.96
1064.24	4022.47
1067.61	1934.65
1070.99	1016.02
1074.36	359.883
1077.74	705.033
1081.11	1420.81
1084.49	2911.7
1087.86	1509.91
1091.24	32.3887
1094.61	133.732
1097.99	90.0117
1101.36	155.178
1104.73	553.121
1108.11	1112.57
1111.48	1735.93
1114.86	1711.51
1118.23	1089.93
1121.61	575.74
1124.98	453.065
1128.36	254.375
1131.73	468.58
1135.11	266.096
1138.48	288.94
1141.86	292.068
1145.23	384.856
1148.61	335.861
1151.98	403.221
1155.36	393.647
1158.73	245.568
1162.11	269.756
1165.48	149.93
1168.86	212.94
1172.23	8.3457
1175.61	6.375
1178.98	57.25
1182.36	30.8809
1185.73	130.44
1189.11	99.7402
1192.48	227.379
1195.86	235.68
1199.23	178.19
1202.61	220.123
1205.98	37.4121
1209.36	22.791
1212.73	221.562
1216.1	283.809
1219.48	423.787
1222.85	578.539
1226.23	534.654
1229.6	577.584
1232.98	496.541
1236.35	619.568
1239.73	686.008
1243.1	660.381
1246.48	702.633
1249.85	719.519
1253.23	741.1
1256.6	577.793
1259.98	566.889
1263.35	478.693
1266.73	441.693
1270.1	327.873
1273.48	459.096
1276.85	454.66
1280.23	266.484
1283.6	310.56
1286.98	265.244
1290.35	147.59
1293.72	91.2441
1297.1	153.01
1300.47	50.9922
1303.85	9.96875
1307.22	77.9492
1310.6	0
