Measurement: Raman, 532 nm, unoriented, Raman Data Processed
Mineral: Apophyllite-(KF)
Rruff sample: R060554
Ideal chemistry: KCa_4_Si_8_O_20_F8H_2_O
Locality: unknown
Source: Gemological Institute of America
Description: Colorless polished fragment
Measured chemistry: (K_0.88_Na_0.12_)Ca_4.00_Si_8.00_O_20_F_1.00_Â·8H2O
Raman shift (cm-1)	intensity
124.421	0
127.313	362.662
130.206	1662.14
133.099	2636.26
135.992	1334.43
138.884	288.457
141.777	54.004
144.67	62.229
147.562	526.582
150.455	1116.16
153.348	1636.07
156.24	2479.29
159.133	4408.78
162.026	5687.85
164.919	3150.42
167.811	1442.79
170.704	565.267
173.597	494.222
176.489	1029.7
179.382	2219.29
182.275	4727.8
185.167	6879.06
188.06	4407.41
190.953	2692.32
193.846	2313.67
196.738	2804.51
199.631	3656.07
202.524	5256.63
205.416	8406.1
208.309	12153.6
211.202	12011.5
214.094	7912.05
216.987	5703.17
219.88	4796.58
222.773	4614.98
225.665	5071.56
228.558	4981.5
231.451	3825.43
234.343	2338.52
237.236	1261.95
240.129	637.716
243.021	252.72
245.914	6.771
248.807	83.427
251.699	60.948
254.592	95.062
257.485	13.891
260.378	258.34
263.27	692.799
266.163	1017.05
269.056	810.094
271.948	365.624
274.841	106.469
277.734	13.632
280.626	118.718
283.519	385.251
286.412	768.275
289.305	1441.48
292.197	2445
295.09	3584.46
297.983	3930.93
300.875	3026.58
303.768	1865.82
306.661	1058.63
309.553	639.858
312.446	312.337
315.339	221.316
318.232	195.176
321.124	244.605
324.017	405.744
326.91	675.521
329.802	1023.36
332.695	1407.08
335.588	1720.42
338.48	1671.88
341.373	1266.09
344.266	781.816
347.159	452.02
350.051	228.614
352.944	50.529
355.837	11.554
358.729	24.221
361.622	136.836
364.515	293.849
367.408	631.971
370.3	1098.91
373.193	1381.65
376.086	994.974
378.978	412.611
381.871	93.39
384.764	46.642
387.656	44.408
390.549	57.389
393.442	11.27
396.335	65.281
399.227	130.022
402.12	169.218
405.013	244.792
407.905	297.207
410.798	360.542
413.691	399.384
416.583	526.613
419.476	805.396
422.369	1383.23
425.262	2648.3
428.154	4906.6
431.047	8370.06
433.94	7079.78
436.832	3378.84
439.725	1701.33
442.618	965.226
445.51	605.899
448.403	338.11
451.296	266.378
454.189	305.399
457.081	432.883
459.974	619.107
462.867	743.794
465.759	571.61
468.652	304.81
471.545	115.706
474.437	15.694
477.33	5.097
480.223	133.911
483.116	312.561
486.008	320.421
488.901	142.049
491.794	22.824
494.686	55.241
497.579	52.97
500.472	29.537
503.364	29.741
506.257	103.955
509.15	231.738
512.042	265.655
514.935	256.228
517.828	237.497
520.721	196.255
523.613	183.542
526.506	192.74
529.399	299.19
532.291	386.756
535.184	534.38
538.077	583.991
540.969	537.827
543.862	411.316
546.755	296.514
549.648	186.803
552.54	166.893
555.433	138.159
558.326	172.552
561.218	302.796
564.111	423.479
567.004	697.735
569.896	1060.78
572.789	1629.93
575.682	2464.67
578.575	3488.16
581.467	4508.5
584.36	4887.05
587.253	4121.81
590.145	2930.78
593.038	1924.07
595.931	1194.78
598.823	746.772
601.716	406.862
604.609	218.811
607.502	78.051
610.394	13.721
613.287	42.274
616.18	31.235
619.072	20.109
621.965	85.252
624.858	113.11
627.75	213.752
630.643	277.488
633.536	302.416
636.429	364.725
639.321	482.384
642.214	654.013
645.107	842.293
647.999	1123.63
650.892	1488.63
653.785	1989.27
656.677	2443.18
659.57	2832.81
662.463	3032.09
665.356	2924.4
668.248	2475.49
671.141	1941.2
674.034	1432.21
676.926	1055.37
679.819	695.31
682.712	510.365
685.604	325.331
688.497	225.696
691.39	159.945
694.283	89.244
697.175	52.819
700.068	12.76
702.961	5.979
705.853	6.056
708.746	20.731
711.639	16.858
714.531	3.641
717.424	16.821
720.317	3.873
723.21	16.499
726.102	4.023
728.995	0.721
731.888	10.465
734.78	3.277
737.673	29.258
740.566	22.434
743.458	36.92
746.351	48.785
749.244	62.541
752.137	101.572
755.029	193.157
757.922	309.955
760.815	426.305
763.707	531.399
766.6	575.074
769.493	427.615
772.385	300.484
775.278	222.932
778.171	178.605
781.064	166.63
783.956	273.558
786.849	419.633
789.742	609.374
792.634	603.941
795.527	438.93
798.42	252.034
801.312	143.24
804.205	109.966
807.098	144.511
809.991	270.87
812.883	354.479
815.776	181.188
818.669	102.271
821.561	76.021
824.454	106.838
827.347	140.794
830.24	192.127
833.132	226.98
836.025	280.437
838.918	271.37
841.81	316.667
844.703	308.768
847.596	306.128
850.488	354.15
853.381	292.064
856.274	236.978
859.167	199.199
862.059	167.288
864.952	130.819
867.845	94.36
870.737	84.605
873.63	74.75
876.523	57.839
879.415	40.251
882.308	49.291
885.201	48
888.094	43.901
890.986	5.239
893.879	25.887
896.772	18.445
899.664	23.759
902.557	10.111
905.45	12.212
908.342	21.799
911.235	9.471
914.128	7.517
917.021	13.997
919.913	9.053
922.806	7.867
925.699	25.926
928.591	20.31
931.484	21.086
934.377	28.288
937.269	19.311
940.162	26.998
943.055	18.66
945.948	21.154
948.84	37.597
951.733	31.233
954.626	66.73
957.518	62.533
960.411	72.809
963.304	87.066
966.196	147.374
969.089	191.214
971.982	194.563
974.875	103.415
977.767	51.466
980.66	79.321
983.553	64.581
986.445	53.037
989.338	63.749
992.231	77.124
995.123	92.569
998.016	159.396
1000.91	283.825
1003.8	403.459
1006.69	477.49
1009.59	381.748
1012.48	220.049
1015.37	87.302
1018.26	3.395
1021.16	6.264
1024.05	10.033
1026.94	42.03
1029.84	120.85
1032.73	158.967
1035.62	210.87
1038.51	310.14
1041.41	434.703
1044.3	685.186
1047.19	1077.23
1050.09	1732.71
1052.98	3170.65
1055.87	5271.69
1058.76	7143.06
1061.66	6393.78
1064.55	3726.12
1067.44	2033.79
1070.33	1090.84
1073.23	612.55
1076.12	290.044
1079.01	88.326
1081.9	102.664
1084.8	48.015
1087.69	13.957
1090.58	13.517
1093.47	18.44
1096.37	2.207
1099.26	29.466
1102.15	59.125
1105.05	120.815
1107.94	273.218
1110.83	487.248
1113.72	652.153
1116.62	551.864
1119.51	311.364
1122.4	122.849
1125.3	69.641
1128.19	35.164
1131.08	7.816
1133.97	9.517
1136.87	15.445
1139.76	13.858
1142.65	6.865
1145.54	2.782
1148.44	14.801
1151.33	47.439
1154.22	14.014
1157.12	3.029
1160.01	8.177
1162.9	4.769
1165.79	10.843
1168.68	28.452
1171.58	56.78
1174.47	48.718
1177.36	47.068
1180.26	68.756
1183.15	50.606
1186.04	21.892
1188.93	47.706
1191.83	39.048
1194.72	34.664
1197.61	48.525
1200.51	16.362
1203.4	47.292
1206.29	15.587
1209.18	21.901
1212.08	22.67
1214.97	38.84
1217.86	52.6
1220.75	24.709
1223.65	25.495
1226.54	29.998
1229.43	22.11
1232.33	26.589
1235.22	6.262
1238.11	29.209
1241	10.156
1243.9	40.899
1246.79	20.806
1249.68	11.875
1252.57	16.24
1255.47	28.665
1258.36	8.64
