Measurement: Raman, 514 nm, unoriented, Raman Data Processed
Mineral: Apophyllite-(KF)
Rruff sample: R050021
Ideal chemistry: KCa_4_Si_8_O_20_F8H_2_O
Locality: Poona, Maharashtra State, India
Source: Eugene Schlepp
Description: Colorless tetragonal prisms
Measured chemistry: (K_0.98_Na_0.02_)_Σ=1_Ca_4.00_Si_8.00_O_20_(F_0.84_(OH)_0.16_)_Σ=1_·8H_2_O
Raman shift (cm-1)	intensity
71.048	0
75.239	1067.69
79.427	5896.53
83.614	17799.4
87.798	26158.1
91.981	14370.5
96.161	4536.56
100.34	3434.03
104.516	14216.8
108.691	25637.2
112.864	7724.94
117.034	5048.56
121.203	15612.8
125.369	8723.65
129.534	6143.6
133.696	9212.74
137.857	3376.68
142.016	199.623
146.172	611.554
150.327	660.215
154.48	93.656
158.63	2497.59
162.779	6094.98
166.926	4721.25
171.07	1142.96
175.213	195.402
179.354	494.693
183.493	3710.16
187.63	4935.93
191.765	3610.51
195.898	5128.18
200.029	8652.61
204.158	17176.3
208.285	36054.7
212.41	39005.9
216.533	20281.1
220.654	11026.3
224.773	9503.18
228.891	12295.6
233.006	11290.3
237.119	6019.22
241.231	2855.04
245.34	1092.91
249.448	255.137
253.553	25.478
257.657	142.502
261.758	7.926
265.858	599.979
269.956	631.826
274.052	279.245
278.146	328.394
282.237	877.624
286.327	2169.02
290.416	5304.86
294.502	11219.4
298.586	15938.7
302.668	11380.6
306.749	5998.12
310.827	3213.25
314.903	1937.8
318.978	1646.44
323.051	1970.41
327.121	2702.46
331.19	4205.31
335.257	5996.91
339.322	6833.34
343.385	4672.63
347.446	2202.66
351.505	747.803
355.563	129.027
359.618	44.739
363.672	274.276
367.723	1283.28
371.773	3326.35
375.821	4129.47
379.866	1568.49
383.91	101.117
387.952	379.522
391.992	511.255
396.031	192.771
400.067	73.079
404.101	382.002
408.134	811.137
412.165	1086.35
416.193	1280.31
420.22	1992.48
424.245	4509.32
428.268	13938.2
432.289	32076.4
436.309	18771.9
440.326	6940.76
444.342	2664.75
448.355	1098.72
452.367	536.605
456.377	281.396
460.385	407.077
464.391	530.639
468.395	247.069
472.398	16.334
476.398	85.398
480.397	415.475
484.394	1492.16
488.389	1562.68
492.382	779.042
496.373	624.264
500.362	707.417
504.349	1197.56
508.335	1754.54
512.319	2356.36
516.3	2570.96
520.28	2382.2
524.259	2321.96
528.235	2716.15
532.209	3566.18
536.182	4563.06
540.152	4790.77
544.121	4510.7
548.088	3599.64
552.053	2930.82
556.017	2834.69
559.978	2997.28
563.938	3472.76
567.895	4713.24
571.851	6848.9
575.805	10664.4
579.758	17131.2
583.708	23928.7
587.657	23124.8
591.603	15937.5
595.548	9460.08
599.491	5879.89
603.432	4103.32
607.372	3100.84
611.309	2612.05
615.245	2308.12
619.179	2325.05
623.111	2385.84
627.041	2837.33
630.97	2940.33
634.896	3205.99
638.821	3904.78
642.744	4593.87
646.665	5628.82
650.584	7324.64
654.502	9712.32
658.418	12327.9
662.331	15128.3
666.244	15376.6
670.154	12434.7
674.062	8972.74
677.969	5990.81
681.874	3855.03
685.777	2709.14
689.678	1846.14
693.577	1324.01
697.475	893.75
701.371	753.389
705.265	405.493
709.157	277.724
713.047	158.057
716.936	134.803
720.823	30.487
724.708	3.002
728.591	12.795
732.472	17.064
736.352	151.851
740.23	184.603
744.106	151.412
747.98	148.224
751.853	136.074
755.723	20.728
759.592	103.573
763.459	473.009
767.325	724.165
771.188	558.82
775.05	297.258
778.91	303.907
782.768	562.551
786.625	1198.79
790.479	2653.36
794.332	3030.05
798.183	1832.65
802.033	859.17
805.88	570.599
809.726	336.944
813.57	377.21
817.413	428.396
821.253	430.508
825.092	565.546
828.929	868.515
832.764	1147.41
836.598	1250.24
840.429	1476
844.259	1641.7
848.088	1950.33
851.914	2216.94
855.739	2150.61
859.562	1884.26
863.383	1471.91
867.203	1069.57
871.02	881.191
874.836	751.335
878.65	581.926
882.463	519.921
886.274	450.729
890.083	371.521
893.89	330.291
897.695	241.688
901.499	230.532
905.301	205.035
909.102	119.728
912.9	26.575
916.697	53.285
920.492	8.968
924.285	6.814
928.077	22.319
931.867	22.389
935.655	30.587
939.442	85.621
943.226	123.712
947.009	120.854
950.791	88.042
954.57	58.286
958.348	50.587
962.124	180.94
965.899	213.35
969.671	433.812
973.442	560.329
977.211	347.9
980.979	379.527
984.745	459.216
988.509	402.96
992.271	498.802
996.032	640.813
999.791	824.975
1003.55	1207.57
1007.3	1872.08
1011.06	1726.92
1014.81	1263.7
1018.56	1047.71
1022.31	1029.95
1026.06	1290.07
1029.8	1380.72
1033.55	1664.75
1037.29	2313.17
1041.03	2987.26
1044.77	4145.82
1048.5	6124.09
1052.24	10512.9
1055.97	21121.7
1059.7	42194.4
1063.43	43540.6
1067.16	22205.3
1070.89	10284.1
1074.61	5442.37
1078.34	3042.69
1082.06	1978.46
1085.78	1430.55
1089.5	1093.77
1093.21	828.913
1096.93	706.655
1100.64	623.519
1104.35	762.935
1108.06	1054.79
1111.77	2084.51
1115.48	4239.18
1119.18	3133.09
1122.89	1463.48
1126.59	658.99
1130.29	229.037
1133.99	182.601
1137.68	208.75
1141.38	35.169
1145.07	27.288
1148.76	20.908
1152.45	40.767
1156.14	34.396
1159.83	18.645
1163.51	64.688
1167.19	18.387
1170.88	16.61
1174.56	46.051
1178.23	4.277
1181.91	14.471
1185.59	27.106
1189.26	141.757
1192.93	52.033
1196.6	6.261
1200.27	79.74
1203.94	109.229
1207.6	87.401
1211.27	152.842
1214.93	129.028
1218.59	50.269
1222.25	82.165
1225.9	115.925
1229.56	81.499
1233.21	100.074
1236.86	106.093
1240.51	139.516
1244.16	181.881
1247.81	126.832
1251.45	149.145
1255.1	211.305
1258.74	98.172
1262.38	157.077
1266.02	223.582
1269.66	190.911
1273.29	122.54
1276.93	162.938
1280.56	236.205
1284.19	215.498
1287.82	267.747
1291.45	85.298
1295.07	230.297
1298.7	147.478
1302.32	109.465
1305.94	203.35
1309.56	79.284
1313.18	77.277
1316.8	82.425
1320.41	92.532
1324.02	45.68
1327.63	78.471
1331.24	64.225
1334.85	115.636
1338.46	50.439
1342.06	119.035
1345.67	35.874
1349.27	105.766
1352.87	112.214
1356.47	64.039
1360.07	84.685
1363.66	68.294
1367.25	74.097
1370.85	90.964
1374.44	125.487
1378.03	35.752
1381.61	8.135
1385.2	0.388
1388.78	46.277
1392.37	99.918
1395.95	25.412
1399.53	83.572
1403.1	55.82
1406.68	42.052
1410.26	42.489
1413.83	69.968
1417.4	126.993
1420.97	138.354
1424.54	86.894
1428.1	97.474
1431.67	1.134
1435.23	139.736
1438.8	172.18
1442.36	21.749
1445.91	177.855
1449.47	155.646
1453.03	220.297
1456.58	229.656
1460.13	200.655
1463.68	146.583
1467.23	100.178
1470.78	104.737
1474.33	35.984
1477.87	24.964
1481.42	191.499
1484.96	151.677
1488.5	123.135
1492.04	100.392
1495.57	138.139
1499.11	38.848
1502.64	133.03
1506.17	102.066
1509.71	98.478
1513.23	142.08
1516.76	43.181
1520.29	0.128
