Measurement: Raman, 514 nm, unoriented, Raman Data Processed
Mineral: Apophyllite-(KF)
Rruff sample: R050084
Ideal chemistry: KCa_4_Si_8_O_20_F8H_2_O
Locality: near Ahmednagar, Maharashtra, India
Source: Rock Currier
Description: Greenish-white prismatic single crystal associated with scolecite
Measured chemistry: (K_0.98_Na_0.02_)Ca_4.00_Si_8.00_O_20_F_1.00_Â·8H_2_O
Raman shift (cm-1)	intensity
97.554	0
101.732	2190.13
105.908	10103.7
110.082	2916.93
114.254	31.548
118.424	954.944
122.592	2210.28
126.758	1455.25
130.922	3214.56
135.083	2295.02
139.243	3186.6
143.401	3385.5
147.557	1182.11
151.711	415.441
155.863	1234.42
160.013	3268.48
164.161	2577.53
168.308	519.231
172.452	428.029
176.594	96.062
180.734	1782.5
184.872	3746.89
189.008	2011.78
193.143	1860.37
197.275	2933.19
201.405	5113.77
205.534	11872.7
209.66	16782
213.784	9899.3
217.907	5442.82
222.027	4148.44
226.146	5271.81
230.263	5013.85
234.377	2719.9
238.49	1141.94
242.601	492.396
246.709	128.617
250.816	219.107
254.921	119.389
259.024	125.881
263.125	188.18
267.224	481.975
271.321	375.572
275.416	107.352
279.51	218.27
283.601	939.775
287.69	1677.24
291.778	3690.45
295.863	5786.06
299.947	5067.88
304.029	2604.25
308.108	1462.91
312.186	875.475
316.262	813.447
320.336	853.975
324.408	1217.81
328.478	1505.07
332.546	2370.28
336.612	2768.97
340.677	2009.65
344.739	1161.4
348.799	373.066
352.858	124.318
356.915	59.812
360.969	70.631
365.022	403.744
369.073	986.582
373.122	1370.15
377.169	576.449
381.215	208.512
385.258	42.684
389.299	2.787
393.339	164.658
397.376	301.23
401.412	289.482
405.446	419.967
409.478	463.27
413.508	444.756
417.536	594.277
421.562	1312.89
425.586	3537.73
429.609	10511.2
433.629	9912.93
437.648	3219.1
441.665	1047.12
445.68	623.316
449.693	141.166
453.704	428.57
457.713	298.51
461.721	303.086
465.726	209.422
469.73	144.564
473.731	5.197
477.731	96.676
481.729	170.172
485.725	500.699
489.72	232.93
493.712	10.85
497.703	124.898
501.691	199.73
505.678	290.865
509.663	642.281
513.646	838.422
517.627	758.566
521.607	729.971
525.584	637.072
529.56	1011.11
533.534	1244.26
537.506	1485.14
541.476	1338.17
545.444	1328.63
549.41	1056.49
553.375	1035.69
557.337	932.801
561.298	1050.13
565.257	1496.89
569.214	2416.23
573.17	3310.4
577.123	5391.42
581.075	8325.57
585.024	8917
588.972	6932.19
592.918	3968.39
596.863	2668.41
600.805	1928.33
604.746	1561.94
608.685	992.523
612.621	1065.84
616.557	920.201
620.49	1109.14
624.421	1239.85
628.351	1551.34
632.279	1932.16
636.205	1860.98
640.129	2015.4
644.051	2506.49
647.972	2963.29
651.89	3305.26
655.807	4596.81
659.722	5540.11
663.636	5740.23
667.547	5146.53
671.457	3683.67
675.365	2388.28
679.271	1585.69
683.175	1267.83
687.077	759.729
690.978	662.365
694.877	658.709
698.774	63.736
702.669	118.529
706.562	305.035
710.454	334.625
714.344	110.484
718.232	128.061
722.118	70.639
726.002	48.824
729.885	100.439
733.766	140.418
737.645	2.969
741.522	94.863
745.397	68.555
749.271	174.127
753.143	155.359
757.013	6.545
760.881	276.135
764.748	428.443
768.613	222.918
772.476	102.633
776.337	222.625
780.196	341.094
784.054	149.291
787.91	1228.97
791.764	1087.81
795.616	926.389
799.467	472.779
803.316	154.787
807.163	157.553
811.008	181.453
814.851	204.33
818.693	173.924
822.533	156.234
826.371	569.654
830.208	638.967
834.042	410.18
837.875	835.416
841.706	1015.28
845.536	1078.82
849.363	691.248
853.189	686.723
857.013	1128.28
860.836	800.467
864.656	897.818
868.475	490.457
872.292	435.33
876.108	485.514
879.922	395.662
883.733	352.178
887.544	117.777
891.352	243.236
895.159	222.27
898.964	488.355
902.767	331.688
906.568	356.109
910.368	254.996
914.166	217.711
917.962	9.883
921.757	138.785
925.55	355.465
929.341	50.277
933.13	106.516
936.918	152.664
940.703	108.375
944.488	109.887
948.27	434.855
952.051	292.168
955.83	198.801
959.607	168.395
963.383	282.406
967.156	470.91
970.928	493.004
974.699	193.07
978.468	17.676
982.234	191.086
986	632.297
989.763	638.281
993.525	393.406
997.285	632.789
1001.04	1009.96
1004.8	962.984
1008.55	1763.45
1012.31	1138.46
1016.06	670.406
1019.81	588.91
1023.56	619.871
1027.31	792.75
1031.05	1059.92
1034.79	919.414
1038.53	1404.52
1042.27	1539
1046.01	2279.12
1049.75	3992.3
1053.48	6704.28
1057.22	13485.8
1060.95	18184.8
1064.68	11916.4
1068.4	5849.15
1072.13	3343.53
1075.86	2152.27
1079.58	1590.69
1083.3	1179.27
1087.02	2050.68
1090.74	616.613
1094.45	270.324
1098.17	364.156
1101.88	517.285
1105.59	367.754
1109.3	471.902
1113.01	911.031
1116.71	1404.85
1120.42	543.078
1124.12	400.215
1127.82	406.77
1131.52	339.043
1135.22	27.996
1138.91	502.777
1142.61	36.191
1146.3	236.094
1149.99	89.844
1153.68	413.277
1157.37	118.5
1161.06	222.164
1164.74	116.062
1168.42	406.328
1172.1	2.77
1175.78	412.277
1179.46	314.078
1183.14	292.73
1186.81	241.859
1190.48	345.891
1194.15	215.379
1197.83	366.719
1201.49	316.422
1205.16	583.488
1208.82	145.031
1212.49	558.004
1216.15	505.395
1219.81	560.336
1223.46	335.258
1227.12	874.184
1230.78	606.855
1234.43	842.844
1238.08	799.48
1241.73	754.238
1245.38	660.309
1249.03	759.285
1252.67	614.422
1256.31	431.781
1259.95	720.484
1263.6	648.684
1267.23	383.07
1270.87	136.176
1274.51	526.543
1278.14	237.418
1281.77	491.164
1285.4	582.688
1289.03	478.934
1292.66	376.82
1296.28	583.027
1299.91	564.711
1303.53	413.562
1307.15	446.312
1310.77	915.004
1314.38	52.555
1318	534.676
1321.61	485.66
1325.23	399.57
1328.84	4.121
1332.45	360.164
1336.06	186.555
