Measurement: Raman, 780 nm, unoriented, Raman Data Processed
Mineral: Apuanite
Rruff sample: R060674
Ideal chemistry: Fe^2+^Fe^3+^_4_Sb^3+^_4_O_12_S
Locality: Buca della Vena mine, Stazzema, Apuan Alps, Lucca Province, Tuscany, Italy
Source: Michael Scott
Description: Black massive granular
Raman shift (cm-1)	intensity
115.184	0
118.558	1.98468
121.933	3.80917
125.308	20.5257
128.683	19.6112
132.058	17.4736
135.433	8.98712
138.807	10.8415
142.182	8.61842
145.557	1.33357
148.932	1.16701
152.307	0.723389
155.681	0.350754
159.056	0.03833
162.431	2.69078
165.806	4.46181
169.181	8.82239
172.555	14.0868
175.93	16.1681
179.305	12.5764
182.68	12.3002
186.055	15.9228
189.43	21.3634
192.804	25.9521
196.179	28.2417
199.554	29.3766
202.929	31.3287
206.304	33.0863
209.678	33.9071
213.053	35.9504
216.428	38.87
219.803	48.686
223.178	57.1523
226.553	68.2143
229.927	71.3731
233.302	65.0962
236.677	53.3849
240.052	43.1537
243.427	36.0185
246.801	29.5024
250.176	23.9516
253.551	16.521
256.926	10.8831
260.301	6.20856
263.675	5.4168
267.05	1.77454
270.425	0.10408
273.8	1.35757
277.175	1.18911
280.55	0.12381
283.924	0.191559
287.299	1.22528
290.674	1.74676
294.049	2.91476
297.424	4.96745
300.798	7.01453
304.173	6.987
307.548	9.09308
310.923	10.8666
314.298	12.2248
317.673	13.2399
321.047	14.392
324.422	14.529
327.797	13.1968
331.172	13.2375
334.547	12.1644
337.921	11.1601
341.296	9.03902
344.671	6.7401
348.046	4.52001
351.421	2.98235
354.796	1.52673
358.17	0.147232
361.545	0.131516
364.92	0.922417
368.295	0.149918
371.67	1.09974
375.044	3.36606
378.419	6.10744
381.794	8.12996
385.169	11.4913
388.544	15.267
391.918	18.1641
395.293	18.2464
398.668	14.5555
402.043	11.8841
405.418	8.62604
408.793	6.17265
412.167	4.62828
415.542	3.48523
418.917	4.59566
422.292	4.11414
425.667	3.42192
429.041	4.30305
432.416	5.35274
435.791	4.44562
439.166	3.84113
442.541	3.78222
445.915	3.77397
449.29	2.2915
452.665	1.77402
456.04	1.84139
459.415	0.569862
462.789	1.73592
466.164	0.396652
469.539	0.018837
472.914	0.473785
476.289	0.329102
479.664	0.154961
483.038	0.134537
486.413	0.25518
489.788	0.773697
493.163	0.219139
496.538	0.210426
499.913	0.656212
503.287	0.31237
506.662	0.73571
510.037	0.789398
513.412	0.780167
516.787	2.21144
520.161	2.61636
523.536	2.72902
526.911	4.30864
530.286	4.10557
533.661	5.1499
537.035	5.30137
540.41	7.2556
543.785	7.39443
547.16	7.19577
550.535	7.03607
553.909	7.12846
557.284	5.62928
560.659	5.35909
564.034	3.56862
567.409	2.5785
570.784	2.3088
574.158	1.42828
577.533	1.42522
580.908	0.772362
584.283	0.751137
587.658	0.105156
591.033	0.309563
594.407	0.014626
597.782	0.148224
601.157	0.348091
604.532	0.943672
607.907	0.380066
611.281	0.080322
614.656	0.471107
618.031	1.22202
621.406	0.785019
624.781	0.712769
628.155	0.926277
631.53	0.872299
634.905	1.22095
638.28	2.51105
641.655	3.0181
645.029	3.7893
648.404	6.02473
651.779	7.69669
655.154	9.29816
658.529	12.9144
661.904	15.1791
665.278	17.3467
668.653	15.6514
672.028	14.7108
675.403	13.0787
678.778	10.6401
682.153	8.88752
685.527	8.05138
688.902	7.8484
692.277	9.09452
695.652	8.68429
699.027	9.4529
702.401	9.8978
705.776	9.31964
709.151	9.51636
712.526	10.8351
715.901	8.98537
719.275	9.31552
722.65	8.84644
726.025	7.7047
729.4	6.60093
732.775	5.5742
736.149	3.6264
739.524	3.47975
742.899	1.91627
746.274	1.36564
749.649	1.15376
753.024	0.394875
756.398	0.459869
759.773	0.015732
763.148	1.00162
766.523	0.790459
769.898	1.12875
773.273	0.322968
776.647	0.12402
780.022	0.295776
783.397	0.610989
786.772	0.7155
790.146	1.33841
793.521	1.41465
796.896	0.784737
800.271	1.3938
803.646	1.60916
807.021	2.14134
810.395	2.37215
813.77	3.3576
817.145	3.11563
820.52	3.22298
823.895	3.20018
827.269	3.89318
830.644	3.49448
834.019	4.27195
837.394	4.07692
840.769	5.01188
844.144	4.73078
847.518	4.54777
850.893	4.7891
854.268	4.98254
857.643	5.41774
861.018	4.86032
864.393	4.79241
867.767	4.40811
871.142	3.88136
874.517	4.57531
877.892	3.28328
881.266	3.29999
884.641	3.13796
888.016	2.60604
891.391	1.70768
894.766	2.16857
898.141	1.3839
901.515	1.14139
904.89	1.05327
908.265	0.352299
911.64	0.118889
915.015	0.066822
918.389	0.223156
921.764	0.024235
925.139	0.180885
928.514	0.115173
931.889	0.377453
935.264	0.546902
938.638	0.615074
942.013	0.749802
945.388	0.240795
948.763	0.075535
952.138	0.046703
955.512	0.458294
958.887	0.235977
962.262	0.328938
965.637	0.290695
969.012	0.577583
972.386	0.590027
975.761	0.687798
979.136	0.641712
982.511	0.463184
985.886	0.286926
989.261	0.420067
992.635	0.806648
996.01	1.24715
999.385	1.73239
1002.76	0.874809
1006.13	1.51365
1009.51	1.64379
1012.88	0.970867
1016.26	1.25346
1019.63	1.49339
1023.01	1.26249
1026.38	1.94354
1029.76	2.37684
1033.13	1.96292
1036.51	2.16236
1039.88	2.25975
1043.26	1.73722
1046.63	2.68927
1050.01	2.10836
1053.38	2.21975
1056.76	2.52526
1060.13	1.77674
1063.51	1.65588
1066.88	1.1681
1070.26	1.06866
1073.63	1.68677
1077.01	0.791809
1080.38	0.725868
1083.76	1.26554
1087.13	1.05946
1090.51	0.684418
1093.88	0.34267
1097.26	0.263256
1100.63	0.302212
1104	0.330574
1107.38	0.256809
1110.75	0.339214
1114.13	0.46656
1117.5	0.085804
1120.88	0.51112
1124.25	0.338093
1127.63	0.5658
1131	0.192326
1134.38	0.133686
1137.75	0.302982
1141.13	0.01049
1144.5	0.674587
1147.88	0.085785
1151.25	0.23291
1154.63	0.247917
1158	0.484749
1161.38	0.359272
1164.75	0.630405
1168.13	0.100361
1171.5	0.451389
1174.88	0.259201
1178.25	0.509472
1181.62	1.03281
1185	0.698563
1188.38	0.948807
1191.75	0.910801
1195.12	1.24987
1198.5	0.962929
1201.87	0.569382
1205.25	1.4103
1208.62	1.05736
1212	1.01362
1215.37	0.767941
1218.75	0.76128
1222.12	0.306206
1225.5	0.705757
1228.87	0.561378
1232.25	0.778645
1235.62	0.502857
1239	0.820187
1242.37	0.673695
1245.75	0.128822
1249.12	1.01709
1252.5	0.45496
1255.87	0.283333
1259.25	0.257523
1262.62	0.236252
1265.99	0.716282
1269.37	0.587017
1272.74	0.432281
1276.12	1.15599
1279.49	0.190613
1282.87	0.325336
