Measurement: Raman, 532 nm, unoriented, Raman Data Processed
Mineral: Aragonite
Rruff sample: R150021
Ideal chemistry: CaCO_3_
Locality: Gallo river, Molina de Arag√≥n, Guadalajara, Castile-La Mancha, Spain
Source: Canan D'Avela
Description: Twinned crystals shaped like hexagonal prisms
Measured chemistry: (Ca_0.987_Sr_0.0096_)CO_3_
Raman shift (cm-1)	intensity
89.7832	0
93.158	15.3445
96.5328	14.4203
99.9077	4.48279
103.282	1.33618
106.657	0.907074
110.032	14.5554
113.407	22.4978
116.782	24.9924
120.157	11.0441
123.531	12.5996
126.906	15.1149
130.281	26.4692
133.656	42.5484
137.031	71.9963
140.405	115.51
143.78	202.917
147.155	236.188
150.53	393.287
153.905	632.949
157.28	402.102
160.654	176.175
164.029	123.206
167.404	64.8662
170.779	49.3166
174.154	68.7144
177.528	124.532
180.903	220.507
184.278	147.785
187.653	100.081
191.028	148.106
194.403	146.338
197.777	150.578
201.152	224.628
204.527	447.748
207.902	752.295
211.277	323.298
214.651	96.3718
218.026	38.194
221.401	11.9744
224.776	1.97919
228.151	3.79352
231.525	3.69235
234.9	3.79321
238.275	8.9473
241.65	18.2007
245.025	49.8938
248.4	70.6359
251.774	65.4248
255.149	52.1009
258.524	55.231
261.899	66.5604
265.274	48.3992
268.649	47.6982
272.023	58.8352
275.398	53.3301
278.773	31.3836
282.148	19.2523
285.523	11.0686
288.897	4.99005
292.272	4.80487
295.647	0.335602
299.022	0.57843
302.397	0.865814
305.772	0.68924
309.146	2.04782
312.521	1.99335
315.896	2.58731
319.271	2.70523
322.646	1.4057
326.02	0.834229
329.395	4.59818
332.77	3.2529
336.145	2.93048
339.52	3.48993
342.894	5.40021
346.269	5.09375
349.644	1.41797
353.019	5.77319
356.394	1.74451
359.769	4.3927
363.143	5.90869
366.518	3.65216
369.893	4.10394
373.268	0.285339
376.643	1.65839
380.017	5.3064
383.392	7.57477
386.767	2.58844
390.142	3.46991
393.517	0.942444
396.892	1.18189
400.266	0.427795
403.641	2.88147
407.016	2.30194
410.391	3.37396
413.766	2.73901
417.14	4.36414
420.515	5.84503
423.89	2.24274
427.265	5.13721
430.64	4.75024
434.014	5.51123
437.389	1.33954
440.764	0.305908
444.139	0.031738
447.514	3.8197
450.889	6.54333
454.263	1.53503
457.638	4.78235
461.013	1.72003
464.388	3.56232
467.763	9.66718
471.137	4.36353
474.512	5.67364
477.887	1.26379
481.262	2.47168
484.637	4.74719
488.012	5.9361
491.386	5.83814
494.761	6.27295
498.136	1.27277
501.511	4.36975
504.886	2.93286
508.26	2.39087
511.635	4.0459
515.01	3.91138
518.385	3.97296
521.76	5.33142
525.135	2.53613
528.509	0.541382
531.884	0.294006
535.259	1.03485
538.634	3.08337
542.009	6.84839
545.384	4.72339
548.758	3.97864
552.133	4.79736
555.508	7.8761
558.883	5.30316
562.258	5.20282
565.632	5.09412
569.007	6.28564
572.382	6.61798
575.757	1.54907
579.132	6.59112
582.506	1.74323
585.881	5.22363
589.256	3.72784
592.631	5.03381
596.006	4.43243
599.381	5.99109
602.755	0.781189
606.13	2.53522
609.505	7.32733
612.88	8.16449
616.255	2.41443
619.63	6.71454
623.004	6.80811
626.379	7.41833
629.754	5.34283
633.129	1.53851
636.504	4.42615
639.878	5.85431
643.253	2.22492
646.628	0.223694
650.003	2.75751
653.378	12.1026
656.752	3.46655
660.127	1.44653
663.502	1.83789
666.877	2.80414
670.252	3.49329
673.626	5.61853
677.001	0.817322
680.376	1.7915
683.751	6.11078
687.126	9.23785
690.501	25.4517
693.875	37.7372
697.25	85.9293
700.625	197.442
704	213.22
707.375	101.855
710.75	21.5241
714.124	20.1885
717.499	32.1495
720.874	10.624
724.249	6.39386
727.624	6.77112
730.998	10.1788
734.373	8.04877
737.748	4.77692
741.123	2.23792
744.498	4.72095
747.872	5.23151
751.247	10.1777
754.622	3.83392
757.997	5.43317
761.372	8.80109
764.747	3.64539
768.121	3.89514
771.496	7.55969
774.871	4.51147
778.246	4.68487
781.621	2.49988
784.995	3.21887
788.37	0.005188
791.745	1.02667
795.12	0.582397
798.495	2.50629
801.87	4.71796
805.244	3.57062
808.619	9.14667
811.994	1.19873
815.369	0.879395
818.744	3.53259
822.119	7.20373
825.493	1.39831
828.868	2.55072
832.243	3.73792
835.618	2.14093
838.993	2.3382
842.367	8.73554
845.742	2.03113
849.117	3.94574
852.492	4.98486
855.867	5.53546
859.241	6.78522
862.616	7.03155
865.991	10.1297
869.366	4.67999
872.741	6.0816
876.115	3.31311
879.49	1.34021
882.865	4.12268
886.24	3.51215
889.615	2.12763
892.99	5.51422
896.364	7.53284
899.739	5.38306
903.114	4.76782
906.489	8.10004
909.864	5.81457
913.239	3.99408
916.613	4.2973
919.988	2.88647
923.363	2.51526
926.738	0.60675
930.113	0.387451
933.487	2.30609
936.862	5.12176
940.237	0.676514
943.612	1.88202
946.987	0.593445
950.361	5.62866
953.736	2.09753
957.111	3.64728
960.486	4.2489
963.861	0.359314
967.236	2.7951
970.61	2.3512
973.985	5.8515
977.36	3.6319
980.735	2.96295
984.11	3.8783
987.485	8.03064
990.859	6.00482
994.234	8.7561
997.609	4.85681
1000.98	4.67896
1004.36	0.815063
1007.73	4.90967
1011.11	6.7945
1014.48	8.1145
1017.86	1.41107
1021.23	5.05847
1024.61	5.58472
1027.98	4.11462
1031.36	6.95526
1034.73	4.87653
1038.11	7.64593
1041.48	11.3493
1044.86	5.33929
1048.23	2.96777
1051.61	10.269
1054.98	13.5663
1058.36	14.8956
1061.73	22.5835
1065.11	11.4414
1068.48	15.0928
1071.86	32.8048
1075.23	207.838
1078.6	470.514
1081.98	892.01
1085.35	3834.54
1088.73	1550.29
1092.1	129.248
1095.48	41.0478
1098.85	16.7938
1102.23	11.8131
1105.6	11.8991
1108.98	6.75751
1112.35	6.92438
1115.73	4.84961
1119.1	2.13354
1122.48	0.51947
1125.85	3.56824
1129.23	1.6936
1132.6	2.81793
1135.98	2.95129
1139.35	2.45135
1142.73	5.57129
1146.1	3.05926
1149.48	1.66888
1152.85	2.04108
1156.22	4.38141
1159.6	2.82886
1162.97	3.14697
1166.35	2.72406
1169.72	4.57355
1173.1	1.85419
1176.47	5.96344
1179.85	7.05231
1183.22	5.37366
1186.6	6.35486
1189.97	10.4131
1193.35	5.78729
1196.72	6.75238
1200.1	1.22748
1203.47	8.08423
1206.85	6.30359
1210.22	4.12415
1213.6	1.83563
1216.97	4.76544
1220.35	5.7757
1223.72	1.87061
1227.1	2.75104
1230.47	0.198853
1233.85	1.12012
1237.22	3.0365
1240.6	2.9632
1243.97	0.487915
1247.35	0.839722
1250.72	4.49091
1254.1	9.55841
1257.47	5.47559
1260.85	7.46881
1264.22	3.2533
1267.59	3.76263
1270.97	2.22748
1274.34	0.125061
1277.72	7.92017
1281.09	3.72711
1284.47	4.32733
1287.84	2.55658
1291.22	5.60498
1294.59	2.76935
1297.97	3.88129
1301.34	0.013
