Measurement: Raman, 780 nm, unoriented, Raman Data Processed
Mineral: Aragonite
Rruff sample: R150021
Ideal chemistry: CaCO_3_
Locality: Gallo river, Molina de Arag√≥n, Guadalajara, Castile-La Mancha, Spain
Source: Canan D'Avela
Description: Twinned crystals shaped like hexagonal prisms
Measured chemistry: (Ca_0.987_Sr_0.0096_)CO_3_
Raman shift (cm-1)	intensity
94.9347	0
98.3096	5.68561
101.684	0.994751
105.059	8.72943
108.434	10.6579
111.809	26.0347
115.184	36.1649
118.558	18.0123
121.933	3.7959
125.308	2.21716
128.683	4.78332
132.058	26.2018
135.433	56.6353
138.807	96.4134
142.182	162.678
145.557	251.281
148.932	367.664
152.307	659.347
155.681	755.981
159.056	343.413
162.431	164.627
165.806	93.8047
169.181	51.1679
172.555	57.8591
175.93	97.3311
179.305	191.043
182.68	254.927
186.055	119.101
189.43	105.485
192.804	124.143
196.179	153.404
199.554	228.892
202.929	412.9
206.304	841.305
209.678	880.048
213.053	279.683
216.428	93.3144
219.803	36.9607
223.178	11.5451
226.553	2.46551
229.927	5.96429
233.302	5.07306
236.677	4.54981
240.052	20.457
243.427	42.0298
246.801	77.1479
250.176	98.4134
253.551	78.178
256.926	67.7498
260.301	71.7035
263.675	67.5091
267.05	32.3766
270.425	21.2125
273.8	25.5519
277.175	17.3517
280.55	9.0556
283.924	7.12293
287.299	5.49109
290.674	1.28259
294.049	2.32336
297.424	2.75678
300.798	5.58508
304.173	5.2345
307.548	6.01398
310.923	5.0379
314.298	7.36615
317.673	3.16998
321.047	0.903809
324.422	2.37158
327.797	0.97467
331.172	2.07788
334.547	4.89899
337.921	7.25537
341.296	5.03796
344.671	3.63513
348.046	4.41162
351.421	6.12372
354.796	4.21051
358.17	8.22534
361.545	4.82965
364.92	3.09674
368.295	4.33234
371.67	3.19312
375.044	5.59582
378.419	1.83783
381.794	1.55218
385.169	3.33429
388.544	3.46863
391.918	4.63745
395.293	3.26721
398.668	2.72479
402.043	0.422546
405.418	4.70862
408.793	3.64526
412.167	9.29443
415.542	6.93939
418.917	8.07959
422.292	10.9022
425.667	10.8087
429.041	7.81781
432.416	5.79352
435.791	9.35223
439.166	6.1015
442.541	14.4916
445.915	8.14734
449.29	11.5453
452.665	3.95062
456.04	7.20978
459.415	3.84778
462.789	4.97931
466.164	6.30652
469.539	7.25299
472.914	5.51337
476.289	3.37854
479.664	1.5354
483.038	2.59576
486.413	1.15839
489.788	5.18933
493.163	4.73779
496.538	0.903992
499.913	4.97107
503.287	1.89478
506.662	1.60272
510.037	2.41772
513.412	2.61029
516.787	7.2854
520.161	1.10553
523.536	0.464844
526.911	4.09949
530.286	4.72852
533.661	2.43726
537.035	6.27051
540.41	5.23059
543.785	3.28644
547.16	4.32812
550.535	4.88519
553.909	4.86731
557.284	7.51575
560.659	3.95154
564.034	5.78467
567.409	5.71234
570.784	2.90405
574.158	5.55328
577.533	8.42004
580.908	8.89624
584.283	0.595398
587.658	1.9129
591.033	1.78241
594.407	0.894531
597.782	3.10486
601.157	1.23175
604.532	3.79895
607.907	6.76093
611.281	3.10718
614.656	2.6261
618.031	2.81863
621.406	4.14096
624.781	3.59821
628.155	6.88681
631.53	2.08197
634.905	3.76712
638.28	0.352356
641.655	7.08862
645.029	7.15326
648.404	5.64661
651.779	0.42215
655.154	1.60736
658.529	2.30563
661.904	3.61188
665.278	2.40872
668.653	2.11667
672.028	3.38599
675.403	2.08139
678.778	3.33432
682.153	0.458435
685.527	3.18967
688.902	1.19168
692.277	9.94244
695.652	16.5097
699.027	36.8636
702.401	108.132
705.776	57.503
709.151	30.8239
712.526	9.62311
715.901	9.79358
719.275	18.0372
722.65	5.95489
726.025	0.70871
729.4	3.59912
732.775	2.66528
736.149	3.88385
739.524	3.55002
742.899	2.29858
746.274	3.83917
749.649	1.87433
753.024	1.45453
756.398	4.65243
759.773	4.87826
763.148	1.79147
766.523	4.66721
769.898	4.79163
773.273	8.4823
776.647	2.15833
780.022	1.37195
783.397	0.693115
786.772	2.6394
790.146	0.763824
793.521	5.4212
796.896	6.20526
800.271	6.18579
803.646	9.84158
807.021	3.83914
810.395	2.66092
813.77	2.1225
817.145	4.84717
820.52	5.52277
823.895	4.35599
827.269	2.34
830.644	0.355011
834.019	5.19647
837.394	2.87708
840.769	1.8045
844.144	4.55133
847.518	6.13586
850.893	3.11331
854.268	12.6822
857.643	4.06082
861.018	2.61508
864.393	2.12915
867.767	1.41461
871.142	2.72897
874.517	1.3197
877.892	1.33508
881.266	1.73535
884.641	6.82184
888.016	0.351563
891.391	1.47308
894.766	3.04599
898.141	1.37888
901.515	3.40042
904.89	2.80826
908.265	2.27097
911.64	2.08804
915.015	0.092896
918.389	1.87985
921.764	0.164673
925.139	0.863556
928.514	3.24274
931.889	0.712219
935.264	1.89722
938.638	1.5802
942.013	1.86636
945.388	1.18295
948.763	4.74768
952.138	2.34656
955.512	5.29938
958.887	5.97516
962.262	6.21323
965.637	5.24133
969.012	6.70685
972.386	0.361603
975.761	5.96985
979.136	4.72864
982.511	4.63785
985.886	0.274841
989.261	4.25369
992.635	5.61172
996.01	3.35242
999.385	3.55753
1002.76	1.88
1006.13	2.2706
1009.51	1.70502
1012.88	1.93051
1016.26	4.65961
1019.63	3.72052
1023.01	1.65646
1026.38	2.66617
1029.76	1.7587
1033.13	1.70129
1036.51	6.16409
1039.88	2.07877
1043.26	2.59842
1046.63	0.655151
1050.01	1.91525
1053.38	4.23996
1056.76	3.61218
1060.13	7.8916
1063.51	7.60574
1066.88	3.37753
1070.26	6.63184
1073.63	18.7016
1077.01	80.767
1080.38	150.033
1083.76	437.376
1087.13	1927.1
1090.51	200.781
1093.88	22.3851
1097.26	10.169
1100.63	1.78955
1104	3.08276
1107.38	1.84451
1110.75	3.02814
1114.13	3.4696
1117.5	0.057465
1120.88	1.56818
1124.25	1.56827
1127.63	3.36804
1131	0.350464
1134.38	1.51608
1137.75	0.882446
1141.13	4.93814
1144.5	4.17868
1147.88	6.52805
1151.25	8.52502
1154.63	9.61233
1158	12.0116
1161.38	14.8014
1164.75	13.6034
1168.13	21.0818
1171.5	22.4333
1174.88	28.2548
1178.25	37.1186
1181.62	41.98
1185	43.0551
1188.38	41.8854
1191.75	38.4143
1195.12	35.8584
1198.5	29.9583
1201.87	26.1277
1205.25	19.0513
1208.62	19.6722
1212	18.6271
1215.37	13.1072
1218.75	10.4994
1222.12	5.98471
1225.5	4.14374
1228.87	5.88324
1232.25	3.67566
1235.62	0.598572
1239	0.70755
1242.37	1.40875
1245.75	0.896057
1249.12	0.816345
1252.5	0.490723
1255.87	2.59579
1259.25	4.26514
1262.62	2.32342
1265.99	3.47327
1269.37	5.26663
1272.74	6.10907
1276.12	12.5482
1279.49	21.0077
1282.87	8.49683
