Measurement: Raman, 532 nm, unoriented, Raman Data Processed
Mineral: Aragonite
Rruff sample: R040078
Ideal chemistry: CaCO_3_
Locality: Molina, Aragon, Spain
Source: University of Arizona Mineral Museum
Description: Orange pseudohexagonal prisms
Measured chemistry: Ca_1.00_CO_3_
Raman shift (cm-1)	intensity
124.457	0
127.832	3.25354
131.207	16.6401
134.582	129.156
137.957	363.524
141.331	1219.12
144.706	371.851
148.081	19.0141
151.456	60.4058
154.831	149.037
158.205	285.726
161.58	500.707
164.955	178.017
168.33	60.9653
171.705	91.4363
175.079	236.5
178.454	480.933
181.829	749.266
185.204	1019.54
188.579	1582.93
191.953	1322.05
195.328	557.742
198.703	287.294
202.078	287.455
205.453	531.933
208.828	798.984
212.202	1236.34
215.577	1090.86
218.952	524.504
222.327	216.056
225.702	105.727
229.077	49.2872
232.451	8.81329
235.826	1.48912
239.201	12.562
242.576	9.40248
245.951	4.64967
249.325	10.342
252.7	33.7031
256.075	76.4728
259.45	154.839
262.825	302.458
266.199	521.126
269.574	786.745
272.949	909.026
276.324	628.793
279.699	514.84
283.074	499.653
286.448	380.578
289.823	239.684
293.198	160.573
296.573	96.3692
299.948	56.6442
303.322	45.9109
306.697	30.9732
310.072	26.4093
313.447	14.3189
316.822	15.697
320.197	18.2337
323.571	6.56027
326.946	3.73299
330.321	9.31419
333.696	1.27248
337.071	0.879074
340.445	2.67352
343.82	1.08612
347.195	4.42072
350.57	8.34589
353.945	0.5168
357.32	4.51796
360.694	1.93321
364.069	0.728394
367.444	10.5469
370.819	0.895523
374.193	3.54199
377.568	4.13019
380.943	8.31111
384.318	6.4122
387.693	8.63849
391.068	4.35001
394.442	1.66382
397.817	9.95111
401.192	2.42543
404.567	8.34683
407.942	4.30868
411.317	0.156311
414.691	3.97229
418.066	2.35881
421.441	14.111
424.816	1.30769
428.191	16.1513
431.565	1.44385
434.94	8.76004
438.315	7.27049
441.69	7.41238
445.065	7.6949
448.44	5.27808
451.814	8.87589
455.189	8.0345
458.564	7.38168
461.939	8.83514
465.313	2.63463
468.688	3.21024
472.063	12.194
475.438	7.41199
478.813	9.30812
482.188	13.0055
485.562	6.63413
488.937	3.54811
492.312	5.09212
495.687	11.2836
499.062	7.3633
502.437	6.90002
505.811	4.06693
509.186	12.5916
512.561	10.9622
515.936	0.701477
519.311	12.5215
522.685	2.30739
526.06	5.68634
529.435	3.47871
532.81	2.75717
536.185	1.2039
539.559	3.17938
542.934	4.59293
546.309	3.32826
549.684	6.61264
553.059	9.66522
556.433	9.81072
559.808	2.38667
563.183	0.921906
566.558	5.5656
569.933	4.76677
573.308	5.15157
576.682	2.18332
580.057	0.111237
583.432	16.4692
586.807	5.45465
590.182	3.5426
593.557	3.84184
596.931	12.959
600.306	7.37958
603.681	3.15671
607.056	6.07147
610.431	2.9874
613.805	4.56905
617.18	5.73743
620.555	13.2984
623.93	9.47562
627.305	0.439926
630.679	8.48477
634.054	8.39589
637.429	14.1798
640.804	10.4705
644.179	5.30469
647.553	6.61032
650.928	2.3036
654.303	15.3709
657.678	19.1075
661.053	2.27785
664.428	5.06013
667.802	11.977
671.177	15.7035
674.552	13.3097
677.927	29.0793
681.302	49.699
684.677	80.9677
688.051	215.247
691.426	463.841
694.801	896.679
698.176	1887.32
701.551	4971.3
704.925	3153.02
708.3	827.362
711.675	167.66
715.05	74.9935
718.425	51.4603
721.799	35.3685
725.174	21.4097
728.549	13.6285
731.924	3.25369
735.299	0.616165
738.674	8.36708
742.048	1.89577
745.423	11.6244
748.798	11.2653
752.173	1.56235
755.548	5.09084
758.922	3.17902
762.297	2.73276
765.672	5.53943
769.047	2.36212
772.422	14.1819
775.797	11.6985
779.171	5.02435
782.546	1.74434
785.921	7.69061
789.296	3.52945
792.671	7.04187
796.045	2.70126
799.42	4.04869
802.795	0.389587
806.17	0.616943
809.545	4.54187
812.919	1.26558
816.294	7.9577
819.669	4.7056
823.044	4.54246
826.419	5.11783
829.794	3.40588
833.168	11.1904
836.543	9.23053
839.918	15.3576
843.293	12.5744
846.668	16.6669
850.043	28.7188
853.417	77.2731
856.792	17.9088
860.167	17.2848
863.542	14.5904
866.917	14.3941
870.291	17.3858
873.666	11.6538
877.041	8.45757
880.416	17.6282
883.791	14.0712
887.165	25.1261
890.54	22.6859
893.915	7.09941
897.29	18.1481
900.665	16.9348
904.039	10.1296
907.414	14.9406
910.789	16.2779
914.164	10.3451
917.539	13.1496
920.914	15.5806
924.288	15.4324
927.663	8.32805
931.038	17.7943
934.413	0.488647
937.788	15.9621
941.163	8.30518
944.537	8.12097
947.912	0.508804
951.287	2.19333
954.662	8.78188
958.037	10.6193
961.411	14.3626
964.786	8.03552
968.161	1.85641
971.536	10.6598
974.911	7.70825
978.285	14.2682
981.66	26.0585
985.035	23.1135
988.41	19.3701
991.785	15.956
995.159	22.2076
998.534	6.85294
1001.91	5.75351
1005.28	4.60516
1008.66	2.46478
1012.03	5.5003
1015.41	1.92172
1018.78	0.170685
1022.16	7.92493
1025.53	4.79895
1028.91	1.10681
1032.28	6.21133
1035.66	7.06171
1039.03	9.06412
1042.41	5.95245
1045.78	22.2429
1049.16	18.6338
1052.53	40.9417
1055.91	71.3601
1059.28	166.509
1062.66	82.9446
1066.03	128.817
1069.4	239.367
1072.78	912.935
1076.15	2820.64
1079.53	6370.65
1082.9	14941
1086.28	24807.7
1089.65	955.383
1093.03	291.042
1096.4	142.681
1099.78	77.2334
1103.15	50.6745
1106.53	33.4673
1109.9	25.0967
1113.28	1.73129
1116.65	17.4575
1120.03	5.76529
1123.4	4.72333
1126.78	3.52435
1130.15	6.76962
1133.53	17.8931
1136.9	9.98535
1140.28	14.0345
1143.65	12.5008
1147.03	10.9184
1150.4	8.00854
1153.78	4.14304
1157.15	6.72977
1160.53	6.73383
1163.9	1.258
1167.28	6.93112
1170.65	0.95993
1174.03	30.6299
1177.4	14.1634
1180.77	1.70532
1184.15	8.69678
1187.52	0.033356
1190.9	1.95328
1194.27	13.1152
1197.65	13.0871
1201.02	8.9317
1204.4	10.2776
1207.77	15.846
1211.15	3.4744
1214.52	4.06155
1217.9	10.6099
1221.27	11.9548
1224.65	14.7984
1228.02	6.2666
1231.4	14.4754
1234.77	7.07614
1238.15	7.82532
1241.52	9.19107
1244.9	3.17127
1248.27	23.27
1251.65	9.03104
1255.02	17.3535
1258.39	20.166
1261.77	10.8446
1265.14	14.7893
1268.52	7.28677
1271.89	16.4891
1275.27	11.3784
1278.64	12.0406
1282.02	6.24603
1285.39	6.35092
1288.77	13.3843
1292.14	13.2856
1295.52	9.83615
