Measurement: Raman, 532 nm, unoriented, Raman Data Processed
Mineral: Aragonite
Rruff sample: R060195
Ideal chemistry: CaCO_3_
Locality: Cicov Hill, Horenec, Czech Republic
Source: Marcus Origlieri
Description: Colorless transparent elongated prismatic crystal
Measured chemistry: Ca_1.00_CO_3_
Raman shift (cm-1)	intensity
133.54	0
136.915	349.788
140.29	1626
143.665	3994.56
147.039	3721.05
150.414	6073.26
153.789	10110.8
157.164	5731.78
160.539	1956.71
163.913	1007.11
167.288	41.831
170.663	86.5447
174.038	194.043
177.413	728.43
180.788	1550.77
184.162	1331.25
187.537	1828
190.912	3177.5
194.287	2602.38
197.662	1965.23
201.036	2222.16
204.411	3396.1
207.786	4859.87
211.161	3413.71
214.536	3481.71
217.911	2429.19
221.285	926.719
224.66	315.913
228.035	56.7978
231.41	65.8737
234.785	92.093
238.159	35.4083
241.534	37.6674
244.909	176.542
248.284	305.906
251.659	327.373
255.034	368.513
258.408	519.886
261.783	734.147
265.158	911.444
268.533	1276.68
271.908	1750.84
275.282	1698.43
278.657	1297.11
282.032	1192.79
285.407	1142.34
288.782	828.432
292.156	448.567
295.531	232.725
298.906	127.977
302.281	78.5304
305.656	53.1799
309.031	34.39
312.405	32.3002
315.78	18.9462
319.155	31.4319
322.53	16.4442
325.905	14.2529
329.279	9.76526
332.654	10.7623
336.029	16.0974
339.404	1.03125
342.779	15.6228
346.154	1.2196
349.528	3.74792
352.903	5.11792
356.278	1.646
359.653	11.7659
363.028	10.963
366.402	15.4171
369.777	11.4448
373.152	14.5295
376.527	5.85669
379.902	4.11487
383.276	2.15295
386.651	2.76856
390.026	2.56799
393.401	6.93213
396.776	5.19458
400.151	0.604248
403.525	3.29773
406.9	2.61585
410.275	4.07666
413.65	0.258057
417.025	3.55688
420.399	2.43835
423.774	20.7189
427.149	6.32397
430.524	14.5763
433.899	1.46045
437.274	2.87842
440.648	1.91101
444.023	3.86597
447.398	7.97424
450.773	6.22034
454.148	5.9635
457.522	3.51147
460.897	1.32519
464.272	0.189087
467.647	16.5221
471.022	12.0941
474.397	12.3442
477.771	1.00855
481.146	6.01331
484.521	9.77502
487.896	1.2804
491.271	12.5421
494.645	17.0421
498.02	8.48254
501.395	20.5796
504.77	10.2094
508.145	1.69104
511.519	5.50659
514.894	7.03003
518.269	20.8668
521.644	7.20398
525.019	1.93958
528.394	14.4857
531.768	4.38098
535.143	16.7777
538.518	13.327
541.893	11.2753
545.268	16.3761
548.643	19.1387
552.017	6.51892
555.392	16.9504
558.767	9.69385
562.142	12.9493
565.517	6.54504
568.891	12.1887
572.266	8.43335
575.641	13.9856
579.016	3.76697
582.391	3.38123
585.765	1.71399
589.14	5.65649
592.515	7.55103
595.89	6.68372
599.265	3.61951
602.639	13.3209
606.014	18.6055
609.389	11.1597
612.764	5.23865
616.139	2.63074
619.514	5.42322
622.888	0.132935
626.263	9.72888
629.638	16.5161
633.013	3.51111
636.388	0.015503
639.763	9.98608
643.137	7.16772
646.512	11.4282
649.887	0.540161
653.262	11.6639
656.637	4.15051
660.011	18.6542
663.386	12.645
666.761	21.1462
670.136	22.9961
673.511	19.395
676.885	34.0177
680.26	41.363
683.635	88.2677
687.01	259.729
690.385	763.067
693.76	1623.82
697.134	2852.63
700.509	5582.85
703.884	6080.82
707.259	5453.27
710.634	608.789
714.009	212.85
717.383	170.049
720.758	60.5101
724.133	39.8938
727.508	25.6311
730.883	10.4864
734.257	12.6027
737.632	18.4163
741.007	2.3894
744.382	6.76575
747.757	8.03052
751.131	5.86401
754.506	6.48938
757.881	7.36755
761.256	6.08301
764.631	8.61426
768.006	2.51648
771.38	2.72241
774.755	3.98731
778.13	6.74793
781.505	2.33801
784.88	3.68042
788.254	2.23706
791.629	3.6134
795.004	7.25549
798.379	13.7575
801.754	12.4663
805.129	0.944702
808.503	3.57739
811.878	6.20349
815.253	10.1924
818.628	5.10388
822.003	15.3498
825.377	4.00891
828.752	10.5487
832.127	11.3088
835.502	11.5581
838.877	10.5923
842.251	33.5283
845.626	36.105
849.001	41.9592
852.376	116.091
855.751	73.2571
859.125	21.7002
862.5	19.1936
865.875	11.2684
869.25	12.0797
872.625	14.1033
876	16.5172
879.375	11.7079
882.749	11.4399
886.124	7.87451
889.499	13.8933
892.874	12.5844
896.249	13.5737
899.623	9.19226
902.998	21.0332
906.373	15.6104
909.748	18.9426
913.123	18.7119
916.497	12.3088
919.872	17.1731
923.247	21.6354
926.622	13.9772
929.997	8.00879
933.371	5.53247
936.746	10.1865
940.121	9.41248
943.496	4.16589
946.871	1.69006
950.246	2.34265
953.62	2.44739
956.995	2.75085
960.37	8.8634
963.745	1.17017
967.12	0.966431
970.495	0.602173
973.869	6.95642
977.244	1.49341
980.619	3.10754
983.994	2.0072
987.369	11.0995
990.743	0.322388
994.118	7.47034
997.493	11.4419
1000.87	15.0854
1004.24	1.32788
1007.62	15.6873
1010.99	11.9595
1014.37	19.1478
1017.74	9.30469
1021.12	21.9439
1024.49	25.9004
1027.87	24.7553
1031.24	18.5891
1034.62	30.4033
1037.99	61.0447
1041.37	50.5377
1044.74	55.4977
1048.12	66.0205
1051.49	104.477
1054.87	134.899
1058.24	225.36
1061.62	314.043
1064.99	163.925
1068.36	264.852
1071.74	594.698
1075.11	4943.53
1078.49	8842.45
1081.86	17725.7
1085.24	66734.9
1088.61	14509.2
1091.99	1234.78
1095.36	479.042
1098.74	253.896
1102.11	145.792
1105.49	84.4098
1108.86	56.3398
1112.24	36.2659
1115.61	17.636
1118.99	14.7529
1122.36	9.40002
1125.74	2.74023
1129.11	3.24085
1132.49	0.270142
1135.86	3.59228
1139.23	8.98157
1142.61	0.404541
1145.98	0.625977
1149.36	1.15503
1152.73	4.92102
1156.11	2.44714
1159.48	8.13782
1162.86	9.88354
1166.23	0.241211
1169.61	2.79016
1172.98	5.58862
1176.36	6.29529
1179.73	3.93811
1183.11	1.75159
1186.48	9.19324
1189.86	11.6932
1193.23	13.752
1196.61	15.3811
1199.98	14.012
1203.36	5.42004
1206.73	12.3342
1210.11	18.7455
1213.48	27.5237
1216.86	14.2649
1220.23	27.4934
1223.61	17.7956
1226.98	21.2696
1230.36	22.761
1233.73	14.2819
1237.11	13.7208
1240.48	20.4274
1243.86	20.3814
1247.23	5.58606
1250.6	14.8763
1253.98	4.89539
1257.35	11.5629
1260.73	11.6577
1264.1	11.5597
1267.48	7.35254
1270.85	23.0065
1274.23	22.2639
1277.6	10.1545
1280.98	0.755493
1284.35	12.349
1287.73	6.50891
1291.1	16.2617
1294.48	10.1888
1297.85	7.66186
1301.23	12.6899
