Measurement: Raman, 785 nm, unoriented, Raman Data Processed
Mineral: Aragonite
Rruff sample: R040078
Ideal chemistry: CaCO_3_
Locality: Molina, Aragon, Spain
Source: University of Arizona Mineral Museum
Description: Orange pseudohexagonal prisms
Measured chemistry: Ca_1.00_CO_3_
Raman shift (cm-1)	intensity
134.647	0
137.539	1.36398
140.432	115.171
143.325	302.134
146.217	110.004
149.11	118.019
152.003	139.858
154.895	111.17
157.788	99.4838
160.681	167.123
163.573	93.3298
166.466	16.1843
169.359	0.036194
172.252	42.7863
175.144	127.736
178.037	250.842
180.93	368.838
183.822	476.156
186.715	823.485
189.608	1116.85
192.5	858.201
195.393	459.369
198.286	266.895
201.179	270.388
204.071	428.642
206.964	779.376
209.857	1293.84
212.749	1862
215.642	1652.8
218.535	927.982
221.428	447.417
224.32	244.17
227.213	124.642
230.106	59.684
232.998	29.3903
235.891	12.0892
238.784	9.23511
241.676	8.77992
244.569	3.61798
247.462	1.07338
250.355	8.32802
253.247	6.92204
256.14	37.3064
259.033	46.9373
261.925	142.538
264.818	234.234
267.711	408.064
270.603	599.337
273.496	633.403
276.389	541.436
279.281	507.369
282.174	533.999
285.067	504.891
287.96	315.499
290.852	219.896
293.745	127.569
296.638	94.1326
299.53	58.9626
302.423	56.8687
305.316	46.9051
308.209	37.6766
311.101	13.1233
313.994	7.38889
316.887	8.8925
319.779	3.38391
322.672	4.61398
325.565	1.66612
328.457	7.18259
331.35	4.58929
334.243	16.1671
337.135	29.3157
340.028	24.8655
342.921	30.2692
345.814	19.0829
348.706	27.3925
351.599	40.0269
354.492	54.5076
357.384	55.6103
360.277	59.7409
363.17	68.5687
366.062	64.405
368.955	54.6083
371.848	58.5945
374.741	49.9002
377.633	33.4702
380.526	27.4082
383.419	26.0424
386.311	14.7942
389.204	6.90067
392.097	1.38994
394.99	3.35893
397.882	2.56641
400.775	11.8907
403.668	9.58495
406.56	3.81699
409.453	5.29591
412.346	3.70086
415.238	2.28358
418.131	5.14256
421.024	1.5439
423.916	3.51184
426.809	0.630539
429.702	7.94502
432.595	6.82955
435.487	5.33865
438.38	19.8002
441.273	2.0788
444.165	1.06148
447.058	10.7789
449.951	14.0719
452.844	8.95717
455.736	2.71034
458.629	11.5103
461.522	13.6925
464.414	13.6422
467.307	16.8213
470.2	7.81978
473.092	12.7566
475.985	4.74377
478.878	21.7827
481.771	6.52651
484.663	9.2746
487.556	11.134
490.449	23.0249
493.341	11.5063
496.234	6.59882
499.127	19.824
502.019	24.4608
504.912	1.57638
507.805	0.172226
510.697	3.3247
513.59	11.118
516.483	0.462807
519.376	5.15296
522.268	6.93128
525.161	9.6856
528.054	16.1763
530.946	6.58668
533.839	0.676544
536.732	15.1326
539.625	2.88506
542.517	5.18968
545.41	6.03384
548.303	1.48929
551.195	0.582878
554.088	19.9139
556.981	14.2076
559.873	8.30879
562.766	0.309326
565.659	4.55438
568.552	0.46505
571.444	7.40897
574.337	6.50617
577.23	6.56473
580.122	12.6277
583.015	1.3374
585.908	18.8263
588.8	0.022141
591.693	13.0007
594.586	5.27151
597.479	7.50526
600.371	8.91402
603.264	6.94208
606.157	5.42609
609.049	13.3856
611.942	11.5506
614.835	5.44312
617.727	16.3623
620.62	7.9887
623.513	17.6075
626.405	7.80017
629.298	13.2017
632.191	4.74195
635.084	0.941071
637.976	2.16981
640.869	3.14264
643.762	5.01898
646.654	4.10065
649.547	0.583054
652.44	10.7054
655.332	6.60452
658.225	3.40102
661.118	6.76997
664.011	13.5486
666.903	15.7758
669.796	8.94206
672.689	2.89288
675.581	10.6838
678.474	18.249
681.367	16.1268
684.26	35.14
687.152	46.2712
690.045	80.5594
692.938	211.198
695.83	518.064
698.723	1290.29
701.616	2928.4
704.508	2460.59
707.401	1335.05
710.294	233.848
713.187	103.791
716.079	72.8383
718.972	36.1368
721.865	29.0492
724.757	30.5993
727.65	19.9277
730.543	11.9095
733.435	18.6226
736.328	9.47654
739.221	12.3326
742.114	14.8587
745.006	5.43889
747.899	17.9997
750.792	11.9814
753.684	10.1676
756.577	4.2352
759.47	8.5472
762.362	8.46918
765.255	1.24643
768.148	1.63934
771.04	16.7991
773.933	10.3435
776.826	2.07555
779.719	8.15681
782.611	4.19981
785.504	17.599
788.397	14.142
791.289	1.99227
794.182	10.1055
797.075	8.97154
799.967	1.73985
802.86	11.6463
805.753	4.98455
808.646	2.59216
811.538	5.75373
814.431	11.2317
817.324	5.90329
820.216	16.4969
823.109	9.25844
826.002	0.29287
828.894	8.19302
831.787	2.23793
834.68	5.34949
837.573	1.32935
840.465	12.3094
843.358	19.5918
846.251	7.60859
849.143	8.63794
852.036	35.1878
854.929	17.1994
857.822	11.3499
860.714	9.31705
863.607	6.99622
866.5	8.01541
869.392	13.1496
872.285	6.30662
875.178	12.9264
878.07	16.2777
880.963	13.9919
883.856	19.9301
886.749	10.6032
889.641	27.5421
892.534	15.1072
895.427	13.4939
898.319	18.9459
901.212	17.8247
904.105	2.63792
906.997	7.30101
909.89	11.5913
912.783	16.9702
915.675	5.94182
918.568	1.21247
921.461	4.6133
924.354	6.83602
927.246	4.21079
930.139	7.87662
933.032	12.3151
935.924	0.163422
938.817	6.09625
941.71	10.1526
944.602	12.4762
947.495	1.2072
950.388	4.90904
953.28	6.76778
956.173	12.0786
959.066	5.75806
961.959	9.16774
964.851	13.9363
967.744	17.0507
970.637	2.44843
973.529	12.1848
976.422	10.8022
979.315	13.7372
982.207	16.5679
985.1	33.2807
987.993	18.0823
990.886	11.0142
993.778	5.93724
996.671	15.7432
999.564	24.7848
1002.46	7.04526
1005.35	18.5407
1008.24	11.7331
1011.13	14.1964
1014.03	8.43098
1016.92	5.81277
1019.81	4.56256
1022.71	3.95042
1025.6	1.88861
1028.49	3.38704
1031.38	0.101227
1034.28	9.45319
1037.17	9.87204
1040.06	3.35533
1042.95	11.0211
1045.85	21.7066
1048.74	30.3675
1051.63	22.4671
1054.53	49.4998
1057.42	70.5751
1060.31	97.4343
1063.2	64.9263
1066.1	72.846
1068.99	105.673
1071.88	167.97
1074.77	280.496
1077.67	835.517
1080.56	3595
1083.45	11825.4
1086.35	13168.9
1089.24	868.922
1092.13	362.142
1095.02	304.556
1097.92	323.18
1100.81	364.589
1103.7	450.921
1106.59	510.181
1109.49	532.817
1112.38	509.22
1115.27	425.249
1118.16	362.079
1121.06	269.007
1123.95	212.569
1126.84	188.347
1129.73	133.762
1132.63	88.3748
1135.52	79.128
1138.41	52.8578
1141.31	38.1646
1144.2	33.6211
1147.09	27.6723
1149.98	16.4902
1152.88	7.20816
1155.77	5.12309
1158.66	12.4171
1161.56	11.0438
1164.45	4.03268
1167.34	6.57016
1170.23	10.2674
1173.13	2.77917
1176.02	1.83099
1178.91	16.0547
1181.8	35.9409
1184.7	56.9433
1187.59	86.6835
1190.48	182.458
1193.38	309.467
1196.27	473.348
1199.16	673.632
1202.05	924.132
1204.94	1070.15
1207.84	1031.99
1210.73	904.429
1213.62	751.205
1216.52	637.128
1219.41	639.858
1222.3	649.288
1225.19	781.832
1228.09	935.082
1230.98	1102.84
1233.87	1300.45
1236.77	1365.05
1239.66	1419.6
1242.55	1295.71
1245.44	1096.82
1248.34	905.657
1251.23	615.299
1254.12	449.017
1257.01	304.264
1259.91	172.696
1262.8	79.4977
1265.69	22.442
1268.59	9.74487
1271.48	0
