Measurement: Raman, 514 nm, unoriented, Raman Data Processed
Mineral: Aragonite
Rruff sample: R040078
Ideal chemistry: CaCO_3_
Locality: Molina, Aragon, Spain
Source: University of Arizona Mineral Museum
Description: Orange pseudohexagonal prisms
Measured chemistry: Ca_1.00_CO_3_
Raman shift (cm-1)	intensity
133.696	0
137.857	129.831
142.016	486.479
146.172	1587.59
150.327	3016.25
154.48	3505.97
158.63	2304.52
162.779	1280.22
166.926	427.495
171.07	105.346
175.213	457.245
179.354	748.03
183.493	417.439
187.63	205.696
191.765	245.676
195.898	571.524
200.029	1988.37
204.158	3572.03
208.285	3432.5
212.41	1282.81
216.533	339.006
220.654	59.684
224.773	27.651
228.891	39.209
233.006	34.082
237.119	35.875
241.231	227.167
245.34	389.109
249.448	421.871
253.553	374.865
257.657	368.887
261.758	346.388
265.858	185.593
269.956	127.035
274.052	52.333
278.146	89.02
282.237	24.836
286.327	61.945
290.416	13.232
294.502	13.326
298.586	29.795
302.668	37.087
306.749	23.44
310.827	2.268
314.903	27.539
318.978	15.167
323.051	40.67
327.121	53.124
331.19	25.773
335.257	31.777
339.322	53.449
343.385	60.985
347.446	133.85
351.505	111.142
355.563	81.782
359.618	22.066
363.672	170.309
367.723	106.451
371.773	118.9
375.821	141.175
379.866	80.957
383.91	137.438
387.952	163.764
391.992	170.424
396.031	116.122
400.067	163.103
404.101	117.88
408.134	36.455
412.165	212.824
416.193	206.862
420.22	128.701
424.245	40.083
428.268	172.889
432.289	177.255
436.309	138.697
440.326	149.572
444.342	38.731
448.355	73.229
452.367	133.596
456.377	80.513
460.385	8.349
464.391	140.205
468.395	191.247
472.398	116.473
476.398	19.261
480.397	190.625
484.394	161.204
488.389	45.558
492.382	40.688
496.373	94.402
500.362	131.606
504.349	139.269
508.335	171.953
512.319	127.006
516.3	105.35
520.28	153.667
524.259	70.772
528.235	55.427
532.209	164.751
536.182	141.545
540.152	424.784
544.121	122.619
548.088	44.349
552.053	162.453
556.017	58.147
559.978	118.074
563.938	120.945
567.895	87.879
571.851	123.748
575.805	230.979
579.758	42.141
583.708	19.89
587.657	36.24
591.603	189.818
595.548	35.803
599.491	14.972
603.432	15.183
607.372	152.394
611.309	166.389
615.245	39.604
619.179	39.83
623.111	57.798
627.041	134.738
630.97	18.433
634.896	147.397
638.821	177.671
642.744	82.228
646.665	16.049
650.584	166.144
654.502	221.392
658.418	19.577
662.331	21.412
666.244	24.2
670.154	36.131
674.062	10.509
677.969	172.989
681.874	143.79
685.777	172.479
689.678	39.266
693.577	167.562
697.475	76.164
701.371	234.203
705.265	116.879
709.157	218.942
713.047	57.142
716.936	307.07
720.823	302.501
724.708	90.227
728.591	168.998
732.472	195.472
736.352	51.112
740.23	94.08
744.106	122.733
747.98	56.664
751.853	46.452
755.723	94.984
759.592	182.944
763.459	47.881
767.325	45.911
771.188	146.712
775.05	107.69
778.91	53.128
782.768	112.688
786.625	26.723
790.479	202.931
794.332	83.526
798.183	19.616
802.033	155.704
805.88	157.518
809.726	104.002
813.57	121.07
817.413	101.471
821.253	120.942
825.092	139.98
828.929	96.624
832.764	138.689
836.598	42.072
840.429	170.341
844.259	139.924
848.088	34.359
851.914	615.076
855.739	274.299
859.562	96.078
863.383	284.495
867.203	225.221
871.02	112.425
874.836	62.354
878.65	29.562
882.463	79.083
886.274	125.778
890.083	295.988
893.89	134.518
897.695	104.88
901.499	34.23
905.301	206.531
909.102	265.219
912.9	75.215
916.697	276.875
920.492	280.068
924.285	58.231
928.077	153.329
931.867	175.436
935.655	107.256
939.442	156.52
943.226	176.4
947.009	126.956
950.791	121.761
954.57	68.735
958.348	225.663
962.124	152.681
965.899	191.632
969.671	106.533
973.442	28.42
977.211	214.092
980.979	248.513
984.745	275.794
988.509	227.64
992.271	169.201
996.032	237.854
999.791	231.55
1003.55	92.002
1007.3	88.988
1011.06	296.112
1014.81	278.871
1018.56	158.202
1022.31	206.67
1026.06	309.688
1029.8	130.759
1033.55	323.654
1037.29	272.794
1041.03	337.244
1044.77	314.552
1048.5	302.618
1052.24	267.897
1055.97	283.387
1059.7	487.22
1063.43	449.803
1067.16	360.118
1070.89	338.062
1074.61	459.549
1078.34	1013.37
1082.06	4236.12
1085.78	45959.2
1089.5	5930.92
1093.21	982.832
1096.93	555.949
1100.64	403.719
1104.35	192.396
1108.06	139.1
1111.77	221.839
1115.48	207.843
1119.18	144.251
1122.89	158.66
1126.59	159.35
1130.29	22.457
1133.99	70.279
1137.68	272.898
1141.38	109.106
1145.07	16.42
1148.76	97.377
1152.45	29.751
1156.14	89.473
1159.83	149.045
1163.51	210.325
1167.19	171.314
1170.88	250.193
1174.56	85.426
1178.23	193.385
1181.91	169.39
1185.59	182.155
1189.26	135.995
1192.93	117.79
1196.6	124.138
1200.27	158.894
1203.94	361.515
1207.6	71.161
1211.27	261.78
1214.93	58.787
1218.59	168.034
1222.25	119.159
1225.9	248.007
1229.56	192.282
1233.21	203.227
1236.86	345.586
1240.51	155.466
1244.16	191.77
1247.81	180.889
1251.45	154.023
1255.1	220.78
1258.74	45.149
1262.38	56.107
1266.02	309.804
1269.66	216.083
1273.29	162.391
1276.93	149.748
1280.56	221.4
1284.19	61.643
1287.82	172.707
1291.45	86.834
1295.07	73.541
1298.7	47.697
1302.32	33.361
1305.94	174.158
1309.56	154.342
1313.18	6.236
1316.8	198.414
1320.41	13.148
1324.02	90.795
1327.63	236.15
1331.24	57.59
1334.85	4.105
1338.46	62.771
1342.06	200.871
1345.67	292.988
1349.27	264.107
1352.87	149.631
1356.47	323.723
1360.07	336.891
1363.66	205.893
1367.25	72.326
1370.85	229.943
1374.44	97.242
1378.03	70.361
1381.61	217.82
1385.2	194.24
1388.78	150.262
1392.37	331.992
1395.95	360.35
1399.53	318.012
1403.1	388.832
1406.68	98.869
1410.26	270.85
1413.83	371.51
1417.4	78.047
1420.97	390.934
1424.54	196.26
1428.1	285.826
1431.67	196.736
1435.23	222.152
1438.8	427.059
1442.36	350.846
1445.91	273.105
1449.47	359.432
1453.03	532.867
1456.58	611.412
1460.13	402.176
1463.68	538.641
1467.23	477.742
1470.78	366.684
1474.33	284.457
1477.87	259.928
1481.42	90.646
1484.96	249.438
1488.5	135.324
1492.04	251.955
1495.57	393.529
1499.11	245.463
1502.64	94.359
1506.17	237.525
1509.71	113.672
1513.23	309.447
1516.76	21.6
1520.29	207.174
1523.81	89.658
