Measurement: Raman, 780 nm, unoriented, Raman Data Processed
Mineral: Aragonite
Rruff sample: R060195
Ideal chemistry: CaCO_3_
Locality: Cicov Hill, Horenec, Czech Republic
Source: Marcus Origlieri
Description: Colorless transparent elongated prismatic crystal
Measured chemistry: Ca_1.00_CO_3_
Raman shift (cm-1)	intensity
121.236	0
124.611	6.28061
127.986	1.22296
131.361	56.2468
134.736	169.745
138.11	299.768
141.485	554.339
144.86	914.32
148.235	1694.8
151.61	3489.35
154.984	3573.52
158.359	1254.61
161.734	453.435
165.109	171.178
168.484	78.8185
171.858	75.0991
175.233	129.771
178.608	290.456
181.983	372.398
185.358	280.533
188.733	478.963
192.107	572.932
195.482	390.483
198.857	377.375
202.232	540.454
205.607	1013.49
208.982	974.582
212.356	714.873
215.731	662.267
219.106	320.832
222.481	131.123
225.856	57.0166
229.23	12.2688
232.605	11.8626
235.98	15.6534
239.355	4.77881
242.73	18.6038
246.105	49.6414
249.479	60.9817
252.854	57.6618
256.229	67.2888
259.604	96.418
262.978	126.199
266.353	155.081
269.728	235.246
273.103	292.693
276.478	237.482
279.853	191.023
283.227	186.211
286.602	154.638
289.977	91.5473
293.352	44.8972
296.727	17.6049
300.101	9.54462
303.476	0.191177
306.851	0.935867
310.226	1.43551
313.601	0.643478
316.976	0.35598
320.35	1.30008
323.725	1.49513
327.1	0.657837
330.475	0.504219
333.85	0.171585
337.224	0.482338
340.599	1.14416
343.974	1.49046
347.349	2.33238
350.724	1.04556
354.099	1.6583
357.473	3.24338
360.848	4.08454
364.223	5.00779
367.598	4.36945
370.973	5.23504
374.348	2.43355
377.722	3.14719
381.097	1.58364
384.472	0.816391
387.847	1.86462
391.222	1.9947
394.596	4.12105
397.971	3.19247
401.346	1.41596
404.721	0.091209
408.096	0.311943
411.471	1.52019
414.845	0.324348
418.22	3.38374
421.595	0.828018
424.97	2.31709
428.345	2.93993
431.719	3.27709
435.094	0.942253
438.469	1.58746
441.844	1.40234
445.219	0.51696
448.594	1.29083
451.968	3.25199
455.343	0.180313
458.718	1.67564
462.093	0.440025
465.467	0.573723
468.842	0.517387
472.217	2.30181
475.592	0.813614
478.967	0.042747
482.342	2.60896
485.716	2.72677
489.091	1.81065
492.466	0.146851
495.841	4.45111
499.216	3.63503
502.591	2.18771
505.965	0.567886
509.34	1.19609
512.715	1.43305
516.09	1.58302
519.465	1.2655
522.839	2.46403
526.214	0.194733
529.589	3.07137
532.964	3.15537
536.339	1.75764
539.713	2.81747
543.088	5.54681
546.463	1.20347
549.838	2.53961
553.213	4.01265
556.588	0.484802
559.962	2.00322
563.337	2.76558
566.712	1.02294
570.087	1.65128
573.462	1.56301
576.837	1.86815
580.211	3.53767
583.586	3.47593
586.961	1.00508
590.336	2.37439
593.711	1.63831
597.085	2.60267
600.46	1.69606
603.835	0.031551
607.21	2.0595
610.585	3.73869
613.96	1.08932
617.334	0.586403
620.709	0.473225
624.084	2.79659
627.459	1.42816
630.834	0.613018
634.208	1.73649
637.583	2.52791
640.958	0.563492
644.333	2.27341
647.708	3.36053
651.082	1.02423
654.457	1.16256
657.832	0.938377
661.207	2.08055
664.582	1.27115
667.957	1.04681
671.331	4.8273
674.706	5.97228
678.081	6.35942
681.456	9.25122
684.831	23.6926
688.205	74.9958
691.58	149.7
694.955	223.091
698.33	448.911
701.705	1116.35
705.08	702.409
708.454	250.098
711.829	44.4974
715.204	26.3502
718.579	20.1926
721.954	6.29059
725.328	5.87213
728.703	2.80554
732.078	3.14333
735.453	2.63358
738.828	0.173679
742.202	0.643845
745.577	1.30419
748.952	0.683441
752.327	1.98087
755.702	1.17643
759.077	0.035809
762.451	1.44727
765.826	2.2912
769.201	0.336967
772.576	0.892197
775.951	1.49088
779.326	1.57536
782.7	2.91288
786.075	3.64748
789.45	4.23035
792.825	0.979626
796.2	2.30941
799.574	3.62339
802.949	3.05344
806.324	3.89421
809.699	2.783
813.074	5.51446
816.448	1.45226
819.823	3.5401
823.198	4.27132
826.573	3.97752
829.948	4.07886
833.322	3.02969
836.697	3.76845
840.072	4.42211
843.447	4.12732
846.822	5.38738
850.197	7.13684
853.571	27.2661
856.946	7.14373
860.321	4.81106
863.696	3.90894
867.071	2.08627
870.446	4.94205
873.82	2.35733
877.195	0.916138
880.57	2.62759
883.945	0.087734
887.32	3.64702
890.694	3.58267
894.069	4.59098
897.444	1.66184
900.819	1.31866
904.194	2.47306
907.568	1.83202
910.943	1.27273
914.318	1.75679
917.693	1.7503
921.068	0.620731
924.443	2.44219
927.817	0.89901
931.192	1.93471
934.567	3.27063
937.942	1.968
941.317	2.95528
944.692	1.21877
948.066	2.31914
951.441	0.058849
954.816	2.16298
958.191	2.3413
961.566	2.20913
964.94	0.136898
968.315	0.771538
971.69	0.599094
975.065	1.89907
978.44	2.18579
981.814	1.90276
985.189	1.61052
988.564	0.898006
991.939	2.7889
995.314	2.80671
998.688	0.593327
1002.06	1.62886
1005.44	0.551205
1008.81	2.94669
1012.19	0.230133
1015.56	1.17372
1018.94	2.5666
1022.31	0.850647
1025.69	3.77491
1029.06	2.45988
1032.44	5.71856
1035.81	2.75798
1039.19	3.68036
1042.56	5.23992
1045.94	5.42739
1049.31	8.36092
1052.69	9.74394
1056.06	16.892
1059.43	43.6344
1062.81	25.7613
1066.18	23.3763
1069.56	42.8031
1072.93	186.583
1076.31	380.408
1079.68	801.437
1083.06	2646.95
1086.43	10405.4
1089.81	455.002
1093.18	91.4002
1096.56	41.8957
1099.93	25.5679
1103.31	14.8799
1106.68	11.3908
1110.06	7.78937
1113.43	3.42635
1116.81	6.25333
1120.18	3.71512
1123.56	4.87017
1126.93	0.864746
1130.31	2.92757
1133.68	0.676151
1137.06	1.57535
1140.43	0.369991
1143.81	0.125587
1147.18	1.98277
1150.56	3.03691
1153.93	0.241566
1157.31	1.66016
1160.68	0.777954
1164.06	1.17289
1167.43	1.48162
1170.8	2.63729
1174.18	1.85131
1177.55	2.22711
1180.93	1.57744
1184.3	0.775856
1187.68	3.23195
1191.05	2.79729
1194.43	3.42412
1197.8	1.93794
1201.18	2.92355
1204.55	3.93582
1207.93	1.97092
1211.3	3.00395
1214.68	0.580578
1218.05	2.75595
1221.43	2.54771
1224.8	3.06451
1228.18	2.36467
1231.55	4.40859
1234.93	4.71899
1238.3	4.53352
1241.67	1.39394
1245.05	2.64155
1248.42	3.95409
1251.8	2.7739
1255.17	1.90433
1258.55	2.15417
1261.92	3.8915
1265.3	4.21809
1268.67	1.94773
1272.05	0.419403
1275.42	1.45361
1278.8	2.80954
1282.17	1.53489
