Measurement: Raman, 532 nm, unoriented, Raman Data Processed
Mineral: Aragonite
Rruff sample: R080142
Ideal chemistry: CaCO_3_
Locality: Miniere di Brosso, Ivrea, Torino, Italy
Source: Renato and Adriana Pagano
Description: Sprays of colorless to white acicular crystals
Measured chemistry: (Ca_0.96_Sr_0.02_)_Î£=0.98_CO_3_
Raman shift (cm-1)	intensity
100.65	0
104.025	18.4578
107.4	0.998825
110.775	19.5288
114.149	54.7557
117.524	129.997
120.899	258.64
124.274	403.559
127.649	556.178
131.024	856.9
134.398	1241.18
137.773	1599.2
141.148	2039.74
144.523	2359.14
147.898	3029.66
151.272	4019.3
154.647	3253.79
158.022	1602.83
161.397	953.189
164.772	630.134
168.147	486.496
171.521	481.032
174.896	550.431
178.271	677.116
181.646	603.668
185.021	558.297
188.395	696.534
191.77	747.918
195.145	748.243
198.52	905.583
201.895	1277.08
205.269	1731.34
208.644	1194.47
212.019	677.09
215.394	438.515
218.769	212.564
222.143	74.1549
225.518	21.7021
228.893	13.103
232.268	39.1136
235.643	9.70691
239.018	11.9336
242.392	64.5897
245.767	102.791
249.142	113.685
252.517	95.5498
255.892	106.495
259.267	124.622
262.641	105.055
266.016	108.975
269.391	146.463
272.766	138.807
276.141	113.412
279.515	94.738
282.89	106.877
286.265	71.004
289.64	45.0656
293.015	18.514
296.389	5.81775
299.764	4.8374
303.139	2.94702
306.514	3.32458
309.889	4.57031
313.264	9.78638
316.638	9.57031
320.013	6.74829
323.388	12.652
326.763	5.23254
330.138	23.5604
333.512	22.2419
336.887	27.2833
340.262	22.774
343.637	20.5653
347.012	32.2014
350.387	39.2019
353.761	36.4539
357.136	32.1773
360.511	27.4138
363.886	22.9286
367.261	15.4523
370.635	22.5958
374.01	21.0739
377.385	26.4189
380.76	13.7202
384.135	16.7714
387.51	26.433
390.884	28.6741
394.259	21.2222
397.634	20.6813
401.009	11.5741
404.384	14.4647
407.759	21.634
411.133	16.9739
414.508	17.347
417.883	9.92835
421.258	13.4062
424.632	18.6029
428.007	9.32959
431.382	12.853
434.757	7.93042
438.132	7.66003
441.507	3.2312
444.881	1.80298
448.256	1.75818
451.631	3.31482
455.006	1.87927
458.381	4.71851
461.755	17.9644
465.13	4.56787
468.505	3.52478
471.88	2.86938
475.255	9.24902
478.63	7.71216
482.004	0.53186
485.379	6.44836
488.754	10.1976
492.129	1.56958
495.504	4.18396
498.878	3.23987
502.253	2.56042
505.628	3.66052
509.003	11.4888
512.378	9.74438
515.753	1.9458
519.127	6.26856
522.502	0.995239
525.877	7.58118
529.252	6.61365
532.627	6.79553
536.001	0.538452
539.376	13.7101
542.751	10.6704
546.126	11.6731
549.501	8.65747
552.876	2.41479
556.25	1.92127
559.625	9.8645
563	0.419434
566.375	15.4495
569.75	10.6819
573.125	8.93909
576.499	16.1176
579.874	9.42541
583.249	20.9669
586.624	7.71375
589.999	12.1403
593.373	12.4906
596.748	9.3136
600.123	9.63477
603.498	5.9552
606.873	7.55188
610.247	10.1925
613.622	11.8234
616.997	13.1362
620.372	2.20105
623.747	1.54102
627.121	2.45312
630.496	5.1488
633.871	21.0685
637.246	11.6926
640.621	13.2471
643.996	12.1114
647.37	5.68066
650.745	12.9161
654.12	7.63696
657.495	11.1031
660.87	2.39819
664.245	9.66882
667.619	0.430664
670.994	13.6749
674.369	9.23157
677.744	10.5963
681.119	14.5087
684.493	35.4513
687.868	93.5946
691.243	176.359
694.618	276.705
697.993	497.819
701.367	922.396
704.742	741.893
708.117	308.403
711.492	81.418
714.867	62.8654
718.242	39.7126
721.616	18.4451
724.991	9.67725
728.366	7.53296
731.741	3.49573
735.116	13.8417
738.49	4.20117
741.865	5.90491
745.24	7.74316
748.615	7.00171
751.99	0.646973
755.365	5.86536
758.739	4.03162
762.114	8.65771
765.489	21.1293
768.864	13.5812
772.239	11.0176
775.614	7.40247
778.988	6.54785
782.363	12.555
785.738	16.8071
789.113	13.2649
792.487	3.40234
795.862	19.5127
799.237	17.1802
802.612	14.6912
805.987	18.3787
809.362	17.8816
812.736	14.8117
816.111	16.056
819.486	20.408
822.861	8.823
826.236	10.4907
829.611	2.22119
832.985	13.3619
836.36	2.71411
839.735	11.8441
843.11	15.8209
846.485	18.1661
849.859	21.6534
853.234	29.8942
856.609	16.3107
859.984	0.243896
863.359	17.1797
866.734	3.61292
870.108	10.7872
873.483	9.44617
876.858	12.0818
880.233	0.573853
883.608	5.16882
886.982	9.24744
890.357	9.26514
893.732	28.9202
897.107	14.8055
900.482	12.6388
903.856	15.7731
907.231	15.5053
910.606	19.2219
913.981	5.81848
917.356	17.3807
920.731	17.6611
924.105	11.0408
927.48	14.7571
930.855	6.36194
934.23	18.3873
937.605	10.5645
940.98	9.16101
944.354	0.453003
947.729	14.6493
951.104	10.4636
954.479	5.95349
957.854	14.5912
961.228	1.53259
964.603	2.08447
967.978	2.87134
971.353	1.76428
974.728	11.161
978.102	15.2756
981.477	16.9374
984.852	12.6135
988.227	13.3969
991.602	0.659424
994.977	7.30066
998.351	0.024292
1001.73	1.2522
1005.1	12.542
1008.48	14.8009
1011.85	8.25952
1015.23	7.69299
1018.6	2.96374
1021.98	11.8689
1025.35	1.75098
1028.72	5.62903
1032.1	8.09412
1035.47	7.42566
1038.85	4.36743
1042.22	7.85877
1045.6	11.551
1048.97	17.0702
1052.35	16.54
1055.72	31.9054
1059.1	55.8058
1062.47	45.8783
1065.85	73.9446
1069.22	130.52
1072.6	649.059
1075.97	1370.45
1079.35	2033.74
1082.72	5119.37
1086.1	8250.6
1089.47	542.039
1092.85	107.253
1096.22	57.7122
1099.6	52.8164
1102.97	44.3133
1106.35	29.0115
1109.72	16.9695
1113.1	13.3392
1116.47	7.09717
1119.85	11.1166
1123.22	8.63342
1126.59	5.93201
1129.97	3.19763
1133.34	13.1421
1136.72	16.205
1140.09	15.8217
1143.47	18.9459
1146.84	6.54028
1150.22	18.5432
1153.59	7.3147
1156.97	11.2609
1160.34	4.42261
1163.72	9.39185
1167.09	3.92065
1170.47	9.23352
1173.84	0.784546
1177.22	10.6998
1180.59	19.4718
1183.97	4.90088
1187.34	8.25427
1190.72	2.91553
1194.09	7.49622
1197.47	5.1488
1200.84	12.5995
1204.21	4.98254
1207.59	12.637
1210.96	8.90185
1214.34	12.2624
1217.71	17.7349
1221.09	11.3707
1224.46	15.8873
1227.84	8.62732
1231.21	4.73938
1234.59	0.461182
1237.96	11.2124
1241.34	9.29602
1244.71	1.07825
1248.09	8.1687
1251.46	23.224
1254.84	9.18152
1258.21	8.91492
1261.59	5.60181
1264.96	8.43543
1268.34	6.82153
1271.71	5.02429
1275.09	8.17908
1278.46	21.7533
1281.84	10.4822
1285.21	4.85608
1288.59	4.70752
1291.96	2.17529
1295.34	13.8389
1298.71	2.20569
1302.09	4.90674
