Measurement: Raman, 780 nm, unoriented, Raman Data Processed
Mineral: Aragonite
Rruff sample: R080142
Ideal chemistry: CaCO_3_
Locality: Miniere di Brosso, Ivrea, Torino, Italy
Source: Renato and Adriana Pagano
Description: Sprays of colorless to white acicular crystals
Measured chemistry: (Ca_0.96_Sr_0.02_)_Î£=0.98_CO_3_
Raman shift (cm-1)	intensity
94.2653	0
97.6401	17.5916
101.015	4.53815
104.39	0.460449
107.765	16.6938
111.139	7.01276
114.514	2.72842
117.889	2.52087
121.264	5.25854
124.639	34.5692
128.013	90.6318
131.388	211.639
134.763	349.673
138.138	462.425
141.513	623.399
144.888	756.364
148.262	855.273
151.637	956.662
155.012	750.789
158.387	344.972
161.762	175.828
165.137	95.1218
168.511	65.2676
171.886	79.7431
175.261	103.138
178.636	133.199
182.011	131.861
185.385	150.669
188.76	199.412
192.135	228.279
195.51	260.046
198.885	332.571
202.26	397.796
205.634	462.672
209.009	319.803
212.384	174.724
215.759	106.022
219.134	47.0089
222.508	16.9795
225.883	6.21213
229.258	6.79195
232.633	3.4567
236.008	7.03868
239.382	17.7542
242.757	30.3843
246.132	42.5353
249.507	45.7493
252.882	42.3779
256.257	37.4133
259.631	42.8647
263.006	38.5353
266.381	34.2833
269.756	41.7768
273.131	43.2941
276.505	36.6115
279.88	31.7568
283.255	28.8432
286.63	20.9473
290.005	14.0314
293.38	3.50326
296.755	2.24919
300.129	1.50165
303.504	2.89729
306.879	0.541
310.254	2.28206
313.628	0.036713
317.003	1.38878
320.378	0.865463
323.753	1.52004
327.128	2.0274
330.503	2.48398
333.877	4.47466
337.252	4.76298
340.627	12.9901
344.002	4.45714
347.377	7.9064
350.752	7.60698
354.126	4.78601
357.501	4.36241
360.876	5.77119
364.251	4.29414
367.626	6.97288
371	6.55522
374.375	3.79591
377.75	4.33957
381.125	2.50154
384.5	4.66999
387.875	5.25504
391.249	6.50105
394.624	3.67889
397.999	0.608788
401.374	1.65546
404.749	1.0864
408.123	6.85029
411.498	2.60522
414.873	1.05022
418.248	2.48742
421.623	2.6917
424.998	2.25126
428.372	0.616386
431.747	2.67997
435.122	8.29829
438.497	7.77358
441.872	6.38583
445.247	8.30637
448.621	3.16038
451.996	1.28992
455.371	5.41529
458.746	3.2441
462.121	6.00609
465.495	4.29266
468.87	4.56069
472.245	4.21035
475.62	2.27069
478.995	7.27925
482.37	1.28526
485.744	4.54
489.119	4.78252
492.494	0.647606
495.869	2.17613
499.244	3.00874
502.618	3.69155
505.993	2.8158
509.368	4.17882
512.743	6.25463
516.118	3.51062
519.492	4.56359
522.867	8.52808
526.242	3.30563
529.617	3.74226
532.992	5.85407
536.367	5.84154
539.741	2.42562
543.116	4.92567
546.491	4.64628
549.866	0.098473
553.241	3.75333
556.615	9.05904
559.99	6.42038
563.365	0.846001
566.74	5.81586
570.115	8.07223
573.49	1.75924
576.864	1.98602
580.239	6.09045
583.614	4.96557
586.989	5.0944
590.364	7.73688
593.739	1.10257
597.113	5.63062
600.488	0.624962
603.863	6.27836
607.238	0.520515
610.613	0.537659
613.987	1.41406
617.362	6.31537
620.737	3.98921
624.112	6.28642
627.487	4.77168
630.861	3.22874
634.236	4.20697
637.611	4.34812
640.986	6.19487
644.361	4.97218
647.736	1.34375
651.11	3.51559
654.485	4.69045
657.86	2.80119
661.235	0.53582
664.61	1.89367
667.985	5.588
671.359	0.446266
674.734	7.20373
678.109	5.44248
681.484	8.85189
684.859	13.155
688.233	23.8057
691.608	44.448
694.983	71.9244
698.358	122.699
701.733	219.316
705.107	191.635
708.482	80.4591
711.857	24.0937
715.232	18.3486
718.607	6.46495
721.982	6.27412
725.356	2.49936
728.731	6.94301
732.106	0.28672
735.481	0.826042
738.856	4.05078
742.231	0.172554
745.605	0.366959
748.98	1.48225
752.355	1.07516
755.73	1.37224
759.105	0.596123
762.479	0.866035
765.854	1.53188
769.229	4.61529
772.604	1.29818
775.979	0.793579
779.354	1.05434
782.728	1.95452
786.103	0.300987
789.478	0.918938
792.853	4.83304
796.228	5.23752
799.602	4.21337
802.977	4.31729
806.352	4.94935
809.727	2.13728
813.102	5.62603
816.477	7.97887
819.851	2.98243
823.226	3.74782
826.601	6.88062
829.976	4.70225
833.351	0.189827
836.726	5.86716
840.1	5.19853
843.475	6.6947
846.85	9.49552
850.225	3.88239
853.6	9.20316
856.974	2.2519
860.349	5.32732
863.724	6.14072
867.099	4.19958
870.474	7.55329
873.848	8.26735
877.223	3.7804
880.598	1.06513
883.973	0.296867
887.348	1.74243
890.722	3.1277
894.097	1.7587
897.472	4.5074
900.847	4.62469
904.222	3.72627
907.597	2.09171
910.971	0.391365
914.346	2.20181
917.721	3.07693
921.096	5.56458
924.471	2.10297
927.846	1.47132
931.22	0.833015
934.595	5.00428
937.97	0.142765
941.345	6.59945
944.72	1.67627
948.095	5.03754
951.469	3.56525
954.844	1.19515
958.219	3.84332
961.594	0.877357
964.969	5.5593
968.343	3.15134
971.718	5.40243
975.093	3.50436
978.468	3.67767
981.843	4.86734
985.217	1.81433
988.592	4.2896
991.967	6.67566
995.342	3.74348
998.717	4.63459
1002.09	8.04731
1005.47	1.66219
1008.84	1.01436
1012.22	7.56572
1015.59	4.86047
1018.97	4.88954
1022.34	1.55318
1025.71	1.66241
1029.09	3.79312
1032.46	7.21376
1035.84	2.0891
1039.21	7.60183
1042.59	1.51192
1045.96	2.00565
1049.34	0.284092
1052.71	6.96731
1056.09	3.93932
1059.46	10.5252
1062.84	6.4288
1066.21	15.1059
1069.59	27.4511
1072.96	132.268
1076.34	271.329
1079.71	504.287
1083.09	922.554
1086.46	1475.19
1089.84	116.991
1093.21	22.2819
1096.59	15.0039
1099.96	8.02302
1103.34	0.625343
1106.71	5.97805
1110.09	5.7311
1113.46	0.990906
1116.84	0.082069
1120.21	1.16516
1123.59	1.7383
1126.96	3.70902
1130.34	1.33362
1133.71	6.8914
1137.08	2.50272
1140.46	1.08495
1143.83	2.89482
1147.21	1.11373
1150.58	5.61487
1153.96	3.49379
1157.33	3.76276
1160.71	5.75303
1164.08	3.68739
1167.46	4.34424
1170.83	5.0693
1174.21	2.70855
1177.58	5.52123
1180.96	7.90224
1184.33	5.42652
1187.71	7.05578
1191.08	7.58472
1194.46	5.66995
1197.83	4.56244
1201.21	2.29353
1204.58	3.21912
1207.96	3.12166
1211.33	2.2596
1214.7	5.4298
1218.08	0.871193
1221.45	2.82822
1224.83	4.60411
1228.2	1.55606
1231.58	5.68731
1234.95	4.39251
1238.33	4.2006
1241.7	4.40631
1245.08	5.30686
1248.45	1.25779
1251.83	6.47595
1255.2	2.91677
1258.58	5.52398
1261.95	3.15157
1265.33	1.69194
1268.7	5.33665
1272.08	0.804619
1275.45	5.66437
1278.83	8.80745
1282.2	3.76753
1285.58	0.980625
