Measurement: Raman, 532 nm, unoriented, Raman Data Processed
Mineral: Arakiite
Rruff sample: R070172
Ideal chemistry: Zn^2+^Mn^2+^_12_Fe^3+^_2_(As^3+^O_3_)(As^5+^O_4_)_2_(OH)_23_
Locality: Langban, Filipstad, Varmland, Sweden
Source: Michael Scott
Description: Reddish brown platey crystals associated with colorless calcite
Measured chemistry: (Zn_0.83_Mn^2+^_0.17_)_Σ=1_(Mn^2+^_9.20_Mg_2.80_)_Σ=12_(Fe^3+^_1.97_Mn^3+^_0.03_)_Σ=2_As_1.00_O_3_(As_1.00_O_4_)_2_(OH)_23_; OH estimated by difference and charge balance
Raman shift (cm-1)	intensity
183.388	0
186.281	0.399895
189.174	0.007919
192.067	0.495298
194.959	0.673796
197.852	0.657648
200.745	0.807474
203.637	1.73681
206.53	0.987179
209.423	0.012875
212.315	1.23812
215.208	0.007538
218.101	0.540901
220.994	0.37694
223.886	1.17329
226.779	1.66916
229.672	1.55364
232.564	1.85551
235.457	1.90747
238.35	2.73232
241.243	3.06292
244.135	4.16627
247.028	4.75362
249.921	5.73957
252.813	6.56104
255.706	6.94716
258.599	8.45448
261.491	7.2284
264.384	6.32079
267.277	5.17785
270.17	4.0662
273.062	3.33932
275.955	2.75335
278.848	2.58085
281.74	1.5937
284.633	1.55413
287.526	0.71368
290.418	0.418346
293.311	0.347548
296.204	0.111532
299.096	0.159548
301.989	0.353001
304.882	0.36467
307.775	0.249174
310.667	0.309591
313.56	0.235052
316.453	0.007074
319.345	0.531225
322.238	0.722103
325.131	1.12377
328.024	1.51069
330.916	1.7231
333.809	1.30837
336.702	2.22918
339.594	2.01374
342.487	2.85185
345.38	2.44511
348.272	3.18307
351.165	3.64906
354.058	4.12854
356.95	3.97689
359.843	4.45434
362.736	4.56297
365.629	4.91454
368.521	5.65175
371.414	5.434
374.307	6.03634
377.199	5.3567
380.092	4.49913
382.985	5.30243
385.877	4.53762
388.77	3.3364
391.663	3.89889
394.556	3.11758
397.448	2.59229
400.341	1.89437
403.234	1.61956
406.126	0.813456
409.019	0.611099
411.912	0.249252
414.805	0.571873
417.697	0.05364
420.59	0.01289
423.483	0.071028
426.375	0.22299
429.268	0.977293
432.161	1.22755
435.053	1.55481
437.946	1.91137
440.839	1.64009
443.731	1.55399
446.624	1.14939
449.517	1.39545
452.409	0.379002
455.302	0.186039
458.195	0.034676
461.088	0.075659
463.98	0.664068
466.873	1.3604
469.766	1.62639
472.658	2.14336
475.551	2.71362
478.444	2.73024
481.337	3.16881
484.229	4.77282
487.122	5.81848
490.015	8.58497
492.907	11.9924
495.8	15.8138
498.693	21.6859
501.585	29.4962
504.478	37.7371
507.371	46.6799
510.264	55.079
513.156	59.6891
516.049	59.7069
518.942	54.1823
521.834	48.3832
524.727	41.6075
527.62	34.6909
530.513	30.0807
533.405	24.0172
536.298	20.1583
539.191	15.5207
542.083	12.0682
544.976	9.44826
547.869	6.6487
550.761	5.06057
553.654	3.52462
556.547	1.89587
559.439	1.18159
562.332	0.889816
565.225	0.166327
568.118	0.010284
571.01	0.441587
573.903	0.072645
576.796	0.379702
579.688	0.104132
582.581	0.063437
585.474	0.388895
588.366	0.671019
591.259	0.567499
594.152	0.633638
597.044	0.774969
599.937	1.42354
602.83	1.63632
605.723	1.92573
608.615	2.76983
611.508	3.5128
614.401	3.9427
617.293	4.35023
620.186	4.34296
623.079	4.1552
625.971	3.57836
628.864	3.34022
631.757	1.66618
634.65	1.61826
637.542	0.515213
640.435	1.01216
643.328	0.978756
646.22	0.275141
649.113	1.10261
652.006	0.44722
654.899	0.332624
657.791	0.362551
660.684	0.603199
663.577	0.609919
666.469	0.199165
669.362	0.194313
672.255	0.479134
675.147	0.292269
678.04	0.020107
680.933	0.027855
683.826	0.697584
686.718	0.122072
689.611	0.054098
692.504	0.201391
695.396	0.237715
698.289	0.005058
701.182	0.338865
704.074	0.59433
706.967	0.405708
709.86	0.493454
712.753	0.794495
715.645	1.36486
718.538	1.24331
721.431	2.30804
724.323	1.93719
727.216	2.64718
730.109	3.13132
733.001	3.07165
735.894	3.03476
738.787	2.04274
741.679	1.759
744.572	1.1317
747.465	0.450945
750.358	0.843475
753.25	0.456505
756.143	0.783762
759.036	1.92051
761.928	3.53188
764.821	5.77642
767.714	8.799
770.606	12.5038
773.499	16.0726
776.392	17.4808
779.285	16.7779
782.177	12.824
785.07	10.5024
787.963	8.17648
790.855	7.7884
793.748	6.05532
796.641	6.29286
799.533	6.2098
802.426	6.1738
805.319	7.57915
808.212	8.49008
811.104	10.0832
813.997	10.1148
816.89	10.8863
819.782	10.2852
822.675	10.7333
825.568	10.7162
828.46	10.6667
831.353	9.17288
834.246	7.05163
837.139	5.34345
840.031	3.91162
842.924	2.35261
845.817	1.81331
848.709	1.07564
851.602	0.655766
854.495	0.476149
857.388	0.196453
860.28	0.296595
863.173	0.153635
866.066	0.132137
868.958	0.092791
871.851	0.069092
874.744	0.117218
877.636	0.132362
880.529	0.215693
883.422	0.216364
886.314	0.118792
889.207	0.042087
892.1	0.215465
894.993	0.236133
897.885	0.625142
900.778	0.046137
903.671	0.127339
906.563	0.861828
909.456	0.565162
912.349	0.284095
915.241	0.236332
918.134	0.186327
921.027	0.494617
923.92	0.73322
926.812	0.478835
929.705	0.829129
932.598	0.727733
935.49	0.221174
938.383	0.681114
941.276	0.360246
944.168	0.371224
947.061	0.314733
949.954	0.973159
952.847	0.290717
955.739	0.055163
958.632	0.664121
961.525	0.84866
964.417	0.776795
967.31	0.598673
970.203	0.24993
973.096	0.469728
975.988	0.195986
978.881	0.171549
981.774	0.706002
984.666	0.259839
987.559	0.390297
990.452	0.094904
993.344	0.347919
996.237	0.08204
999.13	0.438054
1002.02	0.340337
1004.91	0.752308
1007.81	0.941373
1010.7	1.01732
1013.59	1.50225
1016.49	1.84604
1019.38	1.70795
1022.27	1.61859
1025.16	2.10329
1028.06	2.37319
1030.95	2.46131
1033.84	2.47862
1036.73	2.0485
1039.63	1.86644
1042.52	1.96842
1045.41	1.38805
1048.31	1.68417
1051.2	1.19717
1054.09	1.25733
1056.98	1.07026
1059.88	0.995077
1062.77	0.356812
1065.66	0.622686
1068.56	0.069544
1071.45	0.316679
1074.34	0.45753
1077.23	0.556415
1080.12	0.445701
1083.02	0.261929
1085.91	0.39045
1088.8	0.153419
1091.7	0.216474
1094.59	0.038988
1097.48	0.377637
1100.37	0.543715
1103.27	0.303422
1106.16	0.628779
1109.05	0.103577
1111.94	0.352603
1114.84	0.227221
1117.73	0.314842
1120.62	0.669763
1123.52	0.598726
1126.41	0.260013
1129.3	0.229422
1132.19	0.272076
1135.09	0.763125
1137.98	0.58142
1140.87	0.575149
1143.77	0.664859
1146.66	0.973343
1149.55	0.801088
1152.44	0.323581
1155.34	0.221065
1158.23	0.902245
1161.12	0.071175
1164.01	0.533674
1166.91	0.344104
1169.8	0.198862
1172.69	0.208365
1175.58	0.266831
1178.48	0.674973
1181.37	0.125863
1184.26	0.429504
1187.15	0.711998
1190.05	0.485615
1192.94	0.450366
1195.83	0.017765
1198.73	0.222566
1201.62	0.736824
1204.51	0.323915
1207.4	0.333254
1210.3	0.417663
1213.19	0.391008
1216.08	0.650331
1218.97	0.619422
1221.87	0.503248
1224.76	0.410827
1227.65	0.682254
1230.55	0.228512
1233.44	0.619242
1236.33	0.63409
1239.22	0.013497
1242.12	0.353468
1245.01	0.759301
1247.9	0.129881
1250.8	0.639157
1253.69	0.389921
1256.58	0.730354
1259.47	0.334888
1262.37	0.897342
1265.26	0.004633
1268.15	0.44502
1271.04	0.664051
1273.94	0.092529
1276.83	0.652391
1279.72	0.643965
1282.61	0.54386
1285.51	0.076087
1288.4	0.30732
1291.29	0.000234
