Measurement: Raman, 780 nm, unoriented, Raman Data Processed
Mineral: Arakiite
Rruff sample: R070172
Ideal chemistry: Zn^2+^Mn^2+^_12_Fe^3+^_2_(As^3+^O_3_)(As^5+^O_4_)_2_(OH)_23_
Locality: Langban, Filipstad, Varmland, Sweden
Source: Michael Scott
Description: Reddish brown platey crystals associated with colorless calcite
Measured chemistry: (Zn_0.83_Mn^2+^_0.17_)_Σ=1_(Mn^2+^_9.20_Mg_2.80_)_Σ=12_(Fe^3+^_1.97_Mn^3+^_0.03_)_Σ=2_As_1.00_O_3_(As_1.00_O_4_)_2_(OH)_23_; OH estimated by difference and charge balance
Raman shift (cm-1)	intensity
171.591	0
174.483	0.035831
177.376	0.907692
180.269	2.38133
183.162	2.78558
186.054	2.74374
188.947	2.4069
191.84	2.81491
194.732	3.32103
197.625	3.42254
200.518	4.43935
203.411	4.76806
206.303	4.0759
209.196	2.86767
212.089	2.38668
214.981	1.58065
217.874	1.85193
220.767	2.63628
223.659	4.30867
226.552	4.83419
229.445	6.21489
232.338	6.8629
235.23	5.68593
238.123	4.62997
241.016	3.39177
243.908	3.71828
246.801	4.47989
249.694	4.22211
252.586	4.34792
255.479	4.67306
258.372	5.24052
261.264	4.45279
264.157	3.88076
267.05	3.59304
269.943	2.8605
272.835	2.59788
275.728	2.67075
278.621	1.7028
281.513	0.970722
284.406	0.413242
287.299	0.078632
290.191	0.028416
293.084	0.030251
295.977	0.371845
298.87	0.29879
301.762	0.20647
304.655	0.332829
307.548	0.363945
310.44	0.293762
313.333	0.748089
316.226	0.545498
319.118	0.308582
322.011	0.975475
324.904	0.677338
327.796	1.35671
330.689	1.18939
333.582	1.76327
336.475	3.48101
339.367	3.57793
342.26	5.04435
345.153	5.97192
348.045	6.38173
350.938	7.14667
353.831	7.54481
356.724	7.69074
359.616	7.77074
362.509	7.88963
365.402	8.99399
368.294	9.34964
371.187	10.0339
374.08	10.8433
376.972	11.8245
379.865	13.5917
382.758	14.7252
385.651	14.9263
388.543	13.8573
391.436	12.0806
394.329	11.3441
397.221	9.80083
400.114	8.82625
403.007	7.2086
405.899	5.09511
408.792	4.01936
411.685	3.46641
414.577	2.95867
417.47	2.1851
420.363	2.43549
423.256	1.60419
426.148	1.54184
429.041	2.60613
431.934	2.12815
434.826	3.35986
437.719	2.73018
440.612	2.57665
443.505	1.05801
446.397	0.244415
449.29	0.087765
452.183	0.680878
455.075	0.918503
457.968	0.104656
460.861	0.084881
463.753	2.14549
466.646	2.47634
469.539	3.46283
472.432	5.45059
475.324	6.14279
478.217	7.30842
481.11	9.00996
484.002	12.1766
486.895	14.1073
489.788	19.0607
492.68	24.1793
495.573	30.3369
498.466	38.2591
501.358	45.8189
504.251	53.0818
507.144	60.8552
510.037	65.5692
512.929	69.1037
515.822	68.054
518.715	62.9071
521.607	55.4559
524.5	48.758
527.393	41.792
530.285	36.0168
533.178	29.1114
536.071	23.1642
538.964	17.2356
541.856	13.0505
544.749	10.1074
547.642	6.17051
550.534	4.72755
553.427	3.42634
556.32	1.13746
559.212	1.36126
562.105	0.346283
564.998	0.46489
567.891	0.402491
570.783	0.117262
573.676	0.240417
576.569	0.451792
579.461	0.096155
582.354	0.493046
585.247	0.426926
588.139	0.8969
591.032	1.47136
593.925	1.94277
596.817	2.00344
599.71	2.92076
602.603	3.93091
605.496	4.64112
608.388	5.81198
611.281	6.16376
614.174	7.61619
617.066	7.53492
619.959	7.9323
622.852	7.55167
625.745	6.39756
628.637	5.36821
631.53	4.40857
634.423	3.34979
637.315	2.61669
640.208	1.82079
643.101	1.64748
645.993	0.953506
648.886	0.691608
651.779	0.143055
654.672	0.193707
657.564	0.216951
660.457	0.305075
663.35	0.160633
666.242	0.000975
669.135	0.047737
672.028	0.109892
674.92	0.154621
677.813	0.714071
680.706	1.4909
683.598	1.55412
686.491	2.30652
689.384	1.59193
692.277	1.24895
695.169	0.460615
698.062	0.213633
700.955	0.85981
703.847	0.251989
706.74	0.459238
709.633	0.012247
712.525	0.545609
715.418	2.20138
718.311	3.59287
721.204	4.61656
724.096	6.71485
726.989	7.95897
729.882	9.22507
732.774	9.82098
735.667	8.63004
738.56	7.84567
741.452	5.55523
744.345	3.66412
747.238	2.21685
750.131	1.45826
753.023	1.204
755.916	2.92221
758.809	6.39583
761.701	11.8268
764.594	18.8848
767.487	27.2905
770.38	35.2575
773.272	43.4346
776.165	45.4278
779.058	41.9139
781.95	34.3108
784.843	26.8282
787.736	20.7031
790.628	17.4652
793.521	15.2014
796.414	15.3764
799.307	16.5674
802.199	18.646
805.092	22.962
807.985	26.8972
810.877	29.7958
813.77	31.4404
816.663	28.7876
819.555	26.2439
822.448	22.0048
825.341	18.3179
828.234	14.3247
831.126	11.4554
834.019	7.68539
836.912	5.74616
839.804	3.90339
842.697	2.69597
845.59	1.80775
848.482	0.626703
851.375	0.286535
854.268	0.190592
857.16	0.159477
860.053	0.084412
862.946	0.171896
865.839	0.58197
868.731	0.078463
871.624	0.581751
874.517	0.386898
877.409	0.018274
880.302	0.254362
883.195	0.4979
886.087	0.361719
888.98	0.426018
891.873	0.354517
894.765	0.582153
897.658	0.36318
900.551	0.44519
903.444	0.809549
906.336	1.01302
909.229	0.636799
912.122	0.700491
915.014	0.528191
917.907	1.19021
920.8	0.936102
923.692	1.24691
926.585	1.7187
929.478	1.93093
932.371	1.42395
935.263	1.60662
938.156	0.947254
941.049	1.45593
943.941	0.691504
946.834	0.523913
949.727	0.955869
952.62	0.898171
955.512	0.765772
958.405	0.611874
961.298	0.637213
964.19	0.654147
967.083	0.495466
969.976	0.533465
972.868	0.883999
975.761	0.618646
978.654	0.963377
981.547	0.223023
984.439	0.262815
987.332	0.249014
990.225	1.1111
993.117	0.069922
996.01	0.446649
998.903	0.450255
1001.79	0.356365
1004.69	0.447622
1007.58	0.581609
1010.47	1.11002
1013.37	0.493411
1016.26	0.558532
1019.15	1.01679
1022.04	0.91896
1024.94	1.12026
1027.83	0.724855
1030.72	0.710571
1033.62	0.401282
1036.51	1.19376
1039.4	0.990573
1042.29	0.994457
1045.19	0.984974
1048.08	0.420913
1050.97	0.656637
1053.86	0.594836
1056.76	0.008444
1059.65	0.459037
1062.54	0.714649
1065.43	0.508047
1068.33	0.462605
1071.22	0.728096
1074.11	0.466643
1077.01	0.09934
1079.9	0.049273
1082.79	0.341667
1085.68	0.955837
1088.58	0.34588
1091.47	0.141631
1094.36	0.647593
1097.25	0.006355
1100.15	0.217814
1103.04	0.337331
1105.93	0.245604
1108.83	0.439893
1111.72	0.034542
1114.61	0.54826
1117.5	0.123864
1120.4	0.340212
1123.29	0.36941
1126.18	0.020728
1129.07	0.264957
1131.97	0.097239
1134.86	0.946225
1137.75	0.263933
1140.64	0.062974
1143.54	0.536211
1146.43	0.357041
1149.32	0.320701
1152.22	0.409914
1155.11	1.16633
1158	0.632046
1160.89	0.517143
1163.79	0.77344
1166.68	0.802435
1169.57	0.803818
1172.46	0.727757
1175.36	0.2836
1178.25	0.535211
1181.14	0.124801
1184.04	0.017074
1186.93	1.2593
1189.82	0.506028
1192.71	0.276393
1195.61	0.602767
1198.5	0.31027
1201.39	0.387052
1204.28	0.972149
1207.18	0.275599
1210.07	0.739159
1212.96	0.643082
1215.86	0.006312
1218.75	0.924396
1221.64	0.666065
1224.53	0.308507
1227.43	0.389854
1230.32	0.686046
1233.21	0.676202
1236.1	0.613514
1239	0.434517
1241.89	0.831231
1244.78	0.204542
1247.67	0.03482
1250.57	0.568847
1253.46	0.455366
1256.35	0.034669
1259.25	0.617369
1262.14	0.692138
1265.03	0.427543
1267.92	0.065143
1270.82	0.123406
