Measurement: Raman, 785 nm, unoriented, Raman Data Processed
Mineral: Arakiite
Rruff sample: R060812
Ideal chemistry: Zn^2+^Mn^2+^_12_Fe^3+^_2_(As^3+^O_3_)(As^5+^O_4_)_2_(OH)_23_
Locality: Nordmark, Sweden
Source: Michael Scott
Description: Deep red massive between grains
Raman shift (cm-1)	intensity
217.951	0
220.844	12.463
223.736	104.639
226.629	150.708
229.522	126.998
232.415	172.337
235.307	304.902
238.2	427.44
241.093	441.752
243.985	373.351
246.878	294.195
249.771	124.709
252.663	169.001
255.556	219.717
258.449	284.065
261.341	374.724
264.234	315.284
267.127	254.74
270.02	181.436
272.912	141.324
275.805	113.906
278.698	109.716
281.59	198.349
284.483	195.253
287.376	203.56
290.268	123.723
293.161	174.568
296.054	74.541
298.947	314.51
301.839	182.339
304.732	189.801
307.625	240.501
310.517	233.319
313.41	259.134
316.303	407.403
319.195	442.807
322.088	334.169
324.981	397.428
327.874	600.648
330.766	803.29
333.659	710.099
336.552	803.811
339.444	789.493
342.337	897.963
345.23	942.331
348.122	1078.65
351.015	1172.96
353.908	1235.51
356.801	1276.06
359.693	1297.63
362.586	1292.14
365.479	1423.82
368.371	1432.55
371.264	1519.72
374.157	1607.29
377.049	1635.8
379.942	1734.53
382.835	1769.9
385.728	1816
388.62	1882.74
391.513	2071.7
394.406	2345.24
397.298	2422.77
400.191	2452.12
403.084	2236.3
405.977	2246.56
408.869	1971.29
411.762	1905.52
414.655	1862.06
417.547	1832.34
420.44	1710.16
423.333	1661.12
426.225	1638.03
429.118	1611.39
432.011	1656.6
434.904	1669.49
437.796	1666.38
440.689	1685.31
443.582	1592.31
446.474	1630.13
449.367	1491.61
452.26	1345.1
455.152	1136.48
458.045	1090.2
460.938	1114.31
463.831	1252.94
466.723	1263.42
469.616	1372.94
472.509	1515.39
475.401	1614.33
478.294	1783.26
481.187	1988.6
484.079	2328.01
486.972	2766.58
489.865	3308.66
492.758	3779.85
495.65	4380.25
498.543	5220.25
501.436	6071.48
504.328	6855.28
507.221	7422.95
510.114	8078.03
513.006	8084.98
515.899	7644.88
518.792	6944.78
521.685	6031.01
524.577	5329.54
527.47	4601.86
530.363	3919.26
533.255	3367.92
536.148	2845.01
539.041	2360.53
541.933	1949.63
544.826	1630.56
547.719	1122.23
550.612	861.413
553.504	669.432
556.397	399.112
559.29	359.248
562.182	212.051
565.075	195.196
567.968	1.926
570.86	21.24
573.753	34.758
576.646	37.116
579.539	48.656
582.431	102.86
585.324	42.862
588.217	55.739
591.109	29.456
594.002	65.585
596.895	31.817
599.787	101.94
602.68	105.664
605.573	173.228
608.466	389.406
611.358	424.417
614.251	631.371
617.144	761.943
620.036	833.158
622.929	915.875
625.822	990.869
628.714	839.688
631.607	625.164
634.5	431.126
637.393	396.069
640.285	212.938
643.178	129.838
646.071	9.314
648.963	68.668
651.856	132.346
654.749	17.167
657.641	12.465
660.534	43.322
663.427	3.353
666.32	30.045
669.212	56.023
672.105	9.278
674.998	43.069
677.89	27.995
680.783	106.169
683.676	21.673
686.568	101.311
689.461	1.984
692.354	38.338
695.247	126.864
698.139	84.486
701.032	189.32
703.925	189.461
706.817	170.434
709.71	321.894
712.603	389.72
715.495	639.306
718.388	721.264
721.281	1008.72
724.174	1323.93
727.066	1565.04
729.959	1933.86
732.852	2036.16
735.744	2178.12
738.637	2181.52
741.53	2012.73
744.422	1766.13
747.315	1602.72
750.208	1441.71
753.101	1238.7
755.993	1199.09
758.886	1355.88
761.779	1636.56
764.671	2201
767.564	3289.17
770.457	4932.25
773.349	6966.99
776.242	9060.84
779.135	9991.15
782.028	9355.97
784.92	7276.58
787.813	5271.23
790.706	4039.26
793.598	3385.74
796.491	3038.75
799.384	2957.59
802.276	3207.83
805.169	3754.77
808.062	4496.32
810.955	5390.85
813.847	6128.71
816.74	6568.35
819.633	6067.11
822.525	4990.35
825.418	4121.93
828.311	3336.26
831.203	2508.18
834.096	1829.1
836.989	1369.3
839.881	960.067
842.774	684.683
845.667	612.146
848.56	526.087
851.452	400.482
854.345	324.533
857.238	246.33
860.13	193.987
863.023	175.18
865.916	196.042
868.808	32.275
871.701	50.931
874.594	86.855
877.487	15.208
880.379	23.69
883.272	14.937
886.165	76.671
889.057	6.716
891.95	20.642
894.843	56.099
897.735	48.232
900.628	3.563
903.521	14.51
906.414	26.319
909.306	37.499
912.199	60.698
915.092	8.255
917.984	25.431
920.877	7.023
923.77	36.868
926.662	28.526
929.555	7.164
932.448	99.312
935.341	99.159
938.233	52.311
941.126	18.716
944.019	2.604
946.911	3.959
949.804	4.907
952.697	17.518
955.589	32.034
958.482	11.617
961.375	79.278
964.268	38.32
967.16	6.089
970.053	49.994
972.946	8.57
975.838	92.982
978.731	109.458
981.624	143.949
984.516	5.785
987.409	16.708
990.302	80.411
993.195	161.598
996.087	83.241
998.98	26.672
1001.87	49.204
1004.76	54.803
1007.66	60.111
1010.55	20.264
1013.44	12.593
1016.34	99.192
1019.23	32.392
1022.12	0.764
1025.01	27.145
1027.91	12.154
1030.8	97.431
1033.69	90.218
1036.59	54.873
1039.48	46.553
1042.37	84.612
1045.26	71.191
1048.16	102.251
1051.05	42.815
1053.94	86.483
1056.83	29.786
1059.73	2.484
1062.62	73.029
1065.51	2.268
1068.4	5.704
1071.3	67.224
1074.19	57.273
1077.08	49.737
1079.98	117.229
1082.87	113.299
1085.76	36.587
1088.65	56.172
1091.55	75.742
1094.44	42.601
1097.33	14.481
1100.22	101.777
1103.12	0.42
1106.01	14.83
1108.9	33.582
1111.8	59.233
1114.69	37.001
1117.58	50.881
1120.47	22.531
1123.37	11.941
1126.26	83.309
1129.15	42.149
1132.04	23.384
1134.94	23.655
1137.83	21.751
1140.72	3.504
1143.62	43.752
1146.51	39.642
1149.4	14.665
1152.29	22.381
1155.19	16.346
1158.08	50.44
1160.97	24.392
1163.86	0.402
1166.76	18.578
1169.65	13.205
1172.54	10.893
1175.43	22.972
1178.33	79.303
1181.22	28.397
1184.11	3.239
1187.01	7.295
1189.9	33.139
1192.79	2.756
1195.68	10.19
1198.58	38.825
1201.47	66.939
1204.36	5.894
1207.25	12.693
1210.15	15.424
1213.04	6.699
1215.93	16.215
1218.83	41.312
1221.72	68.317
1224.61	38.528
1227.5	99.998
1230.4	97.914
1233.29	10.765
1236.18	20.03
1239.07	61.346
1241.97	12.759
1244.86	38.069
1247.75	38.567
1250.64	6.793
1253.54	16.849
1256.43	22.55
1259.32	30.588
