Measurement: Raman, 785 nm, unoriented, Raman Data Processed
Mineral: Aramayoite
Rruff sample: R061071
Ideal chemistry: Ag_3_Sb_2_(Bi,Sb)S_6_
Locality: Animas mine, Potosi, Bolivia
Source: Michael Scott
Description: Black platy submetallic
Raman shift (cm-1)	intensity
134.647	0
137.539	59.7458
140.432	351.219
143.325	2217.33
146.217	3114.47
149.11	2857.79
152.003	2423.74
154.895	2000
157.788	1764.76
160.681	1700.75
163.573	1776.66
166.466	1709.4
169.359	1656.49
172.252	1617.01
175.144	1529.12
178.037	1560.19
180.93	1578.93
183.822	1661.85
186.715	1858.82
189.608	1869.17
192.5	1826.42
195.393	1741.31
198.286	1470.8
201.179	1319.76
204.071	997.39
206.964	803.25
209.857	506.427
212.749	420.325
215.642	324.505
218.535	195.491
221.428	107.284
224.32	91.1074
227.213	126.293
230.106	72.1494
232.998	248.585
235.891	432.623
238.784	729.676
241.676	918.254
244.569	1163.79
247.462	1394.27
250.355	1510.09
253.247	1705.08
256.14	1886.55
259.033	2067.26
261.925	2156.67
264.818	2056.2
267.711	1895.88
270.603	1882.02
273.496	1956.65
276.389	2113.12
279.281	1929.99
282.174	1697.02
285.067	1336.82
287.96	995.394
290.852	780.191
293.745	667.645
296.638	811.461
299.53	1013.02
302.423	1457.98
305.316	1961.48
308.209	2296.42
311.101	2237.15
313.994	1556.23
316.887	747.763
319.779	245.715
322.672	16.3686
325.565	51.5649
328.457	68.0664
331.35	140.549
334.243	58.6018
337.135	72.6685
340.028	25.5925
342.921	39.1497
345.813	42.5779
348.706	39.2405
351.599	100.395
354.492	113.172
357.384	168.089
360.277	169.705
363.17	234.085
366.062	279.353
368.955	265.695
371.848	360.807
374.74	386.351
377.633	398.825
380.526	417.405
383.419	447.26
386.311	455.545
389.204	446.505
392.097	377.646
394.989	423.415
397.882	369.18
400.775	328.533
403.668	308.991
406.56	320.071
409.453	253.39
412.346	247.654
415.238	266.089
418.131	219.728
421.024	215.399
423.916	212.349
426.809	186.551
429.702	205.673
432.594	184.651
435.487	173.824
438.38	184.768
441.273	138.354
444.165	154.525
447.058	133.837
449.951	119.257
452.843	122.577
455.736	112.44
458.629	89.2297
461.522	108.575
464.414	88.9089
467.307	96.0618
470.2	71.318
473.092	50.9346
475.985	102.768
478.878	26.5411
481.77	53.7594
484.663	84.606
487.556	16.8384
490.449	49.5729
493.341	60.0914
496.234	42.5529
499.127	8.78748
502.019	68.5063
504.912	46.8871
507.805	9.47205
510.697	16.1577
513.59	59.4027
516.483	13.3337
519.375	38.3705
522.268	81.5952
525.161	39.3272
528.054	85.8735
530.946	80.7523
533.839	73.2571
536.732	74.1941
539.624	33.5242
542.517	69.9547
545.41	52.1876
548.303	31.0602
551.195	34.0381
554.088	23.7045
556.981	30.7787
559.873	81.6958
562.766	21.9343
565.659	8.89612
568.551	29.7316
571.444	2.11279
574.337	8.04578
577.23	35.538
580.122	41.9919
583.015	21.2373
585.908	45.0393
588.8	27.5247
591.693	31.2659
594.586	28.8793
597.478	60.223
600.371	46.0909
603.264	41.6001
606.156	41.8146
609.049	35.6006
611.942	38.1425
614.835	62.0278
617.727	49.9075
620.62	42.5378
623.513	41.6574
626.405	29.5225
629.298	36.1409
632.191	21.5255
635.083	19.7847
637.976	7.76746
640.869	57.6185
643.761	36.599
646.654	40.545
649.547	22.9551
652.44	78.016
655.332	63.6045
658.225	14.3552
661.118	17.9051
664.01	0.984619
666.903	4.94214
669.796	57.5995
672.688	53.1506
675.581	72.6222
678.474	7.60132
681.367	32.3959
684.259	45.0638
687.152	43.7167
690.045	9.52148
692.937	48.5193
695.83	27.3372
698.723	45.7612
701.615	10.7351
704.508	20.3973
707.401	30.9893
710.294	29.7972
713.186	51.6086
716.079	70.2604
718.972	49.861
721.864	41.9263
724.757	70.8579
727.65	42.3533
730.543	52.0416
733.435	24.2993
736.328	77.1393
739.221	26.3358
742.113	43.4853
745.006	59.6525
747.899	68.4346
750.791	56.6724
753.684	88.4091
756.577	68.1242
759.47	41.4799
762.362	69.1138
765.255	24.6979
768.148	60.464
771.04	83.1908
773.933	102.042
776.826	91.5338
779.718	85.0541
782.611	71.9126
785.504	139.949
788.396	98.4691
791.289	88.3818
794.182	46.3859
797.075	20.8946
799.967	4.36731
802.86	49.6364
805.753	49.5145
808.645	68.7577
811.538	39.1715
814.431	92.1898
817.323	103.843
820.216	45.4739
823.109	56.5104
826.002	39.9238
828.894	63.3593
831.787	75.4638
834.68	64.8407
837.572	71.5057
840.465	48.0691
843.358	59.1761
846.25	11.9983
849.143	38.2069
852.036	59.0723
854.929	32.828
857.821	36.3969
860.714	83.7855
863.607	48.5933
866.499	71.2435
869.392	39.4401
872.285	74.8126
875.177	28.6419
878.07	37.9109
880.963	56.7293
883.856	53.0239
886.748	33.8024
889.641	37.032
892.534	4.19287
895.426	1.21899
898.319	10.0511
901.212	1.13721
904.104	31.3925
906.997	52.5717
909.89	22.4857
912.783	12.4681
915.675	29.71
918.568	3.76819
921.461	4.24133
924.353	38.8826
927.246	28.4629
930.139	40.7676
933.031	24.0861
935.924	24.5986
938.817	53.8055
941.71	30.2379
944.602	16.5754
947.495	14.7056
950.388	26.701
953.28	53.2583
956.173	45.4984
959.066	28.8321
961.958	38.042
964.851	41.5162
967.744	85.4203
970.636	77.3248
973.529	46.879
976.422	60.0358
979.315	54.0435
982.207	51.4866
985.1	32.7444
987.993	42.9668
990.885	32.4578
993.778	47.9999
996.671	39.1491
999.563	51.7627
1002.46	41.6877
1005.35	80.9185
1008.24	23.3691
1011.13	67.8035
1014.03	79.8191
1016.92	85.9363
1019.81	30.8468
1022.71	42.8742
1025.6	55.2295
1028.49	19.1152
1031.38	25.7063
1034.28	82.9805
1037.17	41.2194
1040.06	51.1357
1042.95	77.6354
1045.85	76.4557
1048.74	38.045
1051.63	76.9772
1054.53	66.0618
1057.42	46.8601
1060.31	25.7946
1063.2	56.8729
1066.1	9.69067
1068.99	93.2373
1071.88	64.2894
1074.77	52.014
1077.67	46.0906
1080.56	46.2305
1083.45	48.558
1086.34	1.56982
1089.24	57.2086
1092.13	66.3063
1095.02	28.0631
1097.91	41.6462
1100.81	28.8133
1103.7	33.6744
1106.59	78.1484
1109.49	21.1039
1112.38	28.7756
1115.27	3.90613
1118.16	36.6688
1121.06	31.5198
1123.95	29.3166
1126.84	14.9387
1129.73	7.68701
1132.63	55.8778
1135.52	31.6307
1138.41	42.9156
1141.31	55.1958
1144.2	77.3246
1147.09	36.7765
1149.98	62.1668
1152.88	7.12964
1155.77	48.9816
1158.66	53.4939
1161.56	57.7769
1164.45	20.7499
1167.34	39.1226
1170.23	33.3707
1173.12	34.7499
1176.02	62.9449
1178.91	34.379
1181.8	80.7461
1184.7	53.9236
1187.59	57.3715
1190.48	49.6865
1193.37	44.345
1196.27	91.162
1199.16	76.3933
1202.05	15.9893
1204.94	30.4672
1207.84	74.7116
1210.73	47.4175
1213.62	33.5875
1216.52	64.957
1219.41	67.9545
1222.3	79.0474
1225.19	48.3488
1228.09	95.0846
1230.98	39.078
1233.87	37.9507
1236.77	16.9032
1239.66	22.2269
1242.55	107.231
1245.44	92.8074
1248.34	106.855
1251.23	76.5936
1254.12	18.9263
1257.01	46.756
1259.91	83.9928
1262.8	89.9828
1265.69	23.1444
1268.58	13.8344
