Measurement: Raman, 532 nm, unoriented, Raman Data Processed
Mineral: Aravaipaite
Rruff sample: R100004
Ideal chemistry: Pb_3_AlF_9_H_2_O
Locality: Grand Reef mine, Klondyke, Aravaipa District, Graham County, Arizona, USA
Source: William W. Pinch
Description: Colorless thin plates. Same sample as used in Kampf (2001) and Kampf et al (2011).
Raman shift (cm-1)	intensity
144.971	0
148.346	10.4353
151.721	55.4968
155.096	92.0445
158.471	118.601
161.845	191.798
165.22	249.038
168.595	258.739
171.97	260.518
175.345	266.509
178.72	264.825
182.094	234.481
185.469	200.264
188.844	159.315
192.219	160.148
195.594	154.032
198.968	149.247
202.343	138.94
205.718	124.772
209.093	117.939
212.468	113.267
215.843	135.776
219.217	190.879
222.592	261.011
225.967	334.427
229.342	427.936
232.717	483.435
236.091	495.337
239.466	470.866
242.841	420.473
246.216	366.563
249.591	319.49
252.965	294.206
256.34	268.668
259.715	265.372
263.09	252.957
266.465	231.762
269.84	183.036
273.214	138.306
276.589	92.899
279.964	68.3015
283.339	48.8293
286.714	37.864
290.089	23.7828
293.463	7.37726
296.838	9.06104
300.213	5.39191
303.588	4.0293
306.963	0.655457
310.337	6.82343
313.712	16.3682
317.087	26.5538
320.462	28.8752
323.837	15.3657
327.212	2.81751
330.586	8.74017
333.961	14.252
337.336	9.39557
340.711	5.50391
344.086	5.29675
347.46	14.7006
350.835	27.7032
354.21	59.8621
357.585	85.4628
360.96	126.423
364.334	167.846
367.709	185.1
371.084	180.12
374.459	142.996
377.834	116.825
381.209	109.792
384.583	107.648
387.958	117.809
391.333	112.193
394.708	107.045
398.083	112.356
401.457	113.599
404.832	78.0223
408.207	47.2856
411.582	30.0224
414.957	24.5446
418.332	19.0598
421.706	15.5729
425.081	12.1134
428.456	15.4678
431.831	14.3756
435.206	17.086
438.58	15.2298
441.955	9.55313
445.33	11.775
448.705	6.85053
452.08	6.9158
455.454	4.05563
458.829	3.45679
462.204	1.8269
465.579	5.70581
468.954	1.26578
472.329	0.075714
475.703	1.13852
479.078	4.16522
482.453	4.44858
485.828	2.36208
489.203	0.991577
492.577	4.21384
495.952	5.36679
499.327	4.39038
502.702	13.1041
506.077	21.9578
509.452	36.1889
512.826	48.8701
516.201	72.3798
519.576	101.627
522.951	140.096
526.326	174.431
529.701	194.117
533.075	195.372
536.45	179.613
539.825	157.975
543.2	149.262
546.575	147.396
549.949	158.362
553.324	155.114
556.699	146.801
560.074	123.795
563.449	90.1003
566.823	67.8011
570.198	44.8791
573.573	26.7677
576.948	11.3755
580.323	1.49725
583.697	0.720093
587.072	2.68317
590.447	2.27844
593.822	3.21716
597.197	9.63391
600.572	18.2299
603.946	27.5915
607.321	46.811
610.696	59.7767
614.071	74.8967
617.446	79.7656
620.821	78.2913
624.195	59.9246
627.57	49.5313
630.945	36.7227
634.32	32.8608
637.695	19.6718
641.069	14.6166
644.444	12.6909
647.819	10.8773
651.194	10.9827
654.569	9.25324
657.943	8.78107
661.318	3.68018
664.693	4.45856
668.068	0.74176
671.443	4.5282
674.818	3.53412
678.192	0.973633
681.567	0.253296
684.942	2.4494
688.317	3.34937
691.692	1.49915
695.067	2.13293
698.441	4.86517
701.816	6.48651
705.191	1.91125
708.566	7.74701
711.941	6.67566
715.315	9.66858
718.69	4.14502
722.065	3.72778
725.44	10.8433
728.815	10.3768
732.189	10.0371
735.564	13.8317
738.939	12.7998
742.314	14.1753
745.689	12.5661
749.063	10.7835
752.438	9.3576
755.813	9.56091
759.188	4.49512
762.563	9.1236
765.938	4.07483
769.312	5.2594
772.687	8.63916
776.062	4.74402
779.437	3.83655
782.812	3.30005
786.187	9.23981
789.561	1.23218
792.936	3.4306
796.311	6.56024
799.686	2.91711
803.061	2.66852
806.435	2.86334
809.81	0.031067
813.185	1.76251
816.56	3.16711
819.935	3.28705
823.309	5.97864
826.684	1.54346
830.059	2.06445
833.434	5.63544
836.809	5.1922
840.184	1.72412
843.558	2.65949
846.933	2.1672
850.308	5.18628
853.683	5.8075
857.058	5.54419
860.433	5.50665
863.807	7.42206
867.182	5.6839
870.557	5.716
873.932	6.16095
877.307	5.4585
880.681	1.93024
884.056	1.2926
887.431	2.38641
890.806	6.34051
894.181	3.92407
897.556	1.78113
900.93	6.68939
904.305	4.58569
907.68	4.03778
911.055	2.33984
914.43	0.874695
917.804	6.39398
921.179	2.44617
924.554	3.9419
927.929	1.06012
931.304	0.173462
934.678	3.3327
938.053	2.68469
941.428	0.542175
944.803	0.244812
948.178	2.9007
951.553	6.41211
954.927	5.59534
958.302	5.91235
961.677	2.71332
965.052	1.64966
968.427	4.31305
971.802	8.11285
975.176	11.3484
978.551	19.2412
981.926	7.29712
985.301	4.68311
988.676	10.234
992.05	4.16559
995.425	0.987244
998.8	0.801025
1002.17	6.65564
1005.55	1.82214
1008.92	2.62115
1012.3	3.74683
1015.67	6.58563
1019.05	3.37732
1022.42	1.66571
1025.8	1.76385
1029.17	4.87756
1032.55	10.7112
1035.92	7.7572
1039.3	1.60248
1042.67	3.80756
1046.05	0.321045
1049.42	2.74316
1052.8	2.26495
1056.17	1.07159
1059.55	4.19556
1062.92	1.96631
1066.3	0.572266
1069.67	5.5556
1073.05	1.97607
1076.42	2.09198
1079.8	2.70911
1083.17	4.32221
1086.55	1.21497
1089.92	0.330994
1093.3	4.78088
1096.67	4.93573
1100.04	7.61572
1103.42	3.26978
1106.79	2.57391
1110.17	4.67993
1113.54	9.38422
1116.92	1.08191
1120.29	5.89374
1123.67	0.275513
1127.04	4.66925
1130.42	4.45184
1133.79	5.07489
1137.17	5.20056
1140.54	3.28095
1143.92	2.85663
1147.29	2.62787
1150.67	7.51739
1154.04	7.27515
1157.42	7.67676
1160.79	3.22186
1164.17	7.84064
1167.54	4.88373
1170.92	1.409
1174.29	3.90564
1177.66	4.45789
1181.04	3.53259
1184.41	2.77716
1187.79	6.4942
1191.16	2.96802
1194.54	2.48511
1197.91	3.35718
1201.29	4.51678
1204.66	7.69812
1208.04	0.605042
1211.41	2.89746
1214.79	10.3402
1218.16	0.768372
1221.54	12.3049
1224.91	7.75867
1228.29	3.2309
1231.66	1.30266
1235.04	4.71069
1238.41	2.58191
1241.79	2.47156
1245.16	1.63007
1248.54	2.95184
1251.91	2.49591
1255.29	6.04864
1258.66	4.37231
1262.04	4.22186
1265.41	2.73468
1268.79	5.53778
1272.16	5.93231
1275.54	5.61029
1278.91	6.11487
1282.29	4.21185
1285.66	3.521
1289.03	3.25665
1292.41	0.158569
1295.78	4.58386
1299.16	5.47986
1302.53	1.93384
