Measurement: Raman, 780 nm, unoriented, Raman Data Processed
Mineral: Aravaipaite
Rruff sample: R100004
Ideal chemistry: Pb_3_AlF_9_H_2_O
Locality: Grand Reef mine, Klondyke, Aravaipa District, Graham County, Arizona, USA
Source: William W. Pinch
Description: Colorless thin plates. Same sample as used in Kampf (2001) and Kampf et al (2011).
Raman shift (cm-1)	intensity
120.942	0
124.317	0.384857
127.692	2.11267
131.067	10.2856
134.442	12.3582
137.816	15.2501
141.191	12.8351
144.566	10.8372
147.941	8.28772
151.316	5.13141
154.69	5.87985
158.065	7.31833
161.44	11.7841
164.815	15.1947
168.19	13.265
171.565	17.4381
174.939	19.9927
178.314	19.7802
181.689	14.774
185.064	8.06659
188.439	0.843201
191.814	0.549316
195.188	1.90991
198.563	1.02518
201.938	0.719269
205.313	2.36362
208.688	0.929749
212.062	3.22424
215.437	9.87152
218.812	21.7609
222.187	35.483
225.562	52.3735
228.936	67
232.311	77.1566
235.686	83.1194
239.061	81.6836
242.436	73.5914
245.811	63.9653
249.185	51.5693
252.56	43.6349
255.935	39.4725
259.31	38.8688
262.685	36.1782
266.059	30.2325
269.434	22.9219
272.809	14.3574
276.184	8.30673
279.559	7.17609
282.933	2.46272
286.308	3.30473
289.683	2.26398
293.058	3.03098
296.433	0.851257
299.808	3.1803
303.182	4.21965
306.557	5.00699
309.932	9.61642
313.307	12.6666
316.682	13.7156
320.057	12.3085
323.431	8.74153
326.806	4.03812
330.181	2.33942
333.556	0.44812
336.931	1.00752
340.305	2.13594
343.68	0.532333
347.055	3.4223
350.43	6.62521
353.805	11.2529
357.18	16.2763
360.554	22.477
363.929	28.1223
367.304	31.0525
370.679	30.1926
374.054	26.3705
377.428	19.479
380.803	21.6009
384.178	21.3501
387.553	26.0542
390.928	29.0716
394.303	31.7625
397.677	33.9886
401.052	34.7422
404.427	24.1593
407.802	15.2177
411.177	9.31439
414.551	4.77254
417.926	3.31601
421.301	5.73669
424.676	3.12268
428.051	2.16084
431.425	2.15147
434.8	2.22929
438.175	1.17679
441.55	0.692413
444.925	0.270798
448.3	0.060089
451.674	0.793854
455.049	1.25676
458.424	0.69548
461.799	0.067093
465.174	0.788589
468.548	0.325638
471.923	0.434769
475.298	1.50465
478.673	1.10002
482.048	0.397247
485.423	0.617233
488.797	2.24863
492.172	3.64067
495.547	3.77034
498.922	5.10228
502.297	5.60744
505.671	8.57007
509.046	13.6128
512.421	15.5521
515.796	22.5226
519.171	28.9171
522.545	37.2342
525.92	44.7916
529.295	48.8309
532.67	47.3883
536.045	40.1457
539.42	31.3299
542.794	25.6055
546.169	20.1338
549.544	19.9315
552.919	17.4419
556.294	14.049
559.668	10.573
563.043	6.46016
566.418	4.56877
569.793	3.28285
573.168	1.21697
576.543	0.554993
579.917	0.753242
583.292	1.28435
586.667	1.46181
590.042	1.63782
593.417	5.17201
596.792	6.42482
600.166	9.71986
603.541	13.2167
606.916	18.2392
610.291	22.0988
613.666	25.8525
617.04	26.184
620.415	24.0441
623.79	19.8799
627.165	16.4752
630.54	13.498
633.915	9.75038
637.289	7.99615
640.664	6.48428
644.039	5.95898
647.414	5.04805
650.789	1.94531
654.163	1.62383
657.538	0.164734
660.913	1.96706
664.288	1.42445
667.663	0.740662
671.038	0.195251
674.412	0.167953
677.787	0.263458
681.162	0.992096
684.537	0.57695
687.912	1.28627
691.286	1.32405
694.661	3.40565
698.036	1.73113
701.411	0.82473
704.786	1.42006
708.16	2.43019
711.535	2.65225
714.91	1.92637
718.285	1.58849
721.66	2.50442
725.035	1.32241
728.409	2.16337
731.784	3.2504
735.159	2.00055
738.534	3.21625
741.909	3.13033
745.284	2.3438
748.658	2.04173
752.033	2.51677
755.408	1.53621
758.783	2.54414
762.158	0.502815
765.532	1.02157
768.907	2.44793
772.282	2.18761
775.657	0.092636
779.032	1.00934
782.407	0.76384
785.781	0.738075
789.156	0.817574
792.531	2.94855
795.906	0.16497
799.281	1.85156
802.655	1.68822
806.03	1.43685
809.405	2.21209
812.78	2.59028
816.155	0.523613
819.529	3.35706
822.904	1.58882
826.279	0.965866
829.654	2.41264
833.029	2.00496
836.404	2.67563
839.778	3.00857
843.153	1.47729
846.528	3.25858
849.903	3.16677
853.278	2.73619
856.653	3.03344
860.027	2.71468
863.402	1.39413
866.777	1.28887
870.152	3.6267
873.527	2.30596
876.901	1.51051
880.276	1.74522
883.651	3.12048
887.026	2.35103
890.401	0.446869
893.775	0.698845
897.15	1.04029
900.525	0.640282
903.9	0.531258
907.275	0.201447
910.649	0.371164
914.024	0.734329
917.399	1.62319
920.774	0.590973
924.149	0.257484
927.524	1.20412
930.898	1.1987
934.273	0.279503
937.648	0.309532
941.023	0.462105
944.398	1.90479
947.773	1.4231
951.147	2.63887
954.522	1.65321
957.897	1.00646
961.272	0.298279
964.647	0.299316
968.021	2.52744
971.396	1.12707
974.771	2.44601
978.146	2.34544
981.521	1.97314
984.895	0.890915
988.27	1.18617
991.645	1.08789
995.02	3.17607
998.395	2.88103
1001.77	0.253838
1005.14	0.019638
1008.52	1.42731
1011.89	0.843872
1015.27	1.59747
1018.64	2.47189
1022.02	2.72376
1025.39	0.871124
1028.77	0.821213
1032.14	2.44727
1035.52	0.867424
1038.89	0.447258
1042.27	1.7264
1045.64	2.03681
1049.02	3.69348
1052.39	1.23924
1055.77	1.8327
1059.14	2.75669
1062.52	1.72766
1065.89	0.845505
1069.27	1.82204
1072.64	1.71893
1076.02	0.14827
1079.39	0.627815
1082.77	1.81627
1086.14	1.32499
1089.52	0.847153
1092.89	0.142906
1096.27	0.106239
1099.64	0.85939
1103.01	0.383629
1106.39	1.91569
1109.76	1.80208
1113.14	1.14476
1116.51	1.4257
1119.89	1.19495
1123.26	1.87612
1126.64	1.28379
1130.01	1.74932
1133.39	2.07259
1136.76	3.6911
1140.14	3.55412
1143.51	2.22991
1146.89	3.45023
1150.26	6.24868
1153.64	2.40333
1157.01	1.5322
1160.39	5.50373
1163.76	3.92239
1167.14	5.045
1170.51	4.71786
1173.88	5.89663
1177.26	5.64516
1180.63	3.32781
1184.01	3.0937
1187.38	4.37052
1190.76	3.25272
1194.13	0.622841
1197.51	1.44956
1200.88	1.88556
1204.26	1.86113
1207.63	2.35496
1211.01	0.313232
1214.38	0.170731
1217.76	0.589645
1221.13	2.07984
1224.51	0.386055
1227.88	0.386246
1231.26	1.27003
1234.63	1.52734
1238.01	2.57221
1241.38	0.092033
1244.76	0.247147
1248.13	0.356659
1251.51	2.32525
1254.88	1.71074
1258.26	1.69604
1261.63	0.328064
1265.01	3.44601
1268.38	3.17316
1271.76	0.436874
1275.13	1.30267
1278.51	3.24259
1281.88	2.71317
1285.25	0.126137
