Measurement: Raman, 532 nm, unoriented, Raman Data Processed
Mineral: Aravaipaite
Rruff sample: R100032
Ideal chemistry: Pb_3_AlF_9_H_2_O
Locality: Grand Reef mine, Klondyke, Aravaipa District, Graham County, Arizona, USA
Source: William W. Pinch
Description: Transparent sheets, associated with laurelite R100011 and scotlandite R100043
Raman shift (cm-1)	intensity
123.758	0
127.133	88.686
130.508	49.9445
133.883	27.5118
137.257	88.8475
140.632	216.325
144.007	258.881
147.382	497.657
150.757	789.306
154.132	991.2
157.506	1105.95
160.881	1342.62
164.256	1734.12
167.631	1930.17
171.006	2107.97
174.381	2249.19
177.755	2330.58
181.13	2194.59
184.505	1921.85
187.88	1678.66
191.255	1545.69
194.629	1447.35
198.004	1311.27
201.379	1139.34
204.754	940.788
208.129	734.21
211.504	545.323
214.878	420.954
218.253	401.121
221.628	450.863
225.003	556.028
228.377	659.467
231.752	758.929
235.127	819.308
238.502	866.899
241.877	915.172
245.252	996.44
248.626	1125.89
252.001	1251.42
255.376	1421.2
258.751	1573.72
262.126	1656.13
265.5	1606.24
268.875	1351.04
272.25	1004.94
275.625	728.106
279	549.145
282.375	442.472
285.75	396.219
289.124	333.054
292.499	191.966
295.874	59.6677
299.249	34.8774
302.623	50.7498
305.998	69.009
309.373	79.1091
312.748	131.04
316.123	194.44
319.498	212.708
322.872	141.123
326.247	35.6069
329.622	31.5064
332.997	62.4641
336.372	70.7048
339.747	59.9517
343.121	44.0859
346.496	16.5992
349.871	43.7749
353.246	115.668
356.621	211.607
359.995	311.955
363.37	441.214
366.745	563.007
370.12	623.436
373.495	614.501
376.87	563.494
380.244	489.373
383.619	478.773
386.994	505.756
390.369	523.891
393.744	529.3
397.118	558.328
400.493	563.858
403.868	422.98
407.243	250.694
410.618	153.037
413.993	110.234
417.367	82.7452
420.742	66.2508
424.117	68.563
427.492	63.5996
430.866	68.5651
434.241	81.1769
437.616	100.988
440.991	89.3707
444.366	77.6685
447.741	104.335
451.115	131.08
454.49	142.823
457.865	189.857
461.24	275.231
464.615	314.981
467.99	212.24
471.364	98.8264
474.739	40.6185
478.114	13.0786
481.489	4.49817
484.864	2.46606
488.238	7.74658
491.613	12.3665
494.988	2.58179
498.363	20.4973
501.738	56.8191
505.113	101.555
508.487	163.549
511.862	249.812
515.237	369.479
518.612	507.263
521.987	663.682
525.361	832.191
528.736	954.747
532.111	956.305
535.486	852.06
538.861	704.197
542.236	573.09
545.61	495.493
548.985	452.613
552.36	420.357
555.735	375.337
559.11	308.991
562.484	234.88
565.859	155.863
569.234	96.0644
572.609	50.8162
575.984	18.6401
579.359	1.26465
582.733	0.359985
586.108	4.72339
589.483	9.12231
592.858	36.4109
596.232	69.6615
599.607	116.813
602.982	180.522
606.357	256.435
609.732	346.865
613.107	417.935
616.481	444.274
619.856	428.46
623.231	386.501
626.606	313.244
629.981	239.096
633.356	189.873
636.73	140.302
640.105	102.124
643.48	74.7428
646.855	50.0656
650.23	36.5071
653.604	28.9255
656.979	12.0508
660.354	11.9771
663.729	0.77124
667.104	6.22436
670.479	5.24878
673.853	0.43396
677.228	8.5669
680.603	4.88562
683.978	1.78821
687.353	2.49109
690.727	7.87439
694.102	13.3496
697.477	12.0974
700.852	20.9149
704.227	15.8157
707.601	29.2009
710.976	35.2315
714.351	41.51
717.726	43.6596
721.101	46.6879
724.476	59.5527
727.85	56.493
731.225	56.4353
734.6	64.4167
737.975	59.2469
741.35	56.6824
744.725	50.6065
748.099	58.0061
751.474	51.0825
754.849	47.0314
758.224	35.6106
761.599	35.8849
764.973	34.7347
768.348	27.9894
771.723	21.2127
775.098	23.8063
778.473	20.2173
781.847	12.7712
785.222	11.0864
788.597	14.3933
791.972	19.194
795.347	13.3923
798.722	15.082
802.096	14.6736
805.471	13.7172
808.846	9.26709
812.221	7.46399
815.596	7.43555
818.971	3.35583
822.345	2.06665
825.72	1.93726
829.095	0.499756
832.47	7.15393
835.845	3.69653
839.219	1.14185
842.594	8.38477
845.969	1.56787
849.344	4.9856
852.719	7.18103
856.093	3.8269
859.468	4.6593
862.843	9.55847
866.218	3.98377
869.593	2.23181
872.967	4.09094
876.342	10.7029
879.717	12.7092
883.092	5.38708
886.467	3.14502
889.842	2.90076
893.216	9.80139
896.591	3.39038
899.966	3.82776
903.341	1.39978
906.716	3.98181
910.091	4.92273
913.465	0.458862
916.84	3.91663
920.215	5.76904
923.59	2.49182
926.965	4.74243
930.339	1.95325
933.714	2.03748
937.089	1.15198
940.464	7.21497
943.839	3.77429
947.213	5.83838
950.588	4.94446
953.963	11.3544
957.338	12.5798
960.713	14.712
964.088	24.7693
967.462	50.3707
970.837	83.9596
974.212	130.351
977.587	178.818
980.962	135.8
984.337	65.0647
987.711	40.9618
991.086	18.6621
994.461	9.86426
997.836	2.24951
1001.21	9.87207
1004.59	5.19556
1007.96	1.11987
1011.34	6.35486
1014.71	1.88257
1018.09	2.29016
1021.46	5.94556
1024.83	2.16138
1028.21	0.727417
1031.58	2.15027
1034.96	7.31494
1038.33	4.79907
1041.71	3.12573
1045.08	7.97156
1048.46	0.272827
1051.83	4.24109
1055.21	13.3715
1058.58	13.7203
1061.96	11.904
1065.33	2.81763
1068.71	4.05286
1072.08	3.17664
1075.46	9.19727
1078.83	3.18347
1082.21	6.94836
1085.58	2.21973
1088.96	4.08191
1092.33	0.92395
1095.7	7.03979
1099.08	0.422607
1102.45	3.48901
1105.83	2.16882
1109.2	1.46509
1112.58	5.45203
1115.95	6.46265
1119.33	3.4071
1122.7	8.51245
1126.08	3.71399
1129.45	6.06799
1132.83	8.57788
1136.2	7.44617
1139.58	9.76721
1142.95	8.02393
1146.33	14.963
1149.7	14.969
1153.08	20.3849
1156.45	21.2034
1159.83	21.4069
1163.2	14.9465
1166.58	13.428
1169.95	10.0591
1173.33	5.75561
1176.7	1.00269
1180.08	5.11585
1183.45	6.14429
1186.83	7.08374
1190.2	0.644287
1193.58	2.15039
1196.95	3.36255
1200.33	7.81641
1203.7	3.14062
1207.07	5.3728
1210.45	3.65027
1213.82	10.2306
1217.2	6.8634
1220.57	2.28906
1223.95	1.1615
1227.32	9.52588
1230.7	6.64429
1234.07	6.86218
1237.45	5.84229
1240.82	3.37219
1244.2	1.93433
1247.57	10.2344
1250.95	4.49146
1254.32	10.8218
1257.7	6.90393
1261.07	0.779175
1264.45	6.7887
1267.82	4.81824
1271.2	8.7876
1274.57	4.12598
1277.95	8.25671
1281.32	0.518677
1284.69	0.623169
1288.07	0.013794
1291.44	2.03821
1294.82	5.58191
1298.19	5.00696
1301.57	4.48303
