Measurement: Raman, 532 nm, unoriented, Raman Data Processed
Mineral: Arcanite
Rruff sample: R070040
Ideal chemistry: K_2_SO_4_
Locality: Tolbachik Volcano, Kamchatka Peninsula, Russia
Source: Michael Scott
Description: White to colorless filaments coating the surface of a rock
Raman shift (cm-1)	intensity
121.737	0
125.112	7.58826
128.487	162.393
131.862	460.822
135.237	239.383
138.611	286.915
141.986	248.907
145.361	375.739
148.736	458.498
152.111	568.384
155.486	567.593
158.86	598.846
162.235	788.966
165.61	1089.41
168.985	1441.54
172.36	729.342
175.734	542.008
179.109	510.586
182.484	499.804
185.859	458.532
189.234	392.24
192.608	291.853
195.983	236.596
199.358	222.057
202.733	195.213
206.108	151.369
209.482	174.062
212.857	191.025
216.232	261.353
219.607	296.22
222.982	397.45
226.357	461.156
229.731	514.543
233.106	398.646
236.481	275.554
239.856	128.458
243.231	71.0439
246.606	50.5608
249.98	51.1914
253.355	45.5588
256.73	15.3689
260.105	4.83862
263.479	86.1191
266.854	44.7324
270.229	72.7368
273.604	11.8955
276.979	40.082
280.354	2.98731
283.728	10.0523
287.103	25.0049
290.478	23.4224
293.853	40.2344
297.228	23.1504
300.603	1.71631
303.977	51.6821
307.352	7.9292
310.727	17.2446
314.102	1.58496
317.476	19.4253
320.851	25.6636
324.226	31.811
327.601	52.7349
330.976	64.7212
334.351	29.189
337.725	79.0972
341.1	43.7969
344.475	24.2065
347.85	32.8276
351.225	25.7192
354.599	60.2568
357.974	51.3579
361.349	33.1812
364.724	60.3159
368.099	43.6733
371.474	96.4448
374.848	32.4243
378.223	53.3355
381.598	53.7529
384.973	32.958
388.348	37.3379
391.722	9.36084
395.097	28.6235
398.472	62.8438
401.847	237.5
405.222	979.926
408.596	2000.95
411.971	3135.13
415.346	5288.47
418.721	3610
422.096	335.614
425.471	184.73
428.845	245.434
432.22	357.629
435.595	541.565
438.97	795.054
442.345	1053.6
445.719	1312.69
449.094	1399.19
452.469	1336.84
455.844	1319.56
459.219	1328.97
462.594	1221.45
465.968	948.713
469.343	780.44
472.718	621.816
476.093	552.848
479.468	598.919
482.842	828.382
486.217	1360.11
489.592	2229.34
492.967	3146.71
496.342	3959.88
499.716	3927.36
503.091	2096.26
506.466	863.286
509.841	361.928
513.216	188.744
516.591	77.6523
519.965	55.4746
523.34	3.21582
526.715	11.834
530.09	13.1484
533.465	17.0889
536.839	2.53711
540.214	29.8457
543.589	45.1455
546.964	16.7363
550.339	3.79297
553.713	33.7647
557.088	35.7266
560.463	10.2559
563.838	157.764
567.213	80.0898
570.588	130.941
573.962	19.9033
577.337	189.799
580.712	167.468
584.087	173.866
587.462	201.944
590.837	330.327
594.211	503.76
597.586	1125.74
600.961	2055.89
604.336	2779.25
607.711	4181.18
611.085	3075.54
614.46	1407.07
617.835	2194.6
621.21	2874.76
624.585	3794.67
627.959	5292.94
631.334	1932.81
634.709	853.636
638.084	500.979
641.459	453.24
644.833	239.717
648.208	174.519
651.583	165.08
654.958	79.4795
658.333	191.273
661.708	422.69
665.082	1162.66
668.457	1969.54
671.832	2874.75
675.207	4391.11
678.582	1704.7
681.956	243.613
685.331	86.5439
688.706	31.8145
692.081	22.7549
695.456	112.197
698.831	118.044
702.205	26.1689
705.58	11.7539
708.955	38.5938
712.33	47.0654
715.705	149.502
719.079	62.0859
722.454	6.5791
725.829	66.7676
729.204	33.0977
732.579	95.7246
735.953	62.5459
739.328	106.489
742.703	57.0605
746.078	30.8525
749.453	150.572
752.827	78.7178
756.202	88.3066
759.577	150.703
762.952	93.8535
766.327	126.726
769.702	39.3984
773.076	108.924
776.451	128.794
779.826	165.423
783.201	60.0898
786.576	76.8418
789.951	95.0703
793.325	77.4756
796.7	101.181
800.075	152.556
803.45	151.976
806.824	31.8457
810.199	82.9023
813.574	18.1445
816.949	127.314
820.324	103.797
823.699	87.9785
827.073	91.4707
830.448	28.3594
833.823	95.4844
837.198	130.828
840.573	96.1953
843.947	168.139
847.322	169.115
850.697	207.695
854.072	105.336
857.447	112.943
860.822	166.908
864.196	222.877
867.571	210.953
870.946	147.754
874.321	214.578
877.696	198.547
881.07	230.31
884.445	149.408
887.82	143.328
891.195	293.529
894.57	205.002
897.944	232.209
901.319	172.219
904.694	233.721
908.069	111.144
911.444	151.728
914.819	53.5898
918.193	132.08
921.568	71.4434
924.943	63.3457
928.318	2.09766
931.693	102.664
935.067	133.037
938.442	17.9707
941.817	2.91602
945.192	55.5039
948.567	66.5957
951.942	25.2109
955.316	31.7832
958.691	8.22461
962.066	68.7246
965.441	379.986
968.816	399.055
972.19	1074.88
975.565	3142.52
978.94	7072
982.315	10638.7
985.69	11241.8
989.064	4783.69
992.439	2535.19
995.814	2608.45
999.189	3330.3
1002.56	4500.49
1005.94	7499.45
1009.31	16832.2
1012.69	27971.6
1016.06	39179.4
1019.44	25560.8
1022.81	7977.81
1026.19	3562.61
1029.56	2405.62
1032.94	2101.5
1036.31	2175.2
1039.69	2014.84
1043.06	1901.05
1046.44	1495.3
1049.81	1287.06
1053.19	943.717
1056.56	794.59
1059.94	614.777
1063.31	660.76
1066.68	614.814
1070.06	640.082
1073.43	771.857
1076.81	773.016
1080.18	601.99
1083.56	255.019
1086.93	168.648
1090.31	106.322
1093.68	153
1097.06	121.465
1100.43	101.807
1103.81	692.891
1107.18	1503.4
1110.56	1949.49
1113.93	1459.52
1117.31	1471.88
1120.68	3587.6
1124.06	7053.15
1127.43	10455.3
1130.81	7710.58
1134.18	2262.06
1137.56	613.617
1140.93	418.588
1144.31	246.914
1147.68	423.393
1151.06	870.734
1154.43	1889.69
1157.81	2985.17
1161.18	3020.93
1164.56	1061.38
1167.93	65.4981
1171.3	41.8867
1174.68	30.2832
1178.05	42.375
1181.43	62.1484
1184.8	56.3418
1188.18	153.18
1191.55	84.4336
1194.93	19.1699
1198.3	163.418
1201.68	138.834
1205.05	194.039
1208.43	70.6074
1211.8	166.131
1215.18	237.475
1218.55	105.031
1221.93	238.543
1225.3	137.523
1228.68	142.777
1232.05	225.773
1235.43	40.1445
1238.8	61.0469
1242.18	74.6094
1245.55	127.07
1248.92	269.379
1252.3	14.3086
1255.67	104.926
1259.05	138.269
1262.42	94.5586
1265.8	201.269
1269.17	94.9883
1272.55	241.422
1275.92	158.711
1279.3	190.766
1282.67	318.5
1286.05	150.449
1289.42	379.621
1292.8	20.1914
1296.17	294.809
1299.55	227.867
1302.92	197.871
1306.3	110.688
1309.67	62.957
1313.05	4.43359
