Measurement: Raman, 785 nm, unoriented, Raman Data Processed
Mineral: Ardennite-(As)
Rruff sample: R060669
Ideal chemistry: Mn^2+^_4_Al_4_(AlMg)(As^5+^O_4_)(SiO_4_)_2_(Si_3_O_10_)(OH)_6_
Locality: Ardennes, Salm Chateau, Belgium
Source: Michael Scott
Description: Yellowish-brown prismatic single crystal associated with white quartz
Raman shift (cm-1)	intensity
143.705	0
146.598	1774.53
149.49	2100.03
152.383	1592.22
155.276	1025.94
158.168	963.739
161.061	1091.21
163.954	1552.92
166.846	2093.92
169.739	2296.32
172.632	2411.32
175.525	2570.07
178.417	2878.25
181.31	3125.43
184.203	2633.71
187.095	2014.14
189.988	1758.33
192.881	1738.21
195.773	1779.1
198.666	1679.21
201.559	1607.89
204.452	1348.64
207.344	1177
210.237	967.684
213.13	739.459
216.022	782.516
218.915	878.07
221.808	800.072
224.7	738.573
227.593	611.058
230.486	581.054
233.378	439.006
236.271	379.595
239.164	253.402
242.057	229.059
244.949	158.247
247.842	83.539
250.735	135.801
253.627	199.624
256.52	241.025
259.413	292.072
262.306	527.306
265.198	629.292
268.091	628.631
270.984	707.766
273.876	716.239
276.769	615.042
279.662	743.292
282.554	951.81
285.447	1070.25
288.34	1340.39
291.233	1505.59
294.125	1437.87
297.018	1607.93
299.911	1847.4
302.803	1884.68
305.696	1908.9
308.589	2159.24
311.481	2311.5
314.374	2165.79
317.267	1679.45
320.159	1261.12
323.052	1027.15
325.945	1043.85
328.838	1200.74
331.73	1366.91
334.623	1461.82
337.516	1671.33
340.408	2133.77
343.301	2984.37
346.194	3718.39
349.086	4692.08
351.979	4996.79
354.872	4507.7
357.765	3619.36
360.657	2965.39
363.55	2616.83
366.443	2247.91
369.335	1860.61
372.228	1697.7
375.121	1501.08
378.013	1536.71
380.906	1611.4
383.799	1709.48
386.692	2046.68
389.584	2634.42
392.477	3291.06
395.37	3636.2
398.263	3239.35
401.155	2601.51
404.048	2240.32
406.941	2337.99
409.833	2332.68
412.726	2425.95
415.619	2321.02
418.511	2080.93
421.404	1920.27
424.297	1996.75
427.19	2136.48
430.082	2354.99
432.975	2320.49
435.868	2334.86
438.76	2332.6
441.653	2333.95
444.546	2302.51
447.438	2151.33
450.331	2170.57
453.224	2292.69
456.116	2585.45
459.009	3020.99
461.902	2801.93
464.795	2202.44
467.687	1691.59
470.58	1458.18
473.473	1120.88
476.365	697.626
479.258	357.731
482.151	125.003
485.043	133.819
487.936	114.828
490.829	118.545
493.722	222.139
496.614	256.77
499.507	366.806
502.4	513.414
505.292	579.926
508.185	808.738
511.078	904.66
513.971	1121.57
516.863	1091.04
519.756	1130.76
522.649	908.445
525.541	834.427
528.434	583.654
531.327	484.846
534.219	566.131
537.112	590.265
540.005	484.7
542.898	393.9
545.79	395.85
548.683	500.073
551.576	1096.71
554.468	2137.3
557.361	3219.44
560.254	3791.78
563.146	2600.82
566.039	1125.99
568.932	383.684
571.825	69.832
574.717	60.919
577.61	93.499
580.503	42.572
583.395	12.763
586.288	123.194
589.181	206.391
592.073	407.167
594.966	450.562
597.859	547.324
600.752	631.035
603.644	729.049
606.537	613.713
609.43	671.909
612.322	641.743
615.215	739.814
618.108	1159.16
621	1608.62
623.893	1758.61
626.786	1742.55
629.679	1454.14
632.571	1031.74
635.464	689.064
638.357	424.804
641.249	318.912
644.142	223.912
647.035	99.573
649.927	39.056
652.82	27.895
655.713	36.381
658.606	9.94
661.498	113.757
664.391	119.026
667.284	186.876
670.176	282.798
673.069	150.313
675.962	205.37
678.854	185.379
681.747	137.775
684.64	179.055
687.532	158.663
690.425	33.87
693.318	49.756
696.211	330.042
699.103	705.7
701.996	1493.19
704.889	2822.88
707.781	4752.82
710.674	6456.05
713.567	6163.77
716.459	4058.58
719.352	2431.95
722.245	1728.16
725.138	1214.63
728.03	1043.99
730.923	1001.89
733.816	955.658
736.708	873.189
739.601	807.122
742.494	835.642
745.386	760.79
748.279	759.715
751.172	783.194
754.065	799.638
756.957	981.544
759.85	1176.3
762.743	1696.66
765.635	2784.67
768.528	4453.52
771.421	6717.4
774.313	8880.93
777.206	9923
780.099	9110.15
782.992	7301.35
785.884	5644.22
788.777	4311.81
791.67	3224.25
794.562	2584.59
797.455	1915.07
800.348	1490.45
803.24	1133.97
806.133	890.075
809.026	797.298
811.919	715.097
814.811	923.184
817.704	969.885
820.597	958.148
823.489	847.011
826.382	746.879
829.275	523.422
832.167	319
835.06	239.316
837.953	204.184
840.846	257.751
843.738	403.06
846.631	666.534
849.524	1131.33
852.416	1753.37
855.309	2798.03
858.202	3835.12
861.094	5264.82
863.987	6826.92
866.88	8884.92
869.773	11270.3
872.665	13937.5
875.558	15435.4
878.451	14318.7
881.343	11827.4
884.236	9815.93
887.129	8233.36
890.021	6703.06
892.914	5263.55
895.807	3794.68
898.7	2856.64
901.592	2284.53
904.485	1863.52
907.378	1686.04
910.27	1774.85
913.163	1836.56
916.056	2046.79
918.949	2315.82
921.841	2849.51
924.734	3670.78
927.627	4967.29
930.519	6237.88
933.412	7030.51
936.305	6496.31
939.198	5001.11
942.09	3367.74
944.983	2185.38
947.876	1403.72
950.768	999.065
953.661	661.843
956.554	424.019
959.446	305.135
962.339	334.243
965.232	329.729
968.125	326.993
971.017	281.23
973.91	216.466
976.803	107.515
979.695	19.735
982.588	89.806
985.481	99.811
988.373	95.299
991.266	127.521
994.159	132.583
997.052	73.163
999.944	84.056
1002.84	122.367
1005.73	100.459
1008.62	134.874
1011.51	18.68
1014.41	40.015
1017.3	71.336
1020.19	23.886
1023.09	20.484
1025.98	57.14
1028.87	8.351
1031.76	32.822
1034.66	35.052
1037.55	68.468
1040.44	49.708
1043.34	117.056
1046.23	159.593
1049.12	152.019
1052.01	61.918
1054.91	15.144
1057.8	39.683
1060.69	42.227
1063.58	57.495
1066.48	21.4
1069.37	31.164
1072.26	23.092
1075.15	52.444
1078.05	47.96
1080.94	9.734
1083.83	4.324
1086.72	28.214
1089.62	70.254
1092.51	77.284
1095.4	6.969
1098.3	5.529
1101.19	28.931
1104.08	53.44
1106.97	54.073
1109.87	29.168
1112.76	33.429
1115.65	56.603
1118.55	33.293
1121.44	42.512
1124.33	37.181
1127.22	28.307
1130.12	3.697
1133.01	11.761
1135.9	26.67
1138.79	35.785
1141.69	21.425
1144.58	31.757
1147.47	5.988
1150.37	10.844
1153.26	31.999
1156.15	26.198
1159.04	17.367
1161.93	1.536
1164.83	14.067
1167.72	82.878
1170.61	17.908
1173.51	44.388
1176.4	20.355
1179.29	28.387
1182.18	53.747
1185.08	35.219
1187.97	14.932
1190.86	13.23
1193.76	0.71
1196.65	22.314
1199.54	18.526
1202.43	74.887
1205.33	5.204
1208.22	13.541
1211.11	9.381
1214	3.363
1216.9	61.581
1219.79	2.888
1222.68	67.375
1225.58	26.432
1228.47	16.967
1231.36	63.563
1234.25	14.244
1237.15	26.922
1240.04	18.168
1242.93	12.06
1245.82	47.153
1248.72	40.205
1251.61	19.444
1254.5	11.809
1257.39	24.5
1260.29	0
