Measurement: Raman, 532 nm, unoriented, Raman Data Processed
Mineral: Ardennite-(As)
Rruff sample: R060669
Ideal chemistry: Mn^2+^_4_Al_4_(AlMg)(As^5+^O_4_)(SiO_4_)_2_(Si_3_O_10_)(OH)_6_
Locality: Ardennes, Salm Chateau, Belgium
Source: Michael Scott
Description: Yellowish-brown prismatic single crystal associated with white quartz
Raman shift (cm-1)	intensity
89.8438	0
93.2186	7.32883
96.5934	2.28677
99.9682	8.04654
103.343	4.19644
106.718	8.09422
110.093	8.64725
113.468	9.76553
116.842	10.324
120.217	11.9285
123.592	12.7172
126.967	13.3733
130.342	17.2942
133.716	16.3228
137.091	15.7304
140.466	7.53321
143.841	5.33531
147.216	1.20685
150.59	2.1769
153.965	1.11133
157.34	0.611237
160.715	0.309113
164.09	0.20636
167.464	1.35561
170.839	2.78419
174.214	1.75006
177.589	4.38769
180.964	14.449
184.339	28.7455
187.713	38.5905
191.088	46.0353
194.463	53.7318
197.838	59.0728
201.213	64.9704
204.588	65.7904
207.962	68.7242
211.337	68.4802
214.712	65.4239
218.087	67.001
221.462	65.2193
224.836	62.2224
228.211	58.4784
231.586	53.1733
234.961	48.2929
238.336	47.4394
241.71	43.5283
245.085	42.0697
248.46	37.6692
251.835	33.5911
255.21	30.7582
258.585	29.1773
261.959	26.5823
265.334	24.6788
268.709	21.0079
272.084	20.0413
275.459	18.1902
278.834	15.2984
282.208	13.0847
285.583	12.5316
288.958	11.2964
292.333	9.33218
295.708	8.49794
299.082	7.75511
302.457	8.0298
305.832	5.70274
309.207	7.98025
312.582	9.72172
315.957	6.99322
319.331	1.23534
322.706	0.414688
326.081	1.54767
329.456	1.02306
332.831	1.41325
336.205	1.07008
339.58	4.24713
342.955	12.0653
346.33	16.2636
349.705	20.5772
353.079	22.6386
356.454	17.7887
359.829	13.0055
363.204	8.95167
366.579	5.85811
369.954	2.8916
373.328	0.048065
376.703	0.725998
380.078	0.263519
383.453	1.1712
386.828	2.28828
390.202	5.08832
393.577	6.55307
396.952	7.48372
400.327	4.10252
403.702	0.674988
407.077	2.15056
410.451	1.9243
413.826	2.82021
417.201	2.01335
420.576	0.159653
423.951	1.02296
427.325	1.01479
430.7	2.51465
434.075	3.61626
437.45	5.51526
440.825	9.23819
444.2	12.7913
447.574	17.0773
450.949	20.05
454.324	24.9888
457.699	29.0507
461.074	28.2848
464.448	20.5075
467.823	14.6793
471.198	10.2714
474.573	6.44495
477.948	3.92697
481.322	0.744095
484.697	0.010178
488.072	1.47589
491.447	0.964737
494.822	0.518524
498.197	1.47791
501.571	2.19015
504.946	5.62988
508.321	7.3391
511.696	7.90813
515.071	9.3463
518.446	9.78551
521.82	10.8051
525.195	10.8361
528.57	9.68965
531.945	11.7627
535.32	12.9998
538.694	12.1115
542.069	12.5684
545.444	10.5064
548.819	12.3373
552.194	17.6851
555.568	23.9662
558.943	30.6264
562.318	26.5774
565.693	12.3731
569.068	5.65938
572.443	2.33797
575.817	0.120178
579.192	0.792145
582.567	0.901825
585.942	2.02949
589.317	3.72389
592.692	6.38686
596.066	7.22447
599.441	7.6962
602.816	6.19673
606.191	4.13472
609.566	4.78606
612.94	5.49301
616.315	6.09209
619.69	6.50978
623.065	10.1663
626.44	8.71565
629.814	6.14078
633.189	4.66898
636.564	4.28058
639.939	0.94075
643.314	0.342911
646.688	0.003235
650.063	0.130096
653.438	0.670639
656.813	0.188446
660.188	0.69133
663.563	0.358185
666.937	0.471039
670.312	0.479752
673.687	0.190796
677.062	1.01006
680.437	0.767578
683.812	0.744293
687.186	2.11063
690.561	3.15504
693.936	4.94125
697.311	8.7981
700.686	14.4151
704.06	22.1088
707.435	34.6627
710.81	44.9721
714.185	42.1655
717.56	25.5196
720.934	15.1494
724.309	9.55837
727.684	5.51222
731.059	2.86073
734.434	1.60135
737.809	0.772278
741.183	0.196274
744.558	0.072876
747.933	0.679581
751.308	0.270279
754.683	0.353271
758.058	1.64801
761.432	3.62334
764.807	8.61043
768.182	14.3601
771.557	21.9518
774.932	29.7235
778.306	30.8421
781.681	26.2201
785.056	21.5413
788.431	13.7089
791.806	9.07971
795.181	7.17145
798.555	3.42069
801.93	1.78708
805.305	1.56036
808.68	1.03505
812.055	3.9603
815.429	3.35483
818.804	4.68166
822.179	3.75511
825.554	3.15712
828.929	0.936859
832.303	0.558029
835.678	1.08618
839.053	1.0536
842.428	2.30685
845.803	6.2188
849.178	12.8011
852.552	22.2952
855.927	35.6435
859.302	53.0683
862.677	75.1732
866.052	100.275
869.427	130.098
872.801	163.769
876.176	180.492
879.551	165.663
882.926	133.654
886.301	110.058
889.675	91.9246
893.05	68.9792
896.425	47.1327
899.8	32.2027
903.175	22.7415
906.549	16.4414
909.924	15.4117
913.299	14.5231
916.674	16.1792
920.049	18.2277
923.423	24.5012
926.798	28.8855
930.173	34.8206
933.548	38.5839
936.923	36.1358
940.298	25.0413
943.672	15.1241
947.047	9.77934
950.422	5.22127
953.797	0.809784
957.172	1.14929
960.547	0.379761
963.921	0.908508
967.296	0.069199
970.671	1.31818
974.046	0.436584
977.421	0.069321
980.795	0.173309
984.17	0.215958
987.545	0.819199
990.92	0.342133
994.295	0.473267
997.669	1.28314
1001.04	1.94417
1004.42	2.77234
1007.79	2.45285
1011.17	3.82371
1014.54	3.52878
1017.92	3.73251
1021.29	4.00552
1024.67	4.06874
1028.04	4.61569
1031.42	5.07548
1034.79	5.03767
1038.17	4.44867
1041.54	3.84798
1044.92	6.24696
1048.29	4.61719
1051.67	3.40894
1055.04	2.10007
1058.42	2.52319
1061.79	1.7269
1065.17	1.91928
1068.54	0.704758
1071.92	0.808319
1075.29	0.862793
1078.66	1.22287
1082.04	0.220917
1085.41	1.58487
1088.79	1.08403
1092.16	0.828171
1095.54	0.670425
1098.91	1.16916
1102.29	0.190674
1105.66	1.63414
1109.04	1.57465
1112.41	2.20766
1115.79	1.33756
1119.16	1.63506
1122.54	1.9167
1125.91	1.0303
1129.29	1.78015
1132.66	1.379
1136.04	1.05188
1139.41	0.11557
1142.79	0.668365
1146.16	0.962204
1149.54	1.44646
1152.91	0.592545
1156.29	1.76953
1159.66	0.430222
1163.04	0.797333
1166.41	1.32774
1169.79	0.286087
1173.16	0.93988
1176.54	1.72905
1179.91	0.50531
1183.28	0.64917
1186.66	0.983871
1190.03	0.21402
1193.41	0.861404
1196.78	0.385544
1200.16	2.14963
1203.53	0.352448
1206.91	1.77798
1210.28	2.38789
1213.66	2.20551
1217.03	0.959015
1220.41	1.43881
1223.78	1.12122
1227.16	1.04163
1230.53	2.02597
1233.91	1.72572
1237.28	1.35265
1240.66	2.12671
1244.03	2.41515
1247.41	1.04791
1250.78	2.50464
1254.16	1.33112
1257.53	0.999161
1260.9	1.22279
1264.28	2.18793
1267.65	1.69263
1271.03	0.495132
1274.4	2.25165
1277.78	2.32007
1281.15	0.656113
1284.53	1.30202
1287.9	0.418671
1291.28	0.886276
1294.65	0.21109
1298.03	0.499023
1301.4	0.495956
