Measurement: Raman, 780 nm, unoriented, Raman Data Processed
Mineral: Arfvedsonite
Rruff sample: R110049
Ideal chemistry: NaNa_2_(Fe^2+^_4_Fe^3+^)Si_8_O_22_(OH)_2_
Locality: Mount Malosa, Zomba District, Malawi
Source: Donald M Doell
Description: Black prismatic crystal
Raman shift (cm-1)	intensity
129.209	0
132.101	1.62012
134.994	17.5605
137.887	168.191
140.779	394.502
143.672	367.123
146.565	107.561
149.458	78.1262
152.35	164.381
155.243	349.966
158.136	629.909
161.028	948.857
163.921	1007.22
166.814	664.617
169.706	377.849
172.599	199.687
175.492	112.68
178.385	123.987
181.277	194.706
184.17	327.176
187.063	487.189
189.955	608.742
192.848	623.159
195.741	548.111
198.633	384.991
201.526	231.019
204.419	160.335
207.311	157.571
210.204	161.008
213.097	197.519
215.99	258.221
218.882	322.005
221.775	329.714
224.668	233.633
227.56	149.344
230.453	140.62
233.346	163.464
236.238	214.434
239.131	272.769
242.024	291.787
244.917	272.76
247.809	178.131
250.702	62.1516
253.595	1.28247
256.487	34.2139
259.38	36.5139
262.273	17.2229
265.166	3.29321
268.058	29.2969
270.951	53.8801
273.844	72.7876
276.736	93.1768
279.629	133.459
282.522	179.867
285.414	217.826
288.307	265.552
291.2	310.783
294.092	347.138
296.985	324.072
299.878	252.27
302.771	191.168
305.663	138.877
308.556	111.439
311.449	95.6321
314.341	80.3253
317.234	65.9193
320.127	61.6108
323.019	77.1736
325.912	75.4375
328.805	86.8265
331.698	88.6604
334.59	86.541
337.483	109.769
340.376	138.24
343.268	178.405
346.161	249.658
349.054	359.867
351.947	443.246
354.839	520.402
357.732	517.363
360.625	447.716
363.517	380.654
366.41	351.249
369.303	359.401
372.195	353.357
375.088	330.913
377.981	271.065
380.873	223.58
383.766	165.874
386.659	108.258
389.552	69.2152
392.444	47.1848
395.337	21.6871
398.23	12.245
401.122	0.416016
404.015	4.38037
406.908	7.42798
409.8	1.29236
412.693	7.40747
415.586	25.7373
418.479	32.3066
421.371	59.2633
424.264	63.8119
427.157	66.3619
430.049	58.5809
432.942	50.8148
435.835	29.6775
438.728	14.3651
441.62	2.86084
444.513	5.44421
447.406	9.84045
450.298	16.4014
453.191	11.0193
456.084	1.90247
458.976	8.52026
461.869	26.6172
464.762	32.8384
467.654	36.0856
470.547	29.7044
473.44	24.6149
476.333	10.0181
479.225	17.5048
482.118	8.28332
485.011	18.7203
487.903	22.7649
490.796	33.9509
493.689	50.3593
496.582	68.4692
499.474	91.4784
502.367	98.4706
505.26	106.482
508.152	107.959
511.045	124.272
513.938	148.27
516.83	187.665
519.723	231.736
522.616	299.778
525.509	377.282
528.401	472.322
531.294	560.658
534.187	616.696
537.079	613.504
539.972	554.103
542.865	467.319
545.757	390.524
548.65	332.851
551.543	296.926
554.436	283.592
557.328	276.592
560.221	285.948
563.114	306.283
566.006	331.256
568.899	374.868
571.792	401.188
574.684	387.603
577.577	331.061
580.47	259.471
583.362	186.898
586.255	144.215
589.148	98.0807
592.041	70.178
594.933	47.3298
597.826	37.2741
600.719	23.8761
603.611	12.322
606.504	7.40076
609.397	1.83643
612.29	5.75977
615.182	2.87402
618.075	0.717651
620.968	4.4187
623.86	6.02905
626.753	3.22156
629.646	4.79126
632.538	1.8479
635.431	4.88806
638.324	9.27087
641.217	19.0727
644.109	30.2791
647.002	41.1459
649.895	58.0529
652.787	65.6451
655.68	92.9984
658.573	110.31
661.466	119.532
664.358	119.54
667.251	102.34
670.144	81.0209
673.036	62.0758
675.929	41.1113
678.822	29.9584
681.714	15.7715
684.607	12.5494
687.5	1.91968
690.393	3.59863
693.285	0.551758
696.178	0.292725
699.071	0.057495
701.963	2.24255
704.856	6.25781
707.749	13.1809
710.641	29.2457
713.534	17.6189
716.427	30.5714
719.319	26.1384
722.212	32.538
725.105	34.1263
727.998	38.8635
730.89	40.4168
733.783	39.9436
736.676	26.3137
739.568	28.472
742.461	25.9985
745.354	21.6867
748.246	25.0469
751.139	23.9097
754.032	25.097
756.925	26.7324
759.817	30.5715
762.71	30.4857
765.603	38.7779
768.495	33.526
771.388	25.2993
774.281	25.137
777.173	17.5804
780.066	12.3289
782.959	6.97571
785.852	2.92908
788.744	0.158447
791.637	6.5033
794.53	2.12036
797.422	3.42114
800.315	0.238403
803.208	2.32519
806.101	2.46875
808.993	6.0636
811.886	2.32349
814.779	2.64563
817.671	7.18896
820.564	7.99841
823.457	13.4387
826.349	5.36499
829.242	9.40527
832.135	14.4773
835.028	11.1013
837.92	12.4806
840.813	14.2336
843.706	13.6065
846.598	13.0496
849.491	14.4143
852.384	18.7139
855.276	17.6609
858.169	23.3074
861.062	19.8108
863.955	28.2894
866.847	37.8138
869.74	38.3933
872.633	37.1001
875.525	50.2533
878.418	49.7244
881.311	51.3691
884.203	53.5832
887.096	45.5904
889.989	39.2489
892.881	28.4515
895.774	19.5398
898.667	14.455
901.56	15.2511
904.452	6.94629
907.345	0.283569
910.238	0.020752
913.13	3.34876
916.023	0.213257
918.916	11.1277
921.808	3.86389
924.701	1.46753
927.594	1.48267
930.487	4.75952
933.379	10.6029
936.272	13.2627
939.165	21.8578
942.057	28.4095
944.95	46.2395
947.843	63.6417
950.736	95.098
953.628	136.752
956.521	190.22
959.414	246.434
962.306	293.354
965.199	305.628
968.092	287.728
970.984	234.27
973.877	182.263
976.77	143.15
979.663	112.808
982.555	90.1883
985.448	57.9154
988.341	47.2196
991.233	29.0834
994.126	20.6204
997.019	12.83
999.911	8.47437
1002.8	3.85193
1005.7	1.78821
1008.59	0.348755
1011.48	1.59125
1014.38	8.58472
1017.27	8.64514
1020.16	13.2652
1023.05	21.6478
1025.95	16.7992
1028.84	20.7747
1031.73	20.5256
1034.62	19.2588
1037.52	17.1429
1040.41	12.0783
1043.3	9.83624
1046.19	3.35626
1049.09	1.87506
1051.98	4.06891
1054.87	13.6885
1057.77	13.3583
1060.66	28.7233
1063.55	31.5367
1066.44	40.4998
1069.34	57.8722
1072.23	74.5552
1075.12	83.7598
1078.01	78.1363
1080.91	64.6994
1083.8	44.6758
1086.69	26.3181
1089.59	26.3652
1092.48	13.0964
1095.37	16.999
1098.26	6.78998
1101.16	6.22687
1104.05	1.07306
1106.94	8.73254
1109.83	10.6883
1112.73	3.20575
1115.62	2.02606
1118.51	6.01605
1121.4	0.560181
1124.3	3.0545
1127.19	7.89917
1130.08	0.012634
1132.98	0.302124
1135.87	4.13263
1138.76	5.06061
1141.65	0.960449
1144.55	5.32519
1147.44	3.5733
1150.33	5.29181
1153.22	3.44
1156.12	4.86267
1159.01	4.48456
1161.9	3.84296
1164.8	1.82721
1167.69	4.07983
1170.58	9.91486
1173.47	14.5643
1176.37	8.60382
1179.26	8.74847
1182.15	4.08551
1185.04	10.6403
1187.94	14.2223
1190.83	9.12903
1193.72	9.0603
1196.62	9.89172
1199.51	7.80603
1202.4	12.0868
1205.29	10.1501
1208.19	11.3843
1211.08	9.07227
1213.97	8.28296
1216.86	8.89746
1219.76	3.95099
1222.65	7.0387
1225.54	4.44879
1228.43	5.60974
1231.33	3.00177
1234.22	6.28021
1237.11	10.2614
1240.01	6.20904
1242.9	1.15137
1245.79	2.90759
1248.68	9.94208
1251.58	4.37293
1254.47	4.87958
1257.36	3.67157
1260.25	4.21185
1263.15	5.19324
1266.04	9.81073
1268.93	12.1569
1271.83	1.73627
1274.72	0.649841
1277.61	9.12781
1280.5	7.23053
1283.4	0.348694
