Measurement: Raman, 532 nm, unoriented, Raman Data Processed
Mineral: Arfvedsonite
Rruff sample: R110049
Ideal chemistry: NaNa_2_(Fe^2+^_4_Fe^3+^)Si_8_O_22_(OH)_2_
Locality: Mount Malosa, Zomba District, Malawi
Source: Donald M Doell
Description: Black prismatic crystal
Raman shift (cm-1)	intensity
167.149	0
170.041	0.17926
172.934	10.7802
175.827	27.3827
178.72	60.5996
181.612	87.8797
184.505	130.571
187.398	194.692
190.29	238.901
193.183	223.003
196.076	138.42
198.968	68.9662
201.861	32.8176
204.754	20.3535
207.647	60.1358
210.539	77.6242
213.432	83.3157
216.325	85.9503
219.217	107.072
222.11	133.373
225.003	129.749
227.895	96.4996
230.788	120.789
233.681	171.191
236.573	235.443
239.466	319.222
242.359	413.325
245.252	475.753
248.144	416.674
251.037	245.423
253.93	109.711
256.822	49.893
259.715	25.7664
262.608	24.1658
265.5	34.5348
268.393	54.1961
271.286	61.5189
274.179	52.1346
277.071	33.353
279.964	25.3085
282.857	27.5246
285.75	26.5377
288.642	12.2757
291.535	1.64943
294.428	3.24014
297.32	1.83208
300.213	0.585999
303.106	7.38312
305.998	7.13441
308.891	0.960892
311.784	13.6471
314.676	32.6224
317.569	55.1429
320.462	90.6963
323.355	123.727
326.247	156.351
329.14	179.334
332.033	172.98
334.925	151.4
337.818	117.928
340.711	86.6151
343.603	81.9379
346.496	84.4591
349.389	99.0636
352.281	107.211
355.174	120.554
358.067	134.857
360.96	136.983
363.852	129.794
366.745	107.971
369.638	89.5412
372.53	78.6984
375.423	65.9041
378.316	74.4117
381.209	62.0366
384.101	62.085
386.994	49.8976
389.887	37.0143
392.779	28.7298
395.672	15.8348
398.565	12.3843
401.457	4.78342
404.35	1.76262
407.243	0.948776
410.135	0.676132
413.028	0.013382
415.921	1.39464
418.814	1.68558
421.706	2.73451
424.599	1.33241
427.492	3.63115
430.384	6.30699
433.277	4.68097
436.17	2.97896
439.062	1.38362
441.955	0.136978
444.848	1.18674
447.741	0.971756
450.633	0.650528
453.526	0.841522
456.419	2.9951
459.311	10.6104
462.204	22.425
465.097	27.975
467.99	31.8325
470.882	30.5771
473.775	24.8579
476.668	13.8557
479.56	7.2092
482.453	1.11145
485.346	1.56909
488.238	3.86881
491.131	16.3364
494.024	9.27624
496.916	16.6615
499.809	17.4091
502.702	18.0614
505.595	32.1471
508.487	33.9646
511.38	22.6083
514.273	26.2999
517.165	33.1788
520.058	49.5926
522.951	69.3542
525.844	102.041
528.736	132.138
531.629	158.105
534.522	172.63
537.414	179.765
540.307	172.435
543.2	141.981
546.092	112.869
548.985	90.8953
551.878	77.8681
554.771	72.9746
557.663	69.075
560.556	71.4935
563.449	84.7449
566.341	101.905
569.234	124.239
572.127	149.272
575.019	162.883
577.912	148.644
580.805	106.75
583.698	62.2299
586.59	32.1135
589.483	14.8569
592.376	4.63614
595.268	2.38736
598.161	2.08731
601.054	1.01382
603.946	3.01703
606.839	2.14706
609.732	1.53615
612.625	5.85596
615.517	8.66187
618.41	13.0141
621.303	15.5042
624.195	16.9119
627.088	17.4327
629.981	17.4181
632.873	21.2253
635.766	22.9805
638.659	28.5603
641.552	36.4597
644.444	44.0204
647.337	57.0945
650.23	66.2499
653.122	82.4167
656.015	101.696
658.908	120.176
661.8	137.41
664.693	138.288
667.586	127.777
670.479	99.2425
673.371	69.9966
676.264	47.1135
679.157	33.319
682.049	19.5375
684.942	10.4121
687.835	6.83107
690.727	4.55646
693.62	3.57919
696.513	1.59978
699.405	0.028091
702.298	1.29631
705.191	1.01651
708.084	0.737335
710.976	2.31223
713.869	2.79848
716.762	1.76474
719.654	2.20158
722.547	2.85168
725.44	6.10635
728.332	7.27855
731.225	9.17378
734.118	9.30765
737.011	7.27728
739.903	7.44476
742.796	6.34642
745.689	8.11722
748.581	10.7826
751.474	10.8129
754.367	13.3739
757.26	18.1657
760.152	17.7475
763.045	15.4728
765.938	10.3523
768.83	8.70671
771.723	8.85059
774.616	6.32195
777.508	6.92064
780.401	4.34187
783.294	4.42743
786.187	4.34985
789.079	1.66399
791.972	2.61845
794.865	0.990631
797.757	1.77322
800.65	0.162552
803.543	1.57784
806.435	0.785583
809.328	0.102737
812.221	2.19609
815.114	0.586182
818.006	0.177094
820.899	2.03746
823.792	1.65892
826.684	0.036591
829.577	1.43968
832.47	1.41019
835.362	1.46501
838.255	3.17703
841.148	4.43869
844.04	5.52878
846.933	8.09978
849.826	9.2229
852.719	15.2448
855.611	29.6818
858.504	23.7157
861.397	29.6122
864.289	39.6477
867.182	47.142
870.075	61.1858
872.967	72.9778
875.86	88.1581
878.753	89.2806
881.646	89.3157
884.538	87.4132
887.431	81.3492
890.324	74.9019
893.216	63.3201
896.109	48.2093
899.002	35.5255
901.894	23.2747
904.787	17.2125
907.68	12.2044
910.573	6.44403
913.465	0.579147
916.358	0.383972
919.251	1.25139
922.143	0.596893
925.036	0.628754
927.929	3.34311
930.822	4.14867
933.714	6.08673
936.607	10.8909
939.5	15.961
942.392	24.8877
945.285	33.2311
948.178	46.8299
951.07	68.3863
953.963	100.73
956.856	155.455
959.749	230.895
962.641	339.183
965.534	454.753
968.427	528.804
971.319	484.537
974.212	370.174
977.105	270.733
979.997	217.391
982.89	187.101
985.783	156.82
988.676	113.365
991.568	73.6868
994.461	39.9012
997.354	23.8322
1000.25	11.5654
1003.14	4.81889
1006.03	2.84023
1008.92	2.83594
1011.82	1.12532
1014.71	1.58525
1017.6	1.97418
1020.5	3.5118
1023.39	10.5419
1026.28	17.9846
1029.17	26.353
1032.07	34.5103
1034.96	48.3986
1037.85	49.6969
1040.74	52.9247
1043.64	50.1563
1046.53	35.1176
1049.42	18.3331
1052.32	6.81987
1055.21	3.86078
1058.1	2.74712
1060.99	2.47673
1063.89	0.646408
1066.78	3.46065
1069.67	8.26562
1072.56	9.71513
1075.46	17.2047
1078.35	29.1867
1081.24	42.6887
1084.13	50.3661
1087.03	36.2672
1089.92	19.4643
1092.81	12.5196
1095.7	10.2598
1098.6	6.06305
1101.49	3.81436
1104.38	2.63062
1107.28	3.83913
1110.17	4.79259
1113.06	6.1638
1115.95	6.22996
1118.85	7.57265
1121.74	7.58437
1124.63	6.59915
1127.53	5.74153
1130.42	5.71716
1133.31	4.67779
1136.2	7.22354
1139.1	6.14182
1141.99	2.88442
1144.88	1.58015
1147.77	1.83615
1150.67	0.179008
1153.56	0.338051
1156.45	0.688263
1159.35	1.76869
1162.24	0.803429
1165.13	0.492325
1168.02	1.01292
1170.92	0.24575
1173.81	2.1286
1176.7	1.62786
1179.59	1.40635
1182.49	4.33588
1185.38	2.79131
1188.27	4.87095
1191.16	5.30528
1194.06	5.36169
1196.95	5.5569
1199.84	5.00959
1202.73	5.70371
1205.63	6.0366
1208.52	5.69747
1211.41	7.21227
1214.31	7.63239
1217.2	8.58733
1220.09	7.23721
1222.98	6.6436
1225.88	6.83473
1228.77	5.74198
1231.66	5.30328
1234.56	5.88947
1237.45	6.47128
1240.34	5.26457
1243.23	5.68668
1246.13	8.02308
1249.02	4.42721
1251.91	5.12099
1254.8	5.91037
1257.7	5.0824
1260.59	5.63157
1263.48	6.30811
1266.38	5.01133
1269.27	4.20734
1272.16	1.58179
1275.05	3.98813
1277.95	2.13274
1280.84	2.75788
1283.73	2.0854
1286.62	2.13297
1289.52	2.32922
1292.41	1.98933
1295.3	1.4162
1298.19	5.41936
1301.09	0.36039
