Measurement: Raman, 532 nm, unoriented, Raman Data Processed
Mineral: Argentojarosite
Rruff sample: R060098
Ideal chemistry: AgFe^3+^_3_(SO_4_)_2_(OH)_6_
Locality: Tintic Standard mine, Dividend, Utah, USA
Source: University of Arizona Mineral Museum
Description: Coating of yellowish-brown flat hexagonal plates
Measured chemistry: Ag_1.00_Fe^3+^_3.00_(S_1.00_O_4_)_2_(OH)_6_
Raman shift (cm-1)	intensity
163.653	0
166.546	1.02513
169.438	2.21558
172.331	1.08334
175.224	0.353439
178.117	2.17958
181.009	4.20181
183.902	5.77686
186.795	4.59347
189.687	0.003586
192.58	0.961365
195.473	3.76234
198.365	8.65807
201.258	18.6987
204.151	29.5475
207.043	40.7482
209.936	56.0662
212.829	74.8072
215.722	95.5819
218.614	123.105
221.507	138.281
224.4	119.106
227.292	80.6472
230.185	51.0203
233.078	31.4447
235.97	21.2679
238.863	15.52
241.756	9.65845
244.649	5.90939
247.541	3.15996
250.434	1.54785
253.327	0.570892
256.219	0.053772
259.112	0.622742
262.005	0.143738
264.897	0.126114
267.79	0.702728
270.683	3.03146
273.576	6.75449
276.468	12.2009
279.361	15.2771
282.254	21.2367
285.146	28.9094
288.039	35.6022
290.932	42.7026
293.825	46.8657
296.717	51.9524
299.61	59.7171
302.503	63.7175
305.395	63.1891
308.288	53.0314
311.181	32.4951
314.073	21.104
316.966	12.0727
319.859	8.3728
322.752	6.52762
325.644	3.00397
328.537	0.524261
331.43	0.522781
334.322	0.23172
337.215	0.10231
340.108	0.281479
343	0.258026
345.893	0.717117
348.786	2.19905
351.678	0.054855
354.571	2.68211
357.464	3.35425
360.357	3.25757
363.249	3.91219
366.142	2.48599
369.035	2.08502
371.927	1.65144
374.82	2.38701
377.713	0.583115
380.606	0.872696
383.498	1.229
386.391	0.781403
389.284	2.16229
392.176	3.07086
395.069	4.56805
397.962	3.7029
400.854	7.52208
403.747	7.18747
406.64	8.7435
409.532	9.47975
412.425	12.303
415.318	15.2331
418.211	23.013
421.103	33.4094
423.996	49.2684
426.889	65.5794
429.781	86.6143
432.674	116.681
435.567	147.287
438.459	164.637
441.352	144.459
444.245	103.952
447.137	75.7833
450.03	55.598
452.923	38.9778
455.816	26.3791
458.708	18.129
461.601	14.4284
464.494	9.42458
467.386	6.39807
470.279	4.05785
473.172	2.5898
476.065	2.6394
478.957	2.13597
481.85	1.03903
484.743	1.51474
487.635	0.403442
490.528	0.757065
493.421	1.56702
496.313	0.763748
499.206	1.42651
502.099	0.535843
504.991	0.25116
507.884	0.101593
510.777	0.593475
513.67	0.60939
516.562	0.85997
519.455	1.09537
522.348	0.105896
525.24	0.23172
528.133	0.477097
531.026	0.823303
533.918	2.68877
536.811	4.28131
539.704	6.7847
542.597	8.23514
545.489	10.0682
548.382	13.4186
551.275	16.5768
554.167	17.203
557.06	16.6706
559.953	14.8763
562.846	14.015
565.738	12.8805
568.631	9.8098
571.524	7.2793
574.416	3.79405
577.309	4.27403
580.202	2.37201
583.094	1.11409
585.987	0.695908
588.88	0.36911
591.773	0.293198
594.665	0.568436
597.558	1.9408
600.451	5.09979
603.343	9.38437
606.236	19.2595
609.129	29.2289
612.021	41.0105
614.914	66.562
617.807	95.3025
620.699	110.878
623.592	65.7916
626.485	28.6701
629.378	17.2168
632.27	13.1994
635.163	11.9829
638.056	12.6772
640.948	14.5534
643.841	14.9137
646.734	16.4484
649.626	13.429
652.519	12.7725
655.412	12.0309
658.305	11.0526
661.197	9.26909
664.09	9.98683
666.983	6.13251
669.875	4.30583
672.768	4.51988
675.661	3.0036
678.553	3.19443
681.446	2.54759
684.339	1.69241
687.232	1.75407
690.124	1.67766
693.017	1.5424
695.91	0.477158
698.802	1.02235
701.695	3.16301
704.588	2.08028
707.481	0.666855
710.373	1.92741
713.266	1.22929
716.159	1.90552
719.051	1.95729
721.944	1.85323
724.837	1.6554
727.729	0.571472
730.622	0.84433
733.515	0.493652
736.408	0.032211
739.3	1.86645
742.193	2.13699
745.086	0.796524
747.978	1.52754
750.871	0.637009
753.764	1.02438
756.656	1.59849
759.549	0.051987
762.442	0.226456
765.335	0.353317
768.227	0.298233
771.12	0.49556
774.013	0.282745
776.905	0.815079
779.798	0.946991
782.691	1.70084
785.583	1.40399
788.476	1.67804
791.369	2.1752
794.261	3.31131
797.154	1.91702
800.047	1.64194
802.94	1.79211
805.832	3.11252
808.725	2.12404
811.618	1.85437
814.51	2.17575
817.403	2.98453
820.296	3.53995
823.188	2.64555
826.081	2.63606
828.974	0.490509
831.867	0.627731
834.759	2.22502
837.652	1.15985
840.545	1.73425
843.437	2.12422
846.33	0.518692
849.223	0.631927
852.115	1.70996
855.008	2.61635
857.901	1.82373
860.794	2.50516
863.686	0.869019
866.579	3.41048
869.472	2.35487
872.364	2.30846
875.257	1.09042
878.15	1.89731
881.043	0.492462
883.935	1.76808
886.828	0.904587
889.721	0.731018
892.613	0.425156
895.506	0.659012
898.399	1.61832
901.291	0.436279
904.184	1.01388
907.077	0.281296
909.97	1.30734
912.862	0.605072
915.755	0.607178
918.648	0.192444
921.54	0.881271
924.433	1.7939
927.326	1.59441
930.218	1.04625
933.111	1.43636
936.004	1.20216
938.896	0.149963
941.789	1.05527
944.682	0.113007
947.575	1.8497
950.467	0.491989
953.36	2.41479
956.253	1.58429
959.145	4.67577
962.038	3.74747
964.931	5.85727
967.823	5.37259
970.716	5.52617
973.609	5.11887
976.501	6.52344
979.394	7.44977
982.287	6.66451
985.18	7.84644
988.072	5.89386
990.965	7.00206
993.858	9.50133
996.75	14.4246
999.643	21.0664
1002.54	29.0973
1005.43	42.6732
1008.32	69.5667
1011.21	77.4907
1014.11	42.1755
1017	21.131
1019.89	14.9013
1022.78	10.4409
1025.68	6.60518
1028.57	4.10147
1031.46	3.85764
1034.36	2.51192
1037.25	1.34573
1040.14	1.26948
1043.03	0.71167
1045.93	0.853958
1048.82	0.13678
1051.71	0.405655
1054.6	0.418549
1057.5	0.181
1060.39	0.296753
1063.28	1.26195
1066.17	1.23125
1069.07	1.4476
1071.96	2.77571
1074.85	2.28351
1077.75	3.71671
1080.64	4.52032
1083.53	8.89146
1086.42	14.6965
1089.32	23.5284
1092.21	36.2199
1095.1	49.607
1097.99	63.4649
1100.89	74.8417
1103.78	68.9831
1106.67	48.2567
1109.57	32.4411
1112.46	21.0303
1115.35	16.2492
1118.24	11.5242
1121.14	8.03951
1124.03	8.8555
1126.92	9.00508
1129.82	9.46553
1132.71	10.2867
1135.6	10.8901
1138.49	14.5542
1141.38	18.3015
1144.28	25.3617
1147.17	29.7609
1150.06	35.8468
1152.96	38.2372
1155.85	38.2513
1158.74	36.53
1161.63	30.711
1164.53	21.5117
1167.42	17.8996
1170.31	12.5652
1173.2	8.58505
1176.1	5.59029
1178.99	4.66122
1181.88	4.34457
1184.78	2.97418
1187.67	1.72188
1190.56	1.59078
1193.45	2.07239
1196.35	2.01424
1199.24	0.334854
1202.13	0.988907
1205.03	0.396362
1207.92	1.62242
1210.81	0.225311
1213.7	1.05548
1216.6	0.009506
1219.49	1.08583
1222.38	0.135361
1225.27	0.568024
1228.17	0.59491
1231.06	0.200317
1233.95	0.079895
1236.84	0.075958
1239.74	0.882843
1242.63	0.054016
1245.52	0.056244
1248.41	1.97339
1251.31	2.52801
1254.2	3.32187
1257.09	2.21915
1259.99	2.46258
1262.88	2.62491
1265.77	2.26932
1268.66	1.31036
1271.56	3.54068
1274.45	1.99927
1277.34	3.28201
1280.23	2.71139
1283.13	1.03522
1286.02	2.44858
1288.91	0.600769
1291.81	0.159943
1294.7	1.60202
1297.59	0.470062
