Measurement: Raman, 780 nm, unoriented, Raman Data Processed
Mineral: Argentojarosite
Rruff sample: R060098
Ideal chemistry: AgFe^3+^_3_(SO_4_)_2_(OH)_6_
Locality: Tintic Standard mine, Dividend, Utah, USA
Source: University of Arizona Mineral Museum
Description: Coating of yellowish-brown flat hexagonal plates
Measured chemistry: Ag_1.00_Fe^3+^_3.00_(S_1.00_O_4_)_2_(OH)_6_
Raman shift (cm-1)	intensity
146.982	0
149.874	1.30711
152.767	0.257248
155.66	0.555923
158.553	1.91719
161.445	1.466
164.338	1.49263
167.231	0.528992
170.123	0.336929
173.016	0.169449
175.909	1.73955
178.801	2.77005
181.694	3.01201
184.587	4.59007
187.48	4.10617
190.372	5.80696
193.265	8.82716
196.158	17.1163
199.05	24.9463
201.943	36.7581
204.836	46.1678
207.728	54.6577
210.621	62.3066
213.514	70.5079
216.406	75.647
219.299	77.3391
222.192	69.2893
225.085	51.5759
227.977	32.9013
230.87	21.3893
233.763	14.6025
236.655	9.66882
239.548	5.45767
242.441	3.95174
245.333	2.54872
248.226	1.06084
251.119	1.62012
254.012	0.301849
256.904	0.170441
259.797	0.184479
262.69	2.07858
265.582	5.11227
268.475	7.12636
271.368	11.4867
274.26	13.0004
277.153	16.6827
280.046	19.2184
282.939	21.8482
285.831	23.6651
288.724	25.9129
291.617	25.1066
294.509	22.4918
297.402	22.2795
300.295	20.9475
303.188	20.8858
306.08	18.0693
308.973	11.9445
311.866	6.96629
314.758	4.66948
317.651	2.58078
320.544	2.47649
323.436	0.461868
326.329	0.966156
329.222	0.476868
332.115	0.40007
335.007	0.591476
337.9	0.825699
340.793	0.341599
343.685	0.542435
346.578	2.27364
349.471	1.58649
352.363	1.90558
355.256	2.98538
358.149	2.36493
361.041	2.06528
363.934	1.93633
366.827	0.376221
369.72	0.704346
372.612	0.232986
375.505	0.327805
378.398	0.005981
381.29	0.856201
384.183	1.81393
387.076	2.53822
389.969	2.39688
392.861	4.0769
395.754	3.59074
398.647	3.15012
401.539	6.0692
404.432	4.70866
407.325	5.44261
410.217	5.53078
413.11	8.63687
416.003	10.8739
418.896	16.4339
421.788	22.6976
424.681	29.3039
427.574	33.7838
430.466	39.3467
433.359	44.4717
436.252	48.0713
439.144	46.3407
442.037	38.4718
444.93	30.4828
447.822	25.0164
450.715	20.8882
453.608	14.7486
456.501	9.10452
459.393	6.71069
462.286	4.57001
465.179	3.6035
468.071	2.30301
470.964	1.79106
473.857	0.95549
476.75	0.951523
479.642	0.579834
482.535	0.542465
485.428	0.239151
488.32	0.091919
491.213	0.787582
494.106	0.305389
496.998	0.127609
499.891	0.016174
502.784	0.363983
505.676	0.140503
508.569	1.01829
511.462	0.719711
514.355	0.077713
517.247	0.84816
520.14	0.075974
523.033	1.16826
525.925	1.62747
528.818	1.25746
531.711	2.79762
534.604	3.77033
537.496	3.94299
540.389	5.21931
543.282	7.02982
546.174	7.79413
549.067	7.07317
551.96	7.45412
554.852	8.64209
557.745	7.38446
560.638	6.55954
563.53	5.27214
566.423	3.63828
569.316	2.71881
572.209	2.12311
575.101	2.55956
577.994	1.38861
580.887	1.09785
583.779	1.31728
586.672	1.0692
589.565	1.16901
592.457	2.66219
595.35	2.37199
598.243	3.279
601.136	6.61336
604.028	12.8259
606.921	16.005
609.814	18.6607
612.706	22.2832
615.599	26.7096
618.492	28.7763
621.385	22.4083
624.277	11.041
627.17	5.43224
630.063	4.66064
632.955	3.59016
635.848	4.06939
638.741	3.06727
641.633	4.30272
644.526	2.86113
647.419	3.37814
650.312	2.47221
653.204	1.78483
656.097	1.50871
658.99	2.39208
661.882	1.37449
664.775	0.004822
667.668	0.090195
670.56	0.635071
673.453	0.093941
676.346	0.160461
679.239	0.500931
682.131	0.423988
685.024	0.1604
687.917	1.02918
690.809	0.520477
693.702	0.838715
696.595	0.828896
699.487	0.859566
702.38	0.56308
705.273	0.455673
708.165	0.893105
711.058	0.356125
713.951	0.85183
716.844	1.12439
719.736	0.751266
722.629	0.6334
725.522	0.86158
728.414	0.979546
731.307	0.181259
734.2	0.279022
737.092	1.17757
739.985	0.339394
742.878	1.14482
745.771	0.200012
748.663	0.624008
751.556	1.29217
754.449	0.548759
757.341	0.714905
760.234	0.76799
763.127	0.842712
766.019	0.714508
768.912	0.20047
771.805	0.625046
774.698	0.463058
777.59	0.557526
780.483	0.948753
783.376	0.698265
786.268	1.76322
789.161	1.19861
792.054	1.00382
794.947	0.398209
797.839	1.75188
800.732	1.67824
803.625	1.07262
806.517	0.729767
809.41	2.04771
812.303	0.711067
815.195	0.865425
818.088	0.042679
820.981	1.37459
823.874	1.34871
826.766	1.4116
829.659	1.66602
832.552	1.02309
835.444	2.32364
838.337	1.38507
841.23	1.4991
844.122	1.55045
847.015	2.32956
849.908	1.57515
852.801	1.26812
855.693	1.05766
858.586	1.52671
861.479	1.05812
864.371	0.80825
867.264	1.13026
870.157	0.563927
873.049	1.01431
875.942	0.176193
878.835	0.987488
881.727	0.1642
884.62	0.065399
887.513	1.21634
890.406	0.513863
893.298	0.326843
896.191	0.015114
899.084	0.006813
901.976	0.466942
904.869	0.336639
907.762	0.128113
910.654	0.775009
913.547	0.034317
916.44	0.606194
919.332	0.380928
922.225	0.40609
925.118	0.547226
928.011	0.048569
930.903	0.246452
933.796	0.547493
936.689	0.6259
939.581	0.58857
942.474	0.559479
945.367	2.19451
948.26	2.57115
951.152	3.04804
954.045	4.31704
956.938	5.36853
959.83	7.17962
962.723	8.07134
965.616	8.32021
968.508	8.96702
971.401	9.17646
974.294	8.78608
977.187	8.63679
980.079	7.63551
982.972	7.29363
985.865	7.37035
988.757	7.887
991.65	7.95728
994.543	11.0703
997.435	16.0167
1000.33	19.4652
1003.22	23.4568
1006.11	28.2209
1009.01	30.9597
1011.9	21.994
1014.79	10.0998
1017.68	6.76896
1020.58	4.36343
1023.47	3.30067
1026.36	1.05637
1029.26	1.08461
1032.15	0.623322
1035.04	0.133316
1037.93	0.463097
1040.83	0.149017
1043.72	0.699722
1046.61	0.465439
1049.5	0.566399
1052.4	0.179871
1055.29	0.059624
1058.18	0.274475
1061.08	0.141182
1063.97	0.61895
1066.86	1.59598
1069.75	1.42944
1072.65	0.353111
1075.54	2.90703
1078.43	3.31151
1081.32	4.7188
1084.22	7.75835
1087.11	12.1576
1090	15.3482
1092.89	19.0982
1095.79	22.5257
1098.68	23.357
1101.57	21.9099
1104.46	16.9066
1107.36	11.4298
1110.25	6.90775
1113.14	3.54442
1116.04	2.93919
1118.93	2.44356
1121.82	0.458801
1124.71	0.435875
1127.61	0.343925
1130.5	1.84096
1133.39	1.27333
1136.29	2.62329
1139.18	3.44591
1142.07	4.10384
1144.96	4.91969
1147.86	6.08282
1150.75	6.07641
1153.64	6.31586
1156.53	6.03618
1159.43	4.4809
1162.32	3.56357
1165.21	3.29454
1168.11	2.30551
1171	1.35864
1173.89	1.04569
1176.78	1.24189
1179.68	1.11018
1182.57	0.522301
1185.46	1.01057
1188.35	0.090408
1191.25	0.656837
1194.14	0.964676
1197.03	0.910339
1199.92	0.40229
1202.82	0.084717
1205.71	0.329529
1208.6	0.33596
1211.49	0.523048
1214.39	0.165611
1217.28	0.231339
1220.17	0.188911
1223.07	0.055695
1225.96	0.251282
1228.85	0.129646
1231.74	0.604599
1234.64	0.083839
1237.53	0.012581
1240.42	0.943153
1243.32	1.21271
1246.21	0.443886
1249.1	1.16248
1251.99	0.723083
1254.89	1.1338
1257.78	0.661987
1260.67	0.595741
1263.56	0.375923
1266.46	0.539246
1269.35	0.715195
1272.24	0.406227
1275.13	0.056503
1278.03	0.460114
1280.92	0.001896
