Measurement: Raman, 532 nm, unoriented, Raman Data Processed
Mineral: Argentopyrite
Rruff sample: R070173
Ideal chemistry: AgFe_2_S_3_
Locality: St. Joachimsthal, Bohemia, Czech Republic
Source: Michael Scott
Description: Bronze and blue tarnished rectangular prisms associated with proustite
Raman shift (cm-1)	intensity
159.342	0
162.234	0.605957
165.127	42.0625
168.02	51.8928
170.913	101.773
173.805	90.6316
176.698	36.4216
179.591	50.2122
182.483	96.0999
185.376	106.133
188.269	91.8237
191.161	75.2034
194.054	76.6272
196.947	61.4832
199.84	86.875
202.732	98.532
205.625	59.386
208.518	81.9941
211.41	52.7881
214.303	33.0259
217.196	49.7935
220.089	41.4043
222.981	76.8384
225.874	64.6211
228.767	103.562
231.659	38.2017
234.552	26.5972
237.445	42.5308
240.337	52.9717
243.23	41.7717
246.123	13.0471
249.015	26.1514
251.908	14.4058
254.801	6.29175
257.693	1.59253
260.586	11.8689
263.479	8.14331
266.372	19.5894
269.264	10.136
272.157	34.0796
275.05	14.7429
277.942	21.093
280.835	19.5862
283.728	5.66602
286.62	49.4805
289.513	20.8181
292.406	36.9761
295.299	93.0791
298.191	78.5041
301.084	107.595
303.977	182.578
306.869	274.695
309.762	327.126
312.655	369.464
315.548	403.406
318.44	437.725
321.333	488.107
324.226	445.453
327.118	433.016
330.011	653.524
332.904	783.008
335.796	1109.34
338.689	1151.85
341.582	976.837
344.474	593.549
347.367	436.553
350.26	402.316
353.152	419.214
356.045	563.64
358.938	740.095
361.831	940.116
364.723	1316.6
367.616	1655.06
370.509	1958.37
373.401	2108.02
376.294	1783.52
379.187	1148.93
382.079	730.542
384.972	428.915
387.865	292.23
390.758	187.328
393.65	124.858
396.543	47.1887
399.436	65.2956
402.328	0.542969
405.221	27.6243
408.114	47.8342
411.007	105.265
413.899	107.054
416.792	80.8186
419.685	117.409
422.577	110.662
425.47	175.72
428.363	156.434
431.255	90.9246
434.148	33.0901
437.041	37.2698
439.933	13.3543
442.826	62.2622
445.719	15.8713
448.612	14.5593
451.504	17.2544
454.397	31.0727
457.29	6.40405
460.182	2.10815
463.075	1.2915
465.968	36.946
468.86	20.2307
471.753	45.1121
474.646	3.13184
477.538	46.6792
480.431	45.3201
483.324	26.3938
486.217	76.7546
489.109	21.5122
492.002	80.0674
494.895	74.4014
497.787	43.2935
500.68	117.986
503.573	28.8682
506.466	90.7002
509.358	28.5874
512.251	35.8486
515.144	53.5747
518.036	102.347
520.929	42.2197
523.822	91.1773
526.714	21.3696
529.607	46.4448
532.5	103.737
535.393	88.2461
538.285	74.9434
541.178	80.2666
544.071	73.5107
546.963	74.3716
549.856	68.8198
552.749	40.0278
555.641	87.4228
558.534	80.4795
561.427	19.8276
564.319	7.48193
567.212	31.4585
570.105	10.3608
572.998	51.3608
575.89	47.1724
578.783	79.5435
581.676	38.8628
584.568	31.4121
587.461	43.5034
590.354	48.25
593.246	78.5439
596.139	38.8164
599.032	34.3867
601.924	94.0015
604.817	3.19238
607.71	24.5322
610.603	81.7715
613.495	78.0698
616.388	63.2563
619.281	37.3262
622.173	30.7026
625.066	144.92
627.959	100.525
630.851	86.8198
633.744	52.5308
636.637	25.0161
639.53	51.2617
642.422	41.896
645.315	61.6357
648.208	67.8354
651.1	76.1738
653.993	38.0942
656.886	39.3467
659.779	61.9082
662.671	55.6792
665.564	91.7627
668.457	61.0376
671.349	18.5176
674.242	65.3521
677.135	26.023
680.027	2.0542
682.92	60.6831
685.813	36.249
688.705	28.8882
691.598	29.4736
694.491	50.9224
697.384	31.46
700.276	72.4028
703.169	104.41
706.062	71.021
708.954	28.8667
711.847	64.4185
714.74	65.0606
717.632	18.6714
720.525	3.02148
723.418	34.2607
726.311	22.9502
729.203	49.7246
732.096	87.1426
734.989	45.4248
737.881	40.7588
740.774	19.4526
743.667	34.4907
746.559	62.6919
749.452	92.8267
752.345	37.5532
755.237	40.8516
758.13	33.8457
761.023	51.6621
763.916	66.3179
766.808	52.7588
769.701	28.582
772.594	46.9175
775.486	60.3906
778.379	16.6538
781.272	6.07129
784.164	55.5171
787.057	53.7866
789.95	63.4473
792.843	6.74023
795.735	26.5469
798.628	35.9087
801.521	42.8804
804.413	1.3584
807.306	48.4741
810.199	29.5727
813.091	24.7783
815.984	59.5503
818.877	2.63721
821.769	84.8711
824.662	3.6333
827.555	71.0298
830.448	3.14404
833.34	28.5015
836.233	82.9341
839.126	49.5508
842.018	61.9126
844.911	37.6387
847.804	105.431
850.697	27.8594
853.589	46.3394
856.482	35.5757
859.375	47.3687
862.267	55.1148
865.16	28.4697
868.053	100.062
870.945	52.0508
873.838	64.5679
876.731	36.6509
879.624	38.6865
882.516	67.6714
885.409	36.9917
888.302	79.6421
891.194	13.1738
894.087	18.8838
896.98	18.7217
899.872	31.9936
902.765	58.1187
905.658	61.021
908.551	46.9565
911.443	14.9893
914.336	84.2495
917.229	58.8272
920.121	31.5869
923.014	67.5908
925.907	48.8677
928.799	102.321
931.692	52.4697
934.585	74.0523
937.477	63.1909
940.37	19.8105
943.263	129.27
946.155	46.0405
949.048	87.9219
951.941	89.8823
954.834	51.0254
957.726	44.0259
960.619	40.416
963.512	25.2407
966.404	74.9429
969.297	52.4106
972.19	53.6641
975.082	19.6191
977.975	58.2793
980.868	4.83203
983.761	56.7393
986.653	37.8877
989.546	52.5151
992.439	63.1699
995.331	55.5723
998.224	18.4946
1001.12	39.6777
1004.01	58.1006
1006.9	84.5708
1009.79	53.5933
1012.69	15.9409
1015.58	65.4761
1018.47	34.708
1021.37	22.5947
1024.26	106.597
1027.15	20.0088
1030.04	23.2944
1032.94	33.4482
1035.83	60.9595
1038.72	6.88379
1041.62	21.5674
1044.51	79.7007
1047.4	28.1201
1050.29	7.53613
1053.18	44.603
1056.08	2.77051
1058.97	11.1128
1061.86	67.8301
1064.76	78.1807
1067.65	73.814
1070.54	73.9731
1073.43	108.312
1076.33	26.6445
1079.22	11.0688
1082.11	70.5532
1085.01	56.4473
1087.9	40.4614
1090.79	68.4927
1093.68	62.6851
1096.58	25.9038
1099.47	6.03906
1102.36	12.9185
1105.25	43.4419
1108.15	86.5088
1111.04	25.2646
1113.93	23.9302
1116.83	40.876
1119.72	4.60644
1122.61	7.87256
1125.5	34.5825
1128.4	42.7451
1131.29	31.873
1134.18	74.3516
1137.07	69.0054
1139.97	61.0029
1142.86	21.7759
1145.75	59.1284
1148.64	34.04
1151.54	55.7188
1154.43	94.3579
1157.32	76.9102
1160.21	62.8618
1163.11	71.1919
1166	55.9605
1168.89	65.958
1171.79	7.16943
1174.68	89.6011
1177.57	112.657
1180.46	64.6187
1183.36	50.7602
1186.25	55.6792
1189.14	55.7993
1192.04	111.851
1194.93	67.7129
1197.82	18.0215
1200.71	1.52246
1203.61	6.66309
1206.5	31.6533
1209.39	45.3735
1212.28	31.373
1215.18	20.5703
1218.07	18.2197
1220.96	35.6265
1223.85	2.07471
1226.75	65.8301
1229.64	62.4263
1232.53	63.4624
1235.42	39.7188
1238.32	5.51221
1241.21	10.0713
1244.1	30.3242
1247	52.2949
1249.89	48.8452
1252.78	44.8291
1255.67	89.0947
1258.57	45.3262
1261.46	40.832
1264.35	100.678
1267.24	51.0156
1270.14	24.0425
1273.03	163.336
1275.92	63.4702
1278.82	78.0698
1281.71	86.0732
1284.6	59.5332
1287.49	12.6265
1290.39	2.14844
1293.28	56.2998
