Measurement: Raman, 532 nm, unoriented, Raman Data Processed
Mineral: Argentojarosite
Rruff sample: R060097
Ideal chemistry: AgFe^3+^_3_(SO_4_)_2_(OH)_6_
Locality: unknown
Source: University of Arizona Mineral Museum
Description: Yellowish-brown flat hexagonal plates
Measured chemistry: Ag_1.00_Fe^3+^_3.00_(S_1.00_O_4_)_2_(OH)_6_
Raman shift (cm-1)	intensity
110.62	0
113.995	1.91892
117.37	7.38549
120.745	13.9724
124.119	15.7176
127.494	18.8546
130.869	25.7925
134.244	33.2901
137.619	53.8424
140.994	31.3859
144.368	8.99615
147.743	3.90362
151.118	2.1689
154.493	0.737087
157.868	0.432964
161.242	0.535934
164.617	1.86095
167.992	3.08736
171.367	5.18924
174.742	7.89491
178.117	13.0798
181.491	21.3378
184.866	15.9874
188.241	4.15723
191.616	0.883434
194.991	0.597851
198.365	3.62915
201.74	12.4334
205.115	33.3285
208.49	61.0241
211.865	88.9399
215.239	125.015
218.614	182.354
221.989	269.54
225.364	305.433
228.739	198.299
232.114	102.617
235.488	59.98
238.863	35.2826
242.238	20.302
245.613	11.9565
248.988	6.65477
252.362	3.13695
255.737	1.38511
259.112	0.013805
262.487	0.557533
265.862	0.286026
269.236	0.8321
272.611	3.09427
275.986	6.75267
279.361	12.0738
282.736	21.3921
286.111	36.0752
289.485	55.4576
292.86	77.8666
296.235	102.501
299.61	136.601
302.985	175.133
306.36	176.98
309.734	108.973
313.109	52.4011
316.484	28.4444
319.859	17.0434
323.234	10.4122
326.608	5.85
329.983	2.7148
333.358	0.520195
336.733	0.855436
340.108	0.555357
343.483	0.237219
346.857	0.991316
350.232	3.03849
353.607	5.95552
356.982	8.90644
360.357	12.092
363.731	12.0186
367.106	8.76898
370.481	4.22585
373.856	2.5839
377.231	0.708866
380.606	0.258297
383.98	0.134369
387.355	0.055529
390.73	0.03315
394.105	0.613091
397.48	1.29131
400.854	2.92872
404.229	4.75621
407.604	7.56698
410.979	11.5861
414.354	17.7108
417.728	29.8649
421.103	50.6691
424.478	87.5522
427.853	132.396
431.228	190.719
434.603	280.216
437.977	396.222
441.352	427.835
444.727	294.301
448.102	182.155
451.477	127.598
454.851	82.5055
458.226	50.0247
461.601	32.8589
464.976	22.0875
468.351	16.2034
471.726	12.0436
475.1	9.04164
478.475	6.73142
481.85	4.156
485.225	2.2525
488.6	1.43213
491.974	0.817987
495.349	0.220661
498.724	0.301018
502.099	0.16305
505.474	0.418232
508.849	0.507593
512.223	0.520035
515.598	0.033491
518.973	1.00934
522.348	2.00068
525.722	2.63756
529.097	3.42995
532.472	5.08635
535.847	7.89611
539.222	10.7648
542.597	15.4731
545.971	21.9037
549.346	29.2046
552.721	36.0785
556.096	43.381
559.471	45.8661
562.846	43.3267
566.22	35.6605
569.595	26.606
572.97	19.1874
576.345	13.9999
579.72	9.14525
583.094	5.62737
586.469	2.49734
589.844	0.875612
593.219	0.336845
596.594	0.196978
599.968	2.01073
603.343	9.82648
606.718	33.1567
610.093	55.4976
613.468	94.2481
616.843	181.922
620.217	271.262
623.592	196.1
626.967	55.0347
630.342	20.7538
633.717	11.8551
637.091	9.83777
640.466	11.9357
643.841	14.879
647.216	16.6564
650.591	14.8687
653.966	10.7987
657.34	7.92246
660.715	4.60807
664.09	2.93237
667.465	2.02168
670.84	0.928963
674.215	0.325306
677.589	0.011995
680.964	0.322332
684.339	0.302057
687.714	0.350111
691.089	0.192598
694.463	0.031708
697.838	0.034353
701.213	0.488594
704.588	0.757511
707.963	1.12444
711.337	1.59771
714.712	1.19712
718.087	1.36149
721.462	1.54505
724.837	1.09665
728.212	0.93935
731.586	0.840332
734.961	0.568853
738.336	0.272652
741.711	0.422363
745.086	0.012423
748.46	0.039022
751.835	0.039837
755.21	0.066818
758.585	0.167043
761.96	0.172458
765.335	0.281069
768.709	0.601333
772.084	0.942466
775.459	1.03549
778.834	0.766498
782.209	0.934994
785.583	0.899221
788.958	1.28477
792.333	1.34548
795.708	0.999379
799.083	0.995139
802.457	1.27828
805.832	0.726143
809.207	0.97641
812.582	0.861664
815.957	0.944574
819.332	0.863668
822.706	0.855326
826.081	0.75391
829.456	1.001
832.831	0.446001
836.206	0.469444
839.58	0.5392
842.955	0.610968
846.33	0.762241
849.705	1.04732
853.08	1.06618
856.455	1.70499
859.829	1.76355
863.204	1.26862
866.579	1.49482
869.954	1.18414
873.329	0.8936
876.703	1.00905
880.078	0.295391
883.453	0.54184
886.828	0.286894
890.203	0.486055
893.577	0.0986
896.952	0.138741
900.327	0.259457
903.702	0.135015
907.077	0.222204
910.452	0.164341
913.826	0.677582
917.201	0.816128
920.576	1.17101
923.951	1.56466
927.326	1.61189
930.701	1.57905
934.075	1.40856
937.45	1.20104
940.825	1.04553
944.2	0.536469
947.575	0.495251
950.949	0.556677
954.324	0.015594
957.699	0.299627
961.074	0.199375
964.449	0.230991
967.823	0.137913
971.198	0.425003
974.573	0.215034
977.948	0.162601
981.323	0.273674
984.697	1.08153
988.072	2.04274
991.447	4.63069
994.822	8.85877
998.197	23.7055
1001.57	50.655
1004.95	81.6746
1008.32	166.761
1011.7	278.136
1015.07	116.783
1018.45	47.9385
1021.82	37.0024
1025.19	24.7351
1028.57	13.4787
1031.94	6.68529
1035.32	3.70745
1038.69	1.92213
1042.07	0.611853
1045.44	0.045935
1048.82	0.858194
1052.19	0.442213
1055.57	0.509335
1058.94	0.598791
1062.32	0.100849
1065.69	0.117733
1069.07	0.924944
1072.44	1.90186
1075.82	3.45144
1079.19	5.71527
1082.57	9.28444
1085.94	15.0503
1089.32	25.8402
1092.69	48.5255
1096.07	80.6025
1099.44	124.499
1102.82	182.138
1106.19	197.472
1109.57	125.142
1112.94	67.358
1116.32	42.9312
1119.69	32.7558
1123.07	28.287
1126.44	28.1996
1129.82	30.2133
1133.19	34.4925
1136.56	43.3514
1139.94	56.6224
1143.31	75.0978
1146.69	95.3108
1150.06	114.909
1153.44	124.914
1156.81	118.574
1160.19	94.9535
1163.56	67.6567
1166.94	47.2998
1170.31	33.1672
1173.69	22.8471
1177.06	16.3689
1180.44	12.1007
1183.81	9.00425
1187.19	6.31304
1190.56	4.3694
1193.94	2.79619
1197.31	1.26325
1200.69	0.285032
1204.06	0.13628
1207.43	0.713261
1210.81	0.655117
1214.18	0.599018
1217.56	0.542332
1220.93	0.245264
1224.31	0.361502
1227.68	0.093763
1231.06	0.167148
1234.43	0.56079
1237.81	0.521693
1241.18	0.742995
1244.56	1.44425
1247.93	1.28553
1251.31	1.53643
1254.68	1.83386
1258.06	1.72363
1261.43	1.21702
1264.81	1.17609
1268.18	0.394341
1271.56	0.344677
1274.93	0.488272
1278.31	0.787556
1281.68	1.1308
1285.06	0.728236
1288.43	0.481227
1291.81	0.644048
1295.18	0.505869
1298.56	0.350931
1301.93	0.390276
1305.31	0
