Measurement: Raman, 532 nm, unoriented, Raman Data Processed
Mineral: Argentopyrite
Rruff sample: R090026
Ideal chemistry: AgFe_2_S_3_
Locality: Schaft 209, Aue, Niederschlema, Erzgebirge, Saxony, Germany
Source: Mark N. Feinglos
Description: Bronze tarnished rectangular prism. Sample used by Yang et al (2009) for structure determination.
Measured chemistry: Ag_0.96_Fe_2.01_S_3_
Raman shift (cm-1)	intensity
155.048	0
157.94	0.075806
160.833	3.69537
163.726	10.7651
166.618	8.26202
169.511	10.5254
172.404	8.67017
175.297	8.71521
178.189	6.85455
181.082	11.1872
183.975	8.79486
186.867	7.10065
189.76	6.85461
192.653	5.44965
195.545	7.85986
198.438	5.20355
201.331	0.331501
204.224	2.29901
207.116	4.5
210.009	4.83691
212.902	1.1947
215.794	8.07623
218.687	10.3097
221.58	4.96936
224.472	4.9563
227.365	7.22162
230.258	0.903687
233.15	3.04701
236.043	1.64215
238.936	0.709167
241.829	0.685059
244.721	0.531616
247.614	1.31293
250.507	3.97223
253.399	6.24219
256.292	6.19952
259.185	6.37201
262.077	3.44495
264.97	4.81946
267.863	1.685
270.756	0.398438
273.648	0.329102
276.541	1.40588
279.434	9.30682
282.326	4.74426
285.219	7.88287
288.112	9.388
291.005	13.0092
293.897	10.4257
296.79	11.0073
299.683	17.8612
302.575	20.049
305.468	28.3559
308.361	33.4058
311.253	40.8623
314.146	59.1694
317.039	74.6454
319.932	73.4321
322.824	59.263
325.717	41.7233
328.61	37.429
331.502	41.1216
334.395	60.5422
337.288	77.441
340.18	66.4333
343.073	33.5444
345.966	15.1566
348.858	16.0322
351.751	14.3595
354.644	21.8819
357.536	37.5547
360.429	46.9238
363.322	66.6885
366.215	94.9118
369.107	125.697
372	148.141
374.893	125.506
377.785	83.076
380.678	57.0124
383.571	37.9723
386.464	21.125
389.356	14.2201
392.249	8.00354
395.142	2.52441
398.034	1.20618
400.927	3.28626
403.82	1.15991
406.712	1.75138
409.605	2.54468
412.498	0.324646
415.39	3.74048
418.283	0.484741
421.176	2.9931
424.069	4.78796
426.961	1.26337
429.854	3.13009
432.747	1.4762
435.639	1.07361
438.532	0.05365
441.425	2.7915
444.317	2.52338
447.21	0.634766
450.103	0.499023
452.996	3.57147
455.888	2.66931
458.781	0.951172
461.674	3.29804
464.566	1.54279
467.459	2.85638
470.352	3.35028
473.245	4.20801
476.137	7.09308
479.03	5.60974
481.923	4.79974
484.815	9.29065
487.708	3.33484
490.601	6.26697
493.493	6.27618
496.386	6.98016
499.279	3.4903
502.171	4.91754
505.064	3.04993
507.957	3.75494
510.85	2.43622
513.742	6.68518
516.635	5.18903
519.528	3.18555
522.42	4.70581
525.313	6.40637
528.206	2.98956
531.098	3.05359
533.991	5.93701
536.884	4.07257
539.777	3.09399
542.669	3.46374
545.562	4.32361
548.455	1.51599
551.347	7.73029
554.24	4.97681
557.133	4.81824
560.025	1.21283
562.918	4.92303
565.811	0.828125
568.704	2.80658
571.596	4.3869
574.489	0.189209
577.382	1.78802
580.274	0.441833
583.167	2.65277
586.06	1.29321
588.952	0.42511
591.845	5.79236
594.738	5.30359
597.631	8.0849
600.523	1.69458
603.416	1.46551
606.309	3.7522
609.201	1.94824
612.094	5.50403
614.987	5.78973
617.88	0.266296
620.772	3.32104
623.665	1.78613
626.558	5.76764
629.45	7.49731
632.343	7.85565
635.236	6.55878
638.128	7.13
641.021	7.78406
643.914	7.1795
646.807	9.94116
649.699	7.12573
652.592	9.38623
655.485	11.1855
658.377	6.37769
661.27	12.9816
664.163	7.42969
667.055	7.65057
669.948	13.504
672.841	2.64117
675.734	8.83392
678.626	4.76593
681.519	5.93201
684.412	4.9953
687.304	6.70843
690.197	6.47754
693.09	6.52325
695.982	2.82617
698.875	4.74878
701.768	4.50494
704.66	3.0921
707.553	5.461
710.446	4.37994
713.339	1.16596
716.231	5.41083
719.124	4.82697
722.017	5.66418
724.909	1.49365
727.802	2.49316
730.695	2.354
733.587	2.98444
736.48	2.58209
739.373	1.95514
742.266	1.33435
745.158	4.91559
748.051	1.88226
750.944	2.69415
753.836	2.49774
756.729	2.87427
759.622	3.25934
762.514	4.75275
765.407	0.686707
768.3	2.48163
771.193	1.8822
774.085	3.10071
776.978	1.90796
779.871	2.52264
782.763	3.26935
785.656	0.126648
788.549	2.31152
791.441	1.96405
794.334	3.58618
797.227	2.24225
800.12	2.99664
803.012	10.5748
805.905	4.34705
808.798	8.99567
811.69	3.70184
814.583	8.77789
817.476	3.64795
820.368	5.34808
823.261	1.66693
826.154	3.74713
829.047	8.29175
831.939	10.4042
834.832	3.91254
837.725	3.76923
840.617	3.94385
843.51	7.38013
846.403	4.7605
849.295	2.67999
852.188	4.9494
855.081	6.03693
857.973	2.99353
860.866	6.1181
863.759	3.19043
866.652	3.56342
869.544	1.92157
872.437	4.11658
875.33	2.21368
878.222	2.55908
881.115	5.43957
884.008	1.83069
886.9	3.00311
889.793	4.40021
892.686	0.34436
895.579	3.00604
898.471	4.70343
901.364	2.27264
904.257	2.93494
907.149	1.85779
910.042	2.80994
912.935	1.94861
915.827	5.4845
918.72	4.0495
921.613	1.26953
924.506	2.13599
927.398	0.248169
930.291	1.06061
933.184	1.1416
936.076	0.582336
938.969	3.17938
941.862	6.24921
944.755	4.61798
947.647	3.62122
950.54	5.22559
953.433	2.89392
956.325	1.77185
959.218	1.30987
962.111	0.044373
965.003	0.845398
967.896	1.76697
970.789	1.24725
973.682	1.37598
976.574	5.7489
979.467	5.84674
982.36	5.50342
985.252	0.791931
988.145	3.00653
991.038	0.553894
993.93	2.06146
996.823	1.66797
999.716	0.314148
1002.61	4.99023
1005.5	3.74866
1008.39	3.59436
1011.29	0.658691
1014.18	4.84985
1017.07	5.28082
1019.97	2.62994
1022.86	3.37115
1025.75	3.73517
1028.64	1.55249
1031.54	5.71216
1034.43	7.3999
1037.32	4.29608
1040.21	3.22321
1043.11	0.26709
1046	6.53918
1048.89	4.25421
1051.78	3.23676
1054.68	3.94482
1057.57	8.20691
1060.46	4.39142
1063.36	4.52081
1066.25	5.94074
1069.14	4.58868
1072.03	3.95612
1074.93	5.04169
1077.82	7.02838
1080.71	4.39966
1083.6	6.53363
1086.5	7.19025
1089.39	2.86841
1092.28	1.6781
1095.17	1.03625
1098.07	3.23279
1100.96	1.08527
1103.85	6.36389
1106.75	4.77423
1109.64	6.27881
1112.53	8.83112
1115.42	3.37054
1118.32	0.053589
1121.21	2.94257
1124.1	3.4234
1126.99	4.26147
1129.89	4.62286
1132.78	5.03302
1135.67	1.87061
1138.57	4.12256
1141.46	5.01917
1144.35	3.26428
1147.24	6.88452
1150.14	4.19281
1153.03	5.55469
1155.92	5.02026
1158.81	5.91748
1161.71	4.34161
1164.6	7.62347
1167.49	2.23877
1170.38	4.98181
1173.28	2.13855
1176.17	2.57385
1179.06	5.05292
1181.96	3.38367
1184.85	4.20044
1187.74	3.25183
1190.63	0.064758
1193.53	2.67133
1196.42	6.07477
1199.31	3.3111
1202.2	2.96582
1205.1	0.882263
1207.99	0.737
1210.88	4.26233
1213.78	3.91248
1216.67	4.21167
1219.56	3.70526
1222.45	8.06421
1225.35	6.42267
1228.24	5.02936
1231.13	0.040955
1234.02	0.722168
1236.92	1.74408
1239.81	3.54028
1242.7	8.22717
1245.6	10.1806
1248.49	5.17474
1251.38	1.73987
1254.27	1.09735
1257.17	0.030762
1260.06	0.760498
1262.95	4.37213
1265.84	0.989136
1268.74	1.12451
1271.63	6.71771
1274.52	3.25769
1277.41	1.88495
1280.31	3.71429
1283.2	4.20697
1286.09	6.88953
1288.99	2.3269
1291.88	4.84528
1294.77	3.20593
1297.66	3.94226
1300.56	3.94159
1303.45	0
