Measurement: Raman, 780 nm, unoriented, Raman Data Processed
Mineral: Argentopyrite
Rruff sample: R090026
Ideal chemistry: AgFe_2_S_3_
Locality: Schaft 209, Aue, Niederschlema, Erzgebirge, Saxony, Germany
Source: Mark N. Feinglos
Description: Bronze tarnished rectangular prism. Sample used by Yang et al (2009) for structure determination.
Measured chemistry: Ag_0.96_Fe_2.01_S_3_
Raman shift (cm-1)	intensity
158.427	0
161.32	3.3785
164.212	0.882133
167.105	2.14785
169.998	1.14771
172.89	0.758247
175.783	1.45755
178.676	1.39371
181.569	2.5742
184.461	2.96628
187.354	2.1143
190.247	1.43585
193.139	1.76908
196.032	0.992302
198.925	1.50202
201.817	0.340057
204.71	0.80938
207.603	2.07159
210.495	1.52595
213.388	1.35883
216.281	2.03203
219.174	3.44643
222.066	2.31727
224.959	0.891823
227.852	0.215179
230.744	0.740929
233.637	0.808876
236.53	0.574295
239.423	1.2933
242.315	2.85061
245.208	1.06702
248.101	0.720512
250.993	2.75625
253.886	0.152603
256.779	1.44666
259.671	0.903099
262.564	0.559448
265.457	0.847595
268.349	0.507431
271.242	0.815819
274.135	0.280586
277.028	0.263206
279.92	1.82286
282.813	0.053993
285.706	1.82636
288.598	1.97869
291.491	3.90624
294.384	3.96109
297.276	7.03561
300.169	8.929
303.062	9.9799
305.955	12.4167
308.847	10.6663
311.74	12.0766
314.633	13.1575
317.525	16.6987
320.418	25.6716
323.311	28.5604
326.204	31.3679
329.096	34.8879
331.989	32.8999
334.882	31.203
337.774	25.4692
340.667	16.2181
343.56	7.61063
346.452	6.03165
349.345	8.50491
352.238	11.7145
355.13	14.4855
358.023	16.8251
360.916	17.2252
363.809	20.6568
366.701	20.4278
369.594	15.404
372.487	13.5858
375.379	9.57246
378.272	6.1478
381.165	4.02194
384.058	2.15041
386.95	0.913994
389.843	0.572174
392.736	0.235512
395.628	2.17847
398.521	0.581802
401.414	0.758636
404.306	0.819915
407.199	2.07523
410.092	0.87294
412.985	1.68225
415.877	1.57662
418.77	1.31992
421.663	2.52187
424.555	1.69735
427.448	0.629341
430.341	0.897514
433.233	0.733192
436.126	1.20606
439.019	0.96357
441.911	1.18682
444.804	0.002792
447.697	0.932396
450.59	0.596458
453.482	1.71413
456.375	0.497551
459.268	0.426491
462.16	0.010887
465.053	1.47738
467.946	0.12532
470.839	1.37197
473.731	1.43697
476.624	1.46909
479.517	0.535286
482.409	0.959587
485.302	0.036598
488.195	0.980858
491.087	1.56206
493.98	0.709824
496.873	0.785728
499.765	1.37815
502.658	0.123455
505.551	0.095943
508.444	0.038673
511.336	0.546268
514.229	0.850689
517.122	0.958546
520.014	1.17648
522.907	0.355423
525.8	0.325226
528.692	1.04365
531.585	1.39443
534.478	0.65799
537.371	0.331135
540.263	0.346237
543.156	0.72427
546.049	1.30801
548.941	0.579548
551.834	1.10898
554.727	1.75951
557.62	1.2452
560.512	0.142056
563.405	0.543507
566.298	1.21333
569.19	1.03317
572.083	1.74175
574.976	0.070835
577.868	1.38369
580.761	0.979954
583.654	1.25383
586.546	0.754032
589.439	0.107731
592.332	0.787758
595.225	0.369396
598.117	0.854206
601.01	0.47604
603.903	0.281418
606.795	1.74854
609.688	0.331657
612.581	0.59343
615.473	1.13563
618.366	1.10784
621.259	0.781937
624.152	1.30419
627.044	1.74458
629.937	0.120541
632.83	1.12138
635.722	0.597095
638.615	0.846931
641.508	1.27249
644.4	1.22768
647.293	0.751415
650.186	1.08361
653.079	1.89276
655.971	1.84965
658.864	1.25885
661.757	1.26382
664.649	1.06038
667.542	1.49445
670.435	1.83082
673.327	1.89325
676.22	1.11047
679.113	0.521198
682.006	0.521358
684.898	2.24279
687.791	0.277676
690.684	1.70151
693.576	0.830242
696.469	1.30367
699.362	0.247303
702.255	1.59041
705.147	0.235786
708.04	0.537735
710.933	0.500523
713.825	0.909538
716.718	0.57383
719.611	1.48438
722.503	0.444424
725.396	0.423206
728.289	1.38754
731.182	1.07671
734.074	0.556061
736.967	0.406506
739.86	0.934486
742.752	1.32879
745.645	1.82987
748.538	2.0149
751.43	3.28806
754.323	2.9101
757.216	1.3035
760.109	1.31518
763.001	2.26462
765.894	1.35463
768.787	0.932034
771.679	2.00301
774.572	2.9456
777.465	2.05077
780.357	2.39891
783.25	2.95367
786.143	1.45893
789.035	1.63738
791.928	2.30221
794.821	1.90907
797.714	1.68021
800.606	0.694633
803.499	0.766163
806.392	1.376
809.284	0.114487
812.177	0.13501
815.07	1.27514
817.962	2.28153
820.855	1.27445
823.748	2.77258
826.641	3.32145
829.533	2.38605
832.426	2.08497
835.319	2.42184
838.211	3.81086
841.104	3.49397
843.997	2.65728
846.889	4.15667
849.782	3.49435
852.675	1.26072
855.568	2.19286
858.46	2.60204
861.353	1.97924
864.246	0.742455
867.138	1.34192
870.031	0.060574
872.924	0.444332
875.817	1.11561
878.709	0.016888
881.602	1.1326
884.495	2.25137
887.387	0.382206
890.28	0.503136
893.173	0.536411
896.065	0.712383
898.958	1.26467
901.851	-0.000529516
904.744	0.651352
907.636	0.244907
910.529	0.227226
913.422	0.218147
916.314	0.710312
919.207	0.808525
922.1	0.483418
924.992	0.664295
927.885	0.052704
930.778	1.7218
933.67	0.795929
936.563	0.57946
939.456	1.2659
942.348	0.890625
945.241	0.820301
948.134	0.670292
951.027	2.09314
953.919	0.366421
956.812	0.645767
959.705	0.818123
962.597	0.296642
965.49	1.7493
968.383	0.498726
971.275	1.96305
974.168	0.741673
977.061	0.707767
979.954	0.449478
982.846	0.352554
985.739	1.4285
988.632	0.341324
991.524	0.425465
994.417	1.26043
997.31	0.91893
1000.2	1.08037
1003.1	0.422863
1005.99	0.099033
1008.88	1.81263
1011.77	1.00784
1014.67	1.25531
1017.56	0.210636
1020.45	0.374218
1023.34	0.49752
1026.24	0.507137
1029.13	1.22805
1032.02	2.24495
1034.91	2.17664
1037.81	1.40287
1040.7	1.99905
1043.59	0.427898
1046.49	0.946449
1049.38	1.22551
1052.27	0.996052
1055.16	0.751709
1058.06	1.07936
1060.95	1.69221
1063.84	1.8799
1066.73	0.895172
1069.63	1.46166
1072.52	1.85817
1075.41	1.13703
1078.31	1.1111
1081.2	1.06131
1084.09	1.96233
1086.98	1.48903
1089.88	0.995132
1092.77	0.3251
1095.66	0.362984
1098.55	1.27508
1101.45	1.56782
1104.34	1.74179
1107.23	1.54306
1110.12	1.57703
1113.02	0.359661
1115.91	1.3616
1118.8	0.207134
1121.7	1.44381
1124.59	0.671925
1127.48	1.83761
1130.37	1.62367
1133.27	1.74805
1136.16	0.119244
1139.05	0.297348
1141.94	1.42262
1144.84	1.78919
1147.73	0.27795
1150.62	0.218601
1153.52	0.866005
1156.41	1.85029
1159.3	0.609024
1162.19	0.879925
1165.09	1.72657
1167.98	0.594967
1170.87	1.39158
1173.77	0.723434
1176.66	1.19041
1179.55	2.13085
1182.44	1.66704
1185.34	1.53533
1188.23	1.12783
1191.12	1.07856
1194.01	1.10046
1196.91	1.98498
1199.8	0.821838
1202.69	1.25484
1205.58	0.560913
1208.48	2.56176
1211.37	1.53532
1214.26	0.127949
1217.15	1.16258
1220.05	0.150154
1222.94	0.474026
1225.83	2.33024
1228.73	1.31103
1231.62	0.842278
1234.51	2.24151
1237.4	0.914272
1240.3	0.881805
1243.19	1.71014
1246.08	0.00745
1248.97	1.07428
1251.87	2.03247
1254.76	0.035511
1257.65	1.72701
1260.55	0.156376
1263.44	0.925713
1266.33	0.360336
1269.22	2.44332
1272.12	0.397835
1275.01	0.56007
1277.9	1.34539
1280.79	1.89378
1283.69	0.937164
