Measurement: Raman, 532 nm, unoriented, Raman Data Processed
Mineral: Argentopyrite
Rruff sample: R090027
Ideal chemistry: AgFe_2_S_3_
Locality: Jáchymov, Ostrov, Krušné Hory Mts, Karlovy Vary Region, Bohemia, Czech Republic
Source: Mark N. Feinglos
Description: Bronze and blue tarnished rectangular prism.  Co-type specimen. Twinned.
Measured chemistry: Ag_0.97_Fe_1.99_S_3_
Raman shift (cm-1)	intensity
130.942	0
134.317	0.851131
137.691	3.26551
141.066	5.76801
144.441	3.712
147.816	6.3645
151.191	6.66599
154.565	8.78706
157.94	4.75409
161.315	4.81329
164.69	5.80778
168.065	7.3704
171.44	9.76764
174.814	4.23563
178.189	2.46889
181.564	3.11832
184.939	3.66612
188.314	1.31452
191.688	2.506
195.063	1.19375
198.438	1.25029
201.813	0.249691
205.188	0.206959
208.562	0.027744
211.937	1.25845
215.312	1.98297
218.687	1.73999
222.062	1.33316
225.437	2.0298
228.811	2.80354
232.186	3.69442
235.561	4.29649
238.936	5.67559
242.311	5.5392
245.685	9.19431
249.06	15.1658
252.435	25.1116
255.81	27.9179
259.185	19.283
262.56	14.2343
265.934	10.8806
269.309	12.4785
272.684	7.66088
276.059	1.50785
279.434	2.09679
282.808	0.622162
286.183	7.38514
289.558	15.5173
292.933	25.946
296.308	34.3086
299.683	51.8767
303.057	72.7977
306.432	81.3918
309.807	52.4145
313.182	30.191
316.557	19.5073
319.932	16.198
323.306	18.1757
326.681	24.4277
330.056	25.3896
333.431	18.8503
336.805	13.1577
340.18	10.3714
343.555	3.25821
346.93	1.92999
350.305	0.564957
353.68	4.37268
357.054	3.61815
360.429	6.47255
363.804	12.7571
367.179	15.7495
370.554	24.3615
373.928	31.8601
377.303	38.3264
380.678	25.8043
384.053	20.1517
387.428	13.158
390.803	8.49601
394.177	3.66741
397.552	1.63456
400.927	0.447546
404.302	0.165726
407.677	0.57921
411.051	0.452747
414.426	0.174896
417.801	0.916548
421.176	0.061033
424.551	0.884041
427.926	1.90572
431.3	2.08638
434.675	0.614758
438.05	2.24425
441.425	0.449736
444.8	2.87121
448.174	2.49687
451.549	2.00209
454.924	4.78318
458.299	3.77976
461.674	3.41337
465.048	3.53528
468.423	3.08627
471.798	0.741041
475.173	2.65344
478.548	1.97304
481.923	1.26359
485.297	1.4583
488.672	1.37138
492.047	1.48328
495.422	1.88503
498.797	0.110071
502.171	2.52995
505.546	1.68349
508.921	0.938629
512.296	0.697308
515.671	0.731661
519.046	1.36622
522.42	0.974361
525.795	0.040695
529.17	1.67069
532.545	1.22561
535.92	2.60654
539.294	2.65353
542.669	2.47827
546.044	2.13953
549.419	0.404068
552.794	3.89933
556.169	1.71909
559.543	1.8261
562.918	1.72687
566.293	2.68955
569.668	1.69508
573.043	2.515
576.418	1.59385
579.792	0.994778
583.167	1.29678
586.542	1.30258
589.917	0.549109
593.292	1.46026
596.666	0.961195
600.041	1.77833
603.416	1.64292
606.791	0.265194
610.166	0.794567
613.54	0.110402
616.915	2.06214
620.29	1.45452
623.665	2.02519
627.04	0.03252
630.414	0.865578
633.789	2.1897
637.164	1.41581
640.539	1.2657
643.914	1.79916
647.289	0.6572
650.663	1.47083
654.038	0.42976
657.413	0.19956
660.788	1.91635
664.163	2.30329
667.538	2.0903
670.912	3.04671
674.287	0.765282
677.662	1.92297
681.037	0.33012
684.412	0.512535
687.786	1.1766
691.161	0.586479
694.536	1.75958
697.911	1.63669
701.286	1.99452
704.66	0.840384
708.035	0.17902
711.41	2.088
714.785	2.01587
718.16	2.8074
721.534	1.34163
724.909	0.880814
728.284	0.271868
731.659	0.482096
735.034	1.27258
738.409	0.594538
741.783	0.172701
745.158	0.953459
748.533	0.878687
751.908	0.627481
755.283	0.902321
758.658	0.830524
762.032	0.998981
765.407	1.60386
768.782	2.07668
772.157	0.458422
775.532	0.604162
778.906	2.77034
782.281	1.11837
785.656	2.29577
789.031	1.67711
792.406	0.394455
795.78	1.79761
799.155	1.2276
802.53	0.704222
805.905	0.790623
809.28	1.8654
812.654	3.07027
816.029	2.0656
819.404	0.254992
822.779	1.32747
826.154	1.30808
829.529	0.886929
832.903	1.40391
836.278	2.00509
839.653	2.38999
843.028	2.16072
846.403	1.1419
849.778	2.9514
853.152	2.74704
856.527	2.48584
859.902	1.7384
863.277	1.18557
866.652	1.17716
870.026	1.00675
873.401	1.44887
876.776	2.63301
880.151	1.59453
883.526	2.10685
886.9	0.144266
890.275	1.29713
893.65	0.042055
897.025	0.422886
900.4	0.179335
903.775	0.324188
907.149	0.917303
910.524	0.557699
913.899	0.162486
917.274	0.171801
920.649	0.741613
924.024	0.951359
927.398	0.76713
930.773	0.402628
934.148	0.755722
937.523	0.144247
940.898	0.779922
944.272	0.34901
947.647	0.635452
951.022	0.218161
954.397	0.973254
957.772	1.00829
961.146	1.99247
964.521	0.542141
967.896	0.912958
971.271	0.605605
974.646	0.526201
978.021	1.2071
981.395	1.16831
984.77	1.12673
988.145	1.19943
991.52	1.82556
994.895	1.39502
998.269	2.74346
1001.64	1.35205
1005.02	0.671028
1008.39	2.74809
1011.77	1.5686
1015.14	1.96077
1018.52	1.38628
1021.89	0.988381
1025.27	2.3534
1028.64	2.09364
1032.02	2.36541
1035.39	2.33724
1038.77	1.74891
1042.14	1.11242
1045.52	2.27108
1048.89	3.22519
1052.27	2.24946
1055.64	1.45487
1059.02	1.85051
1062.39	0.780804
1065.77	1.66959
1069.14	0.718974
1072.52	1.80676
1075.89	2.78971
1079.27	1.01191
1082.64	1.15056
1086.02	1.35797
1089.39	0.984928
1092.76	1.92786
1096.14	1.64179
1099.51	1.07003
1102.89	0.762136
1106.26	0.159262
1109.64	1.34357
1113.01	0.650001
1116.39	1.02965
1119.76	1.72855
1123.14	1.51743
1126.51	1.0068
1129.89	1.85484
1133.26	0.891482
1136.64	1.32367
1140.01	0.421255
1143.39	1.03273
1146.76	1.5264
1150.14	0.388878
1153.51	1.44783
1156.89	1.58656
1160.26	0.063029
1163.63	0.814448
1167.01	2.41396
1170.38	2.07638
1173.76	1.37583
1177.13	1.19713
1180.51	2.23267
1183.88	2.92707
1187.26	0.156465
1190.63	1.28325
1194.01	0.056761
1197.38	1.68102
1200.76	2.76673
1204.13	1.08131
1207.51	0.80348
1210.88	2.27175
1214.26	1.33031
1217.63	2.10568
1221.01	1.19832
1224.38	2.00154
1227.76	1.52799
1231.13	1.32915
1234.51	0.277604
1237.88	2.35971
1241.26	2.51377
1244.63	1.74916
1248.01	1.77466
1251.38	1.70588
1254.76	1.25544
1258.13	1.72795
1261.51	0.76236
1264.88	0.677862
1268.26	0.671451
1271.63	1.61393
1275	3.76975
1278.38	1.95437
1281.75	2.24968
1285.13	0.083107
1288.5	0.013772
1291.88	1.85408
1295.25	2.61695
1298.63	1.2166
1302	1.19451
