Measurement: Raman, 780 nm, unoriented, Raman Data Processed
Mineral: Argentojarosite
Rruff sample: R060097
Ideal chemistry: AgFe^3+^_3_(SO_4_)_2_(OH)_6_
Locality: unknown
Source: University of Arizona Mineral Museum
Description: Yellowish-brown flat hexagonal plates
Measured chemistry: Ag_1.00_Fe^3+^_3.00_(S_1.00_O_4_)_2_(OH)_6_
Raman shift (cm-1)	intensity
108.894	0
112.269	0.975172
115.644	7.86992
119.019	15.2766
122.394	18.4145
125.769	24.3387
129.143	31.9998
132.518	41.1449
135.893	55.1807
139.268	38.4682
142.643	8.27101
146.018	1.69864
149.392	0.049301
152.767	0.808741
156.142	0.334009
159.517	1.14478
162.892	2.81102
166.266	3.25448
169.641	5.04047
173.016	6.83187
176.391	8.38536
179.766	10.1343
183.141	8.44089
186.515	5.27128
189.89	4.18973
193.265	5.38455
196.64	10.8196
200.015	21.7538
203.389	40.1786
206.764	56.7143
210.139	68.6005
213.514	82.6875
216.889	96.9728
220.263	107.143
223.638	103.394
227.013	68.054
230.388	36.5494
233.763	20.6163
237.137	12.0331
240.512	7.01834
243.887	4.20263
247.262	2.292
250.637	1.09862
254.012	0.248041
257.386	0.216348
260.761	0.73744
264.136	0.187447
267.511	0.354126
270.886	1.84423
274.26	3.39935
277.635	6.72006
281.01	11.1307
284.385	18.3579
287.76	25.697
291.135	31.917
294.509	37.7385
297.884	43.9269
301.259	48.1203
304.634	44.5974
308.009	27.9431
311.384	12.9386
314.758	5.89061
318.133	3.20948
321.508	0.914124
324.883	0.04319
328.258	0.129116
331.632	0.043415
335.007	0.132607
338.382	1.03977
341.757	2.33799
345.132	3.98796
348.507	5.68887
351.881	7.17646
355.256	8.17672
358.631	9.1479
362.006	7.58603
365.381	4.74129
368.755	2.58288
372.13	1.15803
375.505	0.167809
378.88	0.029172
382.255	0.084912
385.63	0.244443
389.004	0.2616
392.379	0.166186
395.754	0.624198
399.129	1.10479
402.503	2.30268
405.878	3.21531
409.253	5.27557
412.628	8.08212
416.003	13.985
419.378	24.6031
422.752	40.2491
426.127	54.238
429.502	66.7914
432.877	83.1726
436.252	94.128
439.627	92.7081
443.001	70.9644
446.376	54.7594
449.751	44.9425
453.126	29.5663
456.501	17.1025
459.875	10.4059
463.25	6.77133
466.625	4.58725
470	3.065
473.375	2.2625
476.75	1.36373
480.124	0.87275
483.499	0.62326
486.874	0.159241
490.249	0.051963
493.624	0.00647
496.998	0.156365
500.373	0.097754
503.748	0.114769
507.123	0.004884
510.498	0.022208
513.872	0.29096
517.247	0.263709
520.622	0.835576
523.997	1.36034
527.372	2.29479
530.747	3.10811
534.121	4.6379
537.496	6.33335
540.871	8.68982
544.246	11.2001
547.621	13.8305
550.995	15.3016
554.37	16.2241
557.745	15.7874
561.12	13.2437
564.495	10.3485
567.87	7.10206
571.244	4.68421
574.619	2.77307
577.994	1.92569
581.369	1.03925
584.744	0.360487
588.118	0.131292
591.493	0.164401
594.868	0.564417
598.243	1.8223
601.618	6.88007
604.992	19.0119
608.367	23.8657
611.742	31.7959
615.117	41.2957
618.492	47.3156
621.867	30.718
625.241	10.1651
628.616	4.4027
631.991	3.62352
635.366	3.66457
638.741	3.92976
642.115	4.236
645.49	4.01258
648.865	3.19212
652.24	2.09096
655.615	1.21033
658.99	0.847377
662.364	0.304017
665.739	0.112847
669.114	0.157772
672.489	0.007141
675.864	0.0183
679.239	0.006519
682.613	0.008934
685.988	0.031471
689.363	0.026366
692.738	0.350086
696.112	0.189666
699.487	0.341743
702.862	0.243049
706.237	0.183802
709.612	0.231162
712.987	0.484485
716.361	0.349944
719.736	0.361289
723.111	0.277623
726.486	0.324954
729.861	0.233096
733.236	0.251219
736.61	0.38479
739.985	0.194284
743.36	0.093042
746.735	0.118684
750.11	0.014888
753.484	0.041514
756.859	0.020112
760.234	0.123935
763.609	0.151965
766.984	0.160051
770.359	0.093527
773.733	0.059643
777.108	0.173126
780.483	0.250789
783.858	0.140265
787.233	0.267037
790.607	0.228058
793.982	0.268801
797.357	0.1891
800.732	0.173363
804.107	0.290066
807.481	0.278865
810.856	0.148301
814.231	0.282863
817.606	0.177581
820.981	0.310874
824.356	0.334645
827.73	0.296013
831.105	0.346497
834.48	0.227502
837.855	0.439224
841.23	0.555449
844.605	0.37036
847.979	0.451812
851.354	0.4112
854.729	0.470601
858.104	0.426082
861.479	0.249915
864.853	0.246965
868.228	0.191432
871.603	0.267288
874.978	0.10658
878.353	0.404289
881.727	0.097851
885.102	0.151839
888.477	0.04732
891.852	0.196157
895.227	0.048895
898.602	0.045017
901.976	0.053282
905.351	0.227743
908.726	0.344647
912.101	0.258832
915.476	0.211779
918.85	0.291721
922.225	0.238585
925.6	0.556101
928.975	0.408647
932.35	0.313659
935.725	0.428486
939.099	0.245188
942.474	0.151432
945.849	0.185215
949.224	0.005553
952.599	0.159334
955.973	0.104862
959.348	0.009223
962.723	0.130527
966.098	0.056566
969.473	0.004156
972.847	0.129633
976.222	0.134393
979.597	0.388684
982.972	0.754411
986.347	1.57631
989.722	2.47331
993.096	5.98134
996.471	17.6064
999.846	31.6917
1003.22	43.2066
1006.6	57.3542
1009.97	60.5332
1013.35	27.882
1016.72	12.3585
1020.1	8.4942
1023.47	5.89196
1026.85	2.77111
1030.22	1.658
1033.59	1.09282
1036.97	0.376329
1040.34	0.022417
1043.72	0.042956
1047.09	0.129433
1050.47	0.135252
1053.84	0.130628
1057.22	0.285558
1060.59	0.093253
1063.97	0.115368
1067.34	0.547493
1070.72	0.591049
1074.09	1.17155
1077.47	1.89884
1080.84	2.87385
1084.22	5.55403
1087.59	9.85812
1090.97	19.3987
1094.34	30.1658
1097.72	40.7439
1101.09	47.2935
1104.46	43.2779
1107.84	27.1401
1111.21	13.9936
1114.59	8.09041
1117.96	5.68072
1121.34	4.17156
1124.71	3.79264
1128.09	4.24885
1131.46	4.95687
1134.84	6.32575
1138.21	8.63492
1141.59	11.4075
1144.96	13.3593
1148.34	15.1235
1151.71	14.9505
1155.09	13.1763
1158.46	9.81995
1161.84	6.65769
1165.21	4.73932
1168.59	3.31567
1171.96	2.18867
1175.34	1.49022
1178.71	0.98577
1182.09	0.534941
1185.46	0.416469
1188.84	0.335711
1192.21	0.131694
1195.59	0.104583
1198.96	0.095355
1202.34	0.071978
1205.71	0.060338
1209.09	0.090337
1212.46	0.093969
1215.83	0.021862
1219.21	0.070031
1222.58	0.19625
1225.96	0.150271
1229.33	0.338102
1232.71	0.381684
1236.08	0.614912
1239.46	0.363951
1242.83	0.408506
1246.21	0.271256
1249.58	0.481284
1252.96	0.257806
1256.33	0.158635
1259.71	0.310937
1263.08	0.218798
1266.46	0.117903
1269.83	0.193701
1273.21	0.157257
1276.58	0.12611
1279.96	0.097367
