Measurement: Raman, 785 nm, unoriented, Raman Data Processed
Mineral: Arhbarite
Rruff sample: R060730
Ideal chemistry: Cu^2+^_2_MgAs^5+^O_4_(OH)_3_
Locality: Guanaco, Chile
Source: Bob Jenkins
Description: Dark blue spherical aggregates associated with enargite. The bright, darker, green phase is conichalcite, the light green is unidentified.
Raman shift (cm-1)	intensity
137.92	0
140.813	55.0951
143.705	173.912
146.598	293.935
149.491	329.152
152.383	205.501
155.276	130.274
158.169	30.9291
161.062	40.4258
163.954	77.873
166.847	155.864
169.74	241.46
172.632	274.087
175.525	204.935
178.418	135.816
181.311	63.7348
184.203	24.2823
187.096	10.9518
189.989	1.00324
192.881	13.3727
195.774	13.7549
198.667	5.20129
201.559	2.4668
204.452	40.212
207.345	49.9179
210.238	95.0598
213.13	154.051
216.023	187.317
218.916	206.193
221.808	181.557
224.701	168.306
227.594	167.276
230.486	172.701
233.379	161.34
236.272	160.721
239.165	102.812
242.057	115.122
244.95	108.7
247.843	149.639
250.735	160.917
253.628	166.057
256.521	180.417
259.413	163.97
262.306	130.546
265.199	113.996
268.091	90.2988
270.984	77.731
273.877	79.0694
276.77	18.8392
279.662	45.8311
282.555	12.0408
285.448	12.4204
288.34	9.27435
291.233	12.9886
294.126	17.9367
297.018	34.1638
299.911	15.5308
302.804	21.7273
305.697	48.6314
308.589	50.2222
311.482	60.2889
314.375	53.6621
317.267	68.7716
320.16	79.3679
323.053	91.7669
325.945	141.199
328.838	141.617
331.731	136.075
334.624	123.879
337.516	125.559
340.409	96.0683
343.302	87.7976
346.194	98.142
349.087	126.867
351.98	137.363
354.872	168.709
357.765	216.538
360.658	247.559
363.551	274.445
366.443	215.863
369.336	162.193
372.229	93.4424
375.121	47.4415
378.014	17.8629
380.907	27.8607
383.799	14.2153
386.692	9.99786
389.585	14.1559
392.478	33.975
395.37	77.91
398.263	98.3156
401.156	132.867
404.048	140.297
406.941	113.696
409.834	77.6129
412.727	48.327
415.619	31.7009
418.512	20.4101
421.405	1.38593
424.297	2.00336
427.19	6.34357
430.083	69.2292
432.975	90.8514
435.868	119.403
438.761	156.08
441.654	199.898
444.546	228.894
447.439	306.316
450.332	350.333
453.224	450.651
456.117	524.118
459.01	614.098
461.902	635.563
464.795	577.823
467.688	489.286
470.58	394.763
473.473	305.567
476.366	256.787
479.259	237.116
482.151	200.518
485.044	208.564
487.937	227.589
490.829	217.318
493.722	195.871
496.615	204.406
499.507	175.732
502.4	217.385
505.293	210.516
508.185	237.401
511.078	261.483
513.971	240.789
516.864	219.81
519.756	226.263
522.649	178.697
525.542	129.936
528.434	110.574
531.327	67.9891
534.22	53.1916
537.112	29.7873
540.005	21.5754
542.898	12.5435
545.791	24.1333
548.683	23.8342
551.576	7.24762
554.469	30.8436
557.362	2.26782
560.254	14.4537
563.147	3.04718
566.04	3.45398
568.932	3.26569
571.825	3.5296
574.718	5.17297
577.61	7.35736
580.503	28.1807
583.396	18.094
586.289	30.3077
589.181	0.427917
592.074	17.0936
594.967	29.8961
597.859	42.3978
600.752	24.3737
603.645	25.694
606.537	43.2864
609.43	40.787
612.323	21.8139
615.216	38.7402
618.108	36.192
621.001	29.2492
623.894	3.95252
626.786	29.7733
629.679	13.8301
632.572	34.415
635.464	12.2372
638.357	4.16565
641.25	24.02
644.143	33.2563
647.035	36.0692
649.928	34.2741
652.821	47.6485
655.713	14.2393
658.606	27.9953
661.499	12.9891
664.391	22.9889
667.284	13.8089
670.177	10.6248
673.07	25.8522
675.962	8.32446
678.855	25.5601
681.748	25.7184
684.64	42.2642
687.533	13.7175
690.426	11.3612
693.318	3.42688
696.211	28.7187
699.104	21.775
701.997	20.608
704.889	4.79706
707.782	9.26483
710.675	11.3224
713.567	0.720642
716.46	14.043
719.353	24.8503
722.245	28.0543
725.138	28.6447
728.031	18.6349
730.924	12.7059
733.816	13.4082
736.709	10.8687
739.602	18.0493
742.494	6.13403
745.387	16.5234
748.28	21.8939
751.172	2.64429
754.065	10.6652
756.958	11.208
759.851	6.81946
762.743	18.586
765.636	13.2071
768.529	6.16376
771.421	6.06915
774.314	23.7553
777.207	25.1891
780.099	37.3365
782.992	59.9582
785.885	32.7485
788.778	52.6364
791.67	65.9752
794.563	91.9874
797.456	136.73
800.348	107.072
803.241	146.551
806.134	237.152
809.026	318.993
811.919	403.672
814.812	509.749
817.705	585.647
820.597	616.273
823.49	556.672
826.383	547.714
829.275	635.044
832.168	794.452
835.061	975.318
837.953	1216.47
840.846	1354.09
843.739	1338.64
846.631	1185.38
849.524	925.189
852.417	715.368
855.31	572.215
858.202	436.394
861.095	397.501
863.988	321.961
866.88	286.115
869.773	228.434
872.666	211.204
875.558	176.686
878.451	146.58
881.344	131.893
884.237	111.635
887.129	80.8674
890.022	56.5187
892.915	4.89349
895.807	24.7575
898.7	19.2424
901.593	1.1427
904.485	2.22748
907.378	11.4075
910.271	15.4774
913.164	24.0424
916.056	7.40747
918.949	12.8957
921.842	7.55859
924.734	0.705872
927.627	3.38885
930.52	8.38702
933.412	5.30054
936.305	6.24139
939.198	9.93677
942.091	4.50305
944.983	9.2226
947.876	10.8275
950.769	37.4734
953.661	43.5586
956.554	29.4327
959.447	21.9665
962.339	67.4477
965.232	41.3636
968.125	2.00836
971.018	29.3133
973.91	39.4233
976.803	2.75964
979.696	29.682
982.588	37.5196
985.481	20.9314
988.374	17.512
991.266	19.9031
994.159	13.6418
997.052	26.4409
999.945	14.5258
1002.84	38.8264
1005.73	45.3299
1008.62	33.7051
1011.51	22.3257
1014.41	18.0006
1017.3	23.8986
1020.19	14.7432
1023.09	25.8487
1025.98	18.4294
1028.87	35.5329
1031.76	32.673
1034.66	1.85834
1037.55	17.4657
1040.44	22.5023
1043.34	42.1372
1046.23	9.99994
1049.12	13.0472
1052.01	31.7829
1054.91	10.2801
1057.8	33.4266
1060.69	3.72876
1063.58	26.4795
1066.48	35.406
1069.37	40.9168
1072.26	22.0753
1075.15	25.3207
1078.05	24.1309
1080.94	4.19794
1083.83	1.38586
1086.72	5.19592
1089.62	14.4785
1092.51	20.3793
1095.4	3.53601
1098.3	1.79797
1101.19	8.67847
1104.08	37.9522
1106.97	38.8917
1109.87	28.8461
1112.76	20.72
1115.65	37.7167
1118.55	14.6548
1121.44	2.40674
1124.33	4.82666
1127.22	13.4539
1130.12	0.564453
1133.01	3.21136
1135.9	47.087
1138.79	28.2462
1141.69	10.9136
1144.58	34.9152
1147.47	21.6795
1150.37	21.0574
1153.26	19.8759
1156.15	16.8857
1159.04	12.3981
1161.94	5.12103
1164.83	22.3509
1167.72	7.36035
1170.61	27.2833
1173.51	25.7747
1176.4	24.3182
1179.29	23.7419
1182.18	25.8972
1185.08	25.1977
1187.97	32.1989
1190.86	17.1141
1193.76	29.8669
1196.65	27.9311
1199.54	19.7237
1202.43	15.994
1205.33	6.48651
1208.22	6.27545
1211.11	48.0843
1214	28.3026
1216.9	57.4361
1219.79	43.7967
1222.68	21.2356
1225.58	37.513
1228.47	31.2369
1231.36	18.7716
1234.25	18.6754
1237.15	4.31653
1240.04	9.49554
1242.93	44.0686
1245.82	36.8044
1248.72	45.5735
1251.61	16.4883
1254.5	14.1177
1257.39	33.9604
1260.29	4.42767
1263.18	28.7419
