Measurement: Raman, 532 nm, unoriented, Raman Data Processed
Mineral: Arhbarite
Rruff sample: R060730
Ideal chemistry: Cu^2+^_2_MgAs^5+^O_4_(OH)_3_
Locality: Guanaco, Chile
Source: Bob Jenkins
Description: Dark blue spherical aggregates associated with enargite. The bright, darker, green phase is conichalcite, the light green is unidentified.
Raman shift (cm-1)	intensity
135.022	0
138.397	1375.09
141.772	3010.28
145.146	2698.91
148.521	1435.78
151.896	431.685
155.271	47.9111
158.646	86.6921
162.02	112.667
165.395	708.127
168.77	1818.59
172.145	2855.89
175.52	3723.45
178.895	3110.28
182.269	1244.32
185.644	611.982
189.019	177.613
192.394	128.335
195.769	25.209
199.143	101.04
202.518	18.3377
205.893	188.588
209.268	544.701
212.643	929.173
216.018	1230.07
219.392	1528.93
222.767	1220.85
226.142	895.584
229.517	1052.27
232.892	1392.52
236.266	1380.37
239.641	841.439
243.016	449.355
246.391	380.87
249.766	635.69
253.141	902.287
256.515	942.046
259.89	711.929
263.265	476.42
266.64	431.474
270.015	373.63
273.389	343.018
276.764	329.074
280.139	306.368
283.514	281.17
286.889	178.839
290.263	35.229
293.638	53.6331
297.013	39.1196
300.388	64.3394
303.763	269.95
307.138	433.926
310.512	600.138
313.887	744.632
317.262	940.182
320.637	1186.34
324.012	1564.67
327.386	2052.64
330.761	2273.53
334.136	2172.84
337.511	1602.09
340.886	1195.31
344.26	1038.6
347.635	1084.47
351.01	1254.05
354.385	1340.57
357.76	1595.54
361.135	1946.32
364.509	2379.89
367.884	2296.05
371.259	1505.17
374.634	713.536
378.009	183.153
381.384	133.74
384.758	234.542
388.133	290.74
391.508	173.908
394.883	40.6392
398.258	422.198
401.632	936.731
405.007	1444.58
408.382	1680.79
411.757	1591.73
415.132	1435
418.506	1411.34
421.881	1373.05
425.256	1454.74
428.631	1637.69
432.006	2172.87
435.38	2910.39
438.755	3845.14
442.13	4930.51
445.505	6153.93
448.88	7534.09
452.254	9468.5
455.629	11864.2
459.004	14590.8
462.379	17179.4
465.754	18224.4
469.129	16275.2
472.503	12223
475.878	8685.21
479.253	6450.18
482.628	5442.75
486.003	5196.88
489.378	5190.02
492.752	5068.49
496.127	4563.99
499.502	3727.27
502.877	3152.06
506.252	2798.41
509.626	2651.07
513.001	2778.24
516.376	2750.5
519.751	2599.48
523.126	2091.39
526.5	1609.57
529.875	1118.09
533.25	729.809
536.625	434.284
540	279.611
543.375	126.647
546.749	1.17383
550.124	43.9145
553.499	129.094
556.874	137.987
560.249	127.905
563.623	91.9158
566.998	51.0021
570.373	0.487427
573.748	32.2742
577.123	57.6991
580.497	97.3237
583.872	136.29
587.247	203.053
590.622	258.77
593.997	272.4
597.372	327.405
600.746	379.576
604.121	386.932
607.496	448.397
610.871	481.327
614.246	451.627
617.62	428.923
620.995	427.426
624.37	395.241
627.745	369.757
631.12	386.717
634.495	375.886
637.869	390.244
641.244	431.83
644.619	483.107
647.994	490.466
651.369	500.786
654.743	513.741
658.118	520.83
661.493	511.656
664.868	521.301
668.243	525.409
671.617	581.516
674.992	587.097
678.367	649.705
681.742	673.304
685.117	665.178
688.492	637.743
691.866	553.239
695.241	480.092
698.616	411.274
701.991	355.739
705.366	285.722
708.74	224.137
712.115	162.606
715.49	128.842
718.865	124.411
722.24	82.2661
725.615	53.227
728.989	13.8475
732.364	15.4224
735.739	2.27271
739.114	22.1801
742.489	33.3575
745.863	46.8221
749.238	43.9477
752.613	108.735
755.988	35.6006
759.363	41.5962
762.737	20.4393
766.112	80.762
769.487	153.51
772.862	251.892
776.237	311.993
779.612	429.542
782.986	579.972
786.361	673.257
789.736	867.605
793.111	1131.92
796.486	1601.23
799.86	2131.94
803.235	2975.07
806.61	4071.13
809.985	5527.33
813.36	7451.51
816.734	9646.5
820.109	10834.2
823.484	9939.83
826.859	8794.57
830.234	8990.25
833.609	10610.1
836.983	13603.9
840.358	17004.8
843.733	19022.2
847.108	18355.1
850.483	14511.7
853.857	10496.4
857.232	7579.67
860.607	6008.73
863.982	5046.63
867.357	4360.03
870.732	3706.23
874.106	3051.59
877.481	2454.42
880.856	1964.51
884.231	1441.49
887.606	1017.94
890.98	707.596
894.355	505.862
897.73	297.766
901.105	137.158
904.48	78.7865
907.854	21.6473
911.229	63.3523
914.604	70.3558
917.979	43.4653
921.354	65.7521
924.729	47.3422
928.103	21.9573
931.478	3.18249
934.853	35.7087
938.228	72.4265
941.603	97.776
944.977	125.923
948.352	183.845
951.727	223.424
955.102	252.147
958.477	291.937
961.852	309.197
965.226	307.137
968.601	314.975
971.976	260.793
975.351	194.841
978.726	175.814
982.1	135.547
985.475	121.763
988.85	84.1647
992.225	40.451
995.6	63.2539
998.974	42.5238
1002.35	33.5565
1005.72	39.1001
1009.1	37.2142
1012.47	34.8132
1015.85	42.1108
1019.22	69.5001
1022.6	74.0266
1025.97	134.663
1029.35	158.241
1032.72	184.143
1036.1	185.654
1039.47	179.827
1042.85	162.247
1046.22	138.274
1049.6	90.7249
1052.97	84.9766
1056.35	89.7969
1059.72	107.71
1063.1	97.6896
1066.47	94.3381
1069.85	117.49
1073.22	131.933
1076.6	145.444
1079.97	104.801
1083.35	94.4441
1086.72	106.471
1090.09	80.1992
1093.47	67.4697
1096.84	50.8817
1100.22	29.4595
1103.59	43.6703
1106.97	1.6583
1110.34	4.16635
1113.72	6.16422
1117.09	11.776
1120.47	7.5221
1123.84	0.77359
1127.22	6.89728
1130.59	9.44202
1133.97	2.68524
1137.34	21.5926
1140.72	3.79651
1144.09	1.57629
1147.47	4.50223
1150.84	14.7419
1154.22	12.8321
1157.59	18.5702
1160.97	21.5099
1164.34	15.3864
1167.71	8.88217
1171.09	23.5142
1174.46	31.0587
1177.84	19.2714
1181.21	18.6509
1184.59	15.1146
1187.96	16.721
1191.34	3.16785
1194.71	24.103
1198.09	5.94424
1201.46	22.3843
1204.84	26.6655
1208.21	21.5076
1211.59	29.2937
1214.96	12.0211
1218.34	18.2445
1221.71	13.984
1225.09	14.3845
1228.46	9.33139
1231.84	15.4419
1235.21	42.1637
1238.59	17.2476
1241.96	24.7673
1245.34	12.6214
1248.71	22.9499
1252.09	19.1186
1255.46	15.0387
1258.84	16.7819
1262.21	15.3395
1265.59	12.0397
1268.96	23.6787
1272.33	18.4418
1275.71	24.9352
1279.08	14.1818
1282.46	27.0134
1285.83	21.957
1289.21	4.1785
1292.58	3.1369
