Measurement: Raman, 532 nm, unoriented, Raman Data Processed
Mineral: Arisite-(La)
Rruff sample: R120051
Ideal chemistry: NaLa_2_(CO_3_)_2_[(CO_3_)_1-x_F_2x_]F
Locality: Aris quarry, near Windhoek, Namibia
Source: William W. Pinch
Description: Pale pink hexagonal tabular crystal, associated with tuperssuatsiaite, and transparent platy polylithionite
Raman shift (cm-1)	intensity
211.504	0
214.396	12.6105
217.289	2.30127
220.182	7.79736
223.074	15.8882
225.967	38.1421
228.86	62.0136
231.752	90.8123
234.645	129.887
237.538	161.931
240.43	213.189
243.323	255.822
246.216	327.372
249.109	400.404
252.001	463.747
254.894	525.308
257.787	576.939
260.679	636.477
263.572	661.647
266.465	674.916
269.358	666.476
272.25	614.077
275.143	545.638
278.036	460.594
280.928	378.35
283.821	297.413
286.714	231.589
289.606	180.958
292.499	144.065
295.392	112.726
298.284	91.5503
301.177	72.2736
304.07	60.8127
306.963	49.6086
309.855	37.3131
312.748	22.7035
315.641	25.3596
318.533	12.9209
321.426	0.296631
324.319	3.26526
327.212	6.60315
330.104	1.10901
332.997	1.48767
335.89	3.03711
338.782	6.82019
341.675	0.74585
344.568	2.32764
347.46	0.253418
350.353	1.14844
353.246	11.3289
356.139	16.5474
359.031	11.3943
361.924	13.0857
364.817	11.1909
367.709	13.401
370.602	12.6901
373.495	6.95471
376.387	1.66785
379.28	8.07471
382.173	3.47949
385.065	4.08948
387.958	13.2642
390.851	2.48267
393.744	4.44775
396.636	6.05969
399.529	8.45142
402.422	5.58667
405.314	12.3441
408.207	10.7758
411.1	7.53101
413.993	16.4862
416.885	13.0408
419.778	10.0366
422.671	6.13452
425.563	6.30969
428.456	10.2798
431.349	18.1359
434.241	10.0809
437.134	5.8949
440.027	5.56995
442.92	5.11353
445.812	10.4801
448.705	4.70862
451.598	2.36694
454.49	2.39551
457.383	4.98596
460.276	2.51599
463.168	6.27319
466.061	2.11255
468.954	3.80457
471.846	1.68359
474.739	0.360962
477.632	1.78796
480.525	2.53516
483.417	6.42029
486.31	5.43457
489.203	8.18079
492.095	7.31836
494.988	12.5874
497.881	13.0511
500.774	15.6938
503.666	11.7273
506.559	3.74377
509.452	8.78186
512.344	8.86438
515.237	2.81763
518.13	2.27417
521.022	6.65271
523.915	12.1641
526.808	19.9993
529.701	10.4659
532.593	7.99292
535.486	0.872803
538.379	4.77112
541.271	2.02637
544.164	6.45667
547.057	4.71118
549.949	10.2417
552.842	5.59021
555.735	8.20605
558.628	5.13806
561.52	1.95532
564.413	1.20459
567.306	2.23438
570.198	5.43921
573.091	1.21484
575.984	2.0697
578.876	3.93481
581.769	7.27173
584.662	10.4813
587.554	16.0917
590.447	19.8239
593.34	24.2257
596.232	24.6661
599.125	25.2501
602.018	25.2659
604.911	29.1423
607.803	39.8179
610.696	52.7966
613.589	64.3945
616.481	71.2094
619.374	90.89
622.267	108.511
625.159	116.336
628.052	130.942
630.945	144.254
633.838	155.671
636.73	158.934
639.623	149.623
642.516	130.278
645.408	115.32
648.301	94.7766
651.194	74.1642
654.087	55.9254
656.979	45.1993
659.872	30.4976
662.765	16.8706
665.657	5.64392
668.55	5.69055
671.443	2.58533
674.335	5.45264
677.228	2.71228
680.121	0.139282
683.014	8.4071
685.906	2.26269
688.799	2.33972
691.692	4.74988
694.584	7.52393
697.477	15.3354
700.37	13.3689
703.263	19.9231
706.155	37.011
709.048	69.4322
711.941	104.019
714.833	129.415
717.726	110.28
720.619	87.6429
723.511	70.6686
726.404	63.0387
729.297	58.9316
732.189	60.864
735.082	56.9139
737.975	47.9125
740.868	35.314
743.76	20.8026
746.653	14.2572
749.546	9.37219
752.438	16.7411
755.331	19.106
758.224	11.4092
761.116	8.58264
764.009	3.06567
766.902	5.79981
769.795	2.42798
772.687	5.23731
775.58	0.008545
778.473	11.1079
781.365	7.78052
784.258	6.05737
787.151	10.729
790.043	0.338867
792.936	0.658203
795.829	3.47949
798.722	2.16065
801.614	1.27173
804.507	5.90942
807.4	3.60596
810.292	10.5945
813.185	13.2295
816.078	12.8645
818.971	11.1106
821.863	10.5823
824.756	8.47754
827.649	0.114746
830.541	8.74097
833.434	2.72217
836.327	3.74292
839.219	3.55005
842.112	14.2993
845.005	12.894
847.898	15.3025
850.79	18.4348
853.683	24.009
856.576	36.2112
859.468	46.2358
862.361	51.3784
865.254	60.0537
868.146	75.1423
871.039	58.1174
873.932	39.4067
876.824	20.7617
879.717	11.9438
882.61	7.92651
885.503	16.9812
888.395	18.9019
891.288	19.5671
894.181	14.8848
897.073	8.88013
899.966	4.47314
902.859	2.26758
905.751	14.917
908.644	13.8672
911.537	13.2637
914.43	17.283
917.322	18.6902
920.215	14.8223
923.108	7.25
926	11.156
928.893	15.7908
931.786	4.21265
934.678	4.5415
937.571	0.169922
940.464	2.08081
943.357	3.70581
946.249	6.72607
949.142	1.69556
952.035	4.4165
954.927	1.29639
957.82	3.45801
960.713	10.4841
963.606	4.42383
966.498	6.77026
969.391	8.44653
972.284	1.71826
975.176	2.5
978.069	10.5559
980.962	12.6213
983.854	6.6228
986.747	10.7681
989.64	14.7441
992.533	12.9744
995.425	9.77173
998.318	9.1272
1001.21	6.11231
1004.1	5.79028
1007	7.74316
1009.89	4.55933
1012.78	0.190186
1015.67	7.43506
1018.57	1.48608
1021.46	14.6328
1024.35	5.94702
1027.24	2.07593
1030.14	0.334961
1033.03	2.49976
1035.92	10.8225
1038.82	0.093262
1041.71	0.683105
1044.6	3.23486
1047.49	4.4624
1050.39	8.42554
1053.28	22.1265
1056.17	34.1201
1059.07	40.7297
1061.96	44.7324
1064.85	73.0608
1067.74	106.718
1070.63	177.405
1073.53	293.428
1076.42	426.709
1079.31	660.15
1082.21	998.289
1085.1	777.715
1087.99	399.261
1090.88	227.508
1093.78	185.965
1096.67	167.53
1099.56	142.117
1102.45	84.7158
1105.35	42.0627
1108.24	29.051
1111.13	18.7898
1114.03	11.8948
1116.92	10.8669
1119.81	3.67773
1122.7	5.41138
1125.6	1.57227
1128.49	0.398926
1131.38	0.351318
1134.28	5.36646
1137.17	11.7954
1140.06	13.0759
1142.95	11.3176
1145.85	10.3377
1148.74	18.9219
1151.63	27.8665
1154.52	20.0925
1157.42	21.1592
1160.31	26.4497
1163.2	23.3232
1166.09	29.7371
1168.99	34.7285
1171.88	38.4326
1174.77	40.9714
1177.66	43.3687
1180.56	41.8855
1183.45	46.0671
1186.34	55.2615
1189.24	63.7378
1192.13	66.0918
1195.02	68.4548
1197.91	79.9834
1200.81	70.1728
1203.7	72.052
1206.59	79.1389
1209.48	85.2078
1212.38	84.3584
1215.27	71.8027
1218.16	71.8516
1221.06	65.1074
1223.95	60.1394
1226.84	58.6435
1229.73	44.5823
1232.63	36.5166
1235.52	19.4741
1238.41	12.1995
1241.31	6.67017
1244.2	1.79712
1247.09	6.14429
1249.98	8.78979
1252.88	1.74219
1255.77	1.85986
1258.66	15.2266
1261.55	21.3044
1264.45	32.5669
1267.34	38.0576
1270.23	53.0012
1273.12	53.7315
1276.02	50.8565
1278.91	34.8352
1281.8	26.5544
1284.69	27.4353
1287.59	19.2463
1290.48	13.7004
1293.37	12.1445
1296.27	4.90088
1299.16	9.18579
1302.05	5.67725
