Measurement: Raman, 532 nm, unoriented, Raman Data Processed
Mineral: Armangite
Rruff sample: R100054
Ideal chemistry: Mn^2+^_26_As^3+^_18_O_50_(CO_3_)(OH)_4_
Locality: Langban, Filipstad, Varmland, Sweden
Source: William W Pinch
Description: Transparent brown hexagonal crystals
Raman shift (cm-1)	intensity
90.4922	0
93.867	4.03106
97.2418	7.95934
100.617	10.8496
103.992	17.0009
107.366	22.067
110.741	37.7813
114.116	34.4022
117.491	22.8632
120.865	12.6512
124.24	3.57142
127.615	6.72133
130.99	9.13736
134.365	5.46336
137.74	9.90277
141.114	39.7675
144.489	55.15
147.864	74.9825
151.239	104.044
154.614	135.51
157.988	156.982
161.363	190.639
164.738	235.912
168.113	286.474
171.488	341.656
174.863	411.013
178.237	469.963
181.612	508.2
184.987	501.236
188.362	464.243
191.737	421.736
195.112	395.774
198.486	365.14
201.861	320.909
205.236	269.183
208.611	231.61
211.986	210.967
215.36	205.268
218.735	199.449
222.11	195.665
225.485	181.499
228.86	162.414
232.234	141.186
235.609	119.058
238.984	97.1548
242.359	84.4021
245.734	73.2476
249.109	66.631
252.483	64.6311
255.858	62.0141
259.233	60.595
262.608	58.368
265.983	54.3206
269.358	42.5821
272.732	35.9376
276.107	28.3349
279.482	24.1804
282.857	24.4287
286.232	22.0842
289.606	17.4749
292.981	11.9509
296.356	5.55388
299.731	1.01575
303.106	3.75336
306.481	6.13664
309.855	8.14902
313.23	7.3038
316.605	4.84976
319.98	4.29259
323.355	1.51061
326.729	3.96191
330.104	10.4165
333.479	12.6886
336.854	17.1196
340.229	17.5611
343.603	17.2084
346.978	15.0952
350.353	14.9705
353.728	10.4147
357.103	9.42344
360.478	6.05235
363.852	3.78354
367.227	2.72437
370.602	4.13455
373.977	8.9563
377.352	13.8285
380.726	20.3178
384.101	22.6356
387.476	31.2123
390.851	34.2234
394.226	40.8722
397.601	46.4387
400.975	50.5411
404.35	53.5666
407.725	51.3437
411.1	47.4114
414.475	43.2259
417.849	33.9044
421.224	30.3852
424.599	27.3595
427.974	24.5555
431.349	26.5714
434.724	29.4887
438.098	32.7662
441.473	31.5164
444.848	25.5039
448.223	17.8648
451.598	9.73222
454.972	4.99466
458.347	1.89946
461.722	4.88728
465.097	8.87082
468.472	16.4399
471.846	21.3348
475.221	19.6843
478.596	11.6038
481.971	6.0262
485.346	4.94449
488.721	11.1642
492.095	25.1472
495.47	41.7829
498.845	63.8528
502.22	77.6617
505.595	78.5487
508.969	60.5079
512.344	36.4924
515.719	16.8201
519.094	1.79257
522.469	5.86415
525.844	2.28819
529.218	6.47523
532.593	18.2558
535.968	40.8853
539.343	60.5057
542.718	79.0256
546.092	93.095
549.467	98.7304
552.842	95.6903
556.217	79.5069
559.592	58.3675
562.967	35.7917
566.341	21.57
569.716	11.6924
573.091	9.03255
576.466	9.00424
579.841	9.38281
583.216	11.4889
586.59	10.936
589.965	9.42656
593.34	5.62892
596.715	3.46893
600.09	1.24056
603.464	1.88339
606.839	6.53212
610.214	17.3076
613.589	31.0241
616.964	46.3232
620.338	62.4781
623.713	74.1724
627.088	77.714
630.463	80.611
633.838	77.1858
637.212	69.3787
640.587	59.4105
643.962	50.2758
647.337	42.7157
650.712	39.6478
654.087	37.3591
657.461	29.8946
660.836	17.6701
664.211	5.51773
667.586	3.86292
670.961	9.30176
674.335	11.8278
677.71	9.2167
681.085	0.731812
684.46	1.14356
687.835	2.806
691.21	1.9119
694.584	1.66089
697.959	5.58176
701.334	25.3844
704.709	55.2512
708.084	92.6261
711.458	117.002
714.833	122.887
718.208	111.792
721.583	99.8361
724.958	97.0414
728.332	96.1444
731.707	100.657
735.082	112.156
738.457	125.233
741.832	159.385
745.207	201.172
748.581	238.161
751.956	251.948
755.331	236.066
758.706	219.105
762.081	216.473
765.456	253.093
768.83	337.562
772.205	483.652
775.58	704.557
778.955	1023.62
782.33	1433.5
785.704	1882.91
789.079	2236.68
792.454	2328.05
795.829	2216.68
799.204	2118.57
802.578	2020.5
805.953	1747.42
809.328	1325.1
812.703	932.675
816.078	636.504
819.453	415.19
822.827	271.124
826.202	181.495
829.577	119.121
832.952	64.9842
836.327	34.3499
839.702	14.9702
843.076	3.43294
846.451	3.0974
849.826	7.1819
853.201	9.78719
856.576	10.4014
859.95	8.31792
863.325	4.64951
866.7	4.3553
870.075	2.73781
873.45	4.63574
876.824	7.44354
880.199	11.5434
883.574	17.3472
886.949	20.1787
890.324	24.4223
893.698	27.8592
897.073	29.0139
900.448	30.7267
903.823	35.3253
907.198	33.6558
910.573	34.1915
913.947	30.0609
917.322	29.3617
920.697	27.9191
924.072	26.3447
927.447	21.1721
930.822	22.3983
934.196	20.9632
937.571	18.6661
940.946	20.6416
944.321	17.9562
947.696	17.4023
951.07	16.4914
954.445	16.0359
957.82	16.0298
961.195	16.1937
964.57	13.7616
967.944	11.2729
971.319	9.47913
974.694	9.45517
978.069	9.921
981.444	8.64191
984.819	8.33421
988.193	8.68484
991.568	7.25983
994.943	6.89217
998.318	7.01276
1001.69	5.2225
1005.07	6.69758
1008.44	4.37974
1011.82	4.82101
1015.19	4.24054
1018.57	4.35942
1021.94	2.38226
1025.32	2.26586
1028.69	1.76841
1032.07	0.920395
1035.44	1.88914
1038.82	1.38229
1042.19	0.541664
1045.57	0.197922
1048.94	0.468582
1052.32	1.29646
1055.69	1.63132
1059.07	0.076286
1062.44	0.148674
1065.81	1.78748
1069.19	0.781189
1072.56	1.61782
1075.94	4.62802
1079.31	10.634
1082.69	22.5219
1086.06	50.2335
1089.44	83.864
1092.81	116.684
1096.19	101.48
1099.56	44.5795
1102.94	13.2035
1106.31	4.97586
1109.69	3.71197
1113.06	1.18417
1116.44	1.43337
1119.81	1.78391
1123.19	0.642044
1126.56	3.02196
1129.94	0.543625
1133.31	0.103455
1136.68	1.85643
1140.06	2.63377
1143.43	1.4012
1146.81	1.45555
1150.18	1.18779
1153.56	1.68556
1156.93	1.10727
1160.31	0.946121
1163.68	0.713089
1167.06	0.049774
1170.43	3.56163
1173.81	1.92633
1177.18	0.365936
1180.56	1.15863
1183.93	0.119888
1187.31	1.87027
1190.68	0.465134
1194.06	1.13107
1197.43	2.26323
1200.81	1.14017
1204.18	1.6306
1207.56	2.3714
1210.93	3.32665
1214.31	2.37857
1217.68	0.520416
1221.06	2.19412
1224.43	1.6669
1227.81	2.526
1231.18	0.51683
1234.56	4.01408
1237.93	1.70056
1241.31	0.657425
1244.68	1.79187
1248.05	2.29163
1251.43	3.91844
1254.8	1.98773
1258.18	1.42133
1261.55	2.32016
1264.93	2.23105
1268.3	1.05067
1271.68	2.59566
1275.05	2.58833
1278.43	4.30705
1281.8	1.90193
1285.18	2.36195
1288.55	3.8945
1291.93	4.1907
1295.3	2.89542
1298.68	5.20996
1302.05	8.26431
