Measurement: Raman, 532 nm, unoriented, Raman Data Processed
Mineral: Armalcolite
Rruff sample: R110188
Ideal chemistry: (Mg,Fe^2+^)Ti_2_O_5_
Locality: Synthetic
Source: Hexiong Yang
Description: Transparent euhedral single crystal, synthesized at 1223 deg C with K2WO4 flux. Reheated to 1400 deg C for 5 hours, and quenched. The Mg and Ti are disordered. Crystals were used in the Yang and Hazen (1998) & the Liermann et al (2006) studies.
Measured chemistry: Mg_0.995(6)_Ti_2.005(5)_O_5_
Raman shift (cm-1)	intensity
186.916	0
189.808	19.6207
192.701	94.1352
195.594	197.31
198.486	330.664
201.379	458.013
204.272	528.535
207.164	497.404
210.057	349.348
212.95	192.681
215.843	80.5503
218.735	11.9376
221.628	5.90503
224.521	5.12012
227.413	12.2313
230.306	62.625
233.199	140.565
236.091	252.901
238.984	383.574
241.877	553.19
244.769	713.987
247.662	869.406
250.555	960.887
253.448	986.746
256.34	922.92
259.233	810.821
262.126	666.107
265.018	510.328
267.911	385.491
270.804	289.096
273.697	210.49
276.589	149.433
279.482	98.3744
282.375	57.0989
285.267	19.6849
288.16	0.039307
291.053	9.047
293.945	10.0386
296.838	5.43787
299.731	3.43469
302.623	26.9127
305.516	51.4664
308.409	82.9156
311.302	118.168
314.194	171.357
317.087	218.549
319.98	266.372
322.872	311.651
325.765	352.553
328.658	389.868
331.55	422.943
334.443	457.542
337.336	480.471
340.229	496.915
343.121	512.736
346.014	507.106
348.907	513.607
351.799	516.322
354.692	517.791
357.585	510.931
360.478	501.016
363.37	488.485
366.263	455.17
369.156	430.007
372.048	396.611
374.941	357.395
377.834	312.332
380.726	259.898
383.619	215.93
386.512	167.691
389.404	131.854
392.297	93.176
395.19	65.7008
398.083	41.8455
400.975	23.0614
403.868	11.5533
406.761	1.19165
409.653	2.23193
412.546	6.28943
415.439	5.12707
418.332	0.81958
421.224	2.30713
424.117	10.3683
427.01	14.9919
429.902	30.3128
432.795	38.567
435.688	47.45
438.58	53.4398
441.473	65.3268
444.366	71.77
447.259	73.8051
450.151	80.6221
453.044	80.2121
455.937	79.0803
458.829	85.3876
461.722	86.3777
464.615	95.1476
467.507	91.6163
470.4	97.5013
473.293	108.425
476.185	111.575
479.078	119.638
481.971	126.739
484.864	124.731
487.756	121.36
490.649	109.02
493.542	96.6157
496.434	84.5063
499.327	79.9976
502.22	67.2806
505.113	60.6729
508.005	51.3798
510.898	50.1642
513.791	43.8964
516.683	28.9924
519.576	19.7325
522.469	15.2996
525.361	7.55359
528.254	1.42426
531.147	7.33301
534.04	7.39777
536.932	11.3553
539.825	5.56665
542.718	2.97083
545.61	0.690613
548.503	9.56305
551.396	12.8452
554.288	22.6611
557.181	28.0919
560.074	34.2783
562.967	45.7543
565.859	52.9106
568.752	58.861
571.645	70.0235
574.537	75.4702
577.43	87.9349
580.323	95.4329
583.216	104.4
586.108	100.916
589.001	103.556
591.894	101.18
594.786	98.0258
597.679	88.9438
600.572	90.7438
603.464	88.6393
606.357	89.6621
609.25	90.8282
612.142	99.8329
615.035	111.303
617.928	125.428
620.821	142.254
623.713	163.458
626.606	193.608
629.499	230.796
632.391	277.177
635.284	328.096
638.177	389.574
641.069	443.922
643.962	499.594
646.855	539.249
649.747	552.804
652.64	547.799
655.533	507.567
658.426	444.195
661.318	369.711
664.211	293.906
667.104	230.851
669.996	176.183
672.889	132.688
675.782	96.1829
678.674	70.4391
681.567	49.7501
684.46	37.6196
687.353	22.2325
690.245	14.4644
693.138	2.60919
696.031	1.89801
698.923	5.30225
701.816	6.51325
704.709	10.5335
707.601	8.51935
710.494	6.40942
713.387	3.32904
716.28	0.691284
719.172	3.41205
722.065	10.7828
724.958	21.111
727.85	31.3613
730.743	38.8428
733.636	50.8675
736.529	61.5369
739.421	74.6103
742.314	95.7453
745.207	113.374
748.099	136.946
750.992	164.063
753.885	194.023
756.777	224.722
759.67	257.065
762.563	285.218
765.456	319.503
768.348	348.161
771.241	376.966
774.134	393.528
777.026	407.277
779.919	410.553
782.812	399.803
785.704	375.215
788.597	348.437
791.49	315.438
794.383	279.439
797.275	246.682
800.168	213.017
803.061	181.564
805.953	157.789
808.846	139.377
811.739	120.36
814.631	104.968
817.524	91.8286
820.417	82.0113
823.309	75.996
826.202	66.8254
829.095	55.8947
831.988	50.5035
834.88	48.9857
837.773	43.3907
840.666	35.4155
843.558	29.8284
846.451	24.3992
849.344	18.9773
852.236	11.7352
855.129	7.67127
858.022	2.79742
860.915	1.448
863.807	4.45868
866.7	5.36554
869.593	6.5083
872.485	4.69531
875.378	4.97119
878.271	12.0553
881.163	21.7545
884.056	37.9705
886.949	54.264
889.842	77.4563
892.734	97.9894
895.627	112.217
898.52	126.923
901.412	136.655
904.305	142.077
907.198	141.194
910.091	142.105
912.983	134.994
915.876	126.675
918.769	116.61
921.661	101.317
924.554	89.4507
927.447	73.7777
930.339	54.1484
933.232	34.5098
936.125	20.4876
939.018	9.96854
941.91	4.55789
944.803	2.79608
947.696	1.29663
950.588	1.29804
953.481	0.736084
956.374	1.06982
959.266	1.36203
962.159	3.18143
965.052	5.71768
967.944	7.2843
970.837	9.33896
973.73	10.0652
976.623	12.5172
979.515	13.2362
982.408	13.792
985.301	14.3455
988.193	18.3216
991.086	18.5493
993.979	20.6961
996.871	19.7358
999.764	20.4542
1002.66	21.783
1005.55	17.9395
1008.44	16.6671
1011.34	17.1723
1014.23	13.7828
1017.12	12.6003
1020.01	14.9119
1022.91	11.9475
1025.8	10.1235
1028.69	8.98898
1031.58	9.88562
1034.48	10.0387
1037.37	9.92365
1040.26	8.41003
1043.15	8.14825
1046.05	7.34546
1048.94	9.76086
1051.83	4.75024
1054.73	4.02048
1057.62	5.79019
1060.51	5.82083
1063.4	2.65543
1066.3	3.0871
1069.19	5.07986
1072.08	2.87689
1074.97	2.32111
1077.87	0.51358
1080.76	0.017456
1083.65	0.029694
1086.55	2.6922
1089.44	0.065125
1092.33	0.943481
1095.22	2.96539
1098.12	0.575623
1101.01	3.6127
1103.9	1.42908
1106.79	1.55011
1109.69	0.601593
1112.58	2.51849
1115.47	0.689728
1118.37	0.164001
1121.26	3.29349
1124.15	3.40228
1127.04	2.14297
1129.94	1.79773
1132.83	1.05395
1135.72	0.931946
1138.61	0.635712
1141.51	0.750153
1144.4	1.38577
1147.29	1.00998
1150.18	1.15567
1153.08	1.52875
1155.97	2.16611
1158.86	1.66748
1161.76	3.33084
1164.65	2.64932
1167.54	0.633972
1170.43	0.528656
1173.33	0.625336
1176.22	1.97986
1179.11	3.07046
1182	1.83221
1184.9	4.46851
1187.79	0.611145
1190.68	2.78619
1193.58	4.31799
1196.47	2.57291
1199.36	2.58063
1202.25	2.77679
1205.15	4.23657
1208.04	4.19437
1210.93	6.53836
1213.82	4.73343
1216.72	0.973969
1219.61	0.923187
1222.5	3.01309
1225.39	3.78882
1228.29	2.56616
1231.18	3.71256
1234.07	0.677521
1236.97	0.433777
1239.86	0.007965
1242.75	2.31363
1245.64	3.14966
1248.54	3.48144
1251.43	2.73892
1254.32	3.86923
1257.21	3.79843
1260.11	3.97632
1263	4.67017
1265.89	3.92355
1268.79	5.68329
1271.68	2.50021
1274.57	3.93411
1277.46	3.84912
1280.36	3.45654
1283.25	3.78274
1286.14	1.50662
1289.03	4.60605
1291.93	2.84274
1294.82	2.71109
1297.71	3.07645
1300.61	0.090576
