Measurement: Raman, 532 nm, unoriented, Raman Data Processed
Mineral: Armangite
Rruff sample: R100041
Ideal chemistry: Mn^2+^_26_As^3+^_18_O_50_(CO_3_)(OH)_4_
Locality: Langban, Filipstad, Varmland, Sweden
Source: William W. Pinch
Description: Elongated prismatic transparent brown, associated with green magnussonite R100027, and white nadorite
Raman shift (cm-1)	intensity
90.4922	0
93.867	7.06631
97.2418	6.46385
100.617	10.6955
103.992	14.5414
107.366	14.8381
110.741	28.7833
114.116	26.8336
117.491	18.5145
120.865	10.268
124.24	2.63544
127.615	4.43449
130.99	4.11833
134.365	2.0141
137.74	10.4888
141.114	32.6038
144.489	43.8294
147.864	58.9578
151.239	95.8821
154.614	128.557
157.988	148.112
161.363	170.913
164.738	208.392
168.113	244.309
171.488	275.683
174.863	295.731
178.237	315.281
181.612	319.777
184.987	308.48
188.362	270.554
191.737	217.516
195.112	176.883
198.486	140.536
201.861	110.377
205.236	89.3757
208.611	76.7481
211.986	70.0576
215.36	67.6786
218.735	55.5436
222.11	47.9634
225.485	43.5592
228.86	39.4859
232.234	36.4522
235.609	37.4378
238.984	39.5017
242.359	47.7572
245.734	56.4918
249.109	65.287
252.483	70.0361
255.858	69.3217
259.233	59.7207
262.608	48.5791
265.983	43.8677
269.358	33.8802
272.732	30.1066
276.107	23.0214
279.482	15.8418
282.857	8.08948
286.232	4.10602
289.606	1.04388
292.981	0.722198
296.356	4.40974
299.731	3.74217
303.106	3.40497
306.481	1.93367
309.855	0.568604
313.23	7.64838
316.605	15.1198
319.98	24.6836
323.355	29.9841
326.729	34.1661
330.104	37.3343
333.479	40.0936
336.854	38.0229
340.229	33.6154
343.603	27.2441
346.978	18.2713
350.353	12.9192
353.728	7.68501
357.103	3.0097
360.478	0.539162
363.852	3.67767
367.227	2.47094
370.602	0.438721
373.977	0.007431
377.352	2.94311
380.726	6.72231
384.101	11.8578
387.476	15.0154
390.851	18.9273
394.226	20.646
397.601	20.5604
400.975	19.7088
404.35	18.5917
407.725	18.4024
411.1	18.381
414.475	13.6283
417.849	14.7593
421.224	12.2792
424.599	12.12
427.974	12.5786
431.349	15.3578
434.724	19.0577
438.098	21.0053
441.473	20.8873
444.848	21.897
448.223	18.2888
451.598	14.3256
454.972	11.0136
458.347	11.2255
461.722	10.4832
465.097	12.749
468.472	19.1793
471.846	25.0655
475.221	28.9941
478.596	30.2298
481.971	34.4635
485.346	37.7596
488.721	44.6267
492.095	51.409
495.47	61.4369
498.845	71.4046
502.22	79.5371
505.595	74.6109
508.969	62.5341
512.344	47.6725
515.719	31.2947
519.094	17.4875
522.469	7.2402
525.844	3.0753
529.218	1.2273
532.593	0.334717
535.968	0.52504
539.343	3.06587
542.718	7.36902
546.092	5.92933
549.467	5.73166
552.842	3.81126
556.217	3.74821
559.592	2.7239
562.967	1.63854
566.341	0.474075
569.716	1.03122
573.091	0.661613
576.466	0.149834
579.841	0.206711
583.216	2.01305
586.59	2.0489
589.965	0.153793
593.34	0.572647
596.715	0.147354
600.09	0.62149
603.464	0.359818
606.839	4.36345
610.214	8.27684
613.589	8.61932
616.964	13.0609
620.338	19.1663
623.713	24.4504
627.088	28.8758
630.463	32.4957
633.838	36.3575
637.212	33.6079
640.587	27.6445
643.962	23.0592
647.337	18.4965
650.712	15.671
654.087	11.1533
657.461	5.40479
660.836	2.46561
664.211	2.51384
667.586	6.18362
670.961	8.89346
674.335	9.26694
677.71	6.4709
681.085	1.02681
684.46	3.60806
687.835	7.68323
691.21	9.27289
694.584	4.58606
697.959	6.3168
701.334	16.6766
704.709	34.7821
708.084	48.1581
711.458	57.4967
714.833	56.3933
718.208	51.0136
721.583	41.9482
724.958	37.3843
728.332	35.9487
731.707	38.5909
735.082	40.2567
738.457	47.7451
741.832	51.46
745.207	62.0732
748.581	74.5366
751.956	86.9369
755.331	106.284
758.706	147.918
762.081	203.707
765.456	285.267
768.83	399.936
772.205	555.931
775.58	741.096
778.955	925.404
782.33	1103.96
785.704	1274.41
789.079	1340.97
792.454	1165.18
795.829	850.886
799.204	550.96
802.578	353.846
805.953	227.128
809.328	148.567
812.703	98.0848
816.078	68.4813
819.453	51.6248
822.827	44.4395
826.202	39.161
829.577	36.3192
832.952	33.9894
836.327	23.1339
839.702	12.5195
843.076	3.78561
846.451	0.684509
849.826	4.25141
853.201	5.45096
856.576	2.83574
859.95	2.60005
863.325	1.57174
866.7	1.06696
870.075	1.18936
873.45	2.45201
876.824	2.84884
880.199	5.59051
883.574	6.34074
886.949	8.16048
890.324	11.1579
893.698	11.4215
897.073	13.0377
900.448	15.3884
903.823	16.1418
907.198	15.2201
910.573	15.7198
913.947	15.0496
917.322	14.1351
920.697	12.2174
924.072	12.8519
927.447	11.444
930.822	10.548
934.196	8.9053
937.571	9.48467
940.946	7.55859
944.321	6.96403
947.696	6.16494
951.07	5.18594
954.445	6.63675
957.82	6.24469
961.195	5.03932
964.57	4.04685
967.944	3.72899
971.319	1.66212
974.694	4.23408
978.069	3.37132
981.444	2.87657
984.819	2.38961
988.193	0.905243
991.568	3.39902
994.943	2.44032
998.318	1.88171
1001.69	1.72328
1005.07	1.62196
1008.44	2.0814
1011.82	2.16032
1015.19	0.690109
1018.57	2.04438
1021.94	2.00364
1025.32	0.587822
1028.69	1.06455
1032.07	0.631226
1035.44	0.75708
1038.82	0.199585
1042.19	0.538185
1045.57	1.55131
1048.94	0.504089
1052.32	1.52825
1055.69	1.79096
1059.07	1.68094
1062.44	0.58503
1065.81	0.54837
1069.19	0.078751
1072.56	0.201126
1075.94	1.14666
1079.31	0.716698
1082.69	2.21127
1086.06	2.00337
1089.44	5.40208
1092.81	12.3006
1096.19	25.1289
1099.56	34.5842
1102.94	44.6586
1106.31	49.2785
1109.69	50.818
1113.06	43.6279
1116.44	11.3873
1119.81	5.44495
1123.19	1.25077
1126.56	1.15461
1129.94	0.058952
1133.31	0.764603
1136.68	0.935486
1140.06	2.16825
1143.43	2.49036
1146.81	0.430817
1150.18	1.62824
1153.56	0.810249
1156.93	1.47755
1160.31	1.06975
1163.68	1.9385
1167.06	1.494
1170.43	0.88076
1173.81	2.08414
1177.18	3.21184
1180.56	1.04356
1183.93	0.828812
1187.31	2.64314
1190.68	0.264091
1194.06	1.17536
1197.43	3.3128
1200.81	1.21532
1204.18	2.64923
1207.56	2.97827
1210.93	2.6043
1214.31	1.1893
1217.68	3.92434
1221.06	3.08976
1224.43	2.05436
1227.81	2.23376
1231.18	1.83484
1234.56	1.77457
1237.93	2.28277
1241.31	1.22335
1244.68	1.1124
1248.05	2.31226
1251.43	1.54441
1254.8	2.21897
1258.18	1.79362
1261.55	3.72194
1264.93	0.447639
1268.3	1.32053
1271.68	1.52876
1275.05	0.796234
1278.43	0.979729
1281.8	2.41508
1285.18	0.054909
1288.55	0.816841
1291.93	0.826286
1295.3	1.62982
1298.68	0.350418
1302.05	0.358391
