Measurement: Raman, 780 nm, unoriented, Raman Data Processed
Mineral: Armalcolite
Rruff sample: R110187
Ideal chemistry: (Mg,Fe^2+^)Ti_2_O_5_
Locality: Synthetic
Source: Hexiong Yang
Description: Transparent euhedral single crystal, synthesized at 1223 deg C with K2WO4 flux. Reheated to 600 deg C for 35 days, and quenched. The Mg and Ti are ordered. Crystals were used in the Yang and Hazen (1998) & the Liermann et al (2006) studies.
Measured chemistry: Mg_0.995(6)_Ti_2.005(5)_O_5_
Raman shift (cm-1)	intensity
106.067	0
109.442	19.1979
112.817	1.20325
116.192	6.12842
119.566	12.1223
122.941	73.958
126.316	132.645
129.691	208.306
133.066	291.333
136.44	409.443
139.815	588.901
143.19	805.22
146.565	1163.93
149.94	1917.3
153.315	3495.42
156.689	6324.75
160.064	8084.31
163.439	5856.61
166.814	4453.83
170.189	3491.71
173.563	2622.29
176.938	1813.94
180.313	1169.83
183.688	824.479
187.063	706.766
190.437	752.989
193.812	977.775
197.187	1409.61
200.562	2124.65
203.937	2710.43
207.311	2082.42
210.686	1175.98
214.061	525.299
217.436	183.028
220.811	8.70068
224.186	56.4793
227.56	62.5486
230.935	17.5798
234.31	219.698
237.685	613.345
241.06	1208.84
244.435	2097.67
247.809	3186.73
251.184	4039.92
254.559	4122.76
257.934	3616.61
261.309	3220.98
264.683	2977.76
268.058	2610.42
271.433	2056.3
274.808	1486.76
278.183	1050.87
281.558	692.232
284.932	433.019
288.307	237.671
291.682	115.296
295.057	26.1523
298.432	20.8181
301.806	17.7131
305.181	50.9988
308.556	204.725
311.931	460.639
315.306	836.244
318.68	1335.68
322.055	1935.35
325.43	2464.56
328.805	2708.08
332.18	2593.07
335.555	2254.78
338.929	1871.98
342.304	1478.16
345.679	1179.6
349.054	952.583
352.429	808.755
355.803	730.301
359.178	687.466
362.553	671.157
365.928	595.557
369.303	471.247
372.678	302.42
376.052	143.867
379.427	41.5002
382.802	22.6155
386.177	35.6145
389.552	27.1177
392.926	0.215576
396.301	29.0608
399.676	60.0254
403.051	102.535
406.426	169.91
409.8	254.195
413.175	393.314
416.55	560.262
419.925	691.939
423.3	740.892
426.675	662.571
430.049	535.284
433.424	401.627
436.799	284.779
440.174	195.594
443.549	133.227
446.923	113.677
450.298	47.9534
453.673	40.364
457.048	54.9136
460.423	77.561
463.798	105.368
467.172	145.377
470.547	209.733
473.922	289.194
477.297	364.462
480.672	428.376
484.046	464.365
487.421	455.295
490.796	414.121
494.171	343.495
497.546	273.092
500.921	208.254
504.295	172.648
507.67	142.396
511.045	133.877
514.42	129.966
517.795	123.817
521.169	91.5734
524.544	46.1265
527.919	12.8002
531.294	14.4667
534.669	23.3462
538.044	19.96
541.418	15.6127
544.793	5.0282
548.168	10.4023
551.543	27.8148
554.918	47.3324
558.293	61.484
561.667	81.463
565.042	95.5995
568.417	116.102
571.792	140.372
575.167	169.275
578.541	199.231
581.916	230.981
585.291	252.511
588.666	271.698
592.041	280.388
595.415	287.93
598.79	290.315
602.165	299.166
605.54	308.08
608.915	320.917
612.29	347.747
615.664	378.471
619.039	422.185
622.414	490.371
625.789	581.433
629.164	702.212
632.538	846.431
635.913	1020.26
639.288	1190.22
642.663	1309.2
646.038	1308.08
649.413	1178.74
652.787	967.854
656.162	742.878
659.537	549.439
662.912	387.483
666.287	275.983
669.661	197.048
673.036	136.839
676.411	90.1835
679.786	62.2551
683.161	34.1907
686.535	22.6622
689.91	8.51331
693.285	1.34424
696.66	9.74133
700.035	13.3582
703.41	20.897
706.784	15.2455
710.159	9.28992
713.534	9.6427
716.909	3.57935
720.284	7.62073
723.659	15.532
727.033	37.3261
730.408	62.3976
733.783	90.3257
737.158	122.823
740.533	171.534
743.907	238.708
747.282	316.256
750.657	420.026
754.032	534.836
757.407	681.419
760.782	859.265
764.156	1084.95
767.531	1356.16
770.906	1656.58
774.281	1994.78
777.656	2345.04
781.03	2641.78
784.405	2803.64
787.78	2774.1
791.155	2572.64
794.53	2220.84
797.904	1801.61
801.279	1432.21
804.654	1124.12
808.029	873.708
811.404	688.171
814.779	533.005
818.153	436.452
821.528	359.697
824.903	288.637
828.278	234.283
831.653	191.25
835.028	157.84
838.402	133.89
841.777	104.088
845.152	80.0067
848.527	58.5541
851.902	48.5065
855.276	23.6992
858.651	11.4208
862.026	1.32922
865.401	8.41626
868.776	13.6462
872.15	10.605
875.525	8.18469
878.9	11.5588
882.275	4.8595
885.65	36.0869
889.024	59.6904
892.399	111.45
895.774	159.544
899.149	203.897
902.524	244.981
905.899	270.357
909.273	282.273
912.648	270.453
916.023	255.567
919.398	219.832
922.773	174.495
926.148	134.2
929.522	78.3063
932.897	43.934
936.272	19.4777
939.647	6.17517
943.022	0.092407
946.396	2.72992
949.771	2.25421
953.146	4.51343
956.521	8.16394
959.896	10.4489
963.27	14.0348
966.645	18.8069
970.02	19.3468
973.395	20.9594
976.77	24.0091
980.145	23.7204
983.519	30.8146
986.894	30.1868
990.269	36.0465
993.644	35.7226
997.019	39.3134
1000.39	41.5967
1003.77	37.7763
1007.14	29.1958
1010.52	24.7687
1013.89	22.519
1017.27	24.9296
1020.64	18.7624
1024.02	19.0347
1027.39	18.4048
1030.77	19.584
1034.14	13.2842
1037.52	20.3469
1040.89	16.2743
1044.27	15.5953
1047.64	8.97839
1051.02	8.41138
1054.39	8.41254
1057.77	11.9736
1061.14	8.96161
1064.52	6.04492
1067.89	3.54291
1071.27	8.38391
1074.64	4.23962
1078.01	2.61566
1081.39	4.56586
1084.76	2.1264
1088.14	5.73779
1091.51	2.78772
1094.89	3.6637
1098.26	4.98254
1101.64	0.342163
1105.01	1.09528
1108.39	1.78796
1111.76	1.16711
1115.14	0.900635
1118.51	2.04132
1121.89	0.298096
1125.26	4.00964
1128.64	4.14282
1132.01	0.147278
1135.39	0.457275
1138.76	2.17511
1142.14	0.841675
1145.51	0.807922
1148.88	0.323364
1152.26	0.227234
1155.63	2.77319
1159.01	1.96484
1162.38	0.440552
1165.76	1.02209
1169.13	5.24249
1172.51	1.56744
1175.88	2.28937
1179.26	4.9707
1182.63	4.22675
1186.01	1.74182
1189.38	3.29065
1192.76	3.88171
1196.13	3.2536
1199.51	5.68622
1202.88	2.38678
1206.26	6.18396
1209.63	3.17596
1213.01	3.41974
1216.38	2.08099
1219.76	2.62622
1223.13	4.93347
1226.51	2.74298
1229.88	5.55603
1233.26	6.00458
1236.63	5.5404
1240.01	1.00092
1243.38	2.617
1246.76	4.90741
1250.13	0.50354
1253.51	3.1181
1256.88	5.86401
1260.25	5.08472
1263.63	5.84491
1267	5.66046
1270.38	5.47913
1273.75	0.736572
1277.13	1.88061
1280.5	1.26764
1283.88	2.53821
