Measurement: Raman, 780 nm, unoriented, Raman Data Processed
Mineral: Armangite
Rruff sample: R100054
Ideal chemistry: Mn^2+^_26_As^3+^_18_O_50_(CO_3_)(OH)_4_
Locality: Langban, Filipstad, Varmland, Sweden
Source: William W Pinch
Description: Transparent brown hexagonal crystals
Raman shift (cm-1)	intensity
91.5332	0
94.908	17.2044
98.2828	22.5859
101.658	36.3998
105.032	68.3131
108.407	105.76
111.782	140.715
115.157	168.751
118.532	183.097
121.907	202.987
125.281	171.918
128.656	134.581
132.031	97.7112
135.406	73.2688
138.781	43.0802
142.155	14.7792
145.53	6.52692
148.905	15.36
152.28	5.314
155.655	7.60239
159.03	38.7301
162.404	79.5467
165.779	136.913
169.154	192.826
172.529	253.205
175.904	310.471
179.278	341.327
182.653	350.161
186.028	324.776
189.403	287.378
192.778	255.499
196.153	226.83
199.527	196.334
202.902	162.069
206.277	133.768
209.652	117.132
213.027	109.683
216.401	107.934
219.776	105.28
223.151	97.7458
226.526	84.2545
229.901	73.0907
233.275	63.7525
236.65	55.5736
240.025	47.8271
243.4	43.8041
246.775	43.8646
250.15	44.1009
253.524	45.203
256.899	44.9968
260.274	42.677
263.649	41.7204
267.024	38.776
270.399	38.0334
273.773	39.3831
277.148	43.0375
280.523	47.3346
283.898	35.8855
287.273	21.7994
290.647	10.2388
294.022	5.21367
297.397	0.571075
300.772	3.5777
304.147	4.46812
307.522	3.40135
310.896	4.28076
314.271	0.433853
317.646	1.77064
321.021	3.18711
324.396	7.33543
327.77	11.0632
331.145	16.2324
334.52	15.856
337.895	16.4881
341.27	16.2658
344.644	12.9696
348.019	11.9505
351.394	10.0095
354.769	7.33752
358.144	4.23214
361.519	1.34786
364.893	0.068146
368.268	0.399834
371.643	2.23421
375.018	4.72569
378.393	11.1043
381.767	18.9602
385.142	20.5416
388.517	28.0083
391.892	31.6639
395.267	34.9527
398.642	36.136
402.016	36.8981
405.391	36.3933
408.766	31.0501
412.141	29.6624
415.516	28.4235
418.89	26.4419
422.265	28.8986
425.64	33.4772
429.015	38.651
432.39	40.6662
435.765	41.2403
439.139	38.6092
442.514	35.4273
445.889	27.9349
449.264	23.071
452.639	15.5655
456.014	14.7844
459.388	13.4651
462.763	13.0677
466.138	16.2443
469.513	14.2053
472.887	9.9566
476.262	5.21431
479.637	1.06008
483.012	1.0202
486.387	5.28063
489.762	11.7788
493.136	20.2159
496.511	26.1744
499.886	33.5517
503.261	32.6722
506.636	24.4441
510.01	15.8227
513.385	6.26439
516.76	1.42098
520.135	2.885
523.51	1.17197
526.885	7.06092
530.259	17.7535
533.634	31.4656
537.009	45.1415
540.384	57.1232
543.759	65.4696
547.134	64.5166
550.508	62.3018
553.883	50.6325
557.258	37.7246
560.633	25.6006
564.008	15.3631
567.382	11.0578
570.757	6.28579
574.132	4.51181
577.507	5.66163
580.882	3.17083
584.256	2.07024
587.631	1.36237
591.006	0.00946
594.381	3.12164
597.756	2.18864
601.131	5.43497
604.505	12.3579
607.88	21.8165
611.255	31.1204
614.63	40.65
618.005	47.6864
621.38	53.5766
624.754	55.026
628.129	53.8555
631.504	48.811
634.879	44.1979
638.254	36.252
641.628	30.7236
645.003	22.5707
648.378	17.805
651.753	11.0305
655.128	0.18222
658.503	4.03944
661.877	6.80344
665.252	9.12239
668.627	9.23738
672.002	4.16199
675.377	0.25177
678.751	7.86197
682.126	11.9999
685.501	14.2452
688.876	14.1594
692.251	17.5733
695.625	24.8292
699	35.1699
702.375	49.7533
705.75	66.4938
709.125	78.0691
712.5	84.7383
715.874	64.4514
719.249	52.9124
722.624	44.4915
725.999	41.8937
729.374	44.2732
732.749	56.3724
736.123	74.7396
739.498	94.6294
742.873	118.64
746.248	137.897
749.623	141.219
752.997	133.562
756.372	122.747
759.747	126.901
763.122	154.038
766.497	217.372
769.871	328.704
773.246	492.21
776.621	705.46
779.996	939.035
783.371	1167.67
786.745	1341.49
790.12	1396.62
793.495	1306.87
796.87	1182.5
800.245	1056.98
803.62	889.207
806.994	681.982
810.369	479.957
813.744	322.18
817.119	208.638
820.494	130.596
823.869	79.3136
827.243	49.1371
830.618	25.3572
833.993	9.29227
837.368	1.53609
840.743	3.942
844.117	6.29969
847.492	7.07876
850.867	7.21555
854.242	4.39896
857.617	2.05763
860.991	0.393898
864.366	3.79998
867.741	4.43404
871.116	7.65182
874.491	10.6723
877.866	14.2332
881.24	17.9504
884.615	18.4095
887.99	20.9215
891.365	21.6688
894.74	22.9813
898.115	25.5694
901.489	24.8791
904.864	24.8816
908.239	22.4333
911.614	20.7272
914.989	17.9029
918.363	16.746
921.738	15.2546
925.113	14.924
928.488	13.0855
931.863	15.0038
935.237	12.8991
938.612	12.2143
941.987	12.5796
945.362	11.9615
948.737	12.2264
952.112	10.2022
955.486	10.2848
958.861	8.54672
962.236	7.97072
965.611	7.07106
968.986	6.41743
972.361	5.1419
975.735	4.99031
979.11	4.43279
982.485	4.21486
985.86	4.5708
989.235	4.15328
992.609	3.11707
995.984	2.95847
999.359	3.58585
1002.73	1.74847
1006.11	2.12313
1009.48	2.81614
1012.86	1.57001
1016.23	1.20249
1019.61	1.08378
1022.98	0.068863
1026.36	0.242195
1029.73	0.422325
1033.11	0.503677
1036.48	0.506865
1039.86	0.141777
1043.23	0.445751
1046.61	0.04143
1049.98	0.707693
1053.36	0.712484
1056.73	0.18018
1060.11	0.777212
1063.48	0.548262
1066.86	1.55169
1070.23	5.05327
1073.61	12.5813
1076.98	26.8817
1080.36	52.3644
1083.73	116.625
1087.1	189.535
1090.48	80.1183
1093.85	53.3761
1097.23	30.5523
1100.6	12.1831
1103.98	2.92247
1107.35	2.5657
1110.73	1.3772
1114.1	1.21129
1117.48	1.11059
1120.85	0.235727
1124.23	1.00957
1127.6	1.42993
1130.98	0.392801
1134.35	1.05951
1137.73	1.72898
1141.1	1.11098
1144.48	0.387455
1147.85	0.558084
1151.23	0.995653
1154.6	0.317896
1157.97	1.3634
1161.35	0.733093
1164.72	1.42839
1168.1	0.447165
1171.47	1.99998
1174.85	1.90479
1178.22	1.55814
1181.6	1.76949
1184.97	1.21521
1188.35	1.3681
1191.72	1.19154
1195.1	2.91445
1198.47	1.56366
1201.85	1.83115
1205.22	1.36007
1208.6	0.438726
1211.97	2.20576
1215.35	1.56658
1218.72	1.30262
1222.1	1.19463
1225.47	1.82925
1228.85	2.36687
1232.22	1.16814
1235.6	1.95069
1238.97	1.45507
1242.35	0.480923
1245.72	1.53151
1249.1	0.527729
1252.47	0.595215
1255.85	0.667006
1259.22	1.12868
1262.6	2.62574
1265.97	0.369165
1269.34	1.25022
1272.72	1.14693
1276.09	0.550451
1279.47	1.98568
1282.84	0.005238
