Measurement: Raman, 532 nm, unoriented, Raman Data Processed
Mineral: Armalcolite
Rruff sample: R110187
Ideal chemistry: (Mg,Fe^2+^)Ti_2_O_5_
Locality: Synthetic
Source: Hexiong Yang
Description: Transparent euhedral single crystal, synthesized at 1223 deg C with K2WO4 flux. Reheated to 600 deg C for 35 days, and quenched. The Mg and Ti are ordered. Crystals were used in the Yang and Hazen (1998) & the Liermann et al (2006) studies.
Measured chemistry: Mg_0.995(6)_Ti_2.005(5)_O_5_
Raman shift (cm-1)	intensity
185.951	0
188.844	21.9689
191.737	118.02
194.629	265.686
197.522	461.161
200.415	709.727
203.308	940.575
206.2	968.686
209.093	627.762
211.986	337.396
214.878	153.734
217.771	54.5335
220.664	1.3291
223.556	16.7195
226.449	25.1339
229.342	0.373657
232.234	67.1301
235.127	196.258
238.02	393.912
240.913	659.668
243.805	1020.09
246.698	1446.2
249.591	1895.28
252.483	2222.59
255.376	2336.16
258.269	2313.45
261.161	2349.05
264.054	2460.87
266.947	2488.7
269.84	2285.03
272.732	1915.33
275.625	1510.38
278.518	1139.28
281.41	830.491
284.303	576.466
287.196	393.405
290.089	271.275
292.981	175.905
295.874	92.7615
298.767	43.5099
301.659	10.6942
304.552	15.3718
307.445	38.4348
310.337	96.121
313.23	201.446
316.123	341.704
319.015	508.583
321.908	695.995
324.801	876.899
327.694	1008.14
330.586	1050.84
333.479	991.206
336.372	897.685
339.264	758.557
342.157	623.854
345.05	503.771
347.942	420.811
350.835	380.536
353.728	366.16
356.621	390.711
359.513	429.473
362.406	464.46
365.299	466.342
368.191	425.443
371.084	322.835
373.977	203.028
376.87	90.4055
379.762	14.0059
382.655	29.8737
385.548	34.5326
388.44	22.8573
391.333	5.09814
394.226	24.4026
397.118	53.183
400.011	79.5492
402.904	103.968
405.796	127.948
408.689	161.786
411.582	212.481
414.475	281.231
417.367	357.367
420.26	397.716
423.153	413.491
426.045	376.024
428.938	309.88
431.831	232.547
434.724	163.481
437.616	112.049
440.509	75.058
443.402	51.1917
446.294	31.6888
449.187	29.972
452.08	23.363
454.972	32.074
457.865	48.2836
460.758	67.3507
463.651	90.2747
466.543	122.606
469.436	156.175
472.329	205.036
475.221	254.675
478.114	307.655
481.007	353.976
483.899	380.534
486.792	385.653
489.685	370.222
492.577	330.866
495.47	285.33
498.363	235.777
501.256	190.411
504.148	153.568
507.041	132.772
509.934	120.397
512.826	114.834
515.719	106.465
518.612	91.2837
521.505	66.2914
524.397	37.3317
527.29	7.6582
530.183	11.3141
533.075	22.0822
535.968	20.9161
538.861	17.1272
541.753	4.60809
544.646	9.84573
547.539	20.8492
550.432	37.3286
553.324	50.883
556.217	66.1594
559.11	77.4774
562.002	92.5863
564.895	112.346
567.788	129.103
570.68	149.4
573.573	168.74
576.466	195.466
579.359	217.131
582.251	235.488
585.144	251.052
588.037	260.586
590.929	256.551
593.822	250.528
596.715	242.599
599.607	236.518
602.5	235.376
605.393	232.274
608.285	234.653
611.178	241.001
614.071	243.665
616.964	265.312
619.856	291.697
622.749	324.688
625.642	377.918
628.534	441.265
631.427	525.176
634.32	626.46
637.212	729.273
640.105	815.503
642.998	867.027
645.891	869.627
648.783	811.14
651.676	701.546
654.569	578.637
657.461	452.993
660.354	346.446
663.247	260.222
666.139	190.1
669.032	139.186
671.925	99.4752
674.818	66.6264
677.71	48.4479
680.603	36.6547
683.496	20.1988
686.388	9.84656
689.281	9.20276
692.174	3.19482
695.067	5.25281
697.959	10.0227
700.852	5.3996
703.745	11.9828
706.637	12.9178
709.53	13.9562
712.423	11.509
715.315	8.4743
718.208	8.92383
721.101	2.37439
723.994	14.3726
726.886	33.1108
729.779	50.343
732.672	76.385
735.564	106.864
738.457	141.94
741.35	191.021
744.242	254.87
747.135	330.334
750.028	421.145
752.92	538.335
755.813	674.207
758.706	829.903
761.599	1010.23
764.491	1234.89
767.384	1492.8
770.277	1778.56
773.169	2108.1
776.062	2447.59
778.955	2774.06
781.847	3056.55
784.74	3212.98
787.633	3238
790.526	3086.67
793.418	2803.08
796.311	2419.05
799.204	2023.89
802.096	1657.34
804.989	1347.91
807.882	1092.01
810.774	880.701
813.667	715.615
816.56	586.746
819.453	489.326
822.345	405.934
825.238	338.994
828.131	281.971
831.023	239.893
833.916	201.223
836.809	169.226
839.702	142.04
842.594	116.91
845.487	92.3038
848.38	74.9143
851.272	50.0607
854.165	40.2772
857.058	23.5187
859.95	17.3269
862.843	1.54968
865.736	9.94086
868.629	14.5583
871.521	11.266
874.414	11.8444
877.307	11.0998
880.199	4.93481
883.092	7.57196
885.985	30.4897
888.877	64.1707
891.77	100.818
894.663	144.88
897.556	197.061
900.448	243.297
903.341	284.977
906.234	309.506
909.126	326.024
912.019	323.954
914.912	307.703
917.804	284.704
920.697	257.74
923.59	213.204
926.482	165.739
929.375	114.556
932.268	69.5099
935.161	36.1289
938.053	11.3065
940.946	1.93823
943.839	2.18292
946.731	0.627777
949.624	2.24956
952.517	1.93588
955.409	4.02132
958.302	8.18687
961.195	11.4895
964.088	15.1192
966.98	19.6982
969.873	21.944
972.766	24.0067
975.658	28.2411
978.551	30.4221
981.444	33.7489
984.337	36.3434
987.229	37.4077
990.122	40.7507
993.015	41.5933
995.907	42.8017
998.8	41.8233
1001.69	38.9938
1004.59	36.7616
1007.48	34.7562
1010.37	28.891
1013.26	28.55
1016.16	23.435
1019.05	23.3602
1021.94	21.1817
1024.83	21.1689
1027.73	17.2286
1030.62	18.002
1033.51	14.2529
1036.4	16.4964
1039.3	12.8866
1042.19	11.6454
1045.08	12.2865
1047.98	7.57362
1050.87	8.57696
1053.76	8.43861
1056.65	8.14769
1059.55	6.54044
1062.44	4.64114
1065.33	4.08598
1068.22	4.43245
1071.12	3.53291
1074.01	3.28654
1076.9	3.51085
1079.8	0.753189
1082.69	0.929977
1085.58	0.925201
1088.47	2.08743
1091.37	0.672943
1094.26	1.22772
1097.15	0.808258
1100.04	1.58133
1102.94	0.229736
1105.83	1.17046
1108.72	1.52542
1111.62	1.59764
1114.51	2.24182
1117.4	2.37332
1120.29	0.862045
1123.19	0.464172
1126.08	1.38248
1128.97	0.420547
1131.86	0.586563
1134.76	0.542908
1137.65	2.70154
1140.54	0.374664
1143.43	0.70224
1146.33	0.145432
1149.22	0.305542
1152.11	0.736115
1155.01	0.331421
1157.9	0.202621
1160.79	0.570343
1163.68	1.09009
1166.58	0.47673
1169.47	1.60941
1172.36	1.02608
1175.26	1.89221
1178.15	0.604462
1181.04	1.16859
1183.93	2.673
1186.83	3.76134
1189.72	1.21211
1192.61	1.77947
1195.5	0.904312
1198.4	1.53056
1201.29	1.54678
1204.18	1.5533
1207.07	3.39291
1209.97	1.94438
1212.86	2.35446
1215.75	0.569016
1218.64	0.22612
1221.54	1.88763
1224.43	3.14246
1227.32	0.857864
1230.22	1.20734
1233.11	1.81493
1236	0.419434
1238.89	0.710724
1241.79	2.67955
1244.68	3.70076
1247.57	1.52315
1250.46	2.09847
1253.36	8.25571
1256.25	2.28134
1259.14	3.99783
1262.04	2.73596
1264.93	4.04741
1267.82	0.647369
1270.71	3.00349
1273.61	2.29067
1276.5	2.02412
1279.39	2.20656
1282.29	2.63805
1285.18	2.62495
1288.07	1.2263
1290.96	0.265594
1293.86	1.20837
1296.75	1.56726
1299.64	0.849945
1302.53	0.002731
