Measurement: Raman, 780 nm, unoriented, Raman Data Processed
Mineral: Armalcolite
Rruff sample: R110188
Ideal chemistry: (Mg,Fe^2+^)Ti_2_O_5_
Locality: Synthetic
Source: Hexiong Yang
Description: Transparent euhedral single crystal, synthesized at 1223 deg C with K2WO4 flux. Reheated to 1400 deg C for 5 hours, and quenched. The Mg and Ti are disordered. Crystals were used in the Yang and Hazen (1998) & the Liermann et al (2006) studies.
Measured chemistry: Mg_0.995(6)_Ti_2.005(5)_O_5_
Raman shift (cm-1)	intensity
148.975	0
151.868	55.5403
154.761	203.825
157.654	333.126
160.546	352.353
163.439	303.297
166.332	266.442
169.224	239.844
172.117	208.029
175.01	143.697
177.902	79.5633
180.795	27.6639
183.688	5.86877
186.581	10.4898
189.473	42.3688
192.366	85.7638
195.259	151.943
198.151	239.898
201.044	334.319
203.937	380.259
206.829	339.351
209.722	223.559
212.615	116.999
215.507	45.6101
218.4	1.82385
221.293	12.6973
224.186	10.527
227.078	4.49402
229.971	20.0702
232.864	64.2878
235.756	131.763
238.649	215.189
241.542	315.212
244.435	437.296
247.327	561.949
250.22	663.213
253.113	712.759
256.005	718.84
258.898	679.696
261.791	598.28
264.683	496.596
267.576	384.287
270.469	285.211
273.361	210.474
276.254	151.022
279.147	98.6621
282.04	59.5008
284.932	26.5267
287.825	3.67529
290.718	2.65442
293.61	8.98438
296.503	9.91016
299.396	3.28552
302.288	3.67248
305.181	24.4248
308.074	45.2849
310.967	71.941
313.859	108.925
316.752	145.038
319.645	177.586
322.537	201.319
325.43	220.796
328.323	238.56
331.216	246.505
334.108	252.199
337.001	267.038
339.894	271.557
342.786	271.422
345.679	273.159
348.572	272.112
351.464	271.021
354.357	268.46
357.25	264.45
360.142	253.922
363.035	242.58
365.928	222.594
368.821	208.401
371.713	187.969
374.606	158.605
377.499	139.969
380.391	110.49
383.284	90.1103
386.177	71.8423
389.07	55.4984
391.962	38.6198
394.855	36.3053
397.748	28.7275
400.64	19.923
403.533	14.3217
406.426	13.5234
409.318	9.25073
412.211	3.5769
415.104	2.95142
417.997	0.371826
420.889	2.63318
423.782	7.8291
426.675	12.1472
429.567	18.2418
432.46	28.658
435.353	37.436
438.245	52.7942
441.138	66.8092
444.031	76.0713
446.923	85.6641
449.816	96.105
452.709	103.231
455.602	104.285
458.494	111.504
461.387	116.373
464.28	120.404
467.172	122.741
470.065	130.271
472.958	135.746
475.851	145.28
478.743	144.369
481.636	140.91
484.529	134.287
487.421	120.389
490.314	103.353
493.207	85.5627
496.099	69.8633
498.992	56.2813
501.885	42.1313
504.777	37.7012
507.67	33.1431
510.563	22.0416
513.456	15.5947
516.348	8.73505
519.241	3.74744
522.134	3.54669
525.026	5.73889
527.919	6.86154
530.812	9.86105
533.705	9.49768
536.597	3.66373
539.49	2.55103
542.383	5.65411
545.275	11.447
548.168	17.2596
551.061	29.3505
553.953	41.1401
556.846	48.7539
559.739	55.6066
562.631	69.9128
565.524	80.1867
568.417	92.0964
571.31	106.428
574.202	119.041
577.095	131.046
579.988	140.975
582.88	144.519
585.773	148.746
588.666	145.876
591.558	139.852
594.451	130.22
597.344	123.944
600.237	116.321
603.129	110.672
606.022	106.49
608.915	101.629
611.807	94.5668
614.7	93.3087
617.593	94.934
620.486	95.902
623.378	104.522
626.271	108.458
629.164	125.168
632.056	140.136
634.949	163.188
637.842	191.472
640.734	215.969
643.627	247.048
646.52	271.148
649.413	280.816
652.305	281.21
655.198	258.209
658.091	228.847
660.983	190.559
663.876	157.151
666.769	119.656
669.661	93.4392
672.554	67.9312
675.447	52.48
678.34	37.3288
681.232	29.1896
684.125	19.169
687.018	10.9105
689.91	6.10382
692.803	3.62964
695.696	1.04547
698.588	7.86462
701.481	5.52875
704.374	7.51465
707.266	5.75989
710.159	4.10974
713.052	3.27386
715.945	1.56305
718.837	7.93976
721.73	12.293
724.623	21.3608
727.515	29.0858
730.408	45.2684
733.301	59.5363
736.193	71.7411
739.086	89.5149
741.979	107.459
744.872	136.746
747.764	168.362
750.657	206.263
753.55	240.439
756.442	284.924
759.335	323.547
762.228	371.274
765.12	418.545
768.013	468.087
770.906	503.474
773.799	533.596
776.691	551.347
779.584	558.681
782.477	542.338
785.369	514.145
788.262	475.789
791.155	432.782
794.048	391.085
796.94	335.617
799.833	283.264
802.726	241.09
805.618	207.24
808.511	176.839
811.404	153.989
814.296	126.652
817.189	109.297
820.082	91.9077
822.975	80.0742
825.867	68.2036
828.76	58.7311
831.653	48.7692
834.545	40.5196
837.438	36.5415
840.331	29.3758
843.223	19.8006
846.116	17.379
849.009	11.2441
851.902	4.90067
854.794	2.54941
857.687	3.08603
860.58	5.42822
863.472	5.2644
866.365	6.67444
869.258	2.92163
872.15	0.677307
875.043	8.74725
877.936	16.0178
880.829	30.9414
883.721	43.6384
886.614	68.1403
889.507	88.0278
892.399	112.518
895.292	136.435
898.185	152.186
901.077	164.637
903.97	172.923
906.863	172.87
909.756	167.159
912.648	159.882
915.541	146.269
918.434	135.499
921.326	124.35
924.219	101.296
927.112	85.1015
930.005	60.0415
932.897	43.8599
935.79	22.492
938.683	13.6876
941.575	3.36253
944.468	0.372864
947.361	1.81172
950.253	0.512756
953.146	0.506348
956.039	1.04083
958.932	2.487
961.824	4.33513
964.717	3.48691
967.61	5.45366
970.502	8.69305
973.395	8.46532
976.288	9.59732
979.18	11.8294
982.073	14.8184
984.966	16.8627
987.859	16.6897
990.751	18.663
993.644	17.4789
996.537	21.6257
999.429	22.1717
1002.32	21.9873
1005.22	19.4165
1008.11	16.991
1011	18.2886
1013.89	14.6185
1016.78	15.9977
1019.68	13.5703
1022.57	12.2093
1025.46	10.6732
1028.36	10.4504
1031.25	10.8935
1034.14	9.88422
1037.03	10.028
1039.93	10.2366
1042.82	7.44168
1045.71	7.32207
1048.61	6.91684
1051.5	6.92957
1054.39	4.49776
1057.28	4.2088
1060.18	5.091
1063.07	6.34248
1065.96	7.19228
1068.85	3.95703
1071.75	2.56766
1074.64	2.51106
1077.53	2.92035
1080.42	3.52757
1083.32	3.14432
1086.21	1.79854
1089.1	4.05249
1092	2.56314
1094.89	3.35597
1097.78	2.53778
1100.67	1.76056
1103.57	0.09996
1106.46	0.945938
1109.35	2.2482
1112.24	1.32837
1115.14	0.118149
1118.03	1.02837
1120.92	0.363327
1123.82	1.98593
1126.71	0.347733
1129.6	1.26395
1132.49	0.091232
1135.39	0.430206
1138.28	1.20938
1141.17	3.55046
1144.06	0.313583
1146.96	1.77303
1149.85	0.736267
1152.74	2.8875
1155.63	2.71341
1158.53	2.22668
1161.42	0.177048
1164.31	0.383286
1167.21	0.453156
1170.1	1.02106
1172.99	2.29392
1175.88	1.49709
1178.78	2.64435
1181.67	3.69659
1184.56	0.944168
1187.45	1.61034
1190.35	2.11191
1193.24	2.23178
1196.13	3.5045
1199.03	2.45606
1201.92	1.20579
1204.81	1.25059
1207.7	0.353592
1210.6	1.77913
1213.49	0.912735
1216.38	2.46422
1219.27	0.651917
1222.17	1.12503
1225.06	3.1478
1227.95	2.60228
1230.85	0.909729
1233.74	1.54376
1236.63	0.547379
1239.52	0.491257
1242.42	0.78067
1245.31	0.628845
1248.2	1.42779
1251.09	1.8818
1253.99	1.46361
1256.88	0.404495
1259.77	2.20972
1262.66	4.65482
1265.56	2.42709
1268.45	3.10957
1271.34	0.855377
1274.24	2.73731
1277.13	0.659256
1280.02	2.20167
1282.91	0.920639
