Measurement: Raman, 780 nm, unoriented, Raman Data Processed
Mineral: Armalcolite
Rruff sample: R070260
Ideal chemistry: (Mg,Fe^2+^)Ti_2_O_5_
Locality: Chelyabinsk Oblast', Urals Region, Russia
Source: Michael Scott
Description: Gray semimetallic, elongated tabular crystals on coal
Raman shift (cm-1)	intensity
127.762	0
131.137	5.15338
134.512	2.6848
137.887	12.6861
141.262	25.1806
144.636	48.4207
148.011	82.3462
151.386	128.834
154.761	174.319
158.136	200.311
161.51	201.239
164.885	185.014
168.26	152.297
171.635	121.219
175.01	94.7658
178.385	73.7165
181.759	52.496
185.134	36.6289
188.509	25.2337
191.884	18.0499
195.259	23.2552
198.633	29.4943
202.008	57.76
205.383	80.04
208.758	100.276
212.133	95.1316
215.507	87.1777
218.882	82.1742
222.257	74.164
225.632	67.2258
229.007	62.3519
232.382	61.5341
235.756	63.1452
239.131	65.6214
242.506	68.8637
245.881	63.7307
249.256	62.271
252.631	53.6743
256.005	39.3635
259.38	29.4197
262.755	17.322
266.13	11.0196
269.505	6.0412
272.879	1.71266
276.254	0.314026
279.629	2.58131
283.004	0.331985
286.379	3.22368
289.753	3.7473
293.128	1.86504
296.503	0.730728
299.878	3.2423
303.253	3.68664
306.628	6.18299
310.002	7.45438
313.377	11.8852
316.752	12.1206
320.127	14.9505
323.502	15.1201
326.877	11.203
330.251	13.7022
333.626	11.455
337.001	9.12354
340.376	9.14973
343.75	7.93435
347.125	7.29585
350.5	4.51705
353.875	5.93769
357.25	3.95773
360.625	4.44924
364	2.70267
367.374	3.44086
370.749	4.45296
374.124	1.73373
377.499	3.94443
380.873	4.23417
384.248	1.81316
387.623	2.96108
390.998	0.437813
394.373	2.53384
397.748	1.83283
401.122	1.0152
404.497	3.39396
407.872	1.54919
411.247	1.09354
414.622	2.42902
417.997	1.75451
421.371	2.87586
424.746	0.132988
428.121	2.94521
431.496	3.4388
434.871	1.53602
438.245	3.12304
441.62	4.14424
444.995	1.69137
448.37	4.79116
451.745	3.67533
455.12	4.63428
458.494	3.34606
461.869	5.97221
465.244	5.8018
468.619	5.3113
471.994	2.77906
475.368	3.21298
478.743	4.06591
482.118	0.33255
485.493	0.622536
488.868	1.18172
492.243	2.67029
495.617	1.40942
498.992	3.34524
502.367	2.43493
505.742	1.76149
509.117	2.4682
512.491	3.66089
515.866	1.03558
519.241	1.72474
522.616	1.29524
525.991	2.10959
529.365	2.06606
532.74	0.737312
536.115	0.583
539.49	0.021957
542.865	0.802315
546.24	0.511223
549.614	0.415436
552.989	0.492561
556.364	0.556541
559.739	0.167076
563.114	0.096214
566.489	0.969475
569.863	0.629265
573.238	1.77425
576.613	0.681732
579.988	3.19153
583.362	5.34085
586.737	2.40103
590.112	8.04444
593.487	8.60143
596.862	8.12263
600.237	7.30096
603.611	10.7249
606.986	12.5553
610.361	15.6273
613.736	15.7866
617.111	21.0615
620.486	21.4471
623.86	24.4489
627.235	27.5491
630.61	30.8695
633.985	31.7721
637.36	28.3431
640.734	29.555
644.109	26.9
647.484	26.0174
650.859	22.9821
654.234	17.6266
657.609	16.7985
660.983	16.2237
664.358	11.889
667.733	10.3908
671.108	9.10883
674.483	7.43684
677.857	6.28587
681.232	5.94714
684.607	4.57217
687.982	4.01061
691.357	2.36658
694.731	4.14178
698.106	0.186981
701.481	1.29933
704.856	0.01812
708.231	1.23316
711.606	1.30986
714.98	1.94472
718.355	0.503082
721.73	0.88694
725.105	3.26828
728.48	2.93726
731.855	0.728249
735.229	3.9333
738.604	6.06712
741.979	7.08058
745.354	12.7184
748.729	8.99116
752.103	14.4928
755.478	13.2169
758.853	16.8269
762.228	20.203
765.603	21.6897
768.977	20.4358
772.352	20.8491
775.727	20.6251
779.102	20.1208
782.477	19.3569
785.852	16.2209
789.226	15.0861
792.601	11.6093
795.976	10.6499
799.351	7.82385
802.726	7.28709
806.101	8.05362
809.475	5.29228
812.85	3.83252
816.225	6.4549
819.6	4.5984
822.975	3.19161
826.349	4.06895
829.724	2.25458
833.099	2.40492
836.474	0.119881
839.849	3.55006
843.223	1.14468
846.598	2.21651
849.973	1.61429
853.348	0.849564
856.723	2.47443
860.097	2.47549
863.472	2.02685
866.847	0.773087
870.222	1.41194
873.597	2.29135
876.972	0.184837
880.346	0.757393
883.721	0.484627
887.096	1.25279
890.471	1.25922
893.846	0.106339
897.221	0.629501
900.595	1.29265
903.97	1.69089
907.345	0.064812
910.72	2.06579
914.095	0.99662
917.469	1.84154
920.844	2.93481
924.219	0.909805
927.594	1.64203
930.969	0.507217
934.343	2.36936
937.718	2.50441
941.093	1.26307
944.468	3.15774
947.843	4.10786
951.218	2.84333
954.592	1.5929
957.967	0.8955
961.342	1.99938
964.717	0.740395
968.092	2.44953
971.466	2.46902
974.841	2.67127
978.216	0.167366
981.591	1.22881
984.966	2.48619
988.341	3.72551
991.715	0.918526
995.09	2.03508
998.465	2.26607
1001.84	0.789246
1005.22	2.5761
1008.59	0.573463
1011.96	1.44905
1015.34	2.03855
1018.71	0.223312
1022.09	0.660301
1025.46	1.07837
1028.84	0.36673
1032.21	0.266357
1035.59	1.99656
1038.96	0.983284
1042.34	1.45351
1045.71	2.32987
1049.09	0.707184
1052.46	2.41281
1055.84	0.794487
1059.21	1.87871
1062.59	1.65559
1065.96	2.32789
1069.34	3.00512
1072.71	1.1797
1076.09	1.71565
1079.46	2.22161
1082.84	1.52707
1086.21	2.5145
1089.59	1.21609
1092.96	1.06622
1096.34	0.051697
1099.71	2.56012
1103.08	0.206558
1106.46	1.52499
1109.83	0.173744
1113.21	1.72143
1116.58	0.599861
1119.96	0.129044
1123.33	2.22279
1126.71	0.160461
1130.08	0.348068
1133.46	2.10854
1136.83	2.43832
1140.21	0.293953
1143.58	1.51575
1146.96	0.606346
1150.33	2.59151
1153.71	1.7951
1157.08	1.04954
1160.46	1.20525
1163.83	0.197807
1167.21	2.75784
1170.58	1.3433
1173.96	3.55901
1177.33	2.37955
1180.7	1.08168
1184.08	1.683
1187.45	1.07286
1190.83	2.65802
1194.2	2.24168
1197.58	1.53085
1200.95	2.08437
1204.33	0.864716
1207.7	0.440994
1211.08	0.941391
1214.45	0.474869
1217.83	0.916901
1221.2	0.807457
1224.58	1.95519
1227.95	2.89941
1231.33	1.63827
1234.7	2.64896
1238.08	0.940414
1241.45	2.85278
1244.83	0.879997
1248.2	0.039841
1251.58	1.34453
1254.95	2.69558
1258.33	0.100082
1261.7	1.38265
1265.08	1.78082
1268.45	0.324257
1271.83	2.2528
1275.2	0.354599
1278.58	1.25695
1281.95	0.087616
1285.32	0
