Measurement: Raman, 532 nm, unoriented, Raman Data Processed
Mineral: Arrojadite-(KFe)
Rruff sample: R070319
Ideal chemistry: (KNa)Fe^2+^(CaNa_2_)Fe^2+^_13_Al(PO_4_)_11_(PO_3_OH)(OH)_2_
Locality: Nickel Plate mine, Keystone District, Pennington County, South Dakota, USA
Source: James Shigley
Description: Green massive
Measured chemistry: (K_0.67_Na_1.33_)_Σ=2_Fe^2+^_1.00_(Ca_0.80_Na_2.20_)_Σ=3_(Fe^2+^_7.53_Mn_4.65_Mg_0.64_Al_0.16_Ti_0.02_)_Σ=13_Al_1.00_(P_1.00_O_4_)_11_(P_1.00_O_3_OH)(OH)_2_; OH estimated by charge balance
Raman shift (cm-1)	intensity
157.376	0
160.268	20.0352
163.161	29.1143
166.054	13.4824
168.946	29.2168
171.839	232.457
174.732	197.833
177.625	135.331
180.517	209.12
183.41	50.0107
186.303	56.3467
189.195	170.259
192.088	127.024
194.981	159.086
197.874	237.531
200.766	252.118
203.659	292.941
206.552	439.037
209.444	428.771
212.337	435.336
215.23	427.702
218.122	419.331
221.015	435.513
223.908	416.683
226.8	382.218
229.693	371.542
232.586	234.846
235.479	252.413
238.371	196.881
241.264	139.88
244.157	187.225
247.049	146.589
249.942	120.798
252.835	58.2978
255.727	112.415
258.62	127.624
261.513	109.387
264.406	59.5928
267.298	159.855
270.191	84.5859
273.084	129.473
275.976	103.457
278.869	149.982
281.762	201.267
284.655	131.913
287.547	121.44
290.44	91.2178
293.333	102.921
296.225	83.791
299.118	81.5625
302.011	105.494
304.904	48.79
307.796	159.324
310.689	165.632
313.582	307.942
316.474	260.999
319.367	261.364
322.26	244.996
325.152	233.695
328.045	264.643
330.938	173.921
333.83	170.336
336.723	183.024
339.616	154.947
342.509	125.097
345.401	70.8555
348.294	63.0488
351.187	93.2041
354.079	60.9961
356.972	72.291
359.865	22.6689
362.757	40.9844
365.65	84.7188
368.543	69.2188
371.436	51.2471
374.328	69.0381
377.221	36.4522
380.114	14.6807
383.006	187.169
385.899	269.977
388.792	390.402
391.685	531.724
394.577	792.505
397.47	944.976
400.363	1180.67
403.255	1494.69
406.148	1843.56
409.041	2303.01
411.933	2683.21
414.826	3095.02
417.719	3244.08
420.611	3257.62
423.504	3036.95
426.397	2847.84
429.29	2768
432.182	2508.09
435.075	2606.17
437.968	2494.05
440.86	2275.49
443.753	2146.17
446.646	2079.06
449.538	2105.53
452.431	2078.41
455.324	2088.93
458.217	2105.46
461.109	2203.84
464.002	2246.42
466.895	2200.22
469.787	2048.78
472.68	1846.81
475.573	1766.14
478.466	1453.65
481.358	1200.65
484.251	867.407
487.144	761.629
490.036	563.038
492.929	450.626
495.822	324.416
498.714	341.366
501.607	436.087
504.5	484.571
507.393	541.07
510.285	347.397
513.178	283.526
516.071	69.1553
518.963	164.141
521.856	221.106
524.749	170.736
527.641	61.123
530.534	167.548
533.427	481.935
536.32	826.983
539.212	1292.54
542.105	2039.04
544.998	2839.88
547.89	3579.68
550.783	3782.29
553.676	3901.17
556.568	3688.92
559.461	3337.94
562.354	3054.15
565.247	2830.2
568.139	2887.61
571.032	3113.8
573.925	2986.06
576.817	2939.87
579.71	2822.6
582.603	2549.02
585.495	2386.71
588.388	2163.39
591.281	2005.22
594.174	2002.82
597.066	1906.27
599.959	2024.35
602.852	1861.82
605.744	1630.62
608.637	1419.23
611.53	1144.45
614.423	948.5
617.315	760.084
620.208	688.209
623.101	865.447
625.993	1123.02
628.886	1385.68
631.779	1688.27
634.671	1810.58
637.564	1759.4
640.457	1638.86
643.35	1210.58
646.242	972.989
649.135	535.668
652.028	365.67
654.92	131.181
657.813	80.0371
660.706	9.0752
663.598	54.919
666.491	45.8477
669.384	50.0527
672.277	53.041
675.169	6.34375
678.062	8.93457
680.955	74.1826
683.847	26.5664
686.74	24.0391
689.633	6.07324
692.525	36.1611
695.418	93.3272
698.311	71.5205
701.204	53.96
704.096	92.1309
706.989	151.45
709.882	178.244
712.774	238.106
715.667	227.196
718.56	177.228
721.452	154.78
724.345	257.289
727.238	195.236
730.131	211.352
733.023	184.205
735.916	259.747
738.809	127.285
741.701	151.177
744.594	130.595
747.487	183.67
750.38	196.058
753.272	145.106
756.165	191.769
759.058	197.837
761.95	118.865
764.843	79.1543
767.736	198.641
770.628	91.5059
773.521	19.6924
776.414	77.335
779.307	86.5957
782.199	77.8115
785.092	69.7793
787.985	32.7012
790.877	34.9961
793.77	106.505
796.663	58.2148
799.555	157.433
802.448	82.9492
805.341	91.9131
808.234	128.185
811.126	104.208
814.019	172.781
816.912	152.602
819.804	256.846
822.697	400.704
825.59	498.647
828.482	593.54
831.375	824.69
834.268	861.819
837.16	922.738
840.053	1043.07
842.946	987.842
845.839	1121.67
848.731	1016.12
851.624	995.819
854.517	919.592
857.409	761.58
860.302	560.227
863.195	408.598
866.087	299.126
868.98	135.58
871.873	26.4658
874.766	16.9678
877.658	88.3691
880.551	173.206
883.444	144.619
886.337	130.756
889.229	31.0908
892.122	109.706
895.015	77.8184
897.907	23.1729
900.8	128.663
903.693	300.692
906.585	420.2
909.478	614.996
912.371	969.049
915.264	1262.36
918.156	1625.19
921.049	2076.59
923.942	2678.1
926.834	3416.56
929.727	4312.23
932.62	5147.81
935.512	6023.78
938.405	6994.19
941.298	7654.86
944.191	8619.63
947.083	9965.88
949.976	11448.8
952.869	12904.5
955.761	13922.5
958.654	14340.7
961.547	14092.5
964.439	13822.4
967.332	14398.8
970.225	16027.5
973.117	18086.4
976.01	20594.1
978.903	22219.5
981.796	23394
984.688	23553.4
987.581	22655.9
990.474	20922.2
993.366	18296.9
996.259	15436.5
999.152	12484.7
1002.04	9774.94
1004.94	7685.56
1007.83	6025.76
1010.72	4686.42
1013.62	3744.11
1016.51	2902.71
1019.4	2259.67
1022.29	1691.56
1025.19	1203.06
1028.08	781.83
1030.97	521.762
1033.86	171.147
1036.76	130.014
1039.65	55.2188
1042.54	107.932
1045.43	82.4219
1048.33	100.144
1051.22	203.168
1054.11	174.215
1057.01	122.768
1059.9	81.9512
1062.79	43.0391
1065.68	85.7773
1068.58	165.672
1071.47	194.344
1074.36	218.768
1077.26	208.977
1080.15	169.598
1083.04	212.863
1085.93	107.492
1088.83	204.68
1091.72	143.268
1094.61	290.603
1097.5	372.551
1100.4	410.965
1103.29	547.668
1106.18	754.408
1109.07	833.477
1111.97	933.582
1114.86	964.529
1117.75	1161.9
1120.64	1041
1123.54	876.018
1126.43	855.465
1129.32	710.848
1132.22	666.912
1135.11	577.541
1138	656.041
1140.89	582.494
1143.79	609.285
1146.68	534.607
1149.57	413.66
1152.46	438.488
1155.36	348.18
1158.25	355.969
1161.14	243.871
1164.04	190.16
1166.93	48.8408
1169.82	49.6758
1172.71	23.5625
1175.61	74.4062
1178.5	37.0059
1181.39	12.5547
1184.29	40.9404
1187.18	71.8564
1190.07	146.496
1192.96	163.045
1195.86	99.4922
1198.75	132.902
1201.64	145.774
1204.53	188.921
1207.43	131.47
1210.32	188.045
1213.21	124.816
1216.1	175.909
1219	180.399
1221.89	146.874
1224.78	159.457
1227.67	115.97
1230.57	183.16
1233.46	103.23
1236.35	120.615
1239.25	158.912
1242.14	65.3125
1245.03	122.084
1247.92	142.275
1250.82	95.0508
1253.71	102.066
1256.6	119.369
1259.49	69.543
1262.39	51.4629
1265.28	235.352
1268.17	116.035
1271.07	94.375
1273.96	92.1309
1276.85	96.5938
1279.74	106.18
1282.64	166.342
1285.53	133.625
1288.42	117.023
1291.32	119.022
1294.21	151.676
1297.1	60.8262
1299.99	112.287
1302.88	114.211
1305.78	44.2441
