Measurement: Raman, 532 nm, unoriented, Raman Data Processed
Mineral: Arrojadite-(NaFe)
Rruff sample: R070298
Ideal chemistry: Na_2_Fe^2+^(CaNa2)Fe^2+^_13_Al(PO_4_)_11_(PO_3_OH)(OH)_2_
Locality: Boundary Creek, Richardson Mountains, Dawson mining district, Yukon Territory, Canada
Source: Mark Mauthner
Description: Dark bluish grey fragments
Measured chemistry: (Na_1.80_K_0.20_)_Σ=2_Fe^2+^_1.00_(Ca_0.90_Na_2.10_)_Σ=3_(Fe^2+^_10.71_Mg_1.40_Mn_0.89_)_Σ=13_(Al_0.90_Ti_0.05_Fe^3+^_0.05_)_Σ=1_(P_1.00_O_4_)_11_(P_1.00_O_3_OH)((OH)_1.15_F_0.85_)_Σ=2_; (OH) by stoichiometry and charge balance
Raman shift (cm-1)	intensity
149.18	0
152.554	37.0832
155.929	92.8119
159.304	79.5996
162.679	75.9227
166.054	96.0596
169.429	120.936
172.803	126.985
176.178	128.276
179.553	122.895
182.928	80.4939
186.303	118.472
189.678	148.247
193.052	128.791
196.427	135.352
199.802	129.565
203.177	122.669
206.552	104.611
209.926	70.7692
213.301	35.0015
216.676	83.5331
220.051	7.89612
223.426	16.033
226.8	9.93213
230.175	20.2512
233.55	7.4718
236.925	32.6663
240.3	66.5613
243.675	55.515
247.049	75.5664
250.424	59.8415
253.799	69.2449
257.174	79.2639
260.549	90.8291
263.923	113.66
267.298	109.895
270.673	93.0792
274.048	86.5745
277.423	62.2371
280.798	69.6519
284.173	49.2549
287.547	71.2341
290.922	48.395
294.297	51.3547
297.672	30.0498
301.046	12.0242
304.421	7.84155
307.796	3.41492
311.171	10.5171
314.546	11.9592
317.921	16.3417
321.295	43.3963
324.67	23.0713
328.045	39.3688
331.42	54.4752
334.795	69.2253
338.17	68.1239
341.544	87.1406
344.919	131.541
348.294	159.042
351.669	151.347
355.044	176.83
358.418	139.765
361.793	135.951
365.168	58.3762
368.543	18.9435
371.918	34.4036
375.293	29.9603
378.667	9.04236
382.042	5.26556
385.417	25.9397
388.792	95.0468
392.167	179.165
395.541	232.484
398.916	335.069
402.291	414.565
405.666	477.844
409.041	531.376
412.416	598.384
415.79	638.407
419.165	716.937
422.54	795.476
425.915	833.548
429.29	876.549
432.664	885.096
436.039	867.066
439.414	860.825
442.789	833.877
446.164	764.939
449.538	703.2
452.913	663.613
456.288	654.227
459.663	623.499
463.038	595.854
466.413	566.7
469.787	499.055
473.162	450.393
476.537	423.439
479.912	395.326
483.287	361.029
486.661	304.534
490.036	216.805
493.411	177.106
496.786	149.753
500.161	131.809
503.536	141.627
506.911	104.793
510.285	82.1012
513.66	14.6967
517.035	51.7578
520.41	61.8984
523.784	4.31549
527.159	41.5731
530.534	136.647
533.909	209.884
537.284	282.627
540.659	432.61
544.033	606.404
547.408	738.468
550.783	738.54
554.158	651.314
557.533	615.466
560.908	640.929
564.282	650.855
567.657	717.291
571.032	760.759
574.407	721.859
577.782	639.735
581.156	556.465
584.531	517.162
587.906	467.136
591.281	481.358
594.656	415.618
598.031	458.167
601.405	430.363
604.78	361.637
608.155	287.39
611.53	195.71
614.905	128.087
618.279	105.072
621.654	118.084
625.029	163.667
628.404	272.256
631.779	412.204
635.154	581.082
638.528	684.617
641.903	702.717
645.278	601.15
648.653	440.874
652.028	293.648
655.403	168.204
658.777	99.0175
662.152	65.0158
665.527	36.3497
668.902	15.9346
672.277	0.512817
675.651	15.215
679.026	10.577
682.401	19.5341
685.776	17.6544
689.151	4.9892
692.525	1.02777
695.9	22.5847
699.275	5.06061
702.65	29.9946
706.025	26.2385
709.399	23.7445
712.774	61.493
716.149	60.169
719.524	67.539
722.899	82.1508
726.274	67.9467
729.648	91.8593
733.023	94.5237
736.398	89.2462
739.773	81.5773
743.148	79.3232
746.523	68.1893
749.897	64.7513
753.272	47.8906
756.647	44.9631
760.022	25.5954
763.397	22.9655
766.771	29.7087
770.146	34.9277
773.521	10.492
776.896	6.59558
780.271	7.982
783.646	7.05432
787.02	1.85315
790.395	1.39673
793.77	8.06073
797.145	30.7142
800.52	67.9207
803.894	109.941
807.269	142.788
810.644	223.89
814.019	308.544
817.394	379.68
820.769	475.385
824.143	589.424
827.518	744.48
830.893	988.891
834.268	1262.47
837.643	1622.26
841.018	1947.27
844.392	2173.26
847.767	2239.78
851.142	2207.91
854.517	2036.3
857.891	1745.9
861.266	1445.51
864.641	1130.32
868.016	878.338
871.391	575.214
874.766	330.613
878.14	148.732
881.515	6.98682
884.89	40.2162
888.265	87.1824
891.64	130.722
895.015	111.49
898.389	8.9967
901.764	179.955
905.139	500.847
908.514	815.287
911.889	1145.04
915.264	1281
918.638	1307.51
922.013	1416.94
925.388	1711.64
928.763	2200.06
932.138	2729.31
935.512	3071.14
938.887	3175.86
942.262	3312.3
945.637	3593.61
949.012	4049.3
952.386	4658.01
955.761	5356.45
959.136	6088.02
962.511	6487.96
965.886	6808.37
969.261	7547.38
972.635	8583.51
976.01	9550.08
979.385	9933.63
982.76	9523.88
986.135	8549.53
989.51	7340.38
992.884	6305.52
996.259	5403.24
999.634	4728.98
1003.01	3961.61
1006.38	3173.65
1009.76	2494.66
1013.13	1937.71
1016.51	1588.72
1019.88	1268.79
1023.26	908.801
1026.63	664.171
1030.01	410.624
1033.38	264.097
1036.76	116.241
1040.13	44.4805
1043.51	37.6609
1046.88	33.9464
1050.26	50.8055
1053.63	70.8452
1057.01	74.474
1060.38	49.4336
1063.76	51.2664
1067.13	14.9951
1070.51	15.2156
1073.88	23.2606
1077.26	68.1787
1080.63	63.8829
1084	117.854
1087.38	158.06
1090.75	166.826
1094.13	230.604
1097.5	203.297
1100.88	210.518
1104.25	215.356
1107.63	197.762
1111	174.815
1114.38	176.238
1117.75	161.468
1121.13	132.63
1124.5	129.945
1127.88	133.633
1131.25	154.088
1134.63	157.935
1138	132.483
1141.38	115.905
1144.75	126.567
1148.13	123.612
1151.5	106.922
1154.88	89.5737
1158.25	84.2559
1161.62	63.7021
1165	40.2546
1168.38	62.8387
1171.75	59.7341
1175.12	59.1908
1178.5	20.5926
1181.87	8.33069
1185.25	2.14569
1188.62	1.00641
1192	5.59808
1195.37	10.2798
1198.75	1.79291
1202.12	3.60065
1205.5	44.2909
1208.87	40.6169
1212.25	32.374
1215.62	31.9044
1219	54.675
1222.37	54.5193
1225.75	30.5998
1229.12	34.0907
1232.5	42.1909
1235.87	55.8748
1239.25	63.6311
1242.62	52.6801
1246	32.9359
1249.37	63.526
1252.74	38.4797
1256.12	41.8638
1259.49	46.3128
1262.87	31.676
1266.24	37.7508
1269.62	32.984
1272.99	39.6307
1276.37	40.5207
1279.74	31.0954
1283.12	33.4363
1286.49	28.2969
1289.87	28.0211
1293.24	9.6412
1296.62	12.3432
1299.99	19.9434
1303.37	3.86304
1306.74	0.02121
