Measurement: Raman, 785 nm, unoriented, Raman Data Processed
Mineral: Arrojadite-(NaFe)
Rruff sample: R070298
Ideal chemistry: Na_2_Fe^2+^(CaNa2)Fe^2+^_13_Al(PO_4_)_11_(PO_3_OH)(OH)_2_
Locality: Boundary Creek, Richardson Mountains, Dawson mining district, Yukon Territory, Canada
Source: Mark Mauthner
Description: Dark bluish grey fragments
Measured chemistry: (Na_1.80_K_0.20_)_Σ=2_Fe^2+^_1.00_(Ca_0.90_Na_2.10_)_Σ=3_(Fe^2+^_10.71_Mg_1.40_Mn_0.89_)_Σ=13_(Al_0.90_Ti_0.05_Fe^3+^_0.05_)_Σ=1_(P_1.00_O_4_)_11_(P_1.00_O_3_OH)((OH)_1.15_F_0.85_)_Σ=2_; (OH) by stoichiometry and charge balance
Raman shift (cm-1)	intensity
159.107	0
161.999	61.3621
164.892	50.0686
167.785	90.168
170.677	74.303
173.57	77.4341
176.463	111.535
179.356	65.9902
182.248	100.601
185.141	156.331
188.034	160.805
190.926	225.523
193.819	236.898
196.712	258.316
199.604	236.298
202.497	247.82
205.39	237.892
208.282	165.271
211.175	77.6824
214.068	99.7172
216.961	41.3002
219.853	10.048
222.746	9.83337
225.639	25.9189
228.531	12.6649
231.424	9.42517
234.317	47.4053
237.209	37.1051
240.102	76.2968
242.995	50.0214
245.888	67.654
248.78	41.8579
251.673	49.9475
254.566	63.9379
257.458	101.802
260.351	56.8578
263.244	114.213
266.137	141.396
269.029	144.892
271.922	139.024
274.815	180.719
277.707	204.929
280.6	191.041
283.493	162.102
286.385	160.55
289.278	124.384
292.171	140.162
295.063	104.606
297.956	118.376
300.849	67.3093
303.742	93.0288
306.634	57.8998
309.527	55.5985
312.42	42.5365
315.312	79.2455
318.205	32.3323
321.098	11.1633
323.99	24.8832
326.883	1.91602
329.776	27.2498
332.669	8.68701
335.561	28.8494
338.454	5.12207
341.347	11.8383
344.239	12.2639
347.132	16.8995
350.025	16.8449
352.918	26.8607
355.81	1.03906
358.703	9.97009
361.596	8.22559
364.488	4.06934
367.381	0.031982
370.274	12.1003
373.166	5.44055
376.059	32.6532
378.952	38.2068
381.844	94.2064
384.737	130.092
387.63	202.127
390.523	286.272
393.415	347.797
396.308	463.075
399.201	559.456
402.093	643.718
404.986	705.771
407.879	769.892
410.772	795.956
413.664	838.41
416.557	853.55
419.45	902.843
422.342	958.292
425.235	972.565
428.128	965
431.02	938.088
433.913	938.972
436.806	863.581
439.699	856.998
442.591	815.079
445.484	836.962
448.377	773.174
451.269	794.338
454.162	682.782
457.055	644.344
459.947	636.538
462.84	599.505
465.733	607.162
468.625	607.485
471.518	564.229
474.411	544.063
477.304	522.66
480.196	477.903
483.089	416.389
485.982	384.969
488.874	284.039
491.767	216.449
494.66	162.261
497.553	121.401
500.445	88.764
503.338	61.3735
506.231	21.1004
509.123	13.4684
512.016	-2.08488
514.909	7.69471
517.802	19.3728
520.694	8.00611
523.587	-3.86161
526.48	39.4823
529.372	113.254
532.265	204.454
535.158	291.4
538.05	461.78
540.943	624.79
543.836	781.479
546.729	960.213
549.621	949.19
552.514	857.454
555.407	761.556
558.299	641.46
561.192	563.246
564.085	561.812
566.977	560.183
569.87	602.33
572.763	615.031
575.655	625.481
578.548	623.191
581.441	641.416
584.333	607.46
587.226	646.587
590.119	669.018
593.012	677.727
595.904	664.774
598.797	685.162
601.69	644.494
604.582	630.038
607.475	594.175
610.368	561.556
613.26	479.418
616.153	424.577
619.046	340.686
621.939	403.195
624.831	387.022
627.724	493.254
630.617	640.552
633.509	799.854
636.402	995.079
639.295	1042.03
642.188	995.316
645.08	800.06
647.973	623.79
650.866	384.211
653.758	232.626
656.651	168.967
659.544	117.261
662.436	85.7253
665.329	64.4236
668.222	32.9534
671.115	3.42255
674.007	13.28
676.9	22.9098
679.793	10.6278
682.685	14.3133
685.578	12.97
688.471	25.6513
691.363	9.7594
694.256	11.9561
697.149	11.0036
700.042	14.7753
702.934	17.5718
705.827	26.6438
708.72	25.6416
711.612	61.9982
714.505	53.9954
717.398	32.413
720.29	54.5651
723.183	61.4665
726.076	62.359
728.968	72.5474
731.861	58.038
734.754	73.5983
737.647	90.0618
740.539	78.181
743.432	50.8897
746.325	64.5184
749.217	24.8391
752.11	10.9144
755.003	44.1341
757.895	43.7622
760.788	53.9002
763.681	6.89502
766.574	21.9891
769.466	17.2611
772.359	4.61432
775.252	44.2499
778.144	23.1308
781.037	1.90778
783.93	35.6797
786.822	18.7
789.715	8.3808
792.608	11.3713
795.501	19.608
798.393	31.3587
801.286	31.0858
804.179	62.7282
807.071	70.2383
809.964	90.7457
812.857	128.879
815.75	144.742
818.642	190.169
821.535	196.417
824.428	223.952
827.32	327.817
830.213	366.389
833.106	427.269
835.998	560.734
838.891	688.304
841.784	716.382
844.677	791.053
847.569	788.612
850.462	806.702
853.355	756.629
856.247	681.678
859.14	635.984
862.033	525.024
864.925	424.545
867.818	346
870.711	247.272
873.604	191.257
876.496	92.7559
879.389	14.1987
882.282	8.72573
885.174	11.4377
888.067	14.9408
890.96	8.84179
893.852	2.53407
896.745	6.79195
899.638	5.49915
902.53	75.0857
905.423	235.25
908.316	392.647
911.209	490.972
914.101	613.039
916.994	629.434
919.887	610.668
922.779	626.339
925.672	733.412
928.565	913.001
931.457	1120.68
934.35	1322.97
937.243	1415.97
940.136	1431.52
943.028	1498.29
945.921	1558.36
948.814	1681.64
951.706	1887.01
954.599	2079.4
957.492	2400.67
960.385	2601.61
963.277	2860.1
966.17	2984.16
969.063	3226.2
971.955	3629.49
974.848	4121.61
977.741	4448.77
980.633	4547.62
983.526	4640
986.419	4288.28
989.312	3903.57
992.204	3581.5
995.097	3325.25
997.99	3078.82
1000.88	2760.81
1003.77	2413.71
1006.67	2033.31
1009.56	1650.88
1012.45	1378.18
1015.35	1144.57
1018.24	941.651
1021.13	799.309
1024.02	629.553
1026.92	507.704
1029.81	356.446
1032.7	253.05
1035.6	197.13
1038.49	128.518
1041.38	84.2334
1044.27	75.9679
1047.17	66.6612
1050.06	46.5287
1052.95	9.45129
1055.84	9.14558
1058.74	4.35506
1061.63	7.81498
1064.52	3.56358
1067.41	1.3202
1070.31	2.48996
1073.2	5.39288
1076.09	3.54933
1078.98	-2.10608
1081.88	74.986
1084.77	94.8625
1087.66	135.384
1090.56	205.483
1093.45	212.992
1096.34	225.778
1099.23	263.776
1102.13	216.587
1105.02	212.094
1107.91	265.034
1110.81	256.447
1113.7	283.313
1116.59	328.2
1119.48	334.784
1122.38	386.192
1125.27	418.189
1128.16	462.905
1131.05	483.152
1133.95	431.892
1136.84	386.409
1139.73	332.547
1142.62	279.896
1145.52	221.562
1148.41	249.085
1151.3	175.588
1154.19	151.054
1157.09	130.994
1159.98	122.83
1162.87	74.5872
1165.77	76.5966
1168.66	62.6124
1171.55	61.1904
1174.44	52.392
1177.34	44.8338
1180.23	3.88348
1183.12	9.43237
1186.02	10.8353
1188.91	8.01977
1191.8	25.9294
1194.69	33.0301
1197.59	3.89746
1200.48	46.5362
1203.37	62.4814
1206.26	43.2455
1209.16	45.7601
1212.05	17.1922
1214.94	56.5322
1217.84	24.2158
1220.73	30.5514
1223.62	13.8263
1226.51	19.4291
1229.41	18.4168
1232.3	40.5101
1235.19	21.0079
