Measurement: Raman, 785 nm, unoriented, Raman Data Processed
Mineral: Arrojadite-(KFe)
Rruff sample: R070319
Ideal chemistry: (KNa)Fe^2+^(CaNa_2_)Fe^2+^_13_Al(PO_4_)_11_(PO_3_OH)(OH)_2_
Locality: Nickel Plate mine, Keystone District, Pennington County, South Dakota, USA
Source: James Shigley
Description: Green massive
Measured chemistry: (K_0.67_Na_1.33_)_Σ=2_Fe^2+^_1.00_(Ca_0.80_Na_2.20_)_Σ=3_(Fe^2+^_7.53_Mn_4.65_Mg_0.64_Al_0.16_Ti_0.02_)_Σ=13_Al_1.00_(P_1.00_O_4_)_11_(P_1.00_O_3_OH)(OH)_2_; OH estimated by charge balance
Raman shift (cm-1)	intensity
150.429	0
153.321	57.1427
156.214	69.42
159.107	0.300537
161.999	8.11792
164.892	45.4265
167.785	106.432
170.677	119.813
173.57	135.539
176.463	121.719
179.356	106.252
182.248	106.204
185.141	87.7075
188.034	115.255
190.926	137.845
193.819	143.292
196.712	158.721
199.604	166.776
202.497	200.501
205.39	199.398
208.282	198.432
211.175	185.195
214.068	167.345
216.961	209.638
219.853	177.764
222.746	182.373
225.639	147.475
228.531	114.597
231.424	117.166
234.317	115.286
237.209	104.179
240.102	57.3052
242.995	85.1598
245.888	71.8407
248.78	40.0159
251.673	13.1128
254.566	2.54773
257.458	32.3417
260.351	40.9285
263.244	34.879
266.137	35.9141
269.029	31.9297
271.922	52.8281
274.815	47.3693
277.707	23.0055
280.6	46.8804
283.493	32.1459
286.385	27.0414
289.278	6.70557
292.171	10.1605
295.063	30.3315
297.956	6.59021
300.849	5.29089
303.742	5.85425
306.634	22.8294
309.527	23.4445
312.42	35.4053
315.312	47.5266
318.205	51.6375
321.098	18.9977
323.99	40.4276
326.883	57.1705
329.776	78.1019
332.669	72.4719
335.561	52.5074
338.454	26.0795
341.347	24.8497
344.239	23.3412
347.132	21.7982
350.025	1.68774
352.918	26.6924
355.81	5.94812
358.703	7.16675
361.596	29.2888
364.488	22.4106
367.381	4.53967
370.274	1.84106
373.166	0.316284
376.059	30.7733
378.952	51.9833
381.844	53.5035
384.737	72.5089
387.63	109.491
390.523	133.492
393.415	179.841
396.308	201.128
399.201	242.797
402.093	322.551
404.986	363.823
407.879	433.232
410.772	457.419
413.664	511.832
416.557	545.413
419.45	521.228
422.342	552.307
425.235	542.854
428.128	518.937
431.02	504.899
433.913	522.206
436.806	560.473
439.699	551.94
442.591	555.027
445.484	510.902
448.377	565.265
451.269	548.46
454.162	545.329
457.055	525.579
459.947	566.595
462.84	542.437
465.733	560.944
468.625	498.137
471.518	461.53
474.411	420.06
477.304	378.409
480.196	307.44
483.089	229.838
485.982	178.536
488.874	139.546
491.767	111.506
494.66	69.2045
497.553	96.8545
500.445	93.6918
503.338	76.0933
506.231	121.873
509.123	132.449
512.016	74.075
514.909	39.8259
517.802	7.92322
520.694	48.4792
523.587	39.2747
526.48	22.6931
529.372	8.36914
532.265	46.7579
535.158	97.6442
538.05	156.816
540.943	268.991
543.836	413.986
546.729	526.419
549.621	613.223
552.514	654.37
555.407	662.315
558.299	599.147
561.192	554.632
564.085	543.788
566.977	554.333
569.87	579.33
572.763	593.404
575.655	567.541
578.548	538.871
581.441	483.216
584.333	415.523
587.226	426.957
590.119	394.449
593.012	389.332
595.904	403.521
598.797	448.556
601.69	440.12
604.582	402.671
607.475	353.189
610.368	277.164
613.26	240.436
616.153	186.044
619.046	157.49
621.939	205.196
624.831	235.322
627.724	289.903
630.617	389.119
633.509	421.712
636.402	433.589
639.295	377.894
642.188	286.368
645.08	205.629
647.973	134.998
650.866	107.808
653.758	68.1402
656.651	47.3213
659.544	32.4039
662.436	12.5046
665.329	20.2219
668.222	5.18439
671.115	9.80249
674.007	12.8422
676.9	3.56488
679.793	5.67938
682.685	5.9754
685.578	14.059
688.471	7.75934
691.363	18.6045
694.256	22.7036
697.149	6.26416
700.042	24.4738
702.934	43.702
705.827	37.0898
708.72	38.0477
711.612	31.4737
714.505	32.4329
717.398	45.8863
720.29	40.0418
723.183	56.358
726.076	49.1311
728.968	44.496
731.861	70.8138
734.754	62.7421
737.647	47.6965
740.539	49.8367
743.432	47.3237
746.325	49.5105
749.217	33.9134
752.11	47.0224
755.003	31.8889
757.895	15.9869
760.788	52.5421
763.681	25.355
766.574	28.8368
769.466	47.7273
772.359	25.6304
775.252	43.5602
778.144	39.8063
781.037	1.61743
783.93	23.0779
786.822	35.1131
789.715	39.1987
792.608	20.206
795.501	39.9645
798.393	27.7834
801.286	8.77789
804.179	33.6314
807.071	31.7958
809.964	19.8452
812.857	29.3292
815.75	29.5309
818.642	41.4155
821.535	85.3245
824.428	62.7448
827.32	96.5487
830.213	127.174
833.106	83.7183
835.998	127.186
838.891	120.056
841.784	125.572
844.677	122.336
847.569	86.8511
850.462	111.532
853.355	97.7416
856.247	74.0778
859.14	62.0412
862.033	71.0358
864.925	32.8481
867.818	10.9111
870.711	21.1879
873.604	35.694
876.496	12.2612
879.389	32.3613
882.282	32.1122
885.174	23.8978
888.067	13.2712
890.96	15.229
893.852	0.502686
896.745	17.1348
899.638	60.3813
902.53	65.3976
905.423	89.7561
908.316	86.2097
911.209	146.085
914.101	198.113
916.994	249.878
919.887	340.364
922.779	406.311
925.672	518.38
928.565	679.054
931.457	830.72
934.35	1027.99
937.243	1129.78
940.136	1262.2
943.028	1420.07
945.921	1613
948.814	1851.85
951.706	2101.07
954.599	2294.33
957.492	2471.66
960.385	2321.37
963.277	2334.29
966.17	2315.93
969.063	2513.43
971.955	2900.04
974.848	3270.47
977.741	3534.66
980.633	3793.82
983.526	3880.74
986.419	3818.38
989.312	3566.42
992.204	3161.59
995.097	2669.52
997.99	2228.18
1000.88	1656.48
1003.77	1347.6
1006.67	1052.17
1009.56	806.604
1012.45	647.368
1015.35	476.625
1018.24	397.512
1021.13	289.79
1024.02	241.943
1026.92	170.621
1029.81	57.8169
1032.7	16.9857
1035.6	0.494629
1038.49	7.55023
1041.38	12.7567
1044.27	20.6146
1047.17	26.1164
1050.06	12.8763
1052.95	21.7486
1055.84	3.45319
1058.74	1.17487
1061.63	16.4287
1064.52	6.15814
1067.41	11.1599
1070.31	28.6658
1073.2	36.0801
1076.09	23.0393
1078.98	28.6844
1081.88	58.4471
1084.77	17.8745
1087.66	50.8707
1090.56	5.79169
1093.45	7.73193
1096.34	45.0138
1099.23	48.2003
1102.13	58.6571
1105.02	63.3738
1107.91	51.1647
1110.81	86.965
1113.7	55.058
1116.59	67.5795
1119.48	78.4278
1122.38	62.4943
1125.27	86.9809
1128.16	72.316
1131.05	67.7806
1133.95	64.0273
1136.84	97.6691
1139.73	61.6464
1142.62	61.9508
1145.52	36.7531
1148.41	72.9591
1151.3	74.5876
1154.19	54.982
1157.09	39.8874
1159.98	40.0446
1162.87	32.3563
1165.77	27.1536
1168.66	18.9232
1171.55	8.45477
1174.44	0.90509
1177.34	37.9262
1180.23	11.4732
1183.12	0.271179
1186.02	8.96735
1188.91	15.2545
1191.8	28.8517
1194.69	49.5128
1197.59	28.8896
1200.48	35.6305
1203.37	50.5723
1206.26	43.0698
1209.16	28.5753
1212.05	30.7872
1214.94	19.433
1217.84	11.6145
1220.73	42.231
1223.62	40.4224
1226.51	23.9355
