Measurement: Raman, 780 nm, unoriented, Raman Data Processed
Mineral: Arsenolite
Rruff sample: R050383
Ideal chemistry: As^3+^_2_O_3_
Locality: Eureka, Nevada, USA
Source: University of Arizona Mineral Museum
Description: Colorless hoppered octahedra
Measured chemistry: As_2.00_O_3_
Raman shift (cm-1)	intensity
107.951	0
111.326	5.01532
114.701	9.21896
118.076	11.3677
121.45	4.74278
124.825	17.5909
128.2	26.3133
131.575	22.6197
134.95	8.71307
138.325	0.806107
141.699	0.332901
145.074	2.30647
148.449	0.225571
151.824	4.34721
155.199	8.9794
158.573	25.4471
161.948	127.19
165.323	234.885
168.698	238.287
172.073	354.138
175.447	471.33
178.822	661.749
182.197	1418.92
185.572	651.186
188.947	58.2994
192.322	24.8001
195.696	15.7191
199.071	9.45698
202.446	6.50453
205.821	1.6815
209.196	0.382599
212.571	5.30853
215.945	8.01858
219.32	1.26266
222.695	6.13985
226.07	12.0714
229.445	6.20078
232.819	11.3894
236.194	17.7153
239.569	27.0529
242.944	53.7383
246.319	244.86
249.694	1268.33
253.068	1082.74
256.443	1511.6
259.818	2104.54
263.193	2982.24
266.567	6144.23
269.942	5505.85
273.317	210.098
276.692	54.2898
280.067	24.4259
283.442	8.91257
286.816	6.30434
290.191	7.23184
293.566	4.0137
296.941	4.76476
300.316	1.43626
303.69	2.78197
307.065	1.41667
310.44	0.6082
313.815	0.880325
317.19	2.11635
320.565	7.27869
323.939	9.97421
327.314	7.30826
330.689	1.99825
334.064	10.5151
337.439	21.1109
340.813	42.1919
344.188	99.6312
347.563	342.215
350.938	1960.28
354.313	2447.99
357.688	3228.82
361.062	4812.94
364.437	7209.21
367.812	14306.5
371.187	13104.5
374.562	1483.61
377.937	559.781
381.311	333.879
384.686	196.459
388.061	99.1
391.436	41.8369
394.81	23.1679
398.185	10.8809
401.56	5.12289
404.935	9.74843
408.31	15.3429
411.685	36.4793
415.059	51.6998
418.434	6.62044
421.809	2.81956
425.184	2.06642
428.559	0.977539
431.933	2.03143
435.308	4.51842
438.683	8.6404
442.058	22.6762
445.433	40.5273
448.808	78.3058
452.182	165.335
455.557	266.071
458.932	346.887
462.307	490.918
465.682	733.845
469.057	1081.73
472.431	911.599
475.806	335.084
479.181	121.538
482.556	48.1602
485.931	16.6681
489.305	6.46187
492.68	6.78359
496.055	4.67618
499.43	2.85738
502.805	0.632187
506.18	3.65761
509.554	13.7281
512.929	2.47476
516.304	11.4619
519.679	15.806
523.054	31.7755
526.428	46.8486
529.803	75.1859
533.178	95.9728
536.553	130.656
539.928	205.442
543.303	620.71
546.677	877.755
550.052	1197.72
553.427	1778.7
556.802	2883.3
560.177	4344.76
563.551	1366
566.926	274.388
570.301	102.689
573.676	49.2699
577.051	27.3466
580.426	18.5229
583.8	13.1372
587.175	10.3407
590.55	9.67696
593.925	14.4711
597.299	20.334
600.674	10.2851
604.049	4.83134
607.424	1.22979
610.799	5.73838
614.174	2.72462
617.548	1.69582
620.923	0.018456
624.298	5.87645
627.673	5.35935
631.048	8.09238
634.423	6.47876
637.797	8.01893
641.172	8.88944
644.547	6.41339
647.922	10.1216
651.297	8.5742
654.671	8.87913
658.046	10.5374
661.421	12.7782
664.796	12.597
668.171	11.3085
671.545	11.4689
674.92	12.138
678.295	14.2485
681.67	15.636
685.045	15.7554
688.42	14.6878
691.794	4.81294
695.169	1.2915
698.544	0.301056
701.919	1.04458
705.294	0.491295
708.668	1.32937
712.043	0.749916
715.418	3.91545
718.793	0.151947
722.168	0.020218
725.543	2.08875
728.917	1.44595
732.292	3.74371
735.667	1.794
739.042	1.68851
742.417	8.58827
745.791	8.81381
749.166	8.36689
752.541	12.7973
755.916	24.6692
759.291	37.9179
762.665	69.3941
766.04	179.585
769.415	257.102
772.79	390.119
776.165	601.877
779.54	1064.26
782.914	686.161
786.289	145.59
789.664	51.2919
793.039	24.3152
796.414	14.9652
799.788	8.18518
803.163	4.89428
806.538	4.74432
809.913	4.55232
813.288	4.06831
816.663	7.98785
820.037	6.28936
823.412	9.41183
826.787	14.6872
830.162	6.80807
833.537	2.12381
836.912	1.36466
840.286	2.05261
843.661	1.64303
847.036	1.59393
850.411	2.0433
853.786	1.69401
857.16	4.16495
860.535	2.70519
863.91	1.72607
867.285	0.158195
870.66	1.57265
874.034	0.646461
877.409	1.25246
880.784	4.82008
884.159	5.97646
887.534	1.73798
890.909	4.91787
894.283	1.8285
897.658	3.66995
901.033	3.45872
904.408	1.32721
907.783	0.797852
911.158	2.34232
914.532	3.00019
917.907	6.66722
921.282	6.60443
924.657	4.61217
928.032	5.60837
931.406	4.62938
934.781	4.7139
938.156	3.17973
941.531	3.31838
944.906	4.46359
948.28	6.14811
951.655	3.94842
955.03	3.17078
958.405	3.97173
961.78	3.48703
965.154	2.53852
968.529	4.59359
971.904	0.848465
975.279	0.342918
978.654	1.18965
982.029	2.70043
985.403	3.8069
988.778	1.45192
992.153	1.61537
995.528	1.09089
998.903	0.495613
1002.28	0.721252
1005.65	0.023361
1009.03	0.058952
1012.4	3.17427
1015.78	5.37047
1019.15	4.86533
1022.53	1.9516
1025.9	4.89857
1029.28	4.75195
1032.65	6.61736
1036.03	2.1622
1039.4	8.73232
1042.78	4.45987
1046.15	2.74336
1049.53	5.05281
1052.9	5.55435
1056.28	5.02461
1059.65	3.71163
1063.02	5.22106
1066.4	2.76858
1069.77	5.04111
1073.15	0.990631
1076.52	3.2896
1079.9	2.14415
1083.27	0.709312
1086.65	0.058067
1090.02	2.15914
1093.4	2.52546
1096.77	1.06168
1100.15	2.5048
1103.52	3.54636
1106.9	3.64484
1110.27	4.66133
1113.65	2.82973
1117.02	0.43132
1120.4	1.7056
1123.77	1.33321
1127.15	0.403175
1130.52	3.85613
1133.89	3.70303
1137.27	3.27128
1140.64	6.20735
1144.02	6.3015
1147.39	2.4991
1150.77	1.98354
1154.14	1.19067
1157.52	3.98377
1160.89	6.0623
1164.27	1.74843
1167.64	1.86682
1171.02	0.408447
1174.39	8.24202
1177.77	1.59022
1181.14	2.17812
1184.52	3.15874
1187.89	2.1245
1191.27	1.50186
1194.64	3.53725
1198.02	5.68436
1201.39	2.36385
1204.77	0.719818
1208.14	0.479507
1211.52	4.87357
1214.89	5.07562
1218.27	4.63826
1221.64	3.56369
1225.02	8.80257
1228.39	8.88159
1231.77	7.06024
1235.14	3.72339
1238.52	8.97554
1241.89	7.65295
1245.26	4.49095
1248.64	8.07165
1252.01	4.52232
1255.39	3.47954
1258.76	3.76251
1262.14	5.51035
1265.51	4.11131
1268.89	6.68907
1272.26	5.70882
1275.64	1.14491
1279.01	0.262985
