Measurement: Raman, 780 nm, unoriented, Raman Data Processed
Mineral: Arsenopyrite
Rruff sample: R050071
Ideal chemistry: FeAsS
Locality: Yaogangxian mine, Yizhang County, Hunan Province, China
Source: Rock Currier
Description: Steel-gray tabular
Measured chemistry: FeAsS
Raman shift (cm-1)	intensity
115.457	0
118.831	39.5835
122.206	102.006
125.581	278.557
128.956	314.459
132.331	327.319
135.705	293.052
139.08	206.018
142.455	62.721
145.83	111.992
149.205	27.3329
152.579	61.2754
155.954	91.0228
159.329	117.299
162.704	88.2424
166.079	161.833
169.454	223.591
172.828	175.467
176.203	96.7694
179.578	55.545
182.953	56.681
186.328	39.5361
189.702	104.264
193.077	208.95
196.452	152.75
199.827	136.695
203.202	150.641
206.577	165.672
209.951	47.5527
213.326	76.8369
216.701	83.494
220.076	1.08435
223.451	65.584
226.826	45.7095
230.2	15.553
233.575	51.4149
236.95	24.9482
240.325	60.2957
243.7	0.9328
247.074	16.4934
250.449	76.4035
253.824	24.2257
257.199	46.7291
260.574	100.013
263.949	99.0776
267.323	101.495
270.698	232.547
274.073	140.918
277.448	99.7439
280.823	199.012
284.197	281.758
287.572	334.113
290.947	393.131
294.322	356.971
297.697	301.566
301.072	258.725
304.446	242.485
307.821	284.979
311.196	256.299
314.571	236.73
317.946	198.258
321.32	251.448
324.695	254.186
328.07	289.844
331.445	208.864
334.82	240.266
338.195	259.681
341.569	292.973
344.944	279.691
348.319	295.517
351.694	264.804
355.069	282.45
358.443	215.308
361.818	242.546
365.193	125.685
368.568	113.012
371.943	123.234
375.317	14.0802
378.692	54.984
382.067	43.8116
385.442	33.8315
388.817	23.6443
392.192	48.6945
395.566	75.8338
398.941	80.3897
402.316	161.46
405.691	166.011
409.066	112.977
412.44	103.714
415.815	128.035
419.19	2.64037
422.565	123.903
425.94	82.1932
429.315	90.9655
432.689	73.3082
436.064	64.6478
439.439	81.1512
442.814	95.5665
446.189	19.1659
449.563	52.8558
452.938	26.856
456.313	36.8095
459.688	20.0559
463.063	99.1
466.438	50.1164
469.812	104.7
473.187	98.3377
476.562	69.7225
479.937	18.7188
483.312	41.7553
486.687	90.4659
490.061	24.8752
493.436	125.252
496.811	3.16367
500.186	12.9284
503.561	75.8089
506.935	64.7707
510.31	91.3057
513.685	40.3474
517.06	56.158
520.435	74.0473
523.809	24.8712
527.184	77.8791
530.559	72.4596
533.934	28.8012
537.309	151.206
540.684	81.3951
544.058	79.8318
547.433	58.2475
550.808	60.0115
554.183	32.1453
557.558	79.1586
560.933	74.3617
564.307	45.4365
567.682	49.5181
571.057	78.8366
574.432	112.832
577.807	79.2059
581.181	73.5207
584.556	62.4316
587.931	51.2422
591.306	60.4198
594.681	46.3853
598.056	54.8473
601.43	99.2269
604.805	39.4578
608.18	40.5949
611.555	94.9922
614.93	5.44204
618.304	54.2686
621.679	51.2981
625.054	65.6965
628.429	79.8449
631.804	0.289108
635.178	12.8013
638.553	37.472
641.928	91.8529
645.303	45.9475
648.678	12.1204
652.053	27.0503
655.427	79.0294
658.802	50.3469
662.177	38.145
665.552	63.5323
668.927	84.5911
672.302	71.5501
675.676	11.8392
679.051	53.4224
682.426	10.3815
685.801	9.25746
689.176	87.6339
692.55	87.1352
695.925	4.98177
699.3	57.5535
702.675	70.0697
706.05	53.1531
709.424	73.9509
712.799	86.0057
716.174	62.9752
719.549	66.0647
722.924	79.7854
726.299	0.400597
729.673	103.276
733.048	102.692
736.423	56.0318
739.798	113.476
743.173	6.72661
746.548	34.7755
749.922	59.2227
753.297	19.6395
756.672	85.8149
760.047	18.6493
763.422	64.0772
766.796	115.118
770.171	38.0767
773.546	54.2578
776.921	91.8893
780.296	70.7273
783.67	71.3103
787.045	51.2326
790.42	79.0844
793.795	19.1091
797.17	53.7771
800.545	40.0468
803.919	52.9619
807.294	53.3292
810.669	89.7883
814.044	69.9556
817.419	28.9035
820.793	60.7413
824.168	21.9565
827.543	17.3985
830.918	33.9094
834.293	66.228
837.668	29.3384
841.042	19.1728
844.417	6.17436
847.792	75.864
851.167	46.8946
854.542	19.6392
857.917	60.5401
861.291	15.5777
864.666	73.663
868.041	118.227
871.416	46.3767
874.791	65.6714
878.165	9.20256
881.54	16.2315
884.915	55.9042
888.29	57.3953
891.665	31.3725
895.039	44.9935
898.414	97.8868
901.789	20.9555
905.164	25.0285
908.539	74.664
911.914	9.50078
915.288	34.0784
918.663	50.6331
922.038	2.58941
925.413	54.471
928.788	91.1083
932.163	54.8517
935.537	25.6091
938.912	92.9031
942.287	85.0536
945.662	73.9412
949.037	47.6593
952.411	41.7316
955.786	42.2963
959.161	69.0365
962.536	5.21813
965.911	7.91596
969.285	29.4472
972.66	15.1838
976.035	69.9886
979.41	5.16788
982.785	93.4023
986.159	49.54
989.534	27.8061
992.909	60.7547
996.284	81.6812
999.659	36.3857
1003.03	71.0323
1006.41	81
1009.78	42.6479
1013.16	77.6879
1016.53	23.3493
1019.91	70.1032
1023.28	15.0204
1026.66	57.5733
1030.03	66.1419
1033.41	8.50144
1036.78	55.1302
1040.16	52.6217
1043.53	31.0073
1046.91	47.2102
1050.28	44.779
1053.66	76.5917
1057.03	31.8332
1060.41	9.09131
1063.78	90.7991
1067.15	45.4061
1070.53	110.063
1073.9	29.0205
1077.28	3.34998
1080.65	14.162
1084.03	60.2854
1087.4	82.5379
1090.78	27.2305
1094.15	58.3689
1097.53	22.355
1100.9	56.5401
1104.28	2.12249
1107.65	53.2057
1111.03	41.1839
1114.4	37.7475
1117.78	33.3779
1121.15	34.4466
1124.53	36.2098
1127.9	59.013
1131.28	31.821
1134.65	49.9912
1138.03	16.0001
1141.4	73.6579
1144.78	16.9593
1148.15	100.772
1151.53	25.2265
1154.9	5.18235
1158.28	30.415
1161.65	56.4537
1165.03	62.4896
1168.4	68.6834
1171.78	72.1606
1175.15	47.2557
1178.52	80.3341
1181.9	14.2174
1185.27	65.8563
1188.65	93.7207
1192.02	35.612
1195.4	46.9124
1198.77	45.8925
1202.15	45.2206
1205.52	56.8604
1208.9	64.9288
1212.27	64.9728
1215.65	116.474
1219.02	33.3916
1222.4	82.427
1225.77	54.7995
1229.15	88.8259
1232.52	92.9397
1235.9	86.9785
1239.27	111.969
1242.65	62.1922
1246.02	0.846961
1249.39	106.969
1252.77	36.705
1256.14	54.898
1259.52	72.8729
1262.89	91.8297
1266.27	109.177
1269.64	85.2063
1273.02	3.58015
