Measurement: Raman, 532 nm, unoriented, Raman Data Processed
Mineral: Arsenogorceixite
Rruff sample: R060686
Ideal chemistry: BaAl_3_As^5+^O_4_(As^5+^O_3_OH)(OH)_6_
Locality: Clara mine, Rankach Valley, Oberwolfach, Wolfach, Black Forest, Baden-WÃ¼rttemberg, Germany
Source: Michael Scott
Description: Stacked aggregates of pale greenish-yellow hexagonal plates
Raman shift (cm-1)	intensity
143.7	0
146.593	430.394
149.486	1273.41
152.378	1925.23
155.271	1815.98
158.164	1558.9
161.057	768.269
163.949	299.215
166.842	18.8545
169.735	143.428
172.627	27.4111
175.52	151.045
178.413	590.46
181.305	1277.55
184.198	2370.62
187.091	3649.25
189.984	5321.48
192.876	6407.53
195.769	6856.2
198.662	6380.42
201.554	5352.16
204.447	4545.26
207.34	3799.54
210.232	3306.73
213.125	2873.94
216.018	2696.51
218.911	2528.97
221.803	2557.23
224.696	2586.26
227.589	2424.76
230.481	2185.93
233.374	1770.27
236.267	1388.6
239.159	984.047
242.052	758.769
244.945	741.86
247.837	662.655
250.73	656.665
253.623	796.653
256.516	774.994
259.408	892.606
262.301	1028.05
265.194	1092.71
268.086	1019.93
270.979	909.816
273.872	820.216
276.764	857.556
279.657	933.106
282.55	797.589
285.443	950.062
288.335	1002.7
291.228	1126.11
294.121	1251.62
297.013	1360.23
299.906	1579.86
302.799	1917.07
305.691	2075.59
308.584	2172.01
311.477	1883.88
314.37	1624.4
317.262	1303.06
320.155	1001.08
323.048	669.46
325.94	488.468
328.833	310.508
331.726	170.425
334.618	30.9482
337.511	2.72266
340.404	65.5938
343.297	71.1816
346.189	117.404
349.082	5.17481
351.975	18.2734
354.867	135.4
357.76	18.2363
360.653	27.6523
363.545	11.0107
366.438	14.8408
369.331	25.2402
372.224	305.49
375.116	289.81
378.009	262.598
380.902	277.59
383.794	529.006
386.687	753.87
389.58	856.76
392.472	929.069
395.365	1004.43
398.258	1213.7
401.151	1248.12
404.043	1583.2
406.936	1834.16
409.828	2184.85
412.721	2313.24
415.614	2424.57
418.507	2505.61
421.399	2441.49
424.292	2168.11
427.185	1906.87
430.077	1527.7
432.97	1211.53
435.863	965.246
438.755	614.697
441.648	301.885
444.541	116.949
447.434	54.3145
450.326	97.543
453.219	19.0137
456.112	102.686
459.004	0.144531
461.897	377.43
464.79	510.85
467.682	523.943
470.575	740.518
473.468	1033.12
476.361	1156.78
479.253	1405.79
482.146	1612.69
485.039	1808.2
487.931	1942.22
490.824	1870.85
493.717	1751.87
496.609	1646.34
499.502	1576.61
502.395	1593.29
505.288	1769.41
508.18	2011.13
511.073	2385.56
513.966	2691.27
516.858	3001.59
519.751	3320.81
522.644	3426.7
525.536	3234.82
528.429	2929.02
531.322	2448.26
534.214	1931.83
537.107	1202.88
540	709.658
542.893	456.15
545.785	282.215
548.678	100.299
551.571	42.1016
554.463	24.6895
557.356	90.5879
560.249	36.6172
563.141	35.2324
566.034	225.522
568.927	180.049
571.82	149.01
574.712	268.232
577.605	210.877
580.498	281.338
583.39	261.768
586.283	311.25
589.176	300.67
592.068	375.471
594.961	222.58
597.854	332.438
600.747	252.963
603.639	409.06
606.532	322.402
609.425	357.592
612.317	293.99
615.21	336.508
618.103	138.758
620.995	202.019
623.888	250.992
626.781	177.182
629.674	80.8125
632.566	0.232422
635.459	9.38672
638.352	41.793
641.244	12.6289
644.137	10.0312
647.03	96.8984
649.922	51.7207
652.815	188.109
655.708	112.211
658.601	65.7461
661.493	44.6035
664.386	33.8145
667.279	118.746
670.171	152.49
673.064	206.815
675.957	140.56
678.849	68.6484
681.742	136.277
684.635	319.984
687.528	331.574
690.42	415.625
693.313	546.662
696.206	540.463
699.098	599.648
701.991	644.641
704.884	828.564
707.776	1117.32
710.669	1349.65
713.562	1714.44
716.455	2118
719.347	2586.75
722.24	3296.57
725.133	3797.53
728.025	4089.7
730.918	4271.43
733.811	4069.38
736.703	3744.14
739.596	3285.41
742.489	2825.84
745.381	2476.53
748.274	2233.79
751.167	1645.57
754.06	1151.76
756.952	955.551
759.845	762.373
762.738	541.322
765.63	405.721
768.523	282.098
771.416	179.596
774.308	4.60742
777.201	129.006
780.094	113.115
782.987	143.648
785.879	163.799
788.772	97.6523
791.665	16.4688
794.557	91.0918
797.45	123.914
800.343	161.559
803.235	284.783
806.128	459.56
809.021	605.314
811.914	691.812
814.806	949.059
817.699	1287.1
820.592	1384.88
823.484	1754.25
826.377	2150.89
829.27	2605.89
832.162	3271.96
835.055	3699.64
837.948	4455.83
840.841	5029.9
843.733	5831.97
846.626	6512.64
849.519	7281.91
852.411	8026.97
855.304	8726.66
858.197	9346.98
861.089	10047
863.982	10644.8
866.875	11054.5
869.767	11528.4
872.66	11873.6
875.553	11750.4
878.445	11902.7
881.338	11694.1
884.231	11034.5
887.124	10140.9
890.016	9492.47
892.909	8700.74
895.802	7982.42
898.694	7066.06
901.587	6287.37
904.48	5675.44
907.372	4875.07
910.265	4017.19
913.158	3438.8
916.05	2759.96
918.943	2094.37
921.836	1913.51
924.729	1576.42
927.621	1263.77
930.514	973.771
933.407	695.041
936.299	486.881
939.192	447.725
942.085	93.5723
944.977	74.1269
947.87	138.676
950.763	100.57
953.656	125.268
956.548	162.803
959.441	40.8105
962.334	23.3223
965.226	56.9961
968.119	157.617
971.012	66.7188
973.904	121.059
976.797	322.887
979.69	288.74
982.583	274.258
985.475	199.69
988.368	217.348
991.261	226.844
994.153	236.037
997.046	267.131
999.939	384.977
1002.83	402.67
1005.72	253.113
1008.62	364.086
1011.51	318.225
1014.4	284.043
1017.29	198.176
1020.19	247.486
1023.08	71.2832
1025.97	377.397
1028.87	403.307
1031.76	334.961
1034.65	216.654
1037.54	363.611
1040.44	284.055
1043.33	153.943
1046.22	108.432
1049.12	126.695
1052.01	191.244
1054.9	131.209
1057.79	220.053
1060.68	54.1484
1063.58	45.7969
1066.47	49.4258
1069.36	40.6309
1072.26	96.1406
1075.15	6.26172
1078.04	8.52539
1080.93	56.1484
1083.83	102.33
1086.72	210.875
1089.61	200.051
1092.51	150.244
1095.4	237.15
1098.29	319.914
1101.18	383.81
1104.08	296.094
1106.97	369.25
1109.86	269.852
1112.75	206.115
1115.65	215.31
1118.54	294.141
1121.43	91.3769
1124.33	73.6406
1127.22	157.172
1130.11	330.623
1133	324.43
1135.9	109.279
1138.79	189.588
1141.68	176.728
1144.57	55.6309
1147.47	99.3438
1150.36	110.029
1153.25	216.242
1156.14	240.303
1159.04	194.615
1161.93	323.106
1164.82	99.8144
1167.71	35.5801
1170.61	28.0469
1173.5	23.1289
1176.39	237.955
1179.29	209.518
1182.18	192.697
1185.07	214.443
1187.96	208.852
1190.86	209.279
1193.75	218.734
1196.64	231.891
1199.54	229.318
1202.43	189.873
1205.32	144.1
1208.21	91.7246
1211.11	146.065
1214	117.715
1216.89	37.9414
1219.78	76.1738
1222.68	19.6055
1225.57	76.1172
1228.46	105.336
1231.36	90.9004
1234.25	173.898
1237.14	125.662
1240.03	180.156
1242.92	87.4141
1245.82	81.1641
1248.71	303.377
1251.6	157.828
1254.5	12.6758
1257.39	121.197
1260.28	0
