Measurement: Raman, 780 nm, unoriented, Raman Data Processed
Mineral: Arsenbrackebuschite
Rruff sample: R100184
Ideal chemistry: Pb^2+^_2_(Fe^3+^,Zn^2+^)(As^5+^O_4_)_2_(OH,H_2_O)
Locality: Mina Ojuela (Campo Sur), Mapimi, Durango, Mexico
Source: Marcus Origlieri
Description: Yellow to yellowish-orange wedge shaped crystals associated with mimetite and segnitite
Raman shift (cm-1)	intensity
151.834	0
154.727	12.511
157.62	16.8332
160.512	19.8054
163.405	7.19641
166.298	0.361816
169.19	4.84546
172.083	7.03394
174.976	21.9701
177.869	34.8367
180.761	44.2241
183.654	64.907
186.547	85.4628
189.439	112.666
192.332	149.693
195.225	170.023
198.117	173.959
201.01	165.24
203.903	147.607
206.796	123.394
209.688	99.6617
212.581	76.6354
215.474	57.4462
218.366	34.3687
221.259	16.7588
224.152	6.49835
227.044	3.92078
229.937	8.23676
232.83	4.55713
235.722	1.64764
238.615	11.2025
241.508	21.2541
244.401	32.5864
247.293	52.156
250.186	72.4162
253.079	88.7771
255.971	109.567
258.864	128.126
261.757	146.029
264.649	157.658
267.542	161.24
270.435	151.935
273.328	130.37
276.22	100.1
279.113	75.2629
282.006	59.6636
284.898	49.2506
287.791	63.7732
290.684	85.3127
293.576	125.728
296.469	171.541
299.362	227.903
302.255	288.133
305.147	351.467
308.04	413.296
310.933	449.486
313.825	424.317
316.718	366.815
319.611	305.611
322.503	264.243
325.396	241.572
328.289	234.989
331.182	240.903
334.074	244.589
336.967	259.075
339.86	259.954
342.752	250.941
345.645	214.45
348.538	161.918
351.43	98.9579
354.323	50.4997
357.216	24.8942
360.108	8.60944
363.001	2.17975
365.894	3.50171
368.787	1.00104
371.679	0.291992
374.572	0.86438
377.465	4.79895
380.357	3.53449
383.25	1.07507
386.143	0.04248
389.036	0.57605
391.928	3.59405
394.821	3.99936
397.714	7.93124
400.606	13.6846
403.499	26.6561
406.392	39.0074
409.284	54.3321
412.177	78.7294
415.07	106.412
417.962	133.33
420.855	161.576
423.748	190.003
426.641	208.689
429.533	224.318
432.426	219.698
435.319	211.21
438.211	195.034
441.104	182.322
443.997	176.246
446.889	174.535
449.782	178.666
452.675	185.803
455.567	204.062
458.46	228.336
461.353	250.36
464.246	276.521
467.138	301.072
470.031	316.865
472.924	317.133
475.816	289.26
478.709	236.388
481.602	180.62
484.495	127.566
487.387	83.3561
490.28	55.3878
493.173	40.3301
496.065	26.8007
498.958	17.5773
501.851	8.62103
504.743	3.05762
507.636	2.91519
510.529	0.02005
513.422	2.59387
516.314	1.15759
519.207	1.55048
522.1	0.058319
524.992	6.85764
527.885	11.405
530.778	17.4373
533.67	20.5226
536.563	29.2596
539.456	31.6065
542.348	39.9263
545.241	42.0176
548.134	42.529
551.027	48.2039
553.919	45.7363
556.812	40.6418
559.705	39.9212
562.597	34.5425
565.49	26.0455
568.383	21.9557
571.275	16.4521
574.168	8.74911
577.061	8.75833
579.954	3.72186
582.846	3.00839
585.739	0.492706
588.632	1.85547
591.524	2.39002
594.417	3.14081
597.31	5.60571
600.202	9.94348
603.095	13.4474
605.988	19.9227
608.881	26.4522
611.773	33.4136
614.666	39.0906
617.559	43.7044
620.451	46.6848
623.344	40.6402
626.237	31.3836
629.129	22.1625
632.022	19.9859
634.915	17.4599
637.808	14.2819
640.7	14.243
643.593	12.6527
646.486	11.2977
649.378	11.4414
652.271	9.68503
655.164	7.76886
658.056	10.2008
660.949	4.30148
663.842	5.20087
666.735	2.41164
669.627	4.90308
672.52	3.70377
675.413	3.01393
678.305	1.07385
681.198	1.83185
684.091	0.632721
686.983	0.379059
689.876	2.46777
692.769	0.507935
695.662	1.83484
698.554	2.21698
701.447	5.52109
704.34	4.85739
707.232	10.6658
710.125	17.1278
713.018	18.9892
715.91	27.8404
718.803	34.1597
721.696	36.8572
724.588	43.5043
727.481	42.2473
730.374	38.9615
733.266	33.3598
736.159	29.3475
739.052	22.4799
741.945	16.9842
744.837	11.9115
747.73	9.84747
750.623	7.73642
753.515	5.31976
756.408	3.35635
759.301	1.98599
762.193	3.47797
765.086	8.34958
767.979	3.6134
770.872	1.75809
773.764	2.21793
776.657	10.1716
779.55	20.4354
782.442	34.3437
785.335	50.0901
788.228	70.8245
791.12	91.525
794.013	121.981
796.906	157.424
799.799	203.424
802.691	262.997
805.584	341.946
808.477	422.982
811.369	515.769
814.262	609.44
817.155	707.77
820.048	762.386
822.94	777.628
825.833	731.137
828.726	673.469
831.618	620.269
834.511	581.363
837.404	559.428
840.296	539.248
843.189	515.662
846.082	494.593
848.975	460.209
851.867	437.026
854.76	415.424
857.653	402.302
860.545	383.045
863.438	358.198
866.331	315.932
869.223	262.583
872.116	204.577
875.009	153.253
877.901	110.727
880.794	78.6137
883.687	58.2714
886.58	37.5094
889.472	21.3416
892.365	17.0902
895.258	11.0517
898.15	5.5358
901.043	1.43825
903.936	0.319855
906.828	2.84131
909.721	4.27893
912.614	4.2329
915.506	1.95558
918.399	2.97177
921.292	2.18172
924.185	0.081314
927.077	1.16724
929.97	1.49489
932.863	3.49869
935.755	3.62247
938.648	5.39668
941.541	8.19038
944.433	9.22191
947.326	11.7561
950.219	14.6823
953.112	20.1521
956.004	26.519
958.897	32.6394
961.79	42.063
964.682	48.7004
967.575	51.7129
970.468	52.3916
973.361	50.1363
976.253	42.3165
979.146	40.0281
982.039	44.1446
984.931	55.977
987.824	70.3841
990.717	85.9194
993.609	96.0948
996.502	94.467
999.395	79.574
1002.29	54.0654
1005.18	26.9849
1008.07	13.6988
1010.97	6.57135
1013.86	5.22737
1016.75	2.44988
1019.64	4.68774
1022.54	3.0038
1025.43	2.47691
1028.32	1.62523
1031.21	0.979904
1034.11	1.24425
1037	1.26913
1039.89	1.10542
1042.79	1.89671
1045.68	0.17337
1048.57	0.249466
1051.46	0.408005
1054.36	2.21464
1057.25	4.05351
1060.14	5.83362
1063.03	7.36237
1065.93	9.63747
1068.82	11.323
1071.71	15.0897
1074.61	15.3655
1077.5	17.5083
1080.39	17.9832
1083.28	19.1663
1086.18	19.7803
1089.07	21.1278
1091.96	21.3183
1094.85	19.481
1097.75	20.6672
1100.64	15.8707
1103.53	17.9699
1106.42	16.7008
1109.32	14.3555
1112.21	10.8144
1115.1	11.0909
1117.99	10.6563
1120.89	7.39961
1123.78	5.43095
1126.67	6.44063
1129.57	6.45094
1132.46	6.65747
1135.35	5.27649
1138.24	9.46927
1141.14	10.4811
1144.03	12.2563
1146.92	10.9228
1149.82	12.4535
1152.71	11.4087
1155.6	10.1491
1158.49	8.77721
1161.39	8.48358
1164.28	6.41171
1167.17	8.50868
1170.06	6.06384
1172.96	5.42983
1175.85	4.27983
1178.74	2.19199
1181.63	3.51895
1184.53	1.22501
1187.42	0.246979
1190.31	1.40762
1193.21	1.30933
1196.1	0.35701
1198.99	0.009262
1201.88	0.132004
1204.78	0.944885
1207.67	1.85066
1210.56	0.673615
1213.45	2.42783
1216.35	0.396179
1219.24	0.414108
1222.13	2.9781
1225.03	1.2258
1227.92	1.77211
1230.81	1.23547
1233.7	3.69272
1236.6	5.46014
1239.49	4.01906
1242.38	2.33431
1245.27	4.71851
1248.17	3.5789
1251.06	3.06291
1253.95	2.08752
1256.85	2.32178
1259.74	1.90237
1262.63	2.50809
1265.52	1.78061
1268.42	0.23761
1271.31	0.684372
1274.2	2.2111
1277.09	3.32469
1279.99	0.35553
1282.88	0.328644
