Measurement: Raman, 532 nm, unoriented, Raman Data Processed
Mineral: Arsentsumebite
Rruff sample: R070629
Ideal chemistry: Pb^2+^_2_Cu^2+^(As^5+^O_4_)(SO_4_)(OH)
Locality: Tsumeb mine, Tsumeb, Otavi District, Oshikoto, Namibia
Source: Royal Ontario Museum
Description: Pale green tabular crystals coating white anglesite
Raman shift (cm-1)	intensity
148.906	0
151.798	11.7798
154.691	235.644
157.584	340.35
160.476	471.472
163.369	528.316
166.262	791.764
169.154	840.019
172.047	851.835
174.94	790.356
177.833	855.834
180.725	873.761
183.618	951.314
186.511	836.753
189.403	782.807
192.296	692.363
195.189	516.48
198.082	322.915
200.974	136.822
203.867	138.682
206.76	72.1033
209.652	54.4985
212.545	76.6706
215.438	19.4802
218.33	30.3591
221.223	45.1604
224.116	49.7014
227.008	25.2419
229.901	137.89
232.794	241.653
235.686	371.123
238.579	396.005
241.472	568.249
244.365	569.171
247.257	576.498
250.15	545.826
253.043	490.984
255.935	430.915
258.828	462.007
261.721	490.205
264.613	228.377
267.506	352.482
270.399	241.622
273.292	196.598
276.184	208.755
279.077	272.469
281.97	293.916
284.862	459.235
287.755	660.419
290.648	980.781
293.541	1346.08
296.433	1666.58
299.326	1971.68
302.219	2519.8
305.111	2927.91
308.004	3187.99
310.897	3341.54
313.789	3452.12
316.682	3273.43
319.575	3062.86
322.467	2943.45
325.36	2850.15
328.253	2982.42
331.146	3062.38
334.038	3333.41
336.931	3194.72
339.824	3189.43
342.716	2767.25
345.609	2421.33
348.502	1793.42
351.394	1265.19
354.287	967.752
357.18	581.573
360.073	275.726
362.965	179.311
365.858	64.0698
368.751	41.9026
371.643	115.599
374.536	29.6213
377.429	35.876
380.322	15.5222
383.214	120.812
386.107	340.945
389	285.988
391.892	128.653
394.785	91.5273
397.678	18.0151
400.57	42.4734
403.463	35.5491
406.356	74.772
409.248	204.202
412.141	83.438
415.034	308.221
417.927	412.076
420.819	580.64
423.712	873.749
426.605	1327.93
429.497	1806.54
432.39	2555.03
435.283	3669.24
438.175	4867.25
441.068	5006.25
443.961	3932.71
446.854	3287.18
449.746	2831.61
452.639	2042.62
455.532	1663.14
458.424	1327.4
461.317	1155.03
464.21	874.596
467.103	610.518
469.995	368.26
472.888	270.442
475.781	165.459
478.673	78.4923
481.566	15.287
484.459	42.6168
487.351	31.9974
490.244	46.8356
493.137	1.66016
496.029	140.036
498.922	126.42
501.815	185.769
504.708	189.77
507.6	249.274
510.493	195.179
513.386	98.6379
516.278	145.474
519.171	39.4597
522.064	24.8995
524.957	50.1647
527.849	15.5627
530.742	38.2815
533.635	2.20746
536.527	22.6579
539.42	106.412
542.313	44.3467
545.205	91.5403
548.098	67.0148
550.991	102.601
553.884	48.5418
556.776	154.295
559.669	116.283
562.562	85.894
565.454	134.605
568.347	104.679
571.24	112.654
574.132	129.074
577.025	134.707
579.918	143.359
582.81	193.446
585.703	169.572
588.596	262.559
591.489	391.415
594.381	441.644
597.274	639.421
600.167	953.449
603.059	751.88
605.952	722.454
608.845	641.205
611.737	540.019
614.63	509.26
617.523	525.862
620.415	437.669
623.308	305.786
626.201	148.684
629.094	154.418
631.986	127.499
634.879	90.8944
637.772	158.952
640.664	110.065
643.557	107.875
646.45	100.315
649.342	41.2499
652.235	31.1697
655.128	65.689
658.021	36.0276
660.913	28.1088
663.806	33.5048
666.699	9.22852
669.591	8.66699
672.484	122.162
675.377	187.847
678.269	221.967
681.162	173.699
684.055	210.074
686.948	96.5614
689.84	161.583
692.733	116.802
695.626	134.687
698.518	140.712
701.411	101.602
704.304	174.232
707.197	129.804
710.089	113.643
712.982	161.828
715.875	127.01
718.767	38.5193
721.66	38.3198
724.553	3.70862
727.445	30.4655
730.338	43.5557
733.231	103.68
736.124	139.734
739.016	105.424
741.909	8.82971
744.802	20.8545
747.694	156.832
750.587	218.92
753.48	381.798
756.372	603.226
759.265	858.36
762.158	1131.2
765.051	1285.53
767.943	1505.15
770.836	1620
773.729	1716.43
776.621	1854.68
779.514	1910.04
782.407	1993.83
785.299	2306
788.192	2755.35
791.085	3323.71
793.977	4275.14
796.87	5633.16
799.763	7438.17
802.656	9303.25
805.548	11111.4
808.441	12691.2
811.334	13620.7
814.226	13799
817.119	13529.2
820.012	12851.6
822.904	11985.1
825.797	10955.3
828.69	9918.71
831.583	8869.72
834.475	7590.17
837.368	6220.76
840.261	5060.38
843.153	3917.48
846.046	3081.67
848.939	2418.3
851.832	1954.58
854.724	1578.74
857.617	1282.45
860.51	1013.54
863.402	824.89
866.295	664.778
869.188	524.069
872.08	389.375
874.973	329.712
877.866	177.33
880.759	112.17
883.651	83.1506
886.544	48.0335
889.437	59.3347
892.329	24.9285
895.222	0.87915
898.115	47.8296
901.007	115.254
903.9	65.3909
906.793	73.6943
909.686	53.8839
912.578	63.9314
915.471	49.5521
918.364	8.77197
921.256	41.337
924.149	33.8826
927.042	11.1406
929.934	13.9457
932.827	25.5425
935.72	130.398
938.612	246.558
941.505	347.048
944.398	542.062
947.291	872.218
950.183	1219.11
953.076	1998.51
955.969	3286
958.861	5122.32
961.754	7622.2
964.647	10649.6
967.539	13367.2
970.432	14606.5
973.325	12717
976.217	9322.17
979.11	5920.4
982.003	3231.52
984.896	1942.11
987.788	1210.12
990.681	784.763
993.574	600.754
996.466	448.805
999.359	277.144
1002.25	227.8
1005.14	168.857
1008.04	95.9358
1010.93	95.0255
1013.82	21.9166
1016.72	42.6206
1019.61	108.825
1022.5	54.125
1025.39	22.1327
1028.29	21.2286
1031.18	35.8623
1034.07	21.4459
1036.96	51.8418
1039.86	55.7294
1042.75	272.86
1045.64	528.024
1048.54	975.791
1051.43	1617.88
1054.32	1997.79
1057.21	838.199
1060.11	268.247
1063	146.776
1065.89	165.949
1068.78	100.894
1071.68	111.04
1074.57	108.59
1077.46	60.9033
1080.36	73.9137
1083.25	92.4601
1086.14	74.9264
1089.03	17.4402
1091.93	13.9021
1094.82	21.89
1097.71	28.9825
1100.6	10.1938
1103.5	62.6919
1106.39	41.2352
1109.28	35.5079
1112.17	24.9796
1115.07	24.4326
1117.96	30.1349
1120.85	91.6258
1123.74	83.6718
1126.64	80.0366
1129.53	175.503
1132.42	172.968
1135.32	186.684
1138.21	219.794
1141.1	262.747
1143.99	302.982
1146.89	441.15
1149.78	435.08
1152.67	554.449
1155.57	532.915
1158.46	517.976
1161.35	486.569
1164.24	295.305
1167.14	227.188
1170.03	143.954
1172.92	151.994
1175.81	58.0419
1178.71	70.6177
1181.6	70.4264
1184.49	23.7801
1187.38	40.6709
1190.28	8.67566
1193.17	71.3047
1196.06	14.7157
1198.95	0.793213
1201.85	38.2568
1204.74	20.9703
1207.63	3.47266
1210.53	56.8755
1213.42	3.02917
1216.31	68.0957
1219.2	61.0619
1222.1	56.4734
1224.99	19.125
1227.88	5.23987
1230.78	38.3838
1233.67	76.3179
1236.56	85.432
1239.45	31.79
1242.35	30.109
1245.24	112.885
1248.13	9.99915
1251.02	22.2422
1253.92	98.5267
1256.81	62.4625
1259.7	56.7358
1262.6	12.0353
1265.49	108.672
1268.38	101.795
1271.27	39.2636
1274.17	102.52
1277.06	53.5142
1279.95	75.5098
1282.84	68.4095
1285.74	50.001
1288.63	102.011
1291.52	90.2385
1294.41	181.601
1297.31	112.201
1300.2	25.3857
