Measurement: Raman, 780 nm, unoriented, Raman Data Processed
Mineral: Arsenuranospathite
Rruff sample: R100008
Ideal chemistry: Al(U^6+^O_2_)_2_(As^5+^O_4_)_2_F20H_2_O
Locality: Krunkelbach valley, Menzenschwand, Schwarzwald, Germany
Source: William Pinch
Description: Blocky aggregates of yellowish-brown platy crystals, cell parameters are consistent with a partially dehydrated sample
Raman shift (cm-1)	intensity
110.948	0
114.323	3.12463
117.697	9.48987
121.072	14.1306
124.447	14.5197
127.822	9.7431
131.197	9.42798
134.571	5.89612
137.946	2.15295
141.321	1.25165
144.696	43.1262
148.071	63.6217
151.446	139.462
154.82	218.189
158.195	331.654
161.57	501.727
164.945	735.308
168.32	1002.69
171.695	1315.84
175.069	1653.08
178.444	1973.9
181.819	2206.82
185.194	2200.46
188.569	1933.76
191.943	1491.95
195.318	1030.59
198.693	696.239
202.068	469.069
205.443	308.683
208.817	204.467
212.192	139.171
215.567	75.0929
218.942	45.1299
222.317	18.0215
225.691	3.8009
229.066	2.29913
232.441	7.30145
235.816	10.1067
239.191	25.1072
242.566	27.5859
245.94	34.9193
249.315	34.8083
252.69	44.7614
256.065	67.4728
259.44	101.119
262.815	127.448
266.189	164.248
269.564	187.535
272.939	187.911
276.314	190.942
279.689	173.74
283.063	136.511
286.438	107.046
289.813	106.045
293.188	97.7019
296.563	104.721
299.938	127.182
303.312	157.215
306.687	181.604
310.062	212.795
313.437	248.475
316.812	286.989
320.186	288.416
323.561	196.868
326.936	123.302
330.311	55.5879
333.686	27.2506
337.06	10.9468
340.435	8.27539
343.81	5.78558
347.185	6.88544
350.56	2.33923
353.935	6.45581
357.309	0.939392
360.684	9.33594
364.059	14.1823
367.434	35.9844
370.809	51.9293
374.183	76.9921
377.558	105.297
380.933	133.584
384.308	161.423
387.683	189.415
391.058	217.184
394.432	222.466
397.807	208.491
401.182	163.52
404.557	110.487
407.932	74.5593
411.307	42.7188
414.681	31.1885
418.056	24.4869
421.431	16.3607
424.806	9.04279
428.18	26.1862
431.555	33.8245
434.93	46.4969
438.305	70.3893
441.68	89.7166
445.055	115.206
448.429	138.784
451.804	162.093
455.179	170.538
458.554	166.374
461.929	158.463
465.303	128.622
468.678	100.742
472.053	85.1111
475.428	63.5728
478.803	45.0891
482.178	34.933
485.552	27.0444
488.927	16.3948
492.302	11.3688
495.677	7.59601
499.052	8.10669
502.426	6.75018
505.801	4.97455
509.176	3.88312
512.551	7.82947
515.926	13.6435
519.301	2.37647
522.675	2.00946
526.05	3.92255
529.425	0.713196
532.8	7.60019
536.175	0.349884
539.549	2.40509
542.924	1.90524
546.299	2.75839
549.674	8.58102
553.049	6.36972
556.424	16.4598
559.798	16.0458
563.173	17.3945
566.548	12.6375
569.923	4.79602
573.298	0.49295
576.673	5.58914
580.047	7.35657
583.422	2.13367
586.797	7.43906
590.172	13.3914
593.547	8.52728
596.921	8.87048
600.296	11.5452
603.671	10.1777
607.046	18.9754
610.421	23.948
613.795	27.7323
617.17	39.6593
620.545	28.4136
623.92	29.5983
627.295	29.8471
630.67	33.2232
634.044	23.567
637.419	29.4637
640.794	16.3273
644.169	38.4978
647.544	26.4752
650.918	18.5974
654.293	32.4389
657.668	24.861
661.043	39.1045
664.418	30.5543
667.793	26.5558
671.167	17.8399
674.542	25.2964
677.917	24.3371
681.292	15.481
684.667	25.9783
688.041	15.6864
691.416	19.5645
694.791	19.481
698.166	13.6507
701.541	10.8726
704.915	13.7283
708.29	2.3353
711.665	3.94699
715.04	2.09802
718.415	6.09204
721.79	5.88925
725.164	1.77298
728.539	1.32245
731.914	4.26953
735.289	7.5976
738.664	0.032715
742.038	0.160034
745.413	9.21338
748.788	17.6285
752.163	28.9565
755.538	56.0205
758.913	90.1842
762.287	141.321
765.662	193.574
769.037	268.512
772.412	383.686
775.787	513.843
779.162	693.123
782.536	945.624
785.911	1278.64
789.286	1725.54
792.661	2324.36
796.036	3077.35
799.41	3987.95
802.785	5013.5
806.16	6044.37
809.535	6734.06
812.91	6875.15
816.284	6667.96
819.659	5999.07
823.034	4587.35
826.409	2678.18
829.784	1417.75
833.159	790.856
836.533	457.3
839.908	277.243
843.283	154.584
846.658	83.0899
850.033	37.4426
853.408	7.63074
856.782	9.75214
860.157	14.427
863.532	1.49597
866.907	14.3032
870.282	31.9893
873.656	65.5375
877.031	103.93
880.406	162.048
883.781	223.102
887.156	294.026
890.53	369.938
893.905	429.252
897.28	400.505
900.655	342.836
904.03	271.734
907.404	219.731
910.779	161.417
914.154	108.7
917.529	79.8085
920.904	43.9724
924.279	31.4672
927.653	5.61029
931.028	6.19409
934.403	4.30728
937.778	5.62021
941.153	1.96118
944.528	4.16553
947.902	1.62936
951.277	12.6226
954.652	5.02179
958.027	7.896
961.402	11.2126
964.776	20.1573
968.151	22.2029
971.526	21.8312
974.901	43.3255
978.276	52.6412
981.65	85.4933
985.025	106.606
988.4	167.233
991.775	71.1943
995.15	45.3833
998.525	35.4568
1001.9	48.2502
1005.27	25.8304
1008.65	31.0417
1012.02	29.0303
1015.4	30.486
1018.77	22.012
1022.15	29.3849
1025.52	34.5603
1028.9	40.9206
1032.27	36.3283
1035.65	28.5809
1039.02	29.2357
1042.4	24.9458
1045.77	33.2098
1049.15	19.5364
1052.52	21.323
1055.9	20.0687
1059.27	14.2359
1062.65	12.7826
1066.02	8.36197
1069.4	11.82
1072.77	7.02208
1076.14	0.04306
1079.52	6.50594
1082.89	9.25951
1086.27	2.84915
1089.64	7.87437
1093.02	6.52986
1096.39	1.41162
1099.77	12.4601
1103.14	7.56222
1106.52	4.33128
1109.89	0.63324
1113.27	2.11557
1116.64	23.7253
1120.02	0.802734
1123.39	0.571045
1126.77	0.694504
1130.14	1.49435
1133.52	5.43074
1136.89	3.0323
1140.27	5.47604
1143.64	12.1997
1147.02	1.54153
1150.39	11.7129
1153.77	14.0805
1157.14	6.84647
1160.52	4.96861
1163.89	5.14906
1167.27	12.302
1170.64	5.2488
1174.02	8.11749
1177.39	9.68356
1180.77	2.15138
1184.14	2.73438
1187.51	9.56862
1190.89	1.26781
1194.26	5.0417
1197.64	5.39729
1201.01	6.54068
1204.39	5.8257
1207.76	5.45416
1211.14	11.1413
1214.51	4.53773
1217.89	7.30431
1221.26	0.79776
1224.64	4.09515
1228.01	15.6085
1231.39	10.1064
1234.76	8.09296
1238.14	10.1246
1241.51	4.33232
1244.89	9.03615
1248.26	12.0101
1251.64	4.21989
1255.01	10.2084
1258.38	3.94339
1261.76	8.38762
1265.13	8.58475
1268.51	6.83627
1271.88	8.07152
1275.26	7.4041
1278.63	7.13893
1282.01	31.9082
1285.38	0
