Measurement: Raman, 532 nm, unoriented, Raman Data Processed
Mineral: Arsenopyrite
Rruff sample: R050071
Ideal chemistry: FeAsS
Locality: Yaogangxian mine, Yizhang County, Hunan Province, China
Source: Rock Currier
Description: Steel-gray tabular
Measured chemistry: FeAsS
Raman shift (cm-1)	intensity
118.326	0
121.701	127.421
125.075	250.628
128.45	490.534
131.825	851.934
135.2	602.049
138.575	393.477
141.949	4.56213
145.324	34.8344
148.699	3.69678
152.074	47.5673
155.449	68.9432
158.823	63.2638
162.198	162.836
165.573	218.818
168.948	262.401
172.323	331.774
175.697	346.264
179.072	349.865
182.447	376.146
185.822	493.85
189.197	455.867
192.572	463.999
195.946	540.978
199.321	515.516
202.696	406.62
206.071	288.486
209.446	241.825
212.821	136.584
216.195	129.157
219.57	13.1775
222.945	79.8637
226.32	16.5093
229.695	30.648
233.069	2.2229
236.444	76.699
239.819	7.76233
243.194	134.32
246.569	170.299
249.944	244.455
253.318	288.395
256.693	392.404
260.068	471.226
263.443	638.726
266.818	734.567
270.192	787.202
273.567	688.467
276.942	738.717
280.317	780.179
283.692	820.898
287.067	756.405
290.441	877.867
293.816	905.458
297.191	906.494
300.566	882.343
303.94	887.319
307.315	1113.12
310.69	1217.89
314.065	1500.7
317.44	1844.45
320.815	2157.31
324.189	2458.46
327.564	2689.44
330.939	2778.79
334.314	2494.69
337.689	2365.05
341.063	1921.16
344.438	1537.47
347.813	1170.04
351.188	871.547
354.563	614.423
357.938	454.178
361.312	445.759
364.687	369.889
368.062	290.305
371.437	248.674
374.812	110.239
378.187	13.997
381.561	68.9885
384.936	99.229
388.311	36.3135
391.686	97.0025
395.06	167.792
398.435	325.367
401.81	419.551
405.185	369.58
408.56	421.108
411.935	377.443
415.309	323.425
418.684	308.98
422.059	327.745
425.434	313.794
428.809	365.652
432.183	302.913
435.558	239.234
438.933	175.898
442.308	79.4326
445.683	23.0424
449.058	23.9634
452.432	12.6692
455.807	23.0615
459.182	96.9169
462.557	59.3586
465.932	22.1143
469.307	39.0683
472.681	63.4211
476.056	10.2179
479.431	25.986
482.806	65.2214
486.181	66.0039
489.555	151.399
492.93	71.3247
496.305	35.9083
499.68	67.9985
503.055	119.199
506.43	82.1153
509.804	33.3934
513.179	56.2854
516.554	133.895
519.929	58.9207
523.303	76.6273
526.678	95.0538
530.053	41.7325
533.428	28.3138
536.803	62.8382
540.178	101.252
543.552	50.7316
546.927	61.9404
550.302	44.08
553.677	94.059
557.052	85.5637
560.427	31.8638
563.801	36.3876
567.176	46.1249
570.551	60.3675
573.926	87.3796
577.301	111.311
580.675	28.7257
584.05	58.6285
587.425	55.2749
590.8	25.4831
594.175	16.3496
597.549	84.7178
600.924	96.1099
604.299	43.4915
607.674	53.0785
611.049	24.2627
614.424	70.3725
617.798	46.0773
621.173	15.5001
624.548	64.0588
627.923	25.943
631.298	29.6603
634.673	48.322
638.047	96.9853
641.422	89.2083
644.797	43.3008
648.172	50.8542
651.547	23.9891
654.921	47.5646
658.296	93.2145
661.671	23.6896
665.046	32.0119
668.421	47.0416
671.795	31.0102
675.17	97.0973
678.545	22.1133
681.92	8.16598
685.295	38.5634
688.669	71.6678
692.044	85.2683
695.419	74.474
698.794	85.4569
702.169	69.3517
705.544	15.6791
708.918	70.6211
712.293	50.5808
715.668	65.2385
719.043	100.726
722.418	47.9572
725.793	20.1127
729.167	111.794
732.542	55.8066
735.917	1.15396
739.292	75.9781
742.667	11.2217
746.041	62.3063
749.416	54.1054
752.791	13.0791
756.166	72.4068
759.541	17.8153
762.915	55.4782
766.29	112.725
769.665	38.8929
773.04	111.822
776.415	107.745
779.79	45.3217
783.164	53.4086
786.539	84.678
789.914	125.552
793.289	55.558
796.664	71.1899
800.038	11.6867
803.413	18.5226
806.788	89.9676
810.163	76.794
813.538	31.3602
816.913	77.5437
820.287	26.3547
823.662	43.3767
827.037	26.6591
830.412	1.49773
833.787	66.9329
837.161	56.0062
840.536	67.181
843.911	59.3405
847.286	51.6612
850.661	80.3168
854.035	48.5746
857.41	12.4246
860.785	53.3292
864.16	25.0953
867.535	90.4307
870.909	80.7966
874.284	36.3877
877.659	67.2957
881.034	28.1625
884.409	14.6571
887.784	44.2551
891.158	66.6457
894.533	20.162
897.908	43.8046
901.283	68.6521
904.658	20.0469
908.033	24.3758
911.407	88.8824
914.782	33.6481
918.157	45.2978
921.532	72.0374
924.907	19.5623
928.281	55.648
931.656	102.012
935.031	55.2138
938.406	40.0912
941.781	107.79
945.155	46.7593
948.53	75.5908
951.905	6.66696
955.28	71.5388
958.655	15.6024
962.03	86.698
965.404	54.4722
968.779	6.32413
972.154	48.7195
975.529	49.013
978.904	27.9808
982.279	8.94531
985.653	70.3918
989.028	9.51915
992.403	71.9047
995.778	34.5223
999.153	6.13086
1002.53	23.6268
1005.9	21.5384
1009.28	16.8391
1012.65	43.6693
1016.03	83.3114
1019.4	65.5451
1022.78	41.8831
1026.15	82.3198
1029.53	21.0723
1032.9	40.9019
1036.28	73.459
1039.65	13.7448
1043.03	42.6624
1046.4	61.7336
1049.78	28.5617
1053.15	49.5549
1056.52	47.5903
1059.9	81.413
1063.27	45.8372
1066.65	18.1251
1070.02	37.0552
1073.4	80.6451
1076.77	18.6251
1080.15	56.4537
1083.52	25.2899
1086.9	73.2863
1090.27	71.0657
1093.65	102.942
1097.02	51.8341
1100.4	48.5185
1103.77	52.69
1107.15	108.532
1110.52	110.979
1113.9	25.9593
1117.27	47.8731
1120.65	72.6352
1124.02	22.1921
1127.4	70.9424
1130.77	83.2832
1134.14	72.9777
1137.52	64.9406
1140.89	20.4027
1144.27	35.6636
1147.64	41.2024
1151.02	63.4019
1154.39	9.51189
1157.77	90.221
1161.14	42.6476
1164.52	17.6084
1167.89	32.8678
1171.27	62.0918
1174.64	57.9745
1178.02	36.2095
1181.39	29.2092
1184.77	38.8826
1188.14	53.6427
1191.52	32.4399
1194.89	114.235
1198.27	78.4778
1201.64	23.9463
1205.02	36.5298
1208.39	32.0288
1211.77	97.9519
1215.14	64.3455
1218.52	27.0819
1221.89	61.5707
1225.27	5.57017
1228.64	15.7201
1232.02	15.3767
1235.39	25.6143
1238.76	11.3169
1242.14	39.1396
1245.51	81.1556
1248.89	103.604
1252.26	78.0993
1255.64	45.2037
1259.01	23.5456
1262.39	59.6288
1265.76	16.8088
1269.14	39.4804
1272.51	78.2254
1275.89	59.984
1279.26	112.277
1282.64	33.5425
1286.01	45.4556
1289.39	73.7903
