Measurement: Raman, 532 nm, unoriented, Raman Data Processed
Mineral: Arsenuranospathite
Rruff sample: R100008
Ideal chemistry: Al(U^6+^O_2_)_2_(As^5+^O_4_)_2_F20H_2_O
Locality: Krunkelbach valley, Menzenschwand, Schwarzwald, Germany
Source: William Pinch
Description: Blocky aggregates of yellowish-brown platy crystals, cell parameters are consistent with a partially dehydrated sample
Raman shift (cm-1)	intensity
194.705	0
197.598	3.9624
200.49	11.2065
203.383	22.0977
206.276	15.4673
209.168	5.77393
212.061	3.56903
214.954	24.4419
217.846	23.9932
220.739	24.332
223.632	19.0635
226.525	10.2026
229.417	31.2544
232.31	11.3291
235.203	11.0279
238.095	10.8657
240.988	12.874
243.881	6.76856
246.774	7.04492
249.666	24.3701
252.559	22.7324
255.452	27.3061
258.344	28.4004
261.237	5.1665
264.13	20.3193
267.022	39.834
269.915	25.6406
272.808	29.6489
275.701	17.5923
278.593	14.4365
281.486	23.4448
284.379	6.96875
287.271	15.1221
290.164	10.9165
293.057	5.73144
295.95	8.04248
298.842	24.2334
301.735	33.2461
304.628	39.7383
307.52	55.0093
310.413	56.6895
313.306	70.1685
316.198	96.812
319.091	114.056
321.984	88.7822
324.877	75.1328
327.769	60.7383
330.662	63.1226
333.555	53.2432
336.447	34.2988
339.34	28.1602
342.233	19.8887
345.125	16.918
348.018	35.0523
350.911	36.3433
353.803	4.4834
356.696	8.97607
359.589	29.979
362.481	42.3721
365.374	21.5669
368.267	21.188
371.16	10.8267
374.052	7.67481
376.945	29.0845
379.838	41.4517
382.73	51.2129
385.623	24.981
388.516	30.7617
391.409	18.498
394.301	27.6314
397.194	40.7285
400.087	22.3789
402.979	12.9541
405.872	22.7832
408.765	10.1152
411.657	14.0102
414.55	2.61572
417.443	18.0674
420.336	7.9917
423.228	9.37451
426.121	4.41309
429.014	28.0586
431.906	11.6587
434.799	16.2056
437.692	11.374
440.584	13.5894
443.477	17.458
446.37	20.79
449.262	40.7388
452.155	21.4111
455.048	23.7349
457.941	17.3599
460.833	11.0825
463.726	35.8867
466.619	21.0601
469.511	15.7607
472.404	23.5337
475.297	15.3682
478.19	14.5356
481.082	2.69141
483.975	6.51367
486.868	8.49072
489.76	28.5039
492.653	17.0713
495.546	13.2461
498.438	17.6631
501.331	2.70215
504.224	3.72559
507.116	11.498
510.009	18.1748
512.902	19.9473
515.795	21.1543
518.687	21.7988
521.58	11.126
524.473	26.5986
527.365	43.8301
530.258	33.5312
533.151	50.3398
536.044	61.6426
538.936	55.419
541.829	22.1533
544.722	22.4668
547.614	39.9844
550.507	43.3447
553.4	40.8086
556.293	27.9248
559.185	24.2969
562.078	17.7539
564.971	25.1865
567.863	38.8799
570.756	46.4365
573.649	43.4658
576.541	29.1973
579.434	35.6338
582.327	33.7529
585.219	37.1084
588.112	45.5117
591.005	39.6182
593.898	40.7022
596.79	41.9678
599.683	51.7715
602.576	29.4355
605.468	27.832
608.361	20.5654
611.254	13.0088
614.146	12.3447
617.039	16.8701
619.932	18.9131
622.824	46.2114
625.717	52.562
628.61	58.4653
631.503	37.3486
634.395	35.8906
637.288	8.51074
640.181	8.4331
643.073	24.5693
645.966	18.5464
648.859	25.7436
651.751	19.938
654.644	34.6738
657.537	36.8628
660.43	34.688
663.322	27.5254
666.215	16.8999
669.108	31.792
672	23.2949
674.893	34.8901
677.786	19.353
680.678	9.8877
683.571	22.0171
686.464	24.4053
689.357	46.5107
692.249	48.2637
695.142	21.5664
698.035	42.5259
700.927	33.0005
703.82	18.0996
706.713	17.0137
709.606	29.645
712.498	45.9912
715.391	39.0986
718.284	22.898
721.176	3.84424
724.069	11.5864
726.962	10.5845
729.854	7.62207
732.747	1.63232
735.64	4.06152
738.533	4.58398
741.425	20.2915
744.318	2.40137
747.211	5.60303
750.103	1.74805
752.996	16.352
755.889	17.7544
758.781	32.1982
761.674	38.1289
764.567	57.6226
767.46	87.73
770.352	104.196
773.245	154.957
776.138	200.114
779.03	258.207
781.923	337.446
784.816	453.312
787.708	576.8
790.601	746.133
793.494	958.311
796.386	1198.47
799.279	1477.57
802.172	1813.54
805.065	2169.98
807.957	2480.09
810.85	2616.61
813.743	2562.51
816.635	2261.1
819.528	1797.64
822.421	1308.79
825.313	870.741
828.206	560.266
831.099	354.966
833.992	231.825
836.884	156.258
839.777	98.0488
842.67	70.1133
845.562	55.8037
848.455	26.689
851.348	16.625
854.24	0.856445
857.133	11.0005
860.026	7.11816
862.919	6.13672
865.811	9.0708
868.704	12.8643
871.597	18.3105
874.489	39.937
877.382	52.604
880.275	62.6182
883.168	80.6875
886.06	101.972
888.953	128.541
891.846	119.526
894.738	126.191
897.631	125.606
900.524	135.163
903.416	146.611
906.309	141.315
909.202	113.739
912.095	105.938
914.987	87.4385
917.88	68.4929
920.773	49.1069
923.665	32.7429
926.558	16.5129
929.451	9.94458
932.343	2.33203
935.236	12.3105
938.129	14.2632
941.021	2.18091
943.914	1.07617
946.807	23.0418
949.7	17.6533
952.592	10.3906
955.485	7.92432
958.378	1.20728
961.27	11.9766
964.163	1.3606
967.056	3.81152
969.948	4.23779
972.841	9.95581
975.734	9.04907
978.627	20.9932
981.519	22.9814
984.412	18.1977
987.305	23.5183
990.197	16.7368
993.09	12.3872
995.983	15.9607
998.875	20.2034
1001.77	12.4014
1004.66	4.54321
1007.55	8.69775
1010.45	9.25537
1013.34	12.8157
1016.23	20.0327
1019.12	15.4099
1022.02	21.0022
1024.91	18.8113
1027.8	29.8364
1030.69	13.2913
1033.59	5.86548
1036.48	3.32959
1039.37	5.64795
1042.27	13.654
1045.16	16.0095
1048.05	13.2317
1050.94	10.1096
1053.84	4.8125
1056.73	11.4336
1059.62	2.78467
1062.52	6.03882
1065.41	7.8042
1068.3	1.63989
1071.19	6.79663
1074.09	8.28857
1076.98	11.2048
1079.87	8.5813
1082.76	9.5376
1085.66	6.46289
1088.55	1.50962
1091.44	3.75
1094.34	5.16993
1097.23	6.44385
1100.12	15.1209
1103.01	4.93433
1105.9	16.199
1108.8	1.58667
1111.69	14.7537
1114.58	7.42285
1117.48	12.6284
1120.37	7.04346
1123.26	0.506836
1126.15	7.28188
1129.05	9.12817
1131.94	6.27979
1134.83	7.41455
1137.72	12.7551
1140.62	8.9519
1143.51	15.9102
1146.4	16.7524
1149.3	18.7642
1152.19	14.1729
1155.08	15.6262
1157.97	11.2266
1160.87	2.28606
1163.76	11.5688
1166.65	10.4065
1169.55	3.02051
1172.44	10.1707
1175.33	14.3633
1178.22	13.8191
1181.12	13.9956
1184.01	12.1267
1186.9	8.93994
1189.79	13.1692
1192.69	19.8406
1195.58	19.9695
1198.47	17.6804
1201.37	14.012
1204.26	14.2439
1207.15	21.2317
1210.04	3.76636
1212.93	14.864
1215.83	12.4988
1218.72	13.7014
1221.61	10.8989
1224.51	12.8225
1227.4	12.7258
1230.29	10.0894
1233.18	1.17065
1236.08	4.07373
1238.97	7.49854
1241.86	4.24316
1244.76	4.41309
1247.65	12.6587
1250.54	22.4556
1253.43	11.6401
1256.33	7.39404
1259.22	8.19336
1262.11	11.479
1265	13.063
1267.9	17.4548
1270.79	9.70068
1273.68	8.75806
1276.58	8.66016
1279.47	5.21362
1282.36	11.835
1285.25	9.27246
1288.15	12.4055
1291.04	10.9604
1293.93	12.354
1296.82	0.271973
1299.72	11.592
