Measurement: Raman, 780 nm, unoriented, Raman Data Processed
Mineral: Arsendescloizite
Rruff sample: R140430
Ideal chemistry: Pb^2+^Zn^2+^As^5+^O_4_(OH)
Locality: Tsumeb, Namibia
Source: University of Arizona Mineral Museum 17511
Description: Yellowish tabular crystals
Raman shift (cm-1)	intensity
91.5599	0
94.9347	217.972
98.3096	404.951
101.684	871.467
105.059	1255.41
108.434	849.069
111.809	528.397
115.184	551.54
118.558	664.157
121.933	554.952
125.308	329.585
128.683	131.954
132.058	14.2885
135.433	21.1951
138.807	22.2939
142.182	16.9163
145.557	8.33911
148.932	5.65973
152.307	2.06146
155.681	34.2156
159.056	81.2815
162.431	126.153
165.806	148.465
169.181	189.863
172.555	238.348
175.93	292.048
179.305	289.197
182.68	236.235
186.055	199.675
189.43	204.641
192.804	208.919
196.179	233.571
199.554	288.061
202.929	385.817
206.304	542.262
209.678	722.598
213.053	836.18
216.428	709.755
219.803	541.253
223.178	443.466
226.553	383.641
229.927	326.87
233.302	251.661
236.677	173.414
240.052	103.231
243.427	56.3471
246.801	27.2649
250.176	6.16223
253.551	9.39465
256.926	18.0469
260.301	21.0357
263.675	21.0809
267.05	16.096
270.425	4.49866
273.8	16.711
277.175	58.1667
280.55	123.964
283.924	218.156
287.299	365.203
290.674	590.429
294.049	873.505
297.424	1128.56
300.798	1182.23
304.173	1192.56
307.548	1376.49
310.923	1773.38
314.298	2399.44
317.673	3132.22
321.047	3621.9
324.422	3529.39
327.797	3050.57
331.172	2640.92
334.547	2447.23
337.921	2384.32
341.296	2254.54
344.671	2080.26
348.046	1828.56
351.421	1423
354.796	930.461
358.17	508.595
361.545	247.809
364.92	115.475
368.295	85.33
371.67	143.815
375.044	279.744
378.419	477.242
381.794	806.824
385.169	1356.07
388.544	2192.63
391.918	2581.97
395.293	1597.3
398.668	794.372
402.043	422.111
405.418	231.25
408.793	127.112
412.167	74.1956
415.542	58.654
418.917	37.5936
422.292	4.83691
425.667	25.3355
429.041	39.4512
432.416	27.501
435.791	5.4137
439.166	31.0622
442.541	24.5231
445.915	23.0503
449.29	34.227
452.665	17.1952
456.04	6.67987
459.415	1.29773
462.789	1.31418
466.164	0.026581
469.539	2.26407
472.914	14.2783
476.289	18.7748
479.664	33.5168
483.038	41.2418
486.413	37.1074
489.788	38.4217
493.163	37.0257
496.538	38.928
499.913	40.4641
503.287	43.5492
506.662	40.7259
510.037	38.8772
513.412	43.665
516.787	38.467
520.161	32.4324
523.536	26.9941
526.911	19.2863
530.286	15.7849
533.661	9.47664
537.035	8.89668
540.41	11.0771
543.785	8.00432
547.16	8.72708
550.535	8.67841
553.909	4.44286
557.284	8.2657
560.659	8.93332
564.034	10.4045
567.409	8.9236
570.784	5.98618
574.158	5.09767
577.533	6.39693
580.908	4.4736
584.283	4.34882
587.658	2.33119
591.033	0.363373
594.407	0.98912
597.782	4.38921
601.157	3.68198
604.532	1.34691
607.907	4.02954
611.281	0.441772
614.656	1.46458
618.031	2.8916
621.406	0.623184
624.781	0.300003
628.155	1.88048
631.53	0.804306
634.905	3.32364
638.28	7.36507
641.655	7.45253
645.029	7.94086
648.404	8.53336
651.779	11.8503
655.154	14.7139
658.529	16.7642
661.904	22.797
665.278	27.7019
668.653	30.0397
672.028	30.0084
675.403	28.1901
678.778	26.2961
682.153	29.2961
685.527	26.2999
688.902	25.5727
692.277	21.4361
695.652	13.8831
699.027	8.03535
702.401	8.1524
705.776	0.482513
709.151	5.81181
712.526	6.48291
715.901	12.5867
719.275	15.8297
722.65	14.7239
726.025	9.09442
729.4	5.87924
732.775	32.8083
736.149	85.6732
739.524	188.069
742.899	345.091
746.274	586.35
749.649	915.292
753.024	1141.85
756.398	993.889
759.773	649.706
763.148	428.405
766.523	387.25
769.898	498.225
773.273	765.115
776.647	1195.86
780.022	1957.83
783.397	3162.36
786.772	3291.24
790.146	2025.2
793.521	1313.72
796.896	1191.04
800.271	1593.31
803.646	2318.89
807.021	3967.78
810.395	7443.83
813.77	11225
817.145	6438.02
820.52	2605.83
823.895	1325.22
827.269	810.688
830.644	575.234
834.019	468.434
837.394	457.246
840.769	412.783
844.144	249.952
847.518	126.963
850.893	65.7367
854.268	35.208
857.643	26.3003
861.018	10.0605
864.393	1.60007
867.767	6.06177
871.142	12.1633
874.517	11.2144
877.892	11.9338
881.266	3.59692
884.641	21.5674
888.016	28.5852
891.391	15.901
894.766	0.116379
898.141	9.85033
901.515	4.63968
904.89	0.40918
908.265	3.99385
911.64	5.56793
915.015	9.1748
918.389	12.4375
921.764	16.2868
925.139	18.9601
928.514	20.8195
931.889	26.8418
935.264	27.1672
938.638	29.4685
942.013	30.6415
945.388	35.8639
948.763	38.3822
952.138	40.0896
955.512	42.738
958.887	40.6346
962.262	40.9366
965.637	39.3802
969.012	35.145
972.386	30.8167
975.761	24.837
979.136	22.8926
982.511	23.0193
985.886	18.0826
989.261	18.2175
992.635	16.1837
996.01	13.369
999.385	14.0594
1002.76	12.9692
1006.13	9.97861
1009.51	13.0628
1012.88	12.7711
1016.26	11.1956
1019.63	7.57163
1023.01	8.88802
1026.38	7.04983
1029.76	6.39554
1033.13	5.78429
1036.51	2.88778
1039.88	3.30456
1043.26	4.89992
1046.63	3.60581
1050.01	3.8126
1053.38	4.5948
1056.76	1.84674
1060.13	2.49862
1063.51	0.286926
1066.88	0.668533
1070.26	7.71618
1073.63	1.89551
1077.01	2.01141
1080.38	1.84407
1083.76	0.767143
1087.13	3.02865
1090.51	0.569016
1093.88	0.57119
1097.26	0.937309
1100.63	1.28828
1104	0.231041
1107.38	1.03793
1110.75	1.09875
1114.13	1.57877
1117.5	1.96112
1120.88	0.345451
1124.25	2.91367
1127.63	4.02991
1131	1.42699
1134.38	3.07848
1137.75	0.811081
1141.13	1.01343
1144.5	1.80562
1147.88	2.12435
1151.25	2.1772
1154.63	3.97303
1158	3.5224
1161.38	3.04811
1164.75	6.18665
1168.13	4.24579
1171.5	3.18784
1174.88	3.24644
1178.25	1.64172
1181.62	1.7337
1185	1.42463
1188.38	2.14875
1191.75	0.298698
1195.12	5.0946
1198.5	3.83488
1201.87	2.86722
1205.25	2.25011
1208.62	4.7697
1212	1.60396
1215.37	1.01746
1218.75	2.53679
1222.12	0.226654
1225.5	4.51864
1228.87	1.78432
1232.25	1.06916
1235.62	3.31148
1239	2.65788
1242.37	1.68172
1245.75	2.93777
1249.12	0.792267
1252.5	1.36057
1255.87	2.25154
1259.25	7.3929
1262.62	6.20891
1265.99	6.18239
1269.37	1.84486
1272.74	7.588
1276.12	5.4426
1279.49	3.91513
1282.87	3.62659
