Measurement: Raman, 785 nm, unoriented, Raman Data Processed
Mineral: Arsentsumebite
Rruff sample: R060949
Ideal chemistry: Pb^2+^_2_Cu^2+^(As^5+^O_4_)(SO_4_)(OH)
Locality: Capitana mine, Copiapo, Chile
Source: Bob Jenkins
Description: Green crystalline blebs scattered on the barite matrix
Measured chemistry: Pb_2.00_(Cu_0.98_Fe_0.02_)_Î£=1_(As_1.00_O_4_)(S_1.00_O_4_)(OH); OH estimated by charge balance and difference
Raman shift (cm-1)	intensity
138.402	0
141.295	80.7886
144.188	507.786
147.08	952.537
149.973	1115.85
152.866	792.158
155.758	619.33
158.651	561.075
161.544	701.753
164.436	715.841
167.329	599.696
170.222	561.714
173.114	434.34
176.007	385.345
178.9	322.627
181.793	304.654
184.685	277.12
187.578	228.663
190.471	212.73
193.363	99.0129
196.256	126.875
199.149	82.1293
202.042	95.7119
204.934	24.4188
207.827	14.7507
210.72	37.5486
213.612	17.2029
216.505	16.5293
219.398	3.88501
222.29	23.5316
225.183	38.2136
228.076	54.729
230.969	94.6044
233.861	135.732
236.754	165.772
239.647	158.564
242.539	121.684
245.432	96.2776
248.325	91.3945
251.217	45.6591
254.11	35.8014
257.003	54.3538
259.896	34.8145
262.788	30.1045
265.681	63.517
268.574	11.4307
271.466	3.6106
274.359	20.5244
277.252	1.87012
280.144	1.64783
283.037	43.35
285.93	73.2483
288.822	34.662
291.715	96.1412
294.608	178.586
297.501	247.071
300.393	345.946
303.286	466.543
306.179	544.548
309.071	671.06
311.964	723.677
314.857	785.62
317.75	788.277
320.642	777.612
323.535	815.605
326.428	756.703
329.32	740.046
332.213	705.996
335.106	693.898
337.998	645.089
340.891	590.971
343.784	485.311
346.676	395.365
349.569	309.812
352.462	225.927
355.355	168
358.247	90.7291
361.14	48.3054
364.033	11.4265
366.925	16.7614
369.818	4.33081
372.711	18.7307
375.603	30.0897
378.496	24.0679
381.389	2.52734
384.282	48.2064
387.174	44.8477
390.067	98.1812
392.96	113.923
395.852	165.995
398.745	187.01
401.638	207.488
404.531	258.288
407.423	340.836
410.316	346.734
413.209	360.462
416.101	357.467
418.994	343.861
421.887	351.141
424.779	423.538
427.672	467.833
430.565	569.971
433.457	736.689
436.35	867.526
439.243	979.2
442.135	1007.25
445.028	862.59
447.921	689.892
450.814	521.432
453.706	408.33
456.599	284.33
459.492	240.373
462.384	202.543
465.277	160.454
468.17	143.989
471.062	110.599
473.955	69.4601
476.848	67.1173
479.741	18.674
482.633	50.0222
485.526	32.7525
488.419	31.9949
491.311	19.7897
494.204	24.9439
497.097	20.9204
499.99	7.54651
502.882	10.9478
505.775	2.17151
508.668	17.8182
511.56	4.01703
514.453	30.6265
517.346	0.313599
520.238	14.6166
523.131	41.1651
526.024	0.740479
528.917	22.2258
531.809	0.774475
534.702	12.9012
537.595	37.8997
540.487	24.3549
543.38	21.5372
546.273	41.0121
549.165	18.4791
552.058	31.6237
554.951	26.4025
557.843	41.9844
560.736	36.1169
563.629	55.7136
566.522	15.1235
569.414	4.61786
572.307	7.89459
575.2	43.8638
578.092	23.6697
580.985	40.7609
583.878	91.3975
586.77	81.8713
589.663	93.2188
592.556	94.4445
595.448	161.68
598.341	198.361
601.234	231.174
604.127	199.511
607.019	224.482
609.912	264.5
612.805	293.809
615.697	359.844
618.59	364.193
621.483	341.222
624.375	227.533
627.268	155.816
630.161	88.4973
633.054	97.6735
635.946	57.8546
638.839	38.8997
641.732	20.1262
644.625	36.3928
647.517	53.731
650.41	43.6823
653.303	53.4036
656.195	39.6761
659.088	53.9216
661.981	34.4883
664.873	62.3602
667.766	38.2297
670.659	72.3731
673.552	89.2289
676.444	71.2805
679.337	66.1718
682.23	80.5063
685.122	57.3309
688.015	55.6602
690.908	31.368
693.8	53.5857
696.693	56.6249
699.586	18.6584
702.479	15.3716
705.371	9.72504
708.264	7.82855
711.157	11.8383
714.049	4.46674
716.942	13.1047
719.835	19.8013
722.727	4.64508
725.62	17.7156
728.513	28.254
731.405	20.5554
734.298	19.0714
737.191	22.9503
740.083	16.6632
742.976	30.7726
745.869	1.50147
748.762	57.3657
751.654	108.638
754.547	142.384
757.44	163.115
760.332	159.591
763.225	196.587
766.118	212.428
769.01	231.321
771.903	295.272
774.796	317.958
777.689	326.074
780.581	380.728
783.474	446.088
786.367	516.415
789.259	682.411
792.152	857.39
795.045	1090.83
797.938	1442.23
800.83	1832.02
803.723	2226.38
806.616	2642.49
809.508	2948.48
812.401	3023.18
815.294	2966.86
818.186	2761.36
821.079	2401.51
823.972	2109.53
826.865	1799.7
829.757	1634.43
832.65	1488.01
835.543	1363.12
838.435	1268.15
841.328	1188.19
844.221	1148.3
847.113	1088.01
850.006	986.128
852.899	829.99
855.792	732.389
858.684	590.189
861.577	495.353
864.47	437.291
867.362	406.894
870.255	378.434
873.148	328.924
876.04	280.526
878.933	191.553
881.826	136.627
884.718	106.928
887.611	46.6317
890.504	41.1312
893.396	19.4874
896.289	24.302
899.182	2.14294
902.075	2.24048
904.967	11.3706
907.86	5.99585
910.753	25.3249
913.645	18.0448
916.538	1.24042
919.431	13.3567
922.323	14.6708
925.216	5.39209
928.109	12.8568
931.002	40.1754
933.894	87.7181
936.787	111.181
939.68	159.321
942.572	207.784
945.465	289.31
948.358	362.994
951.25	514.499
954.143	779.23
957.036	1052.88
959.929	1501.63
962.821	2033.92
965.714	2576.77
968.607	2926.03
971.5	2765.6
974.392	2210.27
977.285	1517.96
980.178	992.355
983.07	661.949
985.963	435.674
988.856	304.675
991.748	219.112
994.641	139.697
997.534	147.961
1000.43	168.03
1003.32	123.69
1006.21	113.193
1009.1	106.179
1012	60.6777
1014.89	65.8503
1017.78	76.0921
1020.67	20.1627
1023.57	16.4795
1026.46	21.074
1029.35	20.0831
1032.25	29.5801
1035.14	19.5249
1038.03	56.4721
1040.92	21.9455
1043.82	60.8283
1046.71	23.1113
1049.6	33.5034
1052.49	32.388
1055.39	28.1545
1058.28	19.5635
1061.17	23.746
1064.07	31.0233
1066.96	5.96631
1069.85	19.225
1072.74	24.4821
1075.64	28.9181
1078.53	12.7831
1081.42	13.5165
1084.32	20.1953
1087.21	19.5685
1090.1	8.26825
1092.99	3.92017
1095.88	23.4939
1098.78	8.26044
1101.67	39.9501
1104.56	13.1515
1107.46	23.7087
1110.35	23.7783
1113.24	4.29999
1116.13	29.0544
1119.03	64.7122
1121.92	14.9131
1124.81	34.4385
1127.7	16.5381
1130.6	63.7916
1133.49	43.9896
1136.38	46.887
1139.28	75.1823
1142.17	33.3867
1145.06	88.585
1147.95	91.455
1150.85	117.739
1153.74	112.046
1156.63	115.02
1159.53	130.289
1162.42	96.7366
1165.31	62.7694
1168.2	41.5628
1171.1	22.283
1173.99	27.8936
1176.88	10.2717
1179.77	21.2593
1182.67	39.0839
1185.56	9.20325
1188.45	21.9332
1191.35	20.4143
1194.24	37.5472
1197.13	27.7283
1200.02	25.6193
1202.91	3.78119
1205.81	25.4121
1208.7	27.3242
1211.59	28.5012
1214.49	0.945618
1217.38	9.94934
1220.27	22.9864
1223.16	23.5162
1226.06	14.4255
1228.95	28.7713
1231.84	30.4603
1234.73	19.913
1237.63	26.0226
1240.52	35.1467
1243.41	45.6967
1246.31	20.3896
1249.2	32.9266
1252.09	3.52057
1254.98	27.0594
1257.88	27.1147
1260.77	45.0799
1263.66	39.8297
1266.56	5.63623
1269.45	0.294678
1272.34	0.369507
