Measurement: Raman, 532 nm, unoriented, Raman Data Processed
Mineral: Arsendescloizite
Rruff sample: R140430
Ideal chemistry: Pb^2+^Zn^2+^As^5+^O_4_(OH)
Locality: Tsumeb, Namibia
Source: University of Arizona Mineral Museum 17511
Description: Yellowish tabular crystals
Raman shift (cm-1)	intensity
89.7832	0
93.158	29.33
96.5328	59.4071
99.9077	127.277
103.282	293.419
106.657	388.314
110.032	369.586
113.407	387.521
116.782	445.16
120.157	462.332
123.531	313.278
126.906	171.198
130.281	69.0659
133.656	25.6912
137.031	5.5835
140.405	7.36459
143.78	3.53268
147.155	10.6617
150.53	1.8775
153.905	10.4562
157.28	3.41315
160.654	0.702301
164.029	2.74707
167.404	10.4525
170.779	21.2476
174.154	37.3763
177.528	42.2457
180.903	24.001
184.278	11.3793
187.653	15.0733
191.028	32.1838
194.403	51.1143
197.777	79.2091
201.152	112.722
204.527	167.078
207.902	237.785
211.277	313.723
214.651	294.086
218.026	219.15
221.401	165.61
224.776	134.563
228.151	108.436
231.525	78.9875
234.9	52.5788
238.275	27.3375
241.65	10.5304
245.025	0.414825
248.4	10.1751
251.774	12.5727
255.149	14.1985
258.524	8.34815
261.899	5.16232
265.274	1.33106
268.649	6.08951
272.023	19.8209
275.398	45.0022
278.773	87.9252
282.148	153.476
285.523	254.196
288.897	393.46
292.272	601.123
295.647	814.635
299.022	872.125
302.397	775.165
305.772	758.012
309.146	902.985
312.521	1191.89
315.896	1597.21
319.271	1908.34
322.646	1867.92
326.02	1571.02
329.395	1298.02
332.77	1169.35
336.145	1127.07
339.52	1035.77
342.894	921.27
346.269	806.272
349.644	655.355
353.019	438.492
356.394	228.783
359.769	96.3516
363.143	35.9629
366.518	30.1422
369.893	88.8285
373.268	220.922
376.643	428.584
380.017	700.685
383.392	1152.73
386.767	1911.96
390.142	2653.66
393.517	1968.04
396.892	911.445
400.266	436.1
403.641	218.552
407.016	109.916
410.391	60.247
413.766	33.3897
417.14	23.3766
420.515	4.51813
423.89	9.60043
427.265	18.748
430.64	15.5541
434.014	7.93988
437.389	40.5914
440.764	41.7766
444.139	37.7532
447.514	41.422
450.889	29.3949
454.263	9.66187
457.638	0.474365
461.013	3.53565
464.388	4.63492
467.763	3.94257
471.137	1.49204
474.512	6.3147
477.887	12.6287
481.262	22.3507
484.637	30.4698
488.012	26.4668
491.386	24.8768
494.761	28.5003
498.136	29.1209
501.511	29.621
504.886	28.134
508.26	40.1376
511.635	29.0342
515.01	28.362
518.385	24.1378
521.76	19.7011
525.135	15.1381
528.509	8.99911
531.884	7.34227
535.259	5.52873
538.634	5.8244
542.009	6.58771
545.384	6.80684
548.758	5.48184
552.133	5.28294
555.508	8.16959
558.883	6.65584
562.258	9.47343
565.632	6.9713
569.007	7.61871
572.382	5.91893
575.757	4.77582
579.132	4.83801
582.506	3.13722
585.881	3.30588
589.256	3.30124
592.631	0.072845
596.006	0.02713
599.381	1.0256
602.755	0.516479
606.13	0.582123
609.505	0.36142
612.88	0.091187
616.255	1.91592
619.63	1.12665
623.004	2.62582
626.379	3.52097
629.754	2.20264
633.129	4.81711
636.504	6.07925
639.878	6.41388
643.253	9.90067
646.628	11.2667
650.003	12.3874
653.378	15.2446
656.752	16.617
660.127	22.1002
663.502	29.7975
666.877	38.4603
670.252	42.0175
673.626	46.5124
677.001	45.3421
680.376	46.3225
683.751	45.0327
687.126	60.6871
690.501	40.291
693.875	33.4327
697.25	25.0512
700.625	18.9378
704	11.8345
707.375	5.74002
710.75	1.64438
714.124	7.52692
717.499	15.191
720.874	19.2979
724.249	18.1894
727.624	16.3475
730.998	3.11465
734.373	26.7481
737.748	90.597
741.123	201.956
744.498	381.617
747.872	634.904
751.247	894.514
754.622	910.692
757.997	667.672
761.372	472.874
764.747	435.183
768.121	581.51
771.496	941.287
774.871	1521.92
778.246	2458.23
781.621	4042.36
784.995	5056.16
788.37	3369.55
791.745	2068.05
795.12	1695.77
798.495	2063.86
801.87	3211.8
805.244	5131.3
808.619	9277.77
811.994	15503.6
815.369	11772
818.744	5019.23
822.119	2411.92
825.493	1398.51
828.868	926.321
832.243	680.559
835.618	558
838.993	486.433
842.367	333.634
845.742	182.017
849.117	101.887
852.492	59.8569
855.867	35.3666
859.241	19.0645
862.616	10.9296
865.991	0.333008
869.366	12.6343
872.741	14.668
876.115	6.48993
879.49	10.5689
882.865	34.0924
886.24	51.4806
889.615	43.6597
892.99	6.42816
896.364	11.9256
899.739	10.0606
903.114	7.73856
906.489	0.860687
909.864	1.95697
913.239	0.540131
916.613	3.38684
919.988	9.16583
923.363	17.026
926.738	22.0678
930.113	25.1537
933.487	30.0864
936.862	33.073
940.237	36.7103
943.612	42.1334
946.987	44.8514
950.361	50.453
953.736	54.4507
957.111	54.3819
960.486	56
963.861	56.4987
967.236	54.0679
970.61	47.1594
973.985	40.5048
977.36	34.9698
980.735	31.5454
984.11	35.6986
987.485	27.4533
990.859	38.5119
994.234	23.8408
997.609	20.5867
1000.98	21.3722
1004.36	18.6154
1007.73	18.9248
1011.11	19.7584
1014.48	16.5416
1017.86	15.73
1021.23	15.0763
1024.61	14.8925
1027.98	12.7791
1031.36	13.9605
1034.73	12.0206
1038.11	11.9918
1041.48	10.843
1044.86	8.89177
1048.23	6.9322
1051.61	6.73819
1054.98	3.4097
1058.36	4.40727
1061.73	2.18721
1065.11	0.984558
1068.48	0.357788
1071.86	0.102554
1075.23	0.520401
1078.6	0.283875
1081.98	0.300537
1085.35	1.10506
1088.73	0.890503
1092.1	0.171082
1095.48	0.227844
1098.85	4.00461
1102.23	2.18678
1105.6	0.594788
1108.98	0.153946
1112.35	22.0961
1115.73	0.665314
1119.1	2.07237
1122.48	0.534164
1125.85	4.70181
1129.23	2.07458
1132.6	0.484436
1135.98	2.44844
1139.35	3.56544
1142.73	2.23685
1146.1	3.56702
1149.48	3.37306
1152.85	2.22641
1156.22	1.74445
1159.6	0.05484
1162.97	2.13263
1166.35	1.93089
1169.72	1.10451
1173.1	0.170197
1176.47	1.7391
1179.85	2.56499
1183.22	1.38695
1186.6	3.08011
1189.97	0.712082
1193.35	2.81801
1196.72	3.48398
1200.1	2.31801
1203.47	2.69827
1206.85	2.88698
1210.22	6.83398
1213.6	4.55839
1216.97	3.81013
1220.35	5.18921
1223.72	2.95375
1227.1	4.14835
1230.47	0.766281
1233.85	0.529755
1237.22	1.88686
1240.6	4.02014
1243.97	2.28949
1247.35	2.07883
1250.72	3.21677
1254.1	0.069855
1257.47	3.96289
1260.85	9.50566
1264.22	2.7254
1267.59	0.327042
1270.97	1.51784
1274.34	2.63281
1277.72	1.60465
1281.09	4.66533
1284.47	2.67044
1287.84	0.615417
1291.22	2.30119
1294.59	3.89227
1297.97	0.031036
1301.34	0.285599
