Measurement: Raman, 785 nm, unoriented, Raman Data Processed
Mineral: Arseniopleite
Rruff sample: R070144
Ideal chemistry: CaNaMn^2+^Mn^2+^_2_(As^5+^O_4_)_3_
Locality: Sjögruvan mine, Grythyttan, Västmanland, Sweden
Source: Michael Scott
Description: Vitreous brownish red massive
Measured chemistry: (Ca_0.81_Na_0.19_)_Σ=1_(Na_0.99_Pb^2+^_0.01_)_Σ=1_Mn^2+^_1.00_(Mn^2+^_1.10_Mg_0.65_Fe^3+^_0.18_Fe^2+^_0.07_)_Σ=2_(As_1.00_O_4_)_3_; trace amounts of P; Fe^2+^ and Fe^3+^ splitted by charge balance
Raman shift (cm-1)	intensity
125.649	0
128.542	70.5175
131.434	98.0501
134.327	17.0087
137.22	10.2271
140.112	88.329
143.005	204.44
145.898	395.813
148.79	449.951
151.683	420.744
154.576	370.108
157.469	326.094
160.361	331.158
163.254	384.378
166.147	425.622
169.039	454.276
171.932	437.005
174.825	446.019
177.717	403.758
180.61	423.681
183.503	399.523
186.395	389.051
189.288	383.089
192.181	351.506
195.074	341.835
197.966	402.795
200.859	396.554
203.752	355.832
206.644	377.981
209.537	370.237
212.43	401.447
215.322	460.979
218.215	465.355
221.108	532.381
224.001	555.596
226.893	568.554
229.786	563.141
232.679	569.194
235.571	625.297
238.464	595.073
241.357	671.393
244.25	633.825
247.142	631.81
250.035	608.219
252.928	572.356
255.82	592.409
258.713	512.423
261.606	477.033
264.498	431.56
267.391	343.92
270.284	291.53
273.176	257.236
276.069	212.176
278.962	128.905
281.855	100.248
284.747	59.8603
287.64	48.2173
290.533	13.6206
293.425	1.38428
296.318	72.1475
299.211	67.2373
302.103	28.436
304.996	1.60352
307.889	53.0859
310.781	72.1606
313.674	98.4038
316.567	114.686
319.46	133.54
322.352	174.46
325.245	170.679
328.138	128.522
331.03	152.236
333.923	117.059
336.816	148.803
339.709	183.397
342.601	230.458
345.494	336.694
348.387	452.724
351.279	585.724
354.172	758.157
357.065	927.128
359.957	1142.46
362.85	1328.62
365.743	1386.71
368.635	1397.94
371.528	1195.62
374.421	1123.49
377.314	955.628
380.206	915.14
383.099	875.679
385.992	910.109
388.884	987.021
391.777	1057.39
394.67	1096.26
397.562	1133.43
400.455	1194.86
403.348	1266.9
406.241	1305.35
409.133	1291.45
412.026	1165.25
414.919	1001.27
417.811	776.207
420.704	588.793
423.597	424.054
426.49	274.94
429.382	163.912
432.275	50.6897
435.168	18.1809
438.06	33.0405
440.953	36.2925
443.846	30.0774
446.738	2.61231
449.631	35.895
452.524	130.019
455.416	160.051
458.309	158.529
461.202	212.115
464.095	195.218
466.987	199.973
469.88	151.916
472.773	121.116
475.665	118.835
478.558	100.605
481.451	131.986
484.344	79.781
487.236	124.739
490.129	114.231
493.022	66.4692
495.914	69.9817
498.807	9.72852
501.7	1.45435
504.592	30.0654
507.485	47.1003
510.378	93.7976
513.27	69.1352
516.163	55.5791
519.056	85.7964
521.949	62.2366
524.841	95.6309
527.734	96.8928
530.627	154.343
533.519	195.974
536.412	257.712
539.305	322.169
542.197	403.652
545.09	492.302
547.983	538.126
550.875	634.418
553.768	626.808
556.661	671.347
559.554	628.768
562.446	530.653
565.339	493.623
568.232	407.065
571.125	346.787
574.017	286.92
576.91	217.957
579.803	232.07
582.695	152.606
585.588	164.918
588.481	134.28
591.373	118.233
594.266	91.5908
597.159	90.2124
600.052	74.5811
602.944	69.644
605.837	31.1199
608.73	35.8049
611.622	38.0112
614.515	33.2998
617.408	14.3779
620.3	2.34375
623.193	5.54272
626.086	8.7522
628.979	0.344482
631.871	18.0461
634.764	8.50781
637.657	2.1897
640.549	32.8638
643.442	50.8899
646.335	7.74207
649.227	43.4315
652.12	23.7054
655.013	92.9314
657.905	45.4373
660.798	63.6775
663.691	84.0584
666.584	69.0201
669.476	58.7469
672.369	88.0896
675.262	125.067
678.154	163.956
681.047	168.734
683.94	177.394
686.832	166.071
689.725	207.759
692.618	173.936
695.511	180.677
698.403	151.714
701.296	122.289
704.189	119.055
707.081	130.574
709.974	87.4982
712.867	108.329
715.76	91.1804
718.652	88.0526
721.545	50.0509
724.438	11.8309
727.33	11.5577
730.223	11.6027
733.116	33.9454
736.008	56.6522
738.901	47.7
741.794	47.6289
744.687	33.6093
747.579	38.7882
750.472	22.6985
753.365	90.9475
756.257	148.567
759.15	253.856
762.043	247.229
764.935	324.158
767.828	372.944
770.721	410.271
773.613	452.829
776.506	441.213
779.399	361.385
782.292	267.032
785.184	170.389
788.077	120.028
790.97	141.8
793.862	132.495
796.755	228.186
799.648	402.036
802.54	480.666
805.433	599.1
808.326	677.457
811.218	845.893
814.111	1041.67
817.004	1248.83
819.897	1557.99
822.789	2149.87
825.682	2882.07
828.575	3997.51
831.467	5479.47
834.36	7147.26
837.253	8885.75
840.145	9747.74
843.038	9339.24
845.931	7955.67
848.824	6333.55
851.716	5090.2
854.609	4220.61
857.502	3903.07
860.394	3834.34
863.287	4032.93
866.18	4075.96
869.072	3758.7
871.965	3125.84
874.858	2470.53
877.751	1968.7
880.643	1602.59
883.536	1396.24
886.429	1217.96
889.321	1118.84
892.214	960.286
895.107	819.31
898	727.028
900.892	576.328
903.785	424.705
906.678	265.004
909.57	108.99
912.463	13.23
915.356	26.4495
918.248	81.7054
921.141	64.9801
924.034	70.6998
926.927	62.7324
929.819	21.6698
932.712	5.52429
935.605	0.070068
938.497	23.4456
941.39	55.4138
944.283	59.5111
947.175	72.0974
950.068	82.7422
952.961	101.416
955.854	75.9973
958.746	111.368
961.639	97.2197
964.532	121.567
967.424	139.155
970.317	154.412
973.21	171.379
976.102	160.251
978.995	173.434
981.888	147.716
984.78	133.033
987.673	129.734
990.566	122.695
993.459	113.795
996.351	153.673
999.244	145.803
1002.14	142.8
1005.03	176.423
1007.92	156.905
1010.82	155.584
1013.71	196.395
1016.6	188.101
1019.49	210.001
1022.39	189.831
1025.28	167.805
1028.17	180.506
1031.06	209.28
1033.96	189.856
1036.85	151.907
1039.74	191.918
1042.63	227.882
1045.53	264.263
1048.42	269.546
1051.31	312.788
1054.2	294.659
1057.1	355.169
1059.99	359.55
1062.88	378.694
1065.78	412.139
1068.67	406.934
1071.56	431.039
1074.45	432.357
1077.35	474.595
1080.24	554.701
1083.13	564.954
1086.03	608.179
1088.92	568.717
1091.81	462.203
1094.7	342.487
1097.6	266.598
1100.49	133.135
1103.38	107.873
1106.27	20.5742
1109.17	12.9348
1112.06	42.3516
1114.95	24.4561
1117.85	4.64844
1120.74	116.878
1123.63	66.0132
1126.52	160.89
1129.41	130.918
1132.31	199.215
1135.2	276.055
1138.09	277.687
1140.99	173.816
1143.88	180.939
1146.77	153.611
1149.66	189.462
1152.56	134.988
1155.45	89.4282
1158.34	64.1704
1161.23	109.142
1164.13	1.08789
1167.02	22.2646
