Measurement: Raman, 780 nm, unoriented, Raman Data Processed
Mineral: Arsentsumebite
Rruff sample: R110041
Ideal chemistry: Pb^2+^_2_Cu^2+^(As^5+^O_4_)(SO_4_)(OH)
Locality: Tsumeb, Namibia
Source: William W Pinch
Description: Green tabular crystals associated with linarite and goethite
Raman shift (cm-1)	intensity
199.598	0
202.49	1.35823
205.383	4.99782
208.276	6.33946
211.168	9.66229
214.061	13.2833
216.954	2.60912
219.847	4.02626
222.739	0.076813
225.632	0.081879
228.525	6.87323
231.417	6.68044
234.31	7.81381
237.203	11.7339
240.095	13.1672
242.988	11.9611
245.881	10.3846
248.774	1.96104
251.666	0.0821
254.559	1.12839
257.452	1.72073
260.344	3.44659
263.237	1.92563
266.13	6.43509
269.022	8.37652
271.915	12.1869
274.808	18.6617
277.701	33.2049
280.593	37.5503
283.486	51.5764
286.379	66.6078
289.271	89.4337
292.164	118.944
295.057	155.468
297.95	198.635
300.842	248.866
303.735	305.53
306.628	347.288
309.52	370.045
312.413	348.899
315.306	313.535
318.198	283.277
321.091	256.136
323.984	243.349
326.877	238.345
329.769	250.085
332.662	265.968
335.555	264.596
338.447	264.65
341.34	247.951
344.233	212.929
347.125	173.758
350.018	136.738
352.911	98.4427
355.803	75.107
358.696	54.9817
361.589	34.4947
364.482	29.3837
367.374	16.9388
370.267	3.91489
373.16	3.53864
376.052	10.9521
378.945	2.67015
381.838	2.58281
384.731	6.34042
387.623	11.7763
390.516	16.039
393.409	8.84506
396.301	9.19669
399.194	7.48269
402.087	4.98018
404.979	13.5794
407.872	15.3549
410.765	16.4244
413.658	16.54
416.55	19.837
419.443	26.7946
422.336	25.5045
425.228	34.7942
428.121	63.5361
431.014	99.4004
433.906	151.652
436.799	225.371
439.692	298.307
442.584	321.079
445.477	255.812
448.37	173.878
451.263	117.349
454.155	82.5389
457.048	66.9147
459.941	57.8227
462.833	42.7042
465.726	30.8485
468.619	26.3055
471.512	19.595
474.404	17.9051
477.297	14.7478
480.19	16.1805
483.082	16.4937
485.975	12.1505
488.868	14.3992
491.76	10.7835
494.653	8.40718
497.546	4.44429
500.438	7.05286
503.331	6.16696
506.224	6.63667
509.117	8.68296
512.009	2.25931
514.902	0.195045
517.795	0.512405
520.687	2.03696
523.58	3.42389
526.473	0.805962
529.365	1.671
532.258	0.72011
535.151	2.04962
538.044	1.22876
540.936	1.19905
543.829	4.75583
546.722	2.13444
549.614	1.53849
552.507	3.80354
555.4	3.11759
558.293	4.57143
561.185	7.38399
564.078	8.56351
566.971	7.59813
569.863	8.13334
572.756	6.87274
575.649	10.1371
578.541	9.06361
581.434	4.60514
584.327	5.4903
587.22	8.3518
590.112	12.2379
593.005	13.6861
595.898	16.3663
598.79	30.4799
601.683	35.8741
604.576	42.7427
607.468	39.1955
610.361	30.3824
613.254	26.5484
616.146	17.4928
619.039	19.0667
621.932	16.8041
624.825	12.0301
627.717	8.85104
630.61	6.38659
633.503	1.27917
636.395	6.92185
639.288	3.46543
642.181	4.53431
645.073	4.47802
647.966	5.01093
650.859	3.54149
653.752	2.36448
656.644	4.99096
659.537	2.53565
662.43	4.37627
665.322	5.01399
668.215	4.49446
671.108	4.53344
674	3.42483
676.893	4.24427
679.786	9.02713
682.679	4.34721
685.571	1.60833
688.464	5.03821
691.357	2.56087
694.249	3.52013
697.142	1.98394
700.035	3.79067
702.928	3.55659
705.82	3.9064
708.713	0.026342
711.606	1.66728
714.498	2.28199
717.391	3.71934
720.284	0.427008
723.176	1.25027
726.069	0.30788
728.962	0.119593
731.855	0.756893
734.747	0.157013
737.64	1.00058
740.533	0.66235
743.425	2.91086
746.318	0.940651
749.211	5.96945
752.103	8.36331
754.996	13.7871
757.889	17.5483
760.782	21.7858
763.674	31.3328
766.567	40.4138
769.46	50.6121
772.352	60.9977
775.245	71.5601
778.138	82.9287
781.03	99.5092
783.923	112.782
786.816	130.658
789.708	151.399
792.601	178.756
795.494	208.061
798.387	237.848
801.279	285.25
804.172	322.297
807.065	362.278
809.957	383.22
812.85	387.3
815.743	374.838
818.635	348.52
821.528	318.58
824.421	279.236
827.314	246.926
830.206	206.053
833.099	173.956
835.992	146.83
838.884	121.647
841.777	100.831
844.67	84.8571
847.562	70.4164
850.455	59.2991
853.348	48.851
856.241	38.0003
859.133	24.765
862.026	16.1136
864.919	13.0438
867.811	11.513
870.704	5.40704
873.597	2.6356
876.49	1.57865
879.382	1.33667
882.275	5.07083
885.168	3.673
888.06	5.23116
890.953	0.490444
893.846	2.21138
896.738	7.10292
899.631	9.31638
902.524	13.1592
905.417	14.7216
908.309	15.125
911.202	12.6918
914.095	12.2867
916.987	6.86348
919.88	9.70414
922.773	4.0758
925.665	5.5909
928.558	1.8033
931.451	2.77319
934.343	2.78525
937.236	4.14107
940.129	2.9069
943.022	7.74953
945.914	15.2002
948.807	26.1536
951.7	49.5702
954.592	71.7719
957.485	112.065
960.378	181.006
963.27	284.883
966.163	434.971
969.056	574.511
971.949	592.597
974.841	453.92
977.734	279.713
980.627	168.582
983.519	93.6103
986.412	60.3753
989.305	45.4212
992.197	25.5995
995.09	17.3308
997.983	11.9158
1000.88	5.91365
1003.77	3.96356
1006.66	4.30542
1009.55	4.79655
1012.45	1.10498
1015.34	0.353785
1018.23	0.378321
1021.12	0.589384
1024.02	2.43142
1026.91	0.947657
1029.8	5.60408
1032.69	1.03095
1035.59	3.69356
1038.48	6.38606
1041.37	1.61908
1044.27	1.51772
1047.16	7.70991
1050.05	8.77423
1052.94	3.59829
1055.84	4.03964
1058.73	8.44496
1061.62	9.49748
1064.52	11.7802
1067.41	11.6265
1070.3	13.7103
1073.19	13.7166
1076.09	12.3852
1078.98	15.3107
1081.87	7.72313
1084.76	10.2858
1087.66	11.3318
1090.55	11.092
1093.44	9.23558
1096.34	6.59026
1099.23	7.55577
1102.12	6.83166
1105.01	3.51845
1107.91	8.3038
1110.8	6.07355
1113.69	1.82971
1116.58	3.6929
1119.48	4.23179
1122.37	4.87277
1125.26	3.41221
1128.15	7.78928
1131.05	0.998873
1133.94	1.79498
1136.83	2.16864
1139.72	2.58623
1142.62	3.2751
1145.51	0.699219
1148.4	2.26075
1151.3	7.61225
1154.19	1.78897
1157.08	5.09881
1159.97	4.62925
1162.87	2.772
1165.76	4.65358
1168.65	2.7835
1171.55	4.41723
1174.44	3.00642
1177.33	3.00709
1180.22	5.07973
1183.12	2.97878
1186.01	3.62171
1188.9	7.05098
1191.79	7.9974
1194.69	4.75123
1197.58	3.35725
1200.47	4.27643
1203.37	2.97383
1206.26	1.45597
1209.15	4.8958
1212.04	6.02744
1214.93	5.27431
1217.83	6.50005
1220.72	7.49672
1223.61	1.60487
1226.51	5.51775
1229.4	8.74624
1232.29	3.67808
1235.18	6.38793
1238.08	4.92086
1240.97	6.55046
1243.86	5.92057
1246.76	8.55708
1249.65	5.50458
1252.54	5.46116
1255.43	6.58572
1258.33	7.3129
1261.22	6.9691
1264.11	6.42652
1267	3.14344
1269.9	3.93624
1272.79	3.8252
1275.68	7.90632
1278.58	1.06708
1281.47	5.28518
1284.36	1.44232
