Measurement: Raman, 780 nm, unoriented, Raman Data Processed
Mineral: Arseniosiderite
Rruff sample: R150062
Ideal chemistry: Ca_2_Fe^3+^_3_O_2_(As^5+^O_4_)_3_3H_2_O
Locality: Benjamin Hill, Sonora, Mexico
Source: Michael Scott
Description: Dark red platy crystals, associated with yellow tan colored granular aggregates of beudantite,  euhedral red sewardite and quartz
Raman shift (cm-1)	intensity
90.5957	0
93.9705	28.5184
97.3453	13.0932
100.72	2.62071
104.095	10.9973
107.47	13.393
110.845	36.9097
114.219	58.0191
117.594	53.932
120.969	62.4472
124.344	62.735
127.719	60.3149
131.094	60.4544
134.468	43.3725
137.843	49.2873
141.218	79.9454
144.593	110.063
147.968	152.211
151.342	198.552
154.717	150.571
158.092	104.256
161.467	93.9696
164.842	103.418
168.216	108.079
171.591	124.577
174.966	111.996
178.341	87.7307
181.716	73.64
185.09	65.3311
188.465	59.8468
191.84	84.2166
195.215	113.908
198.59	169.54
201.965	217.361
205.339	121.613
208.714	20.7877
212.089	4.84569
215.464	0.947327
218.839	20.4281
222.214	38.5842
225.588	58.2169
228.963	55.3524
232.338	42.9524
235.713	44.6699
239.088	48.6559
242.462	54.8309
245.837	58.6326
249.212	54.5184
252.587	45.2715
255.962	39.6326
259.336	33.007
262.711	18.2504
266.086	5.41824
269.461	1.68056
272.836	1.18096
276.211	2.24782
279.585	4.8451
282.96	2.87881
286.335	1.47212
289.71	1.68328
293.085	2.72369
296.459	1.2453
299.834	2.23229
303.209	2.2401
306.584	6.70628
309.959	9.56148
313.334	9.19261
316.708	7.52679
320.083	5.01435
323.458	3.97956
326.833	5.35961
330.207	5.27328
333.582	5.50685
336.957	1.74733
340.332	1.68357
343.707	1.94189
347.082	1.65098
350.456	10.8355
353.831	20.4018
357.206	16.4635
360.581	12.6648
363.956	21.6256
367.33	32.7561
370.705	50.1888
374.08	78.5043
377.455	116.002
380.83	154.748
384.205	187.14
387.579	210.175
390.954	238.456
394.329	244.367
397.704	197.988
401.079	125.309
404.453	65.0498
407.828	35.5547
411.203	30.3835
414.578	33.299
417.953	42.9534
421.327	53.4437
424.702	49.1731
428.077	47.1026
431.452	45.099
434.827	45.0171
438.202	50.7628
441.576	61.5091
444.951	70.9288
448.326	75.4203
451.701	69.4179
455.076	63.4566
458.45	65.4745
461.825	80.3259
465.2	86.1347
468.575	50.0373
471.95	16.4756
475.325	3.88052
478.699	0.261337
482.074	1.0396
485.449	4.58542
488.824	11.8999
492.199	12.4091
495.573	9.23119
498.948	5.07738
502.323	0.723274
505.698	2.20345
509.073	3.81047
512.447	3.32227
515.822	0.317551
519.197	5.65614
522.572	14.0837
525.947	25.7765
529.322	38.2536
532.696	46.6269
536.071	42.7818
539.446	32.8652
542.821	25.1012
546.196	18.7913
549.57	13.7271
552.945	8.55547
556.32	5.9469
559.695	4.20413
563.07	3.03294
566.444	2.03058
569.819	0.17762
573.194	1.15673
576.569	0.158936
579.944	0.64357
583.319	1.82789
586.693	1.55506
590.068	2.81226
593.443	3.77309
596.818	4.46316
600.193	4.5974
603.567	5.21419
606.942	6.05228
610.317	7.07119
613.692	7.83473
617.067	9.21415
620.442	11.0258
623.816	12.8499
627.191	15.692
630.566	16.8273
633.941	18.8915
637.316	20.2433
640.69	21.1667
644.065	21.2664
647.44	21.702
650.815	20.8333
654.19	20.6519
657.564	19.789
660.939	18.7909
664.314	17.6896
667.689	16.8722
671.064	15.5412
674.439	15.1024
677.813	13.9926
681.188	13.1099
684.563	11.7217
687.938	10.2243
691.313	9.33063
694.688	7.93982
698.062	6.40911
701.437	5.57588
704.812	4.19253
708.187	3.26892
711.562	3.12101
714.936	1.99778
718.311	1.03673
721.686	0.453066
725.061	0.46767
728.436	0.263729
731.81	0.651794
735.185	0.727032
738.56	0.608559
741.935	0.44416
745.31	1.08595
748.684	3.76295
752.059	8.69229
755.434	15.9563
758.809	27.8019
762.184	44.2211
765.559	54.285
768.933	56.8399
772.308	56.7188
775.683	51.8023
779.058	40.9995
782.433	34.6394
785.808	29.4326
789.182	22.8427
792.557	12.157
795.932	4.778
799.307	0.515911
802.682	1.37574
806.056	0.069885
809.431	1.60334
812.806	3.99825
816.181	9.73879
819.556	18.0337
822.93	25.9254
826.305	34.1397
829.68	51.021
833.055	70.0503
836.43	73.4416
839.804	53.6518
843.179	44.8537
846.554	63.4378
849.929	104.24
853.304	176.694
856.679	274.62
860.053	263.431
863.428	156.629
866.803	80.2563
870.178	36.7709
873.553	15.2942
876.927	5.8293
880.302	1.37009
883.677	1.25156
887.052	1.67165
890.427	7.59911
893.802	18.6878
897.176	34.1106
900.551	59.0941
903.926	85.5908
907.301	115.123
910.676	119.918
914.05	81.6726
917.425	62.4174
920.8	68.8758
924.175	97.8102
927.55	163.437
930.924	262.419
934.299	368.75
937.674	493.849
941.049	487.543
944.424	239.022
947.799	96.0328
951.173	42.6347
954.548	20.2547
957.923	9.64665
961.298	4.05764
964.673	0.470339
968.047	0.302925
971.422	0.732449
974.797	0.568768
978.172	0.435915
981.547	0.280426
984.922	0.388203
988.296	0.579592
991.671	1.04061
995.046	1.33529
998.421	1.77878
1001.8	1.84557
1005.17	2.67604
1008.54	2.88565
1011.92	3.21737
1015.29	3.31836
1018.67	4.13582
1022.04	4.57226
1025.42	4.33826
1028.79	4.42545
1032.17	3.91938
1035.54	3.84389
1038.92	3.03249
1042.29	2.98809
1045.67	2.9849
1049.04	2.88829
1052.42	2.68997
1055.79	2.13658
1059.17	2.34951
1062.54	2.11137
1065.92	2.65189
1069.29	2.67337
1072.67	2.4024
1076.04	2.82465
1079.42	2.2044
1082.79	2.59517
1086.17	2.20036
1089.54	2.39064
1092.92	2.28586
1096.29	1.59094
1099.66	1.71002
1103.04	1.24569
1106.41	1.12451
1109.79	0.517625
1113.16	0.587423
1116.54	0.385577
1119.91	0.085118
1123.29	0.081199
1126.66	0.179537
1130.04	0.286186
1133.41	0.37343
1136.79	0.363145
1140.16	0.578368
1143.54	0.273321
1146.91	0.262905
1150.29	0.565525
1153.66	0.492631
1157.04	1.48394
1160.41	1.74522
1163.79	1.35747
1167.16	0.679277
1170.54	0.22741
1173.91	0.11503
1177.29	0.325652
1180.66	0.165298
1184.04	0.106444
1187.41	0.43056
1190.79	0.042413
1194.16	0.010639
1197.54	0.311057
1200.91	0.106583
1204.28	0.002141
1207.66	0.154769
1211.03	0.041912
1214.41	0.26921
1217.78	0.73543
1221.16	0.733843
1224.53	0.614
1227.91	0.255668
1231.28	0.973635
1234.66	0.66388
1238.03	0.228142
1241.41	0.245321
1244.78	0.166823
1248.16	0.503721
1251.53	0.139051
1254.91	0.29357
1258.28	0.519268
1261.66	0.342875
1265.03	0.42211
1268.41	0.186913
1271.78	0.309826
1275.16	0.175669
1278.53	0.346148
1281.9	0.106394
