Measurement: Raman, 532 nm, unoriented, Raman Data Processed
Mineral: Arsenolite
Rruff sample: R080095
Ideal chemistry: As^3+^_2_O_3_
Locality: JÃ¡chymov, Erzgebirge Region, Czech Republic
Source: University of Arizona Mineral Museum
Description: Colorless octahedra crystals on black matrix associated with colorless prismatic claudetite, R050313.
Raman shift (cm-1)	intensity
124.655	0
128.03	13.5673
131.405	34.5199
134.78	91.4737
138.155	91.6112
141.529	76.7029
144.904	61.2728
148.279	59.5116
151.654	68.8695
155.029	72.4634
158.404	77.1152
161.778	136.262
165.153	542.467
168.528	688.605
171.903	820.834
175.278	1037.48
178.652	1606.33
182.027	3946.39
185.402	2334.14
188.777	201.253
192.152	79.365
195.526	41.8844
198.901	13.7568
202.276	4.70435
205.651	8.17566
209.026	6.245
212.401	7.03479
215.775	0.501709
219.15	4.78784
222.525	6.61316
225.9	11.1025
229.275	19.4168
232.649	0.240723
236.024	22.3791
239.399	43.5531
242.774	112.342
246.149	280.078
249.524	1656.61
252.898	3031.54
256.273	3586.19
259.648	4725.38
263.023	7434.26
266.398	19068.6
269.772	17420.4
273.147	817.815
276.522	202.107
279.897	98.7943
283.272	70.3302
286.647	17.7324
290.021	12.8462
293.396	1.68018
296.771	1.00269
300.146	7.71704
303.521	7.45093
306.895	5.20373
310.27	1.51379
313.645	0.590942
317.02	10.8257
320.395	25.5687
323.769	29.7378
327.144	41.3289
330.519	42.6899
333.894	52.5063
337.269	54.0507
340.644	83.2356
344.018	182.81
347.393	489.645
350.768	2205.54
354.143	5936.39
357.518	7404.45
360.892	10322.5
364.267	19557.3
367.642	43201.4
371.017	40465.8
374.392	5004.32
377.767	1823.23
381.141	1047.05
384.516	654.878
387.891	349.74
391.266	178.092
394.641	72.3064
398.015	39.5032
401.39	29.9225
404.765	38.7576
408.14	87.2157
411.515	186.838
414.89	234.22
418.264	21.3829
421.639	4.88611
425.014	11.4198
428.389	10.2998
431.764	5.26868
435.139	20.4359
438.513	43.3772
441.888	99.9934
445.263	129.718
448.638	218.684
452.013	470.907
455.387	844.659
458.762	1195.43
462.137	1671.92
465.512	2640.61
468.887	3767.22
472.262	3214.69
475.636	1278.99
479.011	487.606
482.386	191.674
485.761	85.8705
489.136	27.0254
492.51	5.87451
495.885	0.059692
499.26	1.40002
502.635	1.547
506.01	8.36352
509.385	44.2145
512.759	21.0884
516.134	3.50256
519.509	58.832
522.884	100.376
526.259	144.946
529.633	254.854
533.008	312.927
536.383	342.91
539.758	397.076
543.133	1008.6
546.507	2155.76
549.882	3089.39
553.257	5303.51
556.632	9950.58
560.007	14382.9
563.381	5010.82
566.756	1061.18
570.131	405.971
573.506	199.436
576.881	108.167
580.256	70.2694
583.63	33.1951
587.005	34.251
590.38	29.6606
593.755	55.4736
597.13	68.787
600.505	41.2469
603.879	11.8844
607.254	1.12305
610.629	2.83093
614.004	3.96435
617.379	11.0134
620.753	8.75452
624.128	15.9748
627.503	18.7242
630.878	18.5283
634.253	17.852
637.628	20.8987
641.002	31.1907
644.377	30.032
647.752	27.5081
651.127	35.7864
654.502	41.1831
657.876	34.0872
661.251	50.5569
664.626	40.1289
668.001	50.7765
671.376	44.1435
674.75	39.5614
678.125	61.6794
681.5	56.7987
684.875	70.3899
688.25	44.3455
691.625	26.3379
694.999	3.85352
698.374	6.14819
701.749	12.0516
705.124	11.6717
708.499	3.71716
711.874	0.858154
715.248	4.80859
718.623	0.594971
721.998	3.51721
725.373	2.94141
728.748	1.34692
732.122	14.3466
735.497	12.5162
738.872	12.7622
742.247	14.9383
745.622	26.3087
748.996	24.6105
752.371	59.0272
755.746	75.264
759.121	110.133
762.496	184.244
765.87	443.667
769.245	782.315
772.62	1232.93
775.995	2363.32
779.37	3787.05
782.745	2274.54
786.119	561.326
789.494	205.372
792.869	99.4581
796.244	61.3005
799.619	21.801
802.994	12.0604
806.368	24.3852
809.743	34.0353
813.118	17.5252
816.493	28.5945
819.868	33.7181
823.242	38.1835
826.617	56.9869
829.992	27.0492
833.367	2.48206
836.742	1.99988
840.116	8.20337
843.491	11.8314
846.866	2.28687
850.241	16.1787
853.616	17.4627
856.991	9.30078
860.365	1.04053
863.74	5.30518
867.115	11.8509
870.49	20.3151
873.865	3.27881
877.24	6.04822
880.614	0.8927
883.989	17.7618
887.364	11.5446
890.739	23.6143
894.114	17.2859
897.488	18.9785
900.863	25.6855
904.238	26.3146
907.613	2.6167
910.988	11.0297
914.362	21.9586
917.737	29.6442
921.112	15.2633
924.487	25.8355
927.862	24.4311
931.237	31.3355
934.611	3.54065
937.986	10.0303
941.361	0.898682
944.736	9.30444
948.111	21.6462
951.486	11.2222
954.86	1.65308
958.235	6.09546
961.61	3.54688
964.985	11.5908
968.36	16.8003
971.734	44.6924
975.109	5.1521
978.484	2.76953
981.859	8.96973
985.234	1.95142
988.609	23.488
991.983	6.25098
995.358	7.59497
998.733	0.121826
1002.11	4.48462
1005.48	2.32202
1008.86	3.83838
1012.23	7.15015
1015.61	17.6113
1018.98	17.8901
1022.36	20.3782
1025.73	22.4277
1029.11	17.3054
1032.48	21.4002
1035.86	22.2568
1039.23	23.6599
1042.61	17.3948
1045.98	34.3928
1049.36	30.1301
1052.73	12.9902
1056.11	22.0391
1059.48	26.8987
1062.85	17.5393
1066.23	21.9123
1069.6	17.1038
1072.98	13.7271
1076.35	19.0469
1079.73	13.6318
1083.1	12.168
1086.48	15.762
1089.85	3.7395
1093.23	3.19531
1096.6	6.50049
1099.98	6.02295
1103.35	25.7688
1106.73	17.5093
1110.1	34.4065
1113.48	30.8896
1116.85	22.0029
1120.23	30.8301
1123.6	12.042
1126.98	5.21997
1130.35	10.9702
1133.73	26.8933
1137.1	35.4707
1140.47	33.8227
1143.85	40.2026
1147.22	25.9075
1150.6	23.8518
1153.97	12.8491
1157.35	14.9114
1160.72	14.3079
1164.1	15.3862
1167.47	25.1934
1170.85	36.9253
1174.22	43.4285
1177.6	7.37207
1180.97	16.0442
1184.35	16.5869
1187.72	5.42603
1191.1	9.67578
1194.47	22.9959
1197.85	25.9836
1201.22	20.6023
1204.6	5.84521
1207.97	12.5781
1211.35	23.9368
1214.72	18.5183
1218.1	20.0161
1221.47	0.770264
1224.85	12.7766
1228.22	19.1465
1231.6	20.3135
1234.97	35.148
1238.35	3.82666
1241.72	9.22632
1245.09	10.5229
1248.47	13.4448
1251.84	23.1521
1255.22	20.7927
1258.59	0.166748
1261.97	17.0847
1265.34	19.5662
1268.72	9.05127
1272.09	2.26367
1275.47	30.5847
1278.84	29.3977
1282.22	9.60474
1285.59	13.363
1288.97	7.95117
1292.34	15.124
1295.72	13.044
1299.09	18.2676
1302.47	0.352295
