Measurement: Raman, 532 nm, unoriented, Raman Data Processed
Mineral: Arsentsumebite
Rruff sample: R110041
Ideal chemistry: Pb^2+^_2_Cu^2+^(As^5+^O_4_)(SO_4_)(OH)
Locality: Tsumeb, Namibia
Source: William W Pinch
Description: Green tabular crystals associated with linarite and goethite
Raman shift (cm-1)	intensity
194.629	0
197.522	11.754
200.415	13.1345
203.308	15.8915
206.2	20.3456
209.093	13.8013
211.986	32.9303
214.878	26.58
217.771	17.5293
220.664	10.4745
223.556	7.77014
226.449	0.842529
229.342	6.45825
232.234	4.33521
235.127	7.97498
238.02	8.6792
240.913	3.74963
243.805	8.89771
246.698	14.3326
249.591	4.34119
252.483	2.47498
255.376	5.4856
258.269	8.99121
261.161	14.3223
264.054	20.7726
266.947	30.1138
269.84	42.7029
272.732	58.5338
275.625	71.0248
278.518	100.397
281.41	127.556
284.303	155.446
287.196	201.87
290.089	269.162
292.981	344.59
295.874	416.244
298.767	479.772
301.659	523.523
304.552	557.388
307.445	556.273
310.337	535.409
313.23	489.945
316.123	454.503
319.015	407.288
321.908	377.815
324.801	366.596
327.694	358.024
330.586	363.277
333.479	387.923
336.372	417.635
339.264	425.316
342.157	383.869
345.05	315.929
347.942	244.116
350.835	188.37
353.728	141.554
356.621	106.644
359.513	75.9028
362.406	47.6967
365.299	28.2146
368.191	16.7629
371.084	7.57056
373.977	7.36011
376.87	11.1545
379.762	3.95349
382.655	9.86816
385.548	0.493286
388.44	6.83899
391.333	16.2937
394.226	15.3688
397.118	11.3285
400.011	21.1365
402.904	24.9962
405.796	38.9377
408.689	46.1948
411.582	63.0762
414.475	64.7599
417.367	71.929
420.26	67.8152
423.153	69.25
426.045	98.0654
428.938	152.211
431.831	224.843
434.724	323.017
437.616	452.321
440.509	531.419
443.402	507.976
446.294	385.531
449.187	289
452.08	221.326
454.972	199.928
457.865	199.573
460.758	204.884
463.651	194.744
466.543	169.96
469.436	149.295
472.329	119.301
475.221	99.5287
478.114	79.3909
481.007	69.3689
483.899	64.7992
486.792	52.0177
489.685	41.9779
492.577	28.1975
495.47	19.0546
498.363	16.9756
501.256	12.13
504.148	7.31921
507.041	6.4563
509.934	7.13855
512.826	4.23926
515.719	0.240479
518.612	3.01318
521.505	1.97229
524.397	2.646
527.29	6.66138
530.183	0.673096
533.075	4.24829
535.968	0.908569
538.861	1.08362
541.753	1.47168
544.646	7.14282
547.539	9.42578
550.432	2.93933
553.324	4.5979
556.217	2.22217
559.11	13.486
562.002	5.44617
564.895	7.01526
567.788	7.71375
570.68	6.40332
573.573	4.94617
576.466	14.3684
579.359	11.3509
582.251	14.1445
585.144	10.922
588.037	15.7516
590.929	27.8174
593.822	32.1675
596.715	49.4301
599.607	59.4691
602.5	69.3674
605.393	73.1326
608.285	60.3528
611.178	47.6399
614.071	41.2253
616.964	35.977
619.856	37.1135
622.749	26.63
625.642	23.5605
628.534	12.9369
631.427	2.87219
634.32	6.95532
637.212	8.96472
640.105	13.8367
642.998	3.26697
645.891	7.64905
648.783	6.52612
651.676	7.05151
654.569	10.8195
657.461	11.5776
660.354	12.759
663.247	14.9186
666.139	17.0666
669.032	10.5592
671.925	20.2885
674.818	21.3777
677.71	18.1055
680.603	24.677
683.496	29.4526
686.388	24.4221
689.281	26.1781
692.174	19.8436
695.067	18.4136
697.959	13.349
700.852	11.7235
703.745	9.71545
706.637	9.35693
709.53	5.36279
712.423	6.23523
715.315	4.96216
718.208	4.15894
721.101	5.76575
723.994	3.6814
726.886	3.00842
729.779	1.74194
732.672	1.24707
735.564	2.19446
738.457	3.29529
741.35	1.28174
744.242	0.720947
747.135	6.54394
750.028	17.8328
752.92	35.5465
755.813	54.004
758.706	79.7283
761.599	107.065
764.491	140.8
767.384	191.478
770.277	244.945
773.169	306.409
776.062	362.535
778.955	418.079
781.847	486.181
784.74	558.757
787.633	662.559
790.526	786.878
793.418	926.66
796.311	1069.99
799.204	1239.58
802.096	1446.31
804.989	1652.19
807.882	1811.8
810.774	1875.62
813.667	1848.32
816.56	1730.31
819.453	1573.3
822.345	1400.57
825.238	1211.82
828.131	1023.69
831.023	862.903
833.916	706.055
836.809	586.506
839.702	486.166
842.594	402.432
845.487	338.757
848.38	280.276
851.272	228.737
854.165	191.947
857.058	158.082
859.95	114.127
862.843	78.3138
865.736	44.6283
868.629	25.6981
871.521	14.1514
874.414	7.31811
877.307	2.10962
880.199	7.83582
883.092	9.3208
885.985	12.0049
888.877	4.07922
891.77	3.52075
894.663	22.915
897.556	57.4147
900.448	86.9214
903.341	114.471
906.234	115.608
909.126	100.191
912.019	74.3911
914.912	53.1534
917.804	41.535
920.697	31.7477
923.59	26.3108
926.482	24.1273
929.375	16.147
932.268	2.89478
935.161	2.25708
938.053	3.70325
940.946	12.8344
943.839	24.6945
946.731	59.5065
949.624	110.17
952.517	179.862
955.409	312.448
958.302	513.868
961.195	857.782
964.088	1364.44
966.98	2046.47
969.873	2789.19
972.766	3032.42
975.658	2366.34
978.551	1391.5
981.444	741.022
984.337	403.883
987.229	246.289
990.122	168.924
993.015	111.802
995.907	70.5621
998.8	49.7999
1001.69	29.6704
1004.59	21.1446
1007.48	11.9152
1010.37	7.49121
1013.26	1.23291
1016.16	2.18372
1019.05	1.64246
1021.94	0.868652
1024.83	7.41894
1027.73	1.59399
1030.62	4.76526
1033.51	0.693848
1036.4	7.0791
1039.3	9.72876
1042.19	4.71912
1045.08	4.12048
1047.98	11.6487
1050.87	17.7483
1053.76	14.7843
1056.65	22.75
1059.55	25.6826
1062.44	28.2623
1065.33	34.6036
1068.22	43.1039
1071.12	52.4086
1074.01	55.0917
1076.9	61.3152
1079.8	68.9596
1082.69	62.1365
1085.58	58.9188
1088.47	65.1481
1091.37	50.4747
1094.26	44.1488
1097.15	40.2398
1100.04	41.6423
1102.94	35.8926
1105.83	31.0549
1108.72	29.3108
1111.62	27.2052
1114.51	36.433
1117.4	30.3029
1120.29	29.339
1123.19	33.6536
1126.08	23.606
1128.97	19.398
1131.86	12.6726
1134.76	13.9349
1137.65	21.6677
1140.54	17.0001
1143.43	17.519
1146.33	13.5693
1149.22	15.4325
1152.11	19.2158
1155.01	23.5775
1157.9	19.5071
1160.79	23.3187
1163.68	23.3982
1166.58	14.8988
1169.47	13.5122
1172.36	5.40832
1175.26	2.9762
1178.15	4.25915
1181.04	4.06897
1183.93	0.866333
1186.83	4.91223
1189.72	2.6709
1192.61	3.97925
1195.5	1.05811
1198.4	1.41638
1201.29	10.7196
1204.18	4.41089
1207.07	14.0851
1209.97	17.8441
1212.86	15.9474
1215.75	10.9465
1218.64	10.4402
1221.54	5.54785
1224.43	11.856
1227.32	8.17029
1230.22	11.3088
1233.11	11.0211
1236	20.3977
1238.89	1.11438
1241.79	9.85681
1244.68	13.3916
1247.57	6.28589
1250.46	0.966675
1253.36	5.9032
1256.25	2.6958
1259.14	2.90308
1262.04	4.18127
1264.93	3.62415
1267.82	1.87573
1270.71	3.63354
1273.61	1.17029
1276.5	2.33533
1279.39	4.69385
1282.29	2.8634
1285.18	3.979
1288.07	3.35461
1290.96	1.9408
1293.86	2.98645
1296.75	4.53345
1299.64	2.46753
1302.53	1.38892
