Measurement: Raman, 532 nm, unoriented, Raman Data Processed
Mineral: Arseniosiderite
Rruff sample: R150062
Ideal chemistry: Ca_2_Fe^3+^_3_O_2_(As^5+^O_4_)_3_3H_2_O
Locality: Benjamin Hill, Sonora, Mexico
Source: Michael Scott
Description: Dark red platy crystals, associated with yellow tan colored granular aggregates of beudantite,  euhedral red sewardite and quartz
Raman shift (cm-1)	intensity
89.7832	0
93.158	14.9595
96.5328	10.8005
99.9077	1.93218
103.282	1.24131
106.657	8.6541
110.032	22.4942
113.407	39.9713
116.782	60.4995
120.157	80.811
123.531	102.12
126.906	101.343
130.281	99.3098
133.656	63.13
137.031	51.7538
140.405	69.9266
143.78	85.6713
147.155	103.527
150.53	130.829
153.905	115.11
157.28	81.911
160.654	69.6007
164.029	72.5852
167.404	88.3053
170.779	114.19
174.154	132.346
177.528	135.827
180.903	139.005
184.278	148.416
187.653	158.058
191.028	188.908
194.403	230.836
197.777	303.873
201.152	384.892
204.527	300.492
207.902	120.271
211.277	53.5782
214.651	42.8618
218.026	50.324
221.401	59.113
224.776	81.8644
228.151	81.6159
231.525	63.389
234.9	50.3952
238.275	34.6853
241.65	23.0823
245.025	21.216
248.4	23.4955
251.774	24.8274
255.149	24.5408
258.524	24.6314
261.899	17.0967
265.274	6.94634
268.649	0.677269
272.023	3.58616
275.398	3.11535
278.773	3.11239
282.148	2.78188
285.523	3.66105
288.897	2.42279
292.272	0.800819
295.647	0.987473
299.022	1.16587
302.397	0.519905
305.772	1.99316
309.146	3.40382
312.521	3.46874
315.896	3.59054
319.271	5.60217
322.646	2.4918
326.02	3.19232
329.395	3.83782
332.77	2.41657
336.145	2.89658
339.52	3.52801
342.894	5.80838
346.269	7.95604
349.644	14.8839
353.019	21.0871
356.394	20.6404
359.769	8.64479
363.143	5.633
366.518	8.05626
369.893	10.6207
373.268	18.5861
376.643	27.3339
380.017	39.5459
383.392	49.9083
386.767	58.671
390.142	68.595
393.517	74.7111
396.892	70.267
400.266	50.4003
403.641	27.8811
407.016	13.3106
410.391	8.99814
413.766	12.2986
417.14	19.296
420.515	28.427
423.89	26.366
427.265	17.8664
430.64	15.3849
434.014	15.9422
437.389	20.4915
440.764	26.4715
444.139	35.241
447.514	44.3507
450.889	55.929
454.263	72.3614
457.638	99.8472
461.013	147.994
464.388	184.348
467.763	138.679
471.137	65.7249
474.512	29.8135
477.887	14.7548
481.262	7.89807
484.637	6.99101
488.012	7.09053
491.386	7.60838
494.761	4.64773
498.136	2.5921
501.511	0.660778
504.886	2.62422
508.26	2.25165
511.635	2.37528
515.01	2.25387
518.385	3.28455
521.76	13.1244
525.135	27.8631
528.509	49.6958
531.884	60.5656
535.259	66.005
538.634	53.2775
542.009	40.2972
545.384	30.1275
548.758	21.4599
552.133	13.4992
555.508	8.64487
558.883	5.58164
562.258	3.10144
565.632	2.03829
569.007	0.063591
572.382	0.366917
575.757	0.088673
579.132	0.235661
582.506	1.0037
585.881	1.57265
589.256	1.60914
592.631	1.98863
596.006	1.69607
599.381	2.69221
602.755	3.42299
606.13	4.23708
609.505	5.1493
612.88	7.24647
616.255	8.69608
619.63	10.7913
623.004	14.3589
626.379	16.9719
629.754	19.2488
633.129	21.3721
636.504	24.2171
639.878	25.7431
643.253	27.7425
646.628	27.8602
650.003	29.3101
653.378	29.0705
656.752	28.4417
660.127	27.606
663.502	25.5229
666.877	24.7689
670.252	21.8323
673.626	20.2736
677.001	18.0039
680.376	16.9651
683.751	15.6832
687.126	14.4612
690.501	13.0348
693.875	11.7259
697.25	9.80022
700.625	7.78014
704	5.52352
707.375	4.32284
710.75	2.88382
714.124	2.26502
717.499	1.72773
720.874	0.274761
724.249	0.606941
727.624	0.009361
730.998	0.457966
734.373	0.720669
737.748	0.221836
741.123	0.359341
744.498	1.06359
747.872	3.93158
751.247	7.51197
754.622	14.6985
757.997	23.7566
761.372	35.0478
764.747	42.7751
768.121	43.7198
771.496	42.2133
774.871	38.1476
778.246	31.5166
781.621	25.6977
784.995	21.856
788.37	16.1767
791.745	9.12915
795.12	3.67313
798.495	0.220009
801.87	1.7103
805.244	0.313507
808.619	0.616539
811.994	1.02237
815.369	1.86481
818.744	5.41174
822.119	12.5226
825.493	22.7526
828.868	36.4426
832.243	48.8375
835.618	50.8585
838.993	33.8012
842.367	19.0147
845.742	23.2026
849.117	43.7278
852.492	79.4209
855.867	127.29
859.241	143.906
862.616	96.6725
865.991	49.1132
869.366	22.6328
872.741	7.81145
876.115	0.13269
879.49	0.37751
882.865	2.30111
886.24	10.1588
889.615	21.7305
892.99	42.0007
896.364	71.1491
899.739	111.693
903.114	161.058
906.489	213.3
909.864	235.127
913.239	191.845
916.613	148.343
919.988	151.37
923.363	205.202
926.738	325.465
930.113	527.526
933.487	744.367
936.862	970.371
940.237	1032.23
943.612	611.003
946.987	260.988
950.361	120.36
953.736	62.1421
957.111	33.6061
960.486	17.8691
963.861	9.1472
967.236	3.75848
970.61	1.17198
973.985	0.41317
977.36	0.722961
980.735	0.793331
984.11	0.709713
987.485	0.57645
990.859	0.089001
994.234	0.097755
997.609	0.515453
1000.98	0.887173
1004.36	1.37573
1007.73	1.77534
1011.11	2.28047
1014.48	2.68305
1017.86	2.90397
1021.23	4.04894
1024.61	4.1635
1027.98	5.32731
1031.36	5.41942
1034.73	5.52154
1038.11	5.07118
1041.48	7.86427
1044.86	5.09394
1048.23	4.81992
1051.61	5.08563
1054.98	4.72585
1058.36	4.37196
1061.73	4.30838
1065.11	4.13032
1068.48	4.52501
1071.86	4.91227
1075.23	3.86619
1078.6	3.99017
1081.98	4.11602
1085.35	3.64346
1088.73	3.51307
1092.1	2.66679
1095.48	2.38821
1098.85	2.30434
1102.23	1.923
1105.6	1.12762
1108.98	1.10456
1112.35	0.71891
1115.73	0.34712
1119.1	0.411095
1122.48	0.132671
1125.85	0.854584
1129.23	0.453772
1132.6	0.149481
1135.98	0.33951
1139.35	1.1328
1142.73	0.859072
1146.1	1.331
1149.48	1.43813
1152.85	2.6593
1156.22	3.86362
1159.6	5.63866
1162.97	6.564
1166.35	3.5335
1169.72	1.38173
1173.1	0.577275
1176.47	0.009912
1179.85	0.0194
1183.22	0.013368
1186.6	0.003316
1189.97	0.209677
1193.35	0.311306
1196.72	0.270446
1200.1	0.404362
1203.47	0.375723
1206.85	0.165763
1210.22	0.346078
1213.6	0.688738
1216.97	0.558882
1220.35	0.941749
1223.72	1.21307
1227.1	1.02998
1230.47	1.34998
1233.85	1.22452
1237.22	1.33421
1240.6	0.508136
1243.97	0.601872
1247.35	0.725712
1250.72	0.226804
1254.1	0.356936
1257.47	0.219721
1260.85	0.153009
1264.22	0.36671
1267.59	0.47274
1270.97	0.369305
1274.34	0.072717
1277.72	1.03988
1281.09	0.604151
1284.47	0.348993
1287.84	0.372713
1291.22	0.378476
1294.59	0.064573
1297.97	0.866073
1301.34	0.029747
