Measurement: Raman, 532 nm, unoriented, Raman Data Processed
Mineral: Arseniosiderite
Rruff sample: R150061
Ideal chemistry: Ca_2_Fe^3+^_3_O_2_(As^5+^O_4_)_3_3H_2_O
Locality: Las Animas mine, La Mur, Sonora, Mexico
Source: Bob Jenkins
Description: Dark red platy crystals, associated with bright red granular or prismatic sewardite (R060720)
Raman shift (cm-1)	intensity
131.165	3.61926
134.54	11.1962
137.915	165.984
141.29	231.775
144.665	291.758
148.039	274.457
151.414	207.854
154.789	143.403
158.164	92.2147
161.539	146.567
164.913	181.62
168.288	161.48
171.663	157.628
175.038	166.103
178.413	194.785
181.788	296.733
185.162	492.027
188.537	761.973
191.912	1003.58
195.287	958.228
198.662	653.07
202.036	298.455
205.411	166.365
208.786	142.081
212.161	182.826
215.536	238.732
218.911	291.376
222.285	284.947
225.66	204.947
229.035	180.124
232.41	166.547
235.785	157.928
239.159	143.633
242.534	138.245
245.909	141.604
249.284	140.531
252.659	126.406
256.033	97.625
259.408	57.7953
262.783	41.5806
266.158	33.1028
269.533	29.8857
272.908	18.391
276.282	2.04114
279.657	10.3671
283.032	4.784
286.407	7.96991
289.782	13.8397
293.156	8.23791
296.531	9.37824
299.906	10.5028
303.281	14.3502
306.656	3.47101
310.031	9.3031
313.405	0.128052
316.78	2.05096
320.155	26.3028
323.53	22.068
326.904	21.2482
330.279	33.1133
333.654	40.3423
337.029	29.2136
340.404	60.9079
343.779	77.0807
347.153	101.956
350.528	128.388
353.903	143.316
357.278	162.424
360.653	218.439
364.027	274.902
367.402	343.994
370.777	456.625
374.152	595.064
377.527	662.798
380.902	707.294
384.276	736.715
387.651	736.666
391.026	624.786
394.401	540.109
397.776	421.245
401.151	320.089
404.525	231.288
407.9	199.696
411.275	204.156
414.65	186.027
418.024	210.785
421.399	217.199
424.774	214.302
428.149	205.916
431.524	193.121
434.899	174.971
438.273	167.912
441.648	131.365
445.023	98.5527
448.398	67.1218
451.773	52.3117
455.147	27.2892
458.522	6.28345
461.897	2.58209
465.272	20.1652
468.647	0.265198
472.022	9.47443
475.396	6.92065
478.771	19.0637
482.146	25.5555
485.521	40.8157
488.896	56.4389
492.27	56.6778
495.645	19.0493
499.02	8.64551
502.395	9.14282
505.77	9.43018
509.144	1.06732
512.519	31.9075
515.894	65.3617
519.269	121.543
522.644	169.021
526.019	189.365
529.393	219.131
532.768	210.874
536.143	179.461
539.518	143.069
542.893	117.443
546.268	85.0218
549.642	66.3364
553.017	53.0927
556.392	35.3717
559.767	24.4
563.141	38.9896
566.516	5.60303
569.891	11.7936
573.266	18.5911
576.641	17.0662
580.016	4.92481
583.39	1.09045
586.765	5.37195
590.14	4.05646
593.515	2.34393
596.89	4.93756
600.264	24.5905
603.639	18.0215
607.014	24.5004
610.389	17.3848
613.764	24.5465
617.139	42.0259
620.513	35.0947
623.888	40.1921
627.263	53.2709
630.638	51.5951
634.013	52.0076
637.387	35.547
640.762	43.9723
644.137	52.2755
647.512	35.3551
650.887	54.2828
654.261	75.5429
657.636	50.317
661.011	63.9768
664.386	59.5397
667.761	58.7829
671.135	33.2731
674.51	38.6891
677.885	27.9247
681.26	38.5371
684.635	40.8402
688.01	33.8956
691.384	20.5215
694.759	15.3374
698.134	34.0824
701.509	4.22308
704.884	0.81488
708.259	4.39203
711.633	9.85938
715.008	27.1149
718.383	11.4962
721.758	3.41077
725.133	14.042
728.507	12.372
731.882	11.9951
735.257	15.349
738.632	15.6655
742.007	31.605
745.381	69.3341
748.756	70.0275
752.131	81.5107
755.506	135.237
758.881	128.73
762.255	128.495
765.63	132.445
769.005	105.112
772.38	99.161
775.755	79.8146
779.13	49.639
782.504	49.3605
785.879	30.6989
789.254	0.211914
792.629	5.54498
796.004	16.5192
799.378	3.25897
802.753	29.0844
806.128	0.255554
809.503	18.559
812.878	56.0284
816.253	70.6854
819.627	99.3492
823.002	144.809
826.377	147.549
829.752	129.622
833.127	132.376
836.501	200.909
839.876	258.644
843.251	389.848
846.626	574.99
850.001	720.854
853.375	773.005
856.75	574.328
860.125	379.738
863.5	245.066
866.875	135.736
870.25	69.0845
873.624	15.1364
876.999	6.29486
880.374	16.6879
883.749	13.1405
887.124	27.3743
890.498	40.0215
893.873	131.697
897.248	186.694
900.623	280.551
903.998	399.276
907.372	506.1
910.747	570.73
914.122	704.718
917.497	963.369
920.872	1361.89
924.246	1851.41
927.621	2314.67
930.996	2574.15
934.371	2094.9
937.746	1243.73
941.121	671.028
944.495	376.983
947.87	222.807
951.245	144.66
954.62	70.3129
957.995	43.3079
961.37	25.1949
964.744	3.97376
968.119	24.051
971.494	2.4837
974.869	16.7344
978.244	0.859436
981.618	3.67859
984.993	11.0694
988.368	4.80188
991.743	15.6692
995.118	6.26666
998.492	7.1983
1001.87	24.3255
1005.24	17.4126
1008.62	5.27838
1011.99	12.1356
1015.37	14.4263
1018.74	20.2709
1022.12	31.4385
1025.49	41.535
1028.87	27.7327
1032.24	34.8837
1035.62	44.0259
1038.99	33.3309
1042.37	35.9818
1045.74	26.0836
1049.12	15.1652
1052.49	16.0017
1055.86	34.3945
1059.24	32.3964
1062.61	20.1974
1065.99	21.6855
1069.36	47.6761
1072.74	38.7377
1076.11	50.6843
1079.49	25.418
1082.86	32.4937
1086.24	34.8766
1089.61	19.851
1092.99	34.7219
1096.36	17.5199
1099.74	43.166
1103.11	42.6305
1106.49	18.569
1109.86	8.10107
1113.24	47.9179
1116.61	19.5045
1119.99	19.9421
1123.36	28.0748
1126.73	19.4178
1130.11	26.5079
1133.48	2.08319
1136.86	11.6194
1140.23	17.3932
1143.61	17.4185
1146.98	1.28931
1150.36	8.65832
1153.73	20.2316
1157.11	21.5195
1160.48	0.138062
1163.86	4.59473
1167.23	8.57257
1170.61	9.104
1173.98	8.03815
1177.36	0.449524
1180.73	18.0786
1184.11	17.9804
1187.48	9.86993
1190.86	25.3492
1194.23	6.58264
1197.61	24.6663
1200.98	16.2324
1204.36	17.1916
1207.73	23.2994
1211.11	2.73877
1214.48	32.8398
1217.86	7.73248
1221.23	6.0542
1224.61	2.28815
1227.98	1.23547
1231.36	19.336
1234.73	16.0895
1238.1	21.1342
1241.48	11.2001
1244.85	2.50085
1248.23	26.4901
1251.6	9.22894
1254.98	18.7972
1258.35	24.6167
1261.73	19.1708
1265.1	18.8595
1268.48	10.5979
1271.85	20.3397
1275.23	17.9655
1278.6	27.6134
1281.98	7.80804
1285.35	0.010864
1288.73	2.60596
