Measurement: Raman, 780 nm, unoriented, Raman Data Processed
Mineral: Arsenolite
Rruff sample: R080095
Ideal chemistry: As^3+^_2_O_3_
Locality: JÃ¡chymov, Erzgebirge Region, Czech Republic
Source: University of Arizona Mineral Museum
Description: Colorless octahedra crystals on black matrix associated with colorless prismatic claudetite, R050313.
Raman shift (cm-1)	intensity
117.111	0
120.486	10.3657
123.861	14.8699
127.236	17.1881
130.611	17.9358
133.986	4.89697
137.36	2.58667
140.735	0.70874
144.11	1.75964
147.485	4.38232
150.859	9.0509
154.234	14.4951
157.609	9.48389
160.984	29.6162
164.359	103.38
167.734	110.912
171.108	145.892
174.483	216.592
177.858	312.817
181.233	493.119
184.608	627.715
187.982	124.76
191.357	76.4153
194.732	79.0872
198.107	53.9596
201.482	21.2311
204.857	22.007
208.231	15.6387
211.606	20.0166
214.981	8.43543
218.356	10.4238
221.731	17.9767
225.106	17.1357
228.48	1.2439
231.855	10.7826
235.23	19.0145
238.605	31.5632
241.98	45.0043
245.354	102.213
248.729	412.907
252.104	560.681
255.479	673.29
258.854	984.6
262.228	1483.35
265.603	2393.67
268.978	3202.76
272.353	266.119
275.728	33.7045
279.103	17.7074
282.477	12.8253
285.852	7.89062
289.227	5.92285
292.602	2.88269
295.977	1.59058
299.351	3.07397
302.726	0.93042
306.101	3.59778
309.476	3.49695
312.851	2.28064
316.226	6.30005
319.6	6.41785
322.975	1.16931
326.35	0.421875
329.725	8.85132
333.1	6.93262
336.474	2.21338
339.849	17.5418
343.224	41.5889
346.599	100.848
349.974	464.953
353.349	1042.95
356.723	1260.51
360.098	2004.18
363.473	3227.18
366.848	5264.7
370.223	5845.02
373.597	1047.39
376.972	304.889
380.347	165.284
383.722	94.4359
387.097	55.4417
390.471	20.8486
393.846	14.9885
397.221	3.38489
400.596	4.83008
403.971	6.12683
407.346	3.13647
410.72	17.1699
414.095	24.5807
417.47	2.92346
420.845	7.07532
424.22	8.52222
427.594	3.375
430.969	7.70093
434.344	1.93994
437.719	0.505249
441.094	6.17212
444.469	14.9989
447.843	29.7424
451.218	55.1046
454.593	99.9214
457.968	141.486
461.343	185.856
464.717	275.201
468.092	376.758
471.467	364.281
474.842	183.141
478.217	63.1663
481.592	24.6788
484.966	19.786
488.341	6.48804
491.716	5.64441
495.091	1.74194
498.466	1.80774
501.841	0.00415
505.215	6.46167
508.59	2.36902
511.965	4.29407
515.34	6.06323
518.715	13.5879
522.089	9.05102
525.464	18.3639
528.839	29.7792
532.214	34.5011
535.589	39.8243
538.963	49.769
542.338	129.552
545.713	286.679
549.088	400.407
552.463	642.251
555.837	1049.02
559.212	1532.32
562.587	840.018
565.962	172.828
569.337	57.1426
572.712	19.6001
576.086	10.2618
579.461	3.16443
582.836	0.584839
586.211	2.55933
589.586	5.82495
592.96	8.93347
596.335	6.20398
599.71	6.0614
603.085	1.60071
606.46	1.85632
609.835	2.19788
613.209	8.05933
616.584	4.19617
619.959	5.26733
623.334	3.19641
626.709	7.51416
630.083	5.53223
633.458	13.1614
636.833	0.305542
640.208	6.07873
643.583	11.6121
646.957	3.09668
650.332	13.0402
653.707	12.7546
657.082	9.11792
660.457	15.613
663.832	16.6338
667.206	11.4279
670.581	15.4026
673.956	13.8639
677.331	10.3466
680.706	16.1282
684.081	9.01685
687.455	7.60669
690.83	3.87292
694.205	10.4603
697.58	3.34717
700.955	6.96875
704.329	1.88757
707.704	8.50488
711.079	4.96423
714.454	12.8218
717.829	2.47363
721.203	0.410156
724.578	3.75793
727.953	0.342041
731.328	4.63037
734.703	1.70557
738.078	5.62341
741.452	9.80518
744.827	1.24841
748.202	6.81958
751.577	13.7363
754.952	9.71863
758.327	17.3621
761.701	22.1309
765.076	55.0878
768.451	94.4885
771.826	139.619
775.201	228.508
778.575	349.401
781.95	234.793
785.325	69.3546
788.7	25.9955
792.075	10.2256
795.449	10.7769
798.824	5.79089
802.199	4.67725
805.574	3.92615
808.949	4.19507
812.323	0.902832
815.698	7.46179
819.073	10.7201
822.448	10.5455
825.823	15.2495
829.198	15.1877
832.572	8.94104
835.947	3.64954
839.322	11.738
842.697	14.4827
846.072	14.5013
849.447	11.1989
852.821	3.69434
856.196	7.08923
859.571	2.96423
862.946	4.77856
866.321	1.69055
869.695	6.55737
873.07	4.93884
876.445	7.9375
879.82	9.53894
883.195	3.95911
886.569	10.2484
889.944	4.78064
893.319	3.89697
896.694	6.81995
900.069	3.39832
903.444	4.80298
906.818	8.19934
910.193	9.46008
913.568	11.1787
916.943	1.34766
920.318	3.74658
923.692	5.06482
927.067	7.74683
930.442	7.91894
933.817	10.372
937.192	6.86694
940.567	6.67896
943.941	7.93286
947.316	6.94727
950.691	1.92065
954.066	6.31372
957.441	8.48444
960.815	9.81171
964.19	6.98663
967.565	4.93433
970.94	4.69641
974.315	2.1026
977.689	5.81921
981.064	5.43896
984.439	4.18286
987.814	8.16748
991.189	5.3122
994.564	5.55475
997.938	5.26984
1001.31	7.76611
1004.69	8.26721
1008.06	9.68036
1011.44	3.77179
1014.81	2.91901
1018.19	5.5993
1021.56	4.70215
1024.94	2.23682
1028.31	7.90906
1031.69	9.91589
1035.06	8.44543
1038.44	13.0715
1041.81	10.6981
1045.19	13.5721
1048.56	10.8027
1051.94	13.1222
1055.31	9.8103
1058.68	7.24982
1062.06	7.68487
1065.43	10.1406
1068.81	3.37097
1072.18	3.51337
1075.56	7.0014
1078.93	9.43768
1082.31	15.9402
1085.68	12.9771
1089.06	0.999207
1092.43	1.32959
1095.81	1.58997
1099.18	8.87512
1102.56	3.84302
1105.93	1.91266
1109.31	8.11047
1112.68	0.847717
1116.06	2.92682
1119.43	4.56342
1122.81	0.583252
1126.18	0.896912
1129.56	4.23907
1132.93	4.81317
1136.31	5.79974
1139.68	7.46912
1143.06	2.15894
1146.43	5.54627
1149.81	6.64465
1153.18	6.89148
1156.56	9.86169
1159.93	10.6581
1163.3	6.35644
1166.68	14.0256
1170.05	9.79846
1173.43	11.1047
1176.8	7.42902
1180.18	13.0475
1183.55	6.9483
1186.93	5.33337
1190.3	12.1365
1193.68	13.6288
1197.05	12.7569
1200.43	6.18256
1203.8	8.47736
1207.18	11.7427
1210.55	5.60339
1213.93	4.85644
1217.3	13.9856
1220.68	3.07043
1224.05	8.56043
1227.43	6.25281
1230.8	7.40778
1234.18	7.65155
1237.55	5.44311
1240.92	4.77734
1244.3	0.073364
1247.67	10.3716
1251.05	4.62293
1254.42	8.02118
1257.8	4.90149
1261.17	11.0356
1264.55	5.92835
1267.92	3.10364
1271.3	8.77106
1274.67	1.10205
1278.05	4.43896
1281.42	8.13586
1284.8	3.70953
