Measurement: Raman, 532 nm, unoriented, Raman Data Processed
Mineral: Arsendescloizite
Rruff sample: R060947
Ideal chemistry: Pb^2+^Zn^2+^As^5+^O_4_(OH)
Locality: Ojuela mine, Mapimi, Durango, Mexico
Source: Bob Jenkins
Description: Green mammillary aggregates associated with yellow and colorless mimetite and calcite
Raman shift (cm-1)	intensity
117.184	0
120.559	39.9707
123.934	338.787
127.308	484.902
130.683	487.067
134.058	480.283
137.433	571.934
140.808	687.837
144.183	795.484
147.557	853.023
150.932	719.035
154.307	667.503
157.682	672.442
161.057	773.629
164.431	922.19
167.806	1047.1
171.181	1204.64
174.556	1384.97
177.931	1431.74
181.305	1339.31
184.68	1091.81
188.055	860.76
191.43	678.061
194.805	524.306
198.179	498.393
201.554	576.469
204.929	752.474
208.304	948.154
211.679	1214.26
215.054	1338.63
218.428	1295.74
221.803	1064.79
225.178	766.542
228.553	487.574
231.928	320.822
235.303	198.231
238.677	112.54
242.052	62.0747
245.427	37.4543
248.802	18.1597
252.177	43.4924
255.551	35.5847
258.926	29.8686
262.301	26.6077
265.676	54.8162
269.051	71.3791
272.425	84.2898
275.8	7.90015
279.175	69.3608
282.55	205.138
285.925	524.43
289.3	1015.22
292.674	1614.46
296.049	2400.63
299.424	3471.78
302.799	4754.66
306.174	6055.16
309.548	7315.08
312.923	8369.95
316.298	9208.95
319.673	10429.5
323.048	11592.8
326.422	12300
329.797	11797.3
333.172	10195.6
336.547	8211.58
339.922	6637.3
343.296	5491.03
346.671	4613.85
350.046	3876.94
353.421	3119.86
356.796	2441.97
360.171	1917.22
363.545	1416.38
366.92	989.885
370.295	620.693
373.67	375.6
377.045	175.345
380.419	2.87256
383.794	41.0117
387.169	7.19043
390.544	24.8523
393.919	271.739
397.293	427.907
400.668	712.817
404.043	869.511
407.418	1052.57
410.793	1161.55
414.168	1202.42
417.542	1200.41
420.917	1102.65
424.292	943.369
427.667	785.398
431.042	745.93
434.416	791.439
437.791	981.273
441.166	1173.12
444.541	1326.12
447.916	1283.12
451.291	1081.72
454.665	769.813
458.04	541.377
461.415	325.561
464.79	165.074
468.165	28.3472
471.539	53.052
474.914	32.5491
478.289	42.3668
481.664	48.936
485.039	34.8348
488.413	111.113
491.788	130.033
495.163	182.843
498.538	199.664
501.913	217.19
505.288	249.09
508.662	231.091
512.037	208.306
515.412	161.036
518.787	79.894
522.162	63.8165
525.536	44.0383
528.911	8.58362
532.286	19.0053
535.661	7.49799
539.036	8.79242
542.41	48.3255
545.785	90.6592
549.16	130.21
552.535	150.434
555.91	159.355
559.284	157.918
562.659	148.1
566.034	144.998
569.409	143.078
572.784	146.419
576.159	172.338
579.533	175.339
582.908	175.716
586.283	173.379
589.658	165.536
593.033	174.723
596.408	166.907
599.782	180.205
603.157	221.363
606.532	225.279
609.907	254.367
613.282	281.918
616.656	291.29
620.031	314.642
623.406	310.685
626.781	321.422
630.156	329.122
633.53	331.716
636.905	372.006
640.28	369.577
643.655	409.865
647.03	443.966
650.404	503.591
653.779	549.421
657.154	598.453
660.529	608.657
663.904	561.473
667.279	533.767
670.653	497.512
674.028	404.718
677.403	367.406
680.778	311.759
684.153	270.499
687.528	182.363
690.902	113.403
694.277	79.6132
697.652	19.5245
701.027	54.9014
704.402	92.2459
707.776	152.741
711.151	191.827
714.526	205.023
717.901	172.186
721.276	31.5845
724.65	96.1487
728.025	405.382
731.4	962.879
734.775	1768.54
738.15	2804.15
741.524	3994.65
744.899	5355.44
748.274	6591.53
751.649	7661.88
755.024	8636.92
758.399	9279.09
761.773	9174.69
765.148	8708.54
768.523	8065.65
771.898	7754.4
775.273	8310.05
778.648	10039.8
782.022	13363.8
785.397	18067.6
788.772	23387.5
792.147	26993.8
795.521	26080.6
798.896	21685.5
802.271	18412.8
805.646	19606.3
809.021	26113.9
812.396	38041.7
815.77	52563.3
819.145	57903.5
822.52	45728.6
825.895	27708.3
829.27	15495.6
832.644	8796.34
836.019	5212.85
839.394	3404.18
842.769	2317.7
846.144	1574.32
849.519	1078.83
852.893	714.516
856.268	332.479
859.643	56.385
863.018	177.537
866.393	330.51
869.767	311.729
873.142	169.832
876.517	99.6045
879.892	434.793
883.267	783.836
886.641	1070
890.016	895.503
893.391	576.412
896.766	284.789
900.141	103.069
903.516	38.2888
906.89	44.5538
910.265	59.6698
913.64	76.9398
917.015	123.181
920.39	128.036
923.764	74.2961
927.139	66.5076
930.514	29.4717
933.889	10.3538
937.264	99.4033
940.639	114.154
944.013	149.321
947.388	188.908
950.763	214.607
954.138	247.805
957.513	271.542
960.887	287.511
964.262	265.116
967.637	250.021
971.012	220.153
974.387	220.816
977.761	185.833
981.136	160.551
984.511	168.051
987.886	142.948
991.261	136.174
994.635	116.605
998.01	126.765
1001.38	101.81
1004.76	91.4105
1008.13	65.3278
1011.51	80.879
1014.88	84.2736
1018.26	44.8719
1021.63	58.2524
1025.01	53.657
1028.38	57.4489
1031.76	94.0665
1035.13	121.439
1038.51	119.201
1041.88	99.7654
1045.26	89.1669
1048.63	94.7208
1052.01	70.5012
1055.38	69.176
1058.76	20.3322
1062.13	0.24115
1065.51	15.1783
1068.88	7.63538
1072.26	11.3001
1075.63	14.5544
1079.01	6.9809
1082.38	0.050293
1085.76	15.2559
1089.13	8.45618
1092.51	22.5732
1095.88	5.2486
1099.26	13.0887
1102.63	1.89471
1106	1.26672
1109.38	26.9215
1112.75	4.45758
1116.13	23.4969
1119.5	16.2551
1122.88	20.5406
1126.25	8.88031
1129.63	20.1439
1133	9.35223
1136.38	28.2955
1139.75	12.6357
1143.13	18.1931
1146.5	47.8082
1149.88	24.5081
1153.25	13.0057
1156.63	8.83374
1160	27.9677
1163.38	17.5112
1166.75	17.2069
1170.13	12.311
1173.5	39.8805
1176.88	19.0884
1180.25	12.6777
1183.62	7.18726
1187	3.49542
1190.38	6.0863
1193.75	18.918
1197.12	13.8426
1200.5	24.6014
1203.87	32.2346
1207.25	17.6515
1210.62	26.3276
1214	17.3647
1217.37	27.014
1220.75	19.7288
1224.12	26.6698
1227.5	37.3342
1230.87	18.6144
1234.25	33.7448
1237.62	23.7995
1241	28.6825
1244.37	27.5427
1247.75	49.1395
1251.12	42.1529
1254.5	24.8259
1257.87	27.2129
1261.25	14.648
1264.62	32.3135
1267.99	9.36646
1271.37	25.5963
1274.74	26.5521
1278.12	25.6265
1281.49	19.09
1284.87	30.728
1288.24	44.3737
1291.62	5.38788
1294.99	0.568237
