Measurement: Raman, 785 nm, unoriented, Raman Data Processed
Mineral: Arsendescloizite
Rruff sample: R060947
Ideal chemistry: Pb^2+^Zn^2+^As^5+^O_4_(OH)
Locality: Ojuela mine, Mapimi, Durango, Mexico
Source: Bob Jenkins
Description: Green mammillary aggregates associated with yellow and colorless mimetite and calcite
Raman shift (cm-1)	intensity
123.939	0
126.831	11.0157
129.724	117.181
132.617	333.343
135.509	267.072
138.402	163.099
141.295	58.7814
144.188	180.173
147.08	328.893
149.973	485.249
152.866	493.595
155.758	361.737
158.651	302.094
161.544	348.987
164.436	332.591
167.329	298.054
170.222	296.955
173.114	275.698
176.007	239.692
178.9	241.181
181.793	181.951
184.685	163.431
187.578	158.887
190.471	150.821
193.363	123.32
196.256	135.864
199.149	152.598
202.042	191.464
204.934	230.849
207.827	282.92
210.72	326.375
213.612	373.551
216.505	389.193
219.398	368.943
222.29	327.131
225.183	256.121
228.076	194.405
230.969	152.954
233.861	120.952
236.754	90.9824
239.647	62.3135
242.539	60.5023
245.432	43.0873
248.325	30.4581
251.217	31.8008
254.11	1.00549
257.003	26.631
259.896	2.77734
262.788	7.4762
265.681	5.98968
268.574	16.8654
271.466	38.1692
274.359	31.4152
277.252	28.9696
280.144	1.99194
283.037	32.6791
285.93	89.7837
288.822	139.285
291.715	259.463
294.608	393.204
297.501	555.316
300.393	765.75
303.286	1021.76
306.179	1263.15
309.071	1499.53
311.964	1709.11
314.857	1923.71
317.75	2208.5
320.642	2518.24
323.535	2788.53
326.428	2988.22
329.32	2884.9
332.213	2609.2
335.106	2161.56
337.998	1741.63
340.891	1444.53
343.784	1176.61
346.676	1039.65
349.569	888.322
352.462	728.23
355.355	606.555
358.247	502.867
361.14	394.389
364.033	279.846
366.925	212.505
369.818	143.29
372.711	72.1871
375.603	33.7631
378.496	20.0175
381.389	12.5986
384.282	53.8297
387.174	93.45
390.067	182.895
392.96	303.901
395.852	472.313
398.745	574.905
401.638	704.301
404.531	730.31
407.423	773.811
410.316	742.95
413.209	708.479
416.101	673.541
418.994	566.739
421.887	501.299
424.779	397.971
427.672	259.287
430.565	177.821
433.457	119.362
436.35	76.5327
439.243	63.6423
442.135	87.9309
445.028	82.059
447.921	117.497
450.814	103.273
453.706	93.1428
456.599	65.829
459.492	61.4868
462.384	36.9318
465.277	21.3175
468.17	2.65564
471.062	12.7767
473.955	30.3773
476.848	24.0652
479.741	20.7928
482.633	23.1537
485.526	3.64716
488.419	32.2884
491.311	45.4479
494.204	40.5952
497.097	65.0962
499.99	43.3355
502.882	66.3669
505.775	70.0217
508.668	75.6585
511.56	60.7477
514.453	71.8867
517.346	49.9666
520.238	60.4754
523.131	66.2395
526.024	45.6945
528.917	44.1484
531.809	38.4058
534.702	29.4395
537.595	35.1816
540.487	13.0302
543.38	13.5523
546.273	17.5154
549.165	24.1247
552.058	20.8586
554.951	21.5628
557.843	39.8595
560.736	44.1521
563.629	32.5778
566.522	20.1586
569.414	7.01668
572.307	25.2066
575.2	21.8459
578.092	41.0117
580.985	29.0863
583.878	24.4538
586.77	28.3477
589.663	13.704
592.556	7.19537
595.448	8.0831
598.341	6.44189
601.234	35.6032
604.127	17.1805
607.019	15.9447
609.912	23.3781
612.805	26.1332
615.697	28.0961
618.59	26.6141
621.483	26.1009
624.375	38.5312
627.268	46.9006
630.161	34.5329
633.054	45.7061
635.946	23.5894
638.839	43.0401
641.732	41.7403
644.625	36.2813
647.517	36.9591
650.41	60.6746
653.303	57.9648
656.195	59.8536
659.088	58.7764
661.981	71.2631
664.873	77.7616
667.766	71.9688
670.659	68.8871
673.552	65.2222
676.444	64.6903
679.337	59.9942
682.23	50.3625
685.122	45.9268
688.015	41.6981
690.908	26.9491
693.8	28.6063
696.693	26.9012
699.586	10.6168
702.479	4.62888
705.371	7.90079
708.264	13.4651
711.157	11.8124
714.049	19.2235
716.942	17.4939
719.835	28.4042
722.727	22.737
725.62	22.4703
728.513	18.6893
731.405	9.74908
734.298	63.1148
737.191	115.445
740.083	179.346
742.976	261.196
745.869	307.216
748.762	380.942
751.654	464.119
754.547	562.346
757.44	621.178
760.332	711.588
763.225	761.026
766.118	817.338
769.01	819.237
771.903	848.36
774.796	883.187
777.689	1081.2
780.581	1423.08
783.474	1900.99
786.367	2563.4
789.259	3221.12
792.152	3675.45
795.045	3649.04
797.938	3170.61
800.83	2742
803.723	2594.84
806.616	3028.51
809.508	4355.76
812.401	6697.77
815.294	9598.05
818.186	11367.2
821.079	10454.4
823.972	7827.59
826.865	5060.69
829.757	3178.73
832.65	1995.79
835.543	1318.9
838.435	905.266
841.328	654.358
844.221	498.5
847.113	395.556
850.006	315.889
852.899	207.979
855.792	129.617
858.684	64.5931
861.577	23.6166
864.47	29.0684
867.362	39.8765
870.255	43.0781
873.148	25.1085
876.04	9.68707
878.933	35.0005
881.826	98.3304
884.718	161.161
887.611	197.084
890.504	190.076
893.396	116.662
896.289	58.8123
899.182	34.4392
902.075	1.72256
904.967	1.02512
907.86	11.9472
910.753	1.41223
913.645	0.43927
916.538	3.1647
919.431	12.1077
922.323	9.60553
925.216	10.3522
928.109	5.64008
931.002	15.7513
933.894	16.9897
936.787	24.385
939.68	25.4568
942.572	33.6354
945.465	35.6597
948.358	42.0727
951.25	51.5668
954.143	55.9502
957.036	50.8362
959.929	67.5798
962.821	66.9659
965.714	67.9977
968.607	49.2005
971.5	43.3773
974.392	63.786
977.285	55.5796
980.178	22.0441
983.07	32.4893
985.963	44.6287
988.856	27.1726
991.748	20.0592
994.641	21.2929
997.534	26.6384
1000.43	28.498
1003.32	36.2099
1006.21	53.9869
1009.1	25.632
1012	7.28319
1014.89	22.432
1017.78	12.4166
1020.67	18.5755
1023.57	5.06424
1026.46	14.6687
1029.35	25.8175
1032.25	12.2767
1035.14	12.5027
1038.03	35.9976
1040.92	26.3776
1043.82	41.1457
1046.71	30.5414
1049.6	14.1637
1052.49	30.4591
1055.39	35.9437
1058.28	21.2467
1061.17	22.852
1064.07	4.47725
1066.96	11.9833
1069.85	9.94109
1072.74	5.26778
1075.64	5.77651
1078.53	17.0642
1081.42	7.01047
1084.32	14.5394
1087.21	3.40744
1090.1	11.231
1092.99	9.02571
1095.88	13.462
1098.78	13.6801
1101.67	0.195007
1104.56	9.75471
1107.46	6.42612
1110.35	0.33345
1113.24	6.76431
1116.13	7.99944
1119.03	3.73052
1121.92	3.86879
1124.81	16.8412
1127.7	12.6336
1130.6	0.483612
1133.49	17.5949
1136.38	3.8485
1139.28	14.0457
1142.17	1.09177
1145.06	1.4203
1147.95	11.0326
1150.85	6.5919
1153.74	12.3209
1156.63	29.3294
1159.53	5.97099
1162.42	7.60385
1165.31	10.1027
1168.2	6.95476
1171.1	6.38586
1173.99	7.78088
1176.88	10.0291
1179.77	14.2756
1182.67	6.40018
1185.56	18.618
1188.45	3.44052
1191.35	11.5397
1194.24	4.9026
1197.13	9.07008
1200.02	19.9585
1202.91	1.46437
1205.81	4.03165
1208.7	15.7897
1211.59	4.79437
1214.49	21.353
1217.38	24.8372
1220.27	24.4494
1223.16	23.9498
1226.06	19.2109
1228.95	19.3235
1231.84	17.5275
1234.73	11.3143
1237.63	7.77269
1240.52	14.7706
1243.41	5.01735
1246.31	20.8314
1249.2	12.8103
1252.09	23.1782
1254.98	8.5965
1257.88	12.0137
1260.77	22.3758
1263.66	0.749405
1266.56	0
