Measurement: Raman, 532 nm, unoriented, Raman Data Processed
Mineral: Arsenolamprite
Rruff sample: R060680
Ideal chemistry: As
Locality: Copiapo, Atacama, Chile
Source: Michael Scott
Description: Black oxidized coating of arsenolite over a group of elongated bladed and platy crystals
Measured chemistry: light phase: As_1.00_ ; dark phase: As_2.00_O_3_
Raman shift (cm-1)	intensity
130.683	65.7122
134.058	4.52576
137.433	9.27624
140.808	6.51392
144.182	28.0116
147.557	98.5099
150.932	71.1976
154.307	95.0923
157.682	39.2478
161.057	31.4565
164.431	105.921
167.806	29.8405
171.181	69.4236
174.556	89.4784
177.931	107.83
181.305	67.1069
184.68	114.068
188.055	115.05
191.43	129.429
194.805	216.013
198.18	267.296
201.554	284.022
204.929	513.8
208.304	888.13
211.679	2100.32
215.054	5194.78
218.428	11022.7
221.803	16259.5
225.178	21274.8
228.553	6925
231.928	1161.5
235.303	488.983
238.677	606.573
242.052	1881.75
245.427	5716.41
248.802	9835.03
252.177	20926.2
255.551	11590
258.926	1467.47
262.301	516.99
265.676	297.637
269.051	149.644
272.426	56.8784
275.8	19.1051
279.175	27.6744
282.55	13.9681
285.925	4.96277
289.3	10.4266
292.674	5.41894
296.049	5.70477
299.424	1.73615
302.799	19.4233
306.174	28.0781
309.548	10.2197
312.923	13.9067
316.298	1.15216
319.673	14.3344
323.048	10.0948
326.422	52.8748
329.797	47.2361
333.172	80.1903
336.547	100.104
339.922	180.968
343.297	188.455
346.671	190.869
350.046	190.443
353.421	172.194
356.796	175.301
360.171	100.716
363.546	61.0049
366.92	87.96
370.295	27.4893
373.67	46.7368
377.045	34.0083
380.42	23.3676
383.794	14.1747
387.169	25.1004
390.544	0.14035
393.919	1.7269
397.294	46.4007
400.668	37.5374
404.043	20.5957
407.418	35.99
410.793	55.0968
414.168	24.106
417.543	88.8854
420.917	63.3409
424.292	193.988
427.667	196.83
431.042	163.901
434.417	205.062
437.791	271.664
441.166	271.661
444.541	355.688
447.916	540.008
451.291	693.98
454.665	672.457
458.04	483.205
461.415	328.482
464.79	264.61
468.165	175.222
471.54	278.965
474.914	258.069
478.289	261.284
481.664	245.434
485.039	222.553
488.414	245.049
491.789	177.221
495.163	144.832
498.538	83.7135
501.913	29.9629
505.288	106.618
508.663	70.8466
512.037	123.403
515.412	71.1146
518.787	28.1733
522.162	4.48639
525.537	13.409
528.911	14.7171
532.286	0.810455
535.661	51.5609
539.036	28.8106
542.411	0.692017
545.786	0.255157
549.16	19.6576
552.535	42.1356
555.91	11.7925
559.285	93.1712
562.66	53.6824
566.034	43.4964
569.409	45.6843
572.784	67.2176
576.159	78.2987
579.534	64.6193
582.909	11.8902
586.283	33.4031
589.658	12.71
593.033	27.4613
596.408	34.389
599.783	2.28388
603.157	40.8212
606.532	34.004
609.907	18.171
613.282	24.2244
616.657	32.0168
620.031	32.7365
623.406	22.0107
626.781	44.8453
630.156	84.8664
633.531	14.0438
636.906	46.7132
640.28	7.38654
643.655	39.1544
647.03	57.3643
650.405	21.1549
653.78	43.8828
657.154	70.9686
660.529	56.1888
663.904	38.6721
667.279	13.4621
670.654	89.6844
674.029	77.1623
677.403	3.80374
680.778	7.14606
684.153	21.2399
687.528	65.0741
690.903	62.366
694.277	65.5941
697.652	10.0153
701.027	18.2796
704.402	29.582
707.777	40.8657
711.151	51.6169
714.526	36.7143
717.901	27.3587
721.276	30.4419
724.651	32.1355
728.026	24.019
731.4	52.6274
734.775	11.434
738.15	42.0254
741.525	65.8356
744.9	36.2037
748.274	34.9656
751.649	30.2758
755.024	24.592
758.399	61.1169
761.774	52.9123
765.148	3.08221
768.523	6.62036
771.898	43.0332
775.273	10.2836
778.648	10.153
782.023	5.38446
785.397	29.108
788.772	26.1858
792.147	46.2136
795.522	37.2775
798.897	1.91116
802.271	12.9513
805.646	90.2757
809.021	5.42035
812.396	36.2925
815.771	13.461
819.146	74.5024
822.52	62.0217
825.895	42.0418
829.27	15.0749
832.645	48.4815
836.02	26.5619
839.394	5.64166
842.769	40.6389
846.144	12.0423
849.519	54.1782
852.894	53.6166
856.269	26.8345
859.643	42.9029
863.018	30.2807
866.393	10.0999
869.768	10.818
873.143	15.4888
876.518	59.6529
879.892	17.012
883.267	64.5817
886.642	21.934
890.017	44.0241
893.391	10.6148
896.766	61.8549
900.141	33.3165
903.516	14.8445
906.891	7.65341
910.266	16.5773
913.64	56.1364
917.015	8.06525
920.39	8.54266
923.765	38.7788
927.14	18.649
930.515	109.987
933.889	24.0805
937.264	42.3021
940.639	48.3237
944.014	26.2311
947.388	33.9445
950.763	31.8214
954.138	19.7955
957.513	55.6523
960.888	51.7428
964.263	54.6562
967.638	9.8132
971.012	42.474
974.387	50.3276
977.762	29.863
981.137	40.8565
984.511	2.90335
987.886	16.6691
991.261	18.538
994.636	13.8647
998.011	48.8384
1001.39	90.2816
1004.76	62.1158
1008.13	75.9166
1011.51	49.7744
1014.88	14.5323
1018.26	11.4759
1021.63	17.4272
1025.01	51.8067
1028.38	54.8907
1031.76	21.5399
1035.13	39.5833
1038.51	65.5213
1041.88	81.0587
1045.26	26.3205
1048.63	41.2368
1052.01	53.274
1055.38	9.50977
1058.76	48.2302
1062.13	65.7008
1065.51	40.6823
1068.88	19.9674
1072.26	32.1191
1075.63	15.2588
1079.01	21.8847
1082.38	54.4954
1085.76	100.398
1089.13	46.1716
1092.51	51.1254
1095.88	50.9563
1099.26	49.9642
1102.63	47.2079
1106.01	100.956
1109.38	50.0706
1112.76	38.6912
1116.13	35.3516
1119.5	33.9114
1122.88	21.9687
1126.25	51.1525
1129.63	64.7628
1133	42.9851
1136.38	52.8885
1139.75	13.1418
1143.13	11.9289
1146.5	110.036
1149.88	18.1235
1153.25	1.71312
1156.63	55.6955
1160	43.2868
1163.38	8.0591
1166.75	11.6153
1170.13	81.689
1173.5	0.842545
1176.88	32.7987
1180.25	93.0975
1183.63	22.3641
1187	45.9338
1190.38	43.2808
1193.75	48.9403
1197.12	28.9008
1200.5	12.5225
1203.88	35.4729
1207.25	23.3388
1210.62	37.8398
1214	14.9709
1217.37	41.1476
1220.75	20.1781
1224.12	102.107
1227.5	19.6328
1230.87	96.2071
1234.25	46.1643
1237.62	80.9843
1241	65.7461
1244.37	35.0024
1247.75	35.8783
1251.12	68.3487
1254.5	16.5697
1257.87	37.9928
1261.25	48.8233
1264.62	6.69695
1268	22.0399
1271.37	40.7136
1274.75	26.2061
1278.12	58.4077
1281.49	63.6317
1284.87	48.3343
1288.24	32.3817
1291.62	82.8057
