Measurement: Raman, 532 nm, unoriented, Raman Data Processed
Mineral: Arseniopleite
Rruff sample: R070144
Ideal chemistry: CaNaMn^2+^Mn^2+^_2_(As^5+^O_4_)_3_
Locality: Sjögruvan mine, Grythyttan, Västmanland, Sweden
Source: Michael Scott
Description: Vitreous brownish red massive
Measured chemistry: (Ca_0.81_Na_0.19_)_Σ=1_(Na_0.99_Pb^2+^_0.01_)_Σ=1_Mn^2+^_1.00_(Mn^2+^_1.10_Mg_0.65_Fe^3+^_0.18_Fe^2+^_0.07_)_Σ=2_(As_1.00_O_4_)_3_; trace amounts of P; Fe^2+^ and Fe^3+^ splitted by charge balance
Raman shift (cm-1)	intensity
114.505	0
117.398	4.29042
120.29	19.1511
123.183	73.185
126.076	127.101
128.969	203.029
131.861	317.878
134.754	343.101
137.647	384.243
140.539	414.438
143.432	412.175
146.325	510.945
149.217	566.499
152.11	574.351
155.003	540.341
157.895	438.518
160.788	430.963
163.681	436.876
166.573	426.774
169.466	443.887
172.359	411.902
175.252	377.79
178.144	386.654
181.037	375.586
183.93	343.025
186.822	418.098
189.715	438.906
192.608	453.858
195.5	446.623
198.393	453.41
201.286	437.271
204.179	465.308
207.071	447.915
209.964	439.617
212.857	409.341
215.749	378.804
218.642	402.865
221.535	378.32
224.428	378.834
227.32	359.537
230.213	378.261
233.106	341.68
235.998	324.03
238.891	330.343
241.784	302.232
244.676	248.626
247.569	257.611
250.462	226.942
253.355	162.182
256.247	122.262
259.14	97.9128
262.033	48.106
264.925	42.4603
267.818	6.65747
270.711	3.35718
273.603	31.6992
276.496	22.619
279.389	39.4939
282.281	2.01562
285.174	21.7268
288.067	5.31201
290.959	16.8881
293.852	67.4701
296.745	54.8263
299.638	130.106
302.53	201.279
305.423	274.641
308.316	328.44
311.208	402.495
314.101	462.077
316.994	422.543
319.887	351.904
322.779	280.675
325.672	202.134
328.565	131.1
331.457	75.848
334.35	11.8931
337.243	36.8408
340.135	12.7023
343.028	1.11292
345.921	64.4662
348.813	212.042
351.706	398.904
354.599	613.197
357.492	890.245
360.384	1153.21
363.277	1297.61
366.17	1350.9
369.062	1208.91
371.955	1027.05
374.848	793.485
377.74	663.23
380.633	561.892
383.526	446.75
386.418	568.082
389.311	590.186
392.204	646.087
395.097	771.065
397.989	908.869
400.882	952.732
403.775	1124.53
406.667	1221.61
409.56	1267.37
412.453	1151.54
415.346	926.374
418.238	772.69
421.131	527.098
424.024	347.106
426.916	218.625
429.809	136.931
432.702	58.0193
435.594	5.4895
438.487	3.07153
441.38	27.2678
444.272	34.2153
447.165	120.454
450.058	220.765
452.951	398.957
455.843	582.866
458.736	725.826
461.629	898.691
464.521	929.027
467.414	948.411
470.307	925.59
473.2	817.554
476.092	742.109
478.985	722.463
481.878	738.056
484.77	705.633
487.663	665.234
490.556	570.237
493.448	484.347
496.341	373.928
499.234	295.229
502.127	327.229
505.019	349.671
507.912	366.889
510.805	329.375
513.697	328.046
516.59	222.413
519.483	161.568
522.375	70.7009
525.268	6.5
528.161	46.6365
531.053	22.0643
533.946	21.3746
536.839	2.86548
539.731	71.5574
542.624	108.693
545.517	133.386
548.41	213.713
551.302	214.17
554.195	250.954
557.088	226.988
559.98	197.638
562.873	143.12
565.766	124.421
568.659	75.7972
571.551	65.8977
574.444	57.8552
577.337	50.2571
580.229	38.2692
583.122	19.9219
586.015	4.57605
588.907	13.151
591.8	16.8412
594.693	39.5055
597.585	41.2982
600.478	58.7531
603.371	89.1882
606.264	63.257
609.156	86.5433
612.049	113.812
614.942	118.766
617.834	154.802
620.727	166.38
623.62	190.555
626.513	212.74
629.405	200.772
632.298	252.958
635.191	241.4
638.083	253.63
640.976	244.489
643.869	270.608
646.761	271.864
649.654	296.034
652.547	279.498
655.439	257.382
658.332	303.466
661.225	333.107
664.117	335.128
667.01	351.379
669.903	355.094
672.796	393.232
675.688	433.152
678.581	448.788
681.474	453.694
684.366	474.646
687.259	465.58
690.152	492.815
693.044	450.763
695.937	426.879
698.83	365.102
701.723	361.374
704.615	310.792
707.508	242.99
710.401	215.344
713.293	179.249
716.186	120.69
719.079	109.853
721.971	50.2508
724.864	3.74329
727.757	51.8127
730.649	57.666
733.542	108.926
736.435	89.4995
739.328	107.214
742.22	90.2786
745.113	60.6887
748.006	41.8569
750.898	25.9534
753.791	169.648
756.684	273.452
759.577	420.879
762.469	521.95
765.362	605.518
768.255	658.553
771.147	681.858
774.04	678.697
776.933	572.008
779.825	380.899
782.718	262.729
785.611	186.815
788.504	170.527
791.396	262.649
794.289	483.473
797.182	762.52
800.074	1073.41
802.967	1317.4
805.86	1578.64
808.752	1837.38
811.645	2155.11
814.538	2505.02
817.431	3060.89
820.323	3895.45
823.216	5143.17
826.109	6916.32
829.001	9295.65
831.894	12273.3
834.787	15428.3
837.679	17945.4
840.572	18726.3
843.465	17151
846.357	14178.9
849.25	11060.2
852.143	8466.22
855.036	6873.16
857.928	5977.97
860.821	5647.49
863.714	5741.69
866.606	5892.76
869.499	5869.42
872.392	5493.13
875.284	5058.28
878.177	4604.31
881.07	4243.77
883.962	3948.61
886.855	3651.64
889.748	3319.15
892.641	2913.87
895.533	2598.4
898.426	2222.6
901.319	1718.78
904.211	1328.51
907.104	881.124
909.997	468.232
912.889	171.132
915.782	15.699
918.675	122.117
921.568	124.186
924.46	133.216
927.353	130.575
930.246	74.7529
933.138	62.709
936.031	23.0281
938.924	33.8774
941.817	56.8704
944.709	107.225
947.602	185.461
950.495	147.3
953.387	207.641
956.28	176.376
959.173	206.148
962.065	264.844
964.958	277.166
967.851	352.615
970.744	349.111
973.636	384.048
976.529	355.743
979.422	390.837
982.314	303.222
985.207	286.932
988.1	276.597
990.992	265.774
993.885	253.854
996.778	230.81
999.67	188.68
1002.56	206.838
1005.46	211.039
1008.35	180.778
1011.24	170.457
1014.13	152.745
1017.03	200.592
1019.92	176.058
1022.81	165.764
1025.7	152.267
1028.6	147.083
1031.49	135.18
1034.38	100.9
1037.28	88.4298
1040.17	75.8871
1043.06	72.9115
1045.95	74.1475
1048.85	97.9745
1051.74	43.4297
1054.63	62.3328
1057.52	52.4761
1060.42	30.7014
1063.31	23.3638
1066.2	56.9578
1069.1	69.9451
1071.99	49.428
1074.88	4.41577
1077.77	61.7966
1080.67	41.0242
1083.56	45.4565
1086.45	30.3757
1089.34	28.2986
1092.24	31.4043
1095.13	4.06104
1098.02	37.8411
1100.91	29.4299
1103.81	5.92603
1106.7	0.304443
1109.59	30.6089
1112.49	14.2305
1115.38	6.00391
1118.27	29.6455
1121.16	0.846924
1124.06	36.3445
1126.95	21.75
1129.84	14.0515
1132.73	35.9902
1135.63	7.72803
1138.52	16.7893
1141.41	11.4385
1144.31	55.7195
1147.2	35.4048
1150.09	17.8223
1152.98	27.8945
1155.88	41.98
1158.77	9.22729
1161.66	70.7244
1164.55	27.708
1167.45	44.8784
1170.34	13.9123
1173.23	18.178
1176.12	66.0478
1179.02	19.3994
1181.91	21.6238
1184.8	18.1706
1187.7	14.9197
1190.59	33.0664
1193.48	40.9546
1196.37	26.9495
1199.27	48.7463
1202.16	45.3218
1205.05	38.5059
1207.94	48.0786
1210.84	34.1282
1213.73	51.519
1216.62	2.28223
1219.52	24.8411
1222.41	4.65259
1225.3	30.0803
1228.19	16.709
1231.09	61.293
1233.98	3.20386
1236.87	35.4036
1239.76	46.0046
1242.66	48.6726
1245.55	50.4228
1248.44	67.3809
1251.34	18.5024
1254.23	24.8691
