Measurement: Raman, 532 nm, unoriented, Raman Data Processed
Mineral: Arseniopleite
Rruff sample: R070166
Ideal chemistry: CaNaMn^2+^Mn^2+^_2_(As^5+^O_4_)_3_
Locality: Varenche Mine, Saint-Barthélemy, Nus, Aosta Valley, Italy
Source: Michael Scott
Description: Reddish brown granular
Measured chemistry: (Ca_0.70_Na_0.30_)_Σ=1_(Na_0.94_Pb^2+^_0.06_)_Σ=1_Mn^2+^_1.00_(Mn^2+^_1.30_Mg_0.40_Fe^3+^_0.24_Fe^2+^_0.06_)_Σ=2_((As_0.99_P_0.01_)_Σ=1_O_4_)_3_; Fe^2+^ and Fe^3+^ splitted by charge balance
Raman shift (cm-1)	intensity
130.897	0
134.272	33.5013
137.647	92.7079
141.021	142.141
144.396	190.525
147.771	313.256
151.146	432.094
154.521	445.176
157.895	371.947
161.27	329.839
164.645	299.697
168.02	286.082
171.395	296.468
174.769	310.652
178.144	328.25
181.519	340.181
184.894	410.367
188.269	489.538
191.644	540.583
195.018	586.817
198.393	654.561
201.768	665.428
205.143	666.499
208.518	626.334
211.893	567.175
215.267	532.186
218.642	515.18
222.017	415.36
225.392	459.48
228.767	407.797
232.141	320.142
235.516	279.136
238.891	298.199
242.266	277.256
245.641	274.722
249.015	207.956
252.39	167.059
255.765	126.639
259.14	70.1117
262.515	56.7742
265.889	32.1289
269.264	6.69202
272.639	36.7899
276.014	35.4259
279.389	23.7185
282.764	58.2017
286.138	93.051
289.513	210.669
292.888	225.522
296.263	322.757
299.638	423.297
303.012	540.57
306.387	665.661
309.762	723.231
313.137	772.962
316.512	689.009
319.887	656.963
323.261	483.007
326.636	357.893
330.011	208.618
333.386	71.0574
336.761	3.99341
340.135	58.529
343.51	22.0535
346.885	22.5486
350.26	245.228
353.635	567.767
357.01	881.97
360.384	1162.4
363.759	1443.87
367.134	1432.44
370.509	1352.18
373.884	1267.84
377.258	1164.62
380.633	1112.64
384.008	1377.96
387.383	1570.29
390.758	1771.21
394.132	1826.74
397.507	1880.12
400.882	1811.98
404.257	1948.28
407.632	1977.08
411.007	2001.03
414.381	1879.48
417.756	1711.4
421.131	1419.38
424.506	1098.29
427.881	792.584
431.255	431.712
434.63	185.797
438.005	21.5979
441.38	19.354
444.755	29.1521
448.13	185.506
451.504	453.247
454.879	712.054
458.254	974.633
461.629	1152.97
465.003	1161.24
468.378	1141.84
471.753	935.927
475.128	692.017
478.503	589.526
481.878	502.578
485.252	429.929
488.627	325.883
492.002	235.059
495.377	139.671
498.752	47.6663
502.127	73.554
505.501	82.1558
508.876	141.198
512.251	124.78
515.626	111.032
519	10.8374
522.375	59.5242
525.75	72.7161
529.125	67.3425
532.5	0.47876
535.875	108.225
539.249	167.566
542.624	280.849
545.999	394.511
549.374	505.952
552.749	571.167
556.124	587.414
559.498	511.502
562.873	438.973
566.248	296.459
569.623	208.406
572.998	135.835
576.372	83.0533
579.747	69.4169
583.122	53.3445
586.497	27.749
589.872	16.6069
593.246	14.1061
596.621	50.6688
599.996	85.1611
603.371	118.397
606.746	126.549
610.12	151.796
613.495	172.57
616.87	202.533
620.245	242.091
623.62	283.082
626.995	276.993
630.369	323.822
633.744	356.286
637.119	367.44
640.494	408.593
643.869	391.392
647.244	406.368
650.618	422.067
653.993	448.651
657.368	464.292
660.743	466.19
664.117	508.363
667.492	543.183
670.867	587.572
674.242	613.941
677.617	655.815
680.992	707.847
684.366	727.293
687.741	683.774
691.116	636.386
694.491	558.71
697.866	546.507
701.24	456.288
704.615	396.932
707.99	323.551
711.365	216.928
714.74	163.78
718.115	123.068
721.489	25.1522
724.864	56.4491
728.239	97.9507
731.614	131.903
734.989	199.71
738.363	217.05
741.738	154.874
745.113	56.896
748.488	124.293
751.863	367.493
755.237	642.413
758.612	825.713
761.987	1025.39
765.362	1093.38
768.737	1115.94
772.112	1110.24
775.486	977.973
778.861	775.546
782.236	562.288
785.611	510.04
788.986	626.536
792.361	892.927
795.735	1341.62
799.11	1859.16
802.485	2267.37
805.86	2675.9
809.235	2998.26
812.609	3339.88
815.984	3893.43
819.359	4661.12
822.734	5945.34
826.109	8191.55
829.483	11333
832.858	15389
836.233	19300
839.608	21603.6
842.983	21147.3
846.357	18106.8
849.732	14388.6
853.107	11783.2
856.482	10173.6
859.857	9598.9
863.231	9364.68
866.606	9453.65
869.981	8607.32
873.356	7468.18
876.731	6324.19
880.106	5556.9
883.48	5022.13
886.855	4564.56
890.23	4068.07
893.605	3472.22
896.98	2817.12
900.355	2206.69
903.729	1574.37
907.104	932.643
910.479	428.088
913.854	93.1963
917.229	111.047
920.603	167.788
923.978	246.671
927.353	175.35
930.728	128.25
934.103	65.403
937.477	9.91565
940.852	109.345
944.227	194.83
947.602	243.642
950.977	299.216
954.351	353.311
957.726	431.723
961.101	455.165
964.476	497.52
967.851	582.799
971.226	639.877
974.6	691.361
977.975	686.195
981.35	616.895
984.725	580.678
988.1	482.266
991.475	435.106
994.849	410.743
998.224	352.488
1001.6	362.622
1004.97	363.472
1008.35	339.903
1011.72	294.911
1015.1	278.695
1018.47	277.55
1021.85	274.978
1025.22	265.023
1028.6	180.144
1031.97	216.458
1035.35	190.577
1038.72	139.759
1042.1	118.845
1045.47	85.8512
1048.85	90.0892
1052.22	44.244
1055.6	89.2274
1058.97	53.7952
1062.35	45.1101
1065.72	64.2876
1069.1	41.4082
1072.47	44.1774
1075.85	17.8009
1079.22	47.9591
1082.59	41.2803
1085.97	10.3462
1089.34	38.0215
1092.72	48.5906
1096.09	10.5977
1099.47	13.2485
1102.84	27.3949
1106.22	3.8479
1109.59	22.1299
1112.97	15.4535
1116.34	3.64832
1119.72	3.97815
1123.09	35.8554
1126.47	3.08984
1129.84	25.5804
1133.22	19.1791
1136.59	2.73572
1139.97	13.0563
1143.34	30.5178
1146.72	18.92
1150.09	6.89844
1153.47	4.77734
1156.84	1.67847
1160.21	9.11328
1163.59	22.5031
1166.96	11.4665
1170.34	7.42712
1173.71	25.3119
1177.09	48.4554
1180.46	19.8611
1183.84	7.99512
1187.21	11.8492
1190.59	53.1457
1193.96	38.931
1197.34	52.8098
1200.71	54.9934
1204.09	56.7741
1207.46	33.9684
1210.84	55.484
1214.21	51.2417
1217.59	54.2831
1220.96	32.7987
1224.34	48.7469
1227.71	51.4536
1231.09	31.0405
1234.46	41.029
1237.84	33.4696
1241.21	31.0891
1244.59	42.6519
1247.96	34.0936
1251.34	37.7063
1254.71	23.6031
1258.09	56.1957
1261.46	38.5671
1264.83	52.4166
1268.21	45.892
1271.58	46.1144
1274.96	14.4263
1278.33	29.8451
1281.71	23.3951
1285.08	4.54382
1288.46	7.57239
1291.83	50.245
1295.21	0
