Measurement: Raman, 532 nm, unoriented, Raman Data Processed
Mineral: Arsentsumebite
Rruff sample: R060949
Ideal chemistry: Pb^2+^_2_Cu^2+^(As^5+^O_4_)(SO_4_)(OH)
Locality: Capitana mine, Copiapo, Chile
Source: Bob Jenkins
Description: Green crystalline blebs scattered on the barite matrix
Measured chemistry: Pb_2.00_(Cu_0.98_Fe_0.02_)_Î£=1_(As_1.00_O_4_)(S_1.00_O_4_)(OH); OH estimated by charge balance and difference
Raman shift (cm-1)	intensity
138.397	0
141.29	485.652
144.183	775.846
147.075	855.373
149.968	509.981
152.861	168.443
155.753	216.777
158.646	642.678
161.539	1074.81
164.431	1793
167.324	1984.09
170.217	1839.72
173.109	1772.59
176.002	1784.74
178.895	1844.44
181.788	2131.74
184.68	2217.91
187.573	2275.26
190.466	2189.33
193.358	1747.89
196.251	1084.47
199.144	911.693
202.036	565.578
204.929	396.062
207.822	384.459
210.714	86.8008
213.607	131.941
216.5	123.91
219.393	42.832
222.285	120.551
225.178	109.215
228.071	91.7656
230.963	143.477
233.856	553.344
236.749	582.602
239.642	860.082
242.534	1050.29
245.427	1072.63
248.32	1006.75
251.212	932.875
254.105	485.769
256.998	282.211
259.89	315.519
262.783	458.574
265.676	538.297
268.568	588.121
271.461	579.508
274.354	399.715
277.247	411.519
280.139	465.93
283.032	904.039
285.925	829.516
288.817	1074.25
291.71	1328.52
294.603	1493.68
297.495	1974.18
300.388	2551.28
303.281	3438.96
306.174	4230.43
309.066	4908.57
311.959	5250.43
314.852	5361.81
317.744	5515.5
320.637	5473.42
323.53	5489.83
326.422	5443.06
329.315	5524.14
332.208	5580.46
335.101	5836.47
337.993	5896.89
340.886	5541.89
343.779	4543.53
346.671	3594.39
349.564	2864.29
352.457	2177.62
355.349	1634.46
358.242	806.434
361.135	556.867
364.027	241.68
366.92	170.945
369.813	120.379
372.706	140.414
375.598	161.383
378.491	96.2812
381.384	50.8633
384.276	358.812
387.169	694.457
390.062	786.586
392.954	748.617
395.847	613.562
398.74	499.805
401.633	714.094
404.525	854.109
407.418	990.406
410.311	1360.34
413.203	1496.68
416.096	1685.35
418.989	1771.17
421.881	1870.65
424.774	2275.56
427.667	2651.39
430.56	3509.27
433.452	4695.21
436.345	6003.1
439.238	7113.22
442.13	7574.66
445.023	6853.81
447.916	5300.87
450.808	3856.37
453.701	3205.48
456.594	2691.52
459.486	2480.95
462.379	2174.7
465.272	1906.62
468.165	1634.85
471.057	1278.02
473.95	1001.46
476.843	560.227
479.735	417.324
482.628	474.219
485.521	503.551
488.413	454.832
491.306	156.973
494.199	48.2969
497.092	78.1836
499.984	62.9023
502.877	10.9492
505.77	140.266
508.662	221.473
511.555	77.125
514.448	161.836
517.341	266.559
520.233	158.238
523.126	299.535
526.019	191.637
528.911	46.2344
531.804	89.9336
534.697	150.508
537.589	7.16797
540.482	94.4258
543.375	36.3047
546.267	169.996
549.16	152.531
552.053	96.707
554.946	55.7539
557.838	33.5898
560.731	55.8633
563.624	134.484
566.516	257.484
569.409	317.117
572.302	222.344
575.194	319.789
578.087	179.66
580.98	163.481
583.872	296.883
586.765	521.758
589.658	796.965
592.551	789.301
595.443	1099.77
598.336	1421.45
601.229	1667.23
604.121	1925.54
607.014	2028.25
609.907	2210.81
612.799	2354.7
615.692	2578.86
618.585	2783.77
621.477	2632.66
624.37	2396.18
627.263	1989.84
630.156	1470.56
633.048	1138.98
635.941	963.93
638.834	836.156
641.726	706.133
644.619	644.812
647.512	612.246
650.404	1045.77
653.297	1162.69
656.19	1078.63
659.083	949.227
661.975	904.812
664.868	854.102
667.761	685.32
670.653	779.43
673.546	617.09
676.439	397.402
679.332	373.246
682.224	626.801
685.117	825.848
688.01	637.266
690.902	684.012
693.795	606.555
696.688	657.223
699.58	325.352
702.473	177.551
705.366	52.0703
708.259	46.4766
711.151	33.1016
714.044	223.203
716.937	44.6484
719.829	47.543
722.722	29.7188
725.615	14.8906
728.507	52.6133
731.4	173.434
734.293	270.469
737.185	158.867
740.078	129.816
742.971	159.809
745.864	353.5
748.756	744.312
751.649	809.348
754.542	1033.7
757.434	1662.41
760.327	1615.27
763.22	2067.13
766.112	2383.32
769.005	2922.96
771.898	3340.85
774.79	3712.74
777.683	3866
780.576	4319.44
783.469	4962.59
786.361	5703.41
789.254	6899.15
792.147	8967.99
795.039	11335
797.932	14429.8
800.825	18025.1
803.717	21624.8
806.61	24156.3
809.503	25557.3
812.396	25900.1
815.288	25566.4
818.181	23686.2
821.074	20868.2
823.966	18075
826.859	15519.3
829.752	13236.5
832.644	10860.7
835.537	9163.61
838.43	8047.03
841.323	6839.69
844.215	6227.37
847.108	5322.41
850.001	4656.6
852.893	3978.59
855.786	3211.72
858.679	2801.41
861.571	2440.7
864.464	1927.14
867.357	1488.73
870.25	1130.15
873.142	986.023
876.035	803.125
878.928	548.453
881.82	788.629
884.713	470.25
887.606	308.191
890.498	109.949
893.391	204.281
896.284	385.551
899.177	244.199
902.069	58.7656
904.962	11.1836
907.855	329.199
910.747	227.137
913.64	199.305
916.533	232.594
919.425	388.699
922.318	162.414
925.211	314.336
928.104	486.066
930.996	478.566
933.889	455.992
936.782	593.301
939.674	834.57
942.567	1202.58
945.46	1272.53
948.352	2050.86
951.245	2909.36
954.138	4587.88
957.03	6789.16
959.923	10243
962.816	14785.2
965.709	20377.1
968.601	25990.3
971.494	29028.2
974.387	26191.2
977.279	17890.5
980.172	10052.4
983.065	5661.41
985.957	3264.95
988.85	2061.23
991.743	1394.37
994.635	909.305
997.528	656.406
1000.42	617.234
1003.31	387.375
1006.21	380.227
1009.1	188.836
1011.99	210.773
1014.88	94.4375
1017.78	78.9453
1020.67	251.18
1023.56	275.133
1026.45	373.422
1029.35	385.664
1032.24	462.609
1035.13	177.211
1038.03	430.047
1040.92	518.266
1043.81	229.297
1046.7	50.3828
1049.6	69.8828
1052.49	352.828
1055.38	534.344
1058.28	632.234
1061.17	498.195
1064.06	150.883
1066.95	3.55469
1069.85	249.711
1072.74	18.9141
1075.63	179.508
1078.52	36.75
1081.42	122.781
1084.31	85.875
1087.2	355.836
1090.09	284.234
1092.99	250.477
1095.88	524.453
1098.77	491.789
1101.66	566.922
1104.56	332.984
1107.45	397.172
1110.34	375.867
1113.24	194.25
1116.13	27.3594
1119.02	307.234
1121.91	4.95312
1124.81	287.641
1127.7	562.898
1130.59	764.953
1133.48	643.516
1136.38	391.125
1139.27	457.992
1142.16	464.586
1145.06	738.039
1147.95	592.836
1150.84	1095.12
1153.73	1177.17
1156.63	1905.57
1159.52	1845.38
1162.41	1676.61
1165.31	1129.02
1168.2	789.273
1171.09	688.672
1173.98	955.516
1176.88	623.852
1179.77	395.375
1182.66	596.117
1185.55	607.805
1188.45	356.125
1191.34	92.0625
1194.23	81.0312
1197.12	70.5703
1200.02	121.297
1202.91	14.3906
1205.8	132.078
1208.69	296.773
1211.59	147.875
1214.48	225.344
1217.37	46.3125
1220.27	4.19531
1223.16	321.555
1226.05	442.25
1228.94	214.93
1231.84	262.07
1234.73	269.32
1237.62	569.484
1240.52	313.281
1243.41	112.094
1246.3	535.109
1249.19	333.617
1252.09	107.031
1254.98	18.875
1257.87	104.375
