Measurement: Raman, 514 nm, unoriented, Raman Data Processed
Mineral: Arsenolite
Rruff sample: R050383
Ideal chemistry: As^3+^_2_O_3_
Locality: Eureka, Nevada, USA
Source: University of Arizona Mineral Museum
Description: Colorless hoppered octahedra
Measured chemistry: As_2.00_O_3_
Raman shift (cm-1)	intensity
54.266	0
58.464	49.494
62.661	24.159
66.856	6.344
71.048	116.951
75.239	1255.63
79.427	7728.94
83.614	13449.9
87.798	7113.26
91.981	1602.06
96.161	1191.68
100.34	1046.54
104.516	971.97
108.691	923.61
112.864	917.286
117.034	914.857
121.203	870.177
125.369	797.127
129.534	810.618
133.696	689.573
137.857	740.882
142.016	721.66
146.172	645.626
150.327	595.096
154.48	573.21
158.63	576.025
162.779	529.809
166.926	532.647
171.07	567.391
175.213	1137.9
179.354	2657.14
183.493	3868.08
187.63	2173.75
191.765	697.129
195.898	408.229
200.029	362.096
204.158	365.086
208.285	328.867
212.41	287.739
216.533	312.236
220.654	282.812
224.773	236.512
228.891	214.621
233.006	183.545
237.119	155.666
241.231	174.909
245.34	125.388
249.448	193.69
253.553	283.627
257.657	617.313
261.758	4354.29
265.858	10451.1
269.956	13631.3
274.052	3477.75
278.146	528.214
282.237	156.788
286.327	100.469
290.416	58.837
294.502	51.723
298.586	82.15
302.668	42.053
306.749	63.439
310.827	77.317
314.903	34.678
318.978	34.473
323.051	76.676
327.121	56.278
331.19	36.497
335.257	46.144
339.322	36.552
343.385	67.961
347.446	165.389
351.505	311.302
355.563	727.775
359.618	2575.5
363.672	19578.4
367.723	45312.5
371.773	48207.9
375.821	11995.6
379.866	2822.6
383.91	1230.85
387.952	621.522
391.992	293.6
396.031	99.093
400.067	49.968
404.101	9.777
408.134	12.186
412.165	127.713
416.193	183.92
420.22	3.577
424.245	82.799
428.268	95.795
432.289	25.651
436.309	93.385
440.326	2.462
444.342	24.862
448.355	9.419
452.367	67.404
456.377	133.35
460.385	438.285
464.391	1266.01
468.395	2755.44
472.398	2979.81
476.398	1348.11
480.397	466.916
484.394	121.262
488.389	56.725
492.382	6.988
496.373	15.43
500.362	16.425
504.349	45.765
508.335	88.029
512.319	65.163
516.3	37.451
520.28	84.699
524.259	116.246
528.235	130.608
532.209	390.035
536.182	413.521
540.152	276.174
544.121	412.45
548.088	854.121
552.053	2548.96
556.017	9346.32
559.978	18125.6
563.938	9349.97
567.895	2227.72
571.851	561.95
575.805	289.173
579.758	118.862
583.708	66.982
587.657	40.325
591.603	118.816
595.548	38.922
599.491	36.778
603.432	15.501
607.372	19.734
611.309	25.963
615.245	34.868
619.179	12.005
623.111	30.277
627.041	28.23
630.97	23.46
634.896	36.645
638.821	37.658
642.744	77.576
646.665	12.394
650.584	21.746
654.502	61.096
658.418	9.739
662.331	71.995
666.244	80.497
670.154	35.619
674.062	97.153
677.969	54.651
681.874	141.237
685.777	218.737
689.678	104.198
693.577	92.613
697.475	5.826
701.371	91.865
705.265	20.779
709.157	107.783
713.047	39.685
716.936	21.054
720.823	64.574
724.708	73.797
728.591	101.024
732.472	166.018
736.352	58.903
740.23	106.796
744.106	140.007
747.98	90.735
751.853	115.344
755.723	122.512
759.592	218.727
763.459	174.73
767.325	203.6
771.188	433.427
775.05	1091.54
778.91	3445.95
782.768	3759.13
786.625	1117.91
790.479	380.205
794.332	206.357
798.183	107.6
802.033	138.645
805.88	149.555
809.726	104.302
813.57	82.246
817.413	63.513
821.253	21.485
825.092	133.026
828.929	117.725
832.764	137.948
836.598	83.051
840.429	38.105
844.259	28.279
848.088	86.235
851.914	53.338
855.739	91.551
859.562	62.951
863.383	49.746
867.203	2.6
871.02	57.789
874.836	33.749
878.65	11.191
882.463	84.477
886.274	142.698
890.083	100.721
893.89	94.222
897.695	69.68
901.499	23.141
905.301	98.523
909.102	104.891
912.9	45.26
916.697	50.124
920.492	60.256
924.285	41.856
928.077	44.383
931.867	15.749
935.655	63.461
939.442	110.144
943.226	80.831
947.009	74.902
950.791	78.567
954.57	57.251
958.348	116.942
962.124	65.884
965.899	30.81
969.671	112.705
973.442	19.007
977.211	120.854
980.979	90.815
984.745	136.094
988.509	122.6
992.271	14.45
996.032	107.488
999.791	94.401
1003.55	45.168
1007.3	141.089
1011.06	49.762
1014.81	100.909
1018.56	55.868
1022.31	33.164
1026.06	67.429
1029.8	159.795
1033.55	111.157
1037.29	129.779
1041.03	103.646
1044.77	118.63
1048.5	107.641
1052.24	105.137
1055.97	181.583
1059.7	190.242
1063.43	90.573
1067.16	67.582
1070.89	34.622
1074.61	91.726
1078.34	28.182
1082.06	154.396
1085.78	151.631
1089.5	78.619
1093.21	40.791
1096.93	89.105
1100.64	66.087
1104.35	194.252
1108.06	21.883
1111.77	155.614
1115.48	48.291
1119.18	130.126
1122.89	97.386
1126.59	83.965
1130.29	36.214
1133.99	27.8
1137.68	69.214
1141.38	75.279
1145.07	60.058
1148.76	83.338
1152.45	25.722
1156.14	42.64
1159.83	3.783
1163.51	25.816
1167.19	50.444
1170.88	106.395
1174.56	107.142
1178.23	100.019
1181.91	25.144
1185.59	165.127
1189.26	101.942
1192.93	124.917
1196.6	133.431
1200.27	70.584
1203.94	79.777
1207.6	26.396
1211.27	70.41
1214.93	83.24
1218.59	47.089
1222.25	134.639
1225.9	154.895
1229.56	95.592
1233.21	134.591
1236.86	134.622
1240.51	24.747
1244.16	81.216
1247.81	73.722
1251.45	227.09
1255.1	127.2
1258.74	11.531
1262.38	52.158
1266.02	192.898
1269.66	103.382
1273.29	108.952
1276.93	46.818
1280.56	61.668
1284.19	95.598
1287.82	48.082
1291.45	22.9
1295.07	113.884
1298.7	28.529
1302.32	43.369
1305.94	99.344
1309.56	112.557
1313.18	27.13
1316.8	79.909
1320.41	19.966
1324.02	59.317
1327.63	155.23
1331.24	7.186
1334.85	16.763
1338.46	2.016
1342.06	78.083
1345.67	60.809
1349.27	112.698
1352.87	119.721
1356.47	90.322
1360.07	85.326
1363.66	92.633
1367.25	119.47
1370.85	74.04
1374.44	115.898
1378.03	106.602
1381.61	50.633
1385.2	83.051
1388.78	97.553
1392.37	158.522
1395.95	64.221
1399.53	97.041
1403.1	163.858
1406.68	130.599
1410.26	113.084
1413.83	104.172
1417.4	73.549
1420.97	77.146
1424.54	171.229
1428.1	49.202
1431.67	134.599
1435.23	130.625
1438.8	195.755
1442.36	129.275
1445.91	70.758
1449.47	123.682
1453.03	118.635
1456.58	186.174
1460.13	119.65
1463.68	103.247
1467.23	145.226
1470.78	239.833
1474.33	109.487
1477.87	197.278
1481.42	157.171
1484.96	185.229
1488.5	182.35
1492.04	52.563
1495.57	172.017
1499.11	13.938
1502.64	121.574
1506.17	170.453
1509.71	33.441
1513.23	106.354
1516.76	11.878
1520.29	65.521
1523.81	30.043
