Measurement: Raman, 785 nm, unoriented, Raman Data Processed
Mineral: Arsenogorceixite
Rruff sample: R060686
Ideal chemistry: BaAl_3_As^5+^O_4_(As^5+^O_3_OH)(OH)_6_
Locality: Clara mine, Rankach Valley, Oberwolfach, Wolfach, Black Forest, Baden-WÃ¼rttemberg, Germany
Source: Michael Scott
Description: Stacked aggregates of pale greenish-yellow hexagonal plates
Raman shift (cm-1)	intensity
186.613	0
189.506	265.631
192.399	887.574
195.291	1380.74
198.184	1589.19
201.077	1278.67
203.969	873.314
206.862	547.009
209.755	362.705
212.648	253.934
215.54	360.385
218.433	641
221.326	776.615
224.218	858.137
227.111	956.098
230.004	953.235
232.896	686.531
235.789	457.078
238.682	172.637
241.574	52.9883
244.467	144.836
247.36	110.121
250.253	17.835
253.145	29.9639
256.038	167.332
258.931	272.727
261.823	398.653
264.716	492.533
267.609	501.456
270.501	508.798
273.394	465.94
276.287	451.292
279.18	721.621
282.072	814.571
284.965	745.784
287.858	915.511
290.75	816.614
293.643	912.313
296.536	1083.81
299.428	1250.03
302.321	1518.32
305.214	1671.73
308.107	1629.38
310.999	1705.26
313.892	1370.03
316.785	1170.42
319.677	869.252
322.57	717.823
325.463	712.62
328.355	542.571
331.248	432.688
334.141	418.354
337.034	252.637
339.926	148.227
342.819	44.001
345.712	57.502
348.604	171.668
351.497	263.899
354.39	181.741
357.283	84.9551
360.175	20.001
363.068	39.7168
365.961	0.530273
368.853	42.4121
371.746	163.009
374.639	305.263
377.531	268.043
380.424	280.402
383.317	174.697
386.21	270.603
389.102	277.167
391.995	371.911
394.888	565.751
397.78	720.743
400.673	717.289
403.566	886.004
406.458	976.871
409.351	1144.7
412.244	1322.99
415.137	1539.94
418.029	1671.38
420.922	1571.84
423.815	1506.37
426.707	1423.53
429.6	1239.81
432.493	1024.73
435.385	857.361
438.278	536.687
441.171	434.894
444.064	310.795
446.956	153.953
449.849	32.6982
452.742	36.4248
455.634	97.6113
458.527	31.7227
461.42	109.012
464.312	166.117
467.205	212.301
470.098	280.219
472.991	422.664
475.883	456.267
478.776	585.156
481.669	617.422
484.561	832.924
487.454	913.292
490.347	1005.06
493.24	1111.81
496.132	1129.6
499.025	1046.59
501.918	1153.44
504.81	1419.56
507.703	1620.64
510.596	2115.96
513.488	2627.62
516.381	3060.06
519.274	3384.24
522.166	3534.15
525.059	3729.37
527.952	3398.93
530.844	2932.93
533.737	2393.42
536.63	1890.28
539.523	1380.64
542.415	907.831
545.308	725.583
548.201	378.71
551.093	235.383
553.986	199.797
556.879	165.981
559.771	133.391
562.664	153.01
565.557	107.385
568.45	71.3926
571.342	5.72754
574.235	69.0361
577.128	68.6738
580.021	64.5312
582.913	136.58
585.806	166.347
588.699	131.342
591.591	131.496
594.484	132.452
597.377	148.362
600.269	107.356
603.162	172.49
606.055	157.056
608.948	212.436
611.84	260.426
614.733	31.6426
617.626	181.708
620.518	122.674
623.411	177.598
626.304	101.023
629.196	4.08106
632.089	113.447
634.982	50.2744
637.875	19.6123
640.767	82.3789
643.66	77.5596
646.553	83.4365
649.445	14.3389
652.338	16.7822
655.231	75.915
658.123	86.625
661.016	2.27246
663.909	54.9453
666.802	46.373
669.694	28.5088
672.587	50.2461
675.48	56.2158
678.372	58.3408
681.265	65.1758
684.158	86.8223
687.05	84.7031
689.943	149.978
692.836	146.652
695.729	185.539
698.621	245.496
701.514	322.565
704.407	278.338
707.299	301.245
710.192	462.429
713.085	520.884
715.977	673.198
718.87	934.202
721.763	1062.68
724.656	1429.33
727.548	1570.47
730.441	1681.22
733.334	1647.16
736.226	1388.45
739.119	1252.11
742.012	1133.99
744.904	986.311
747.797	892.306
750.69	720.962
753.583	669.796
756.475	581.207
759.368	424.585
762.261	325.288
765.153	192.478
768.046	171.218
770.939	159.505
773.831	121.438
776.724	66.3916
779.617	44.3184
782.51	32.7705
785.402	86.1894
788.295	56.8887
791.188	23.8408
794.08	20.208
796.973	8.42871
799.866	73.3037
802.758	8.8623
805.651	42.5898
808.544	170.048
811.437	220.759
814.329	373.127
817.222	302.705
820.115	513.56
823.007	595.464
825.9	743.558
828.793	1033.79
831.685	1162.54
834.578	1434.05
837.471	1772.21
840.364	2079.66
843.256	2510.36
846.149	3051.31
849.042	3447.34
851.934	3816.97
854.827	4322.01
857.72	4851.36
860.612	5277.73
863.505	5676.28
866.398	6022.49
869.291	6650.23
872.183	7215.51
875.076	7092.61
877.969	7195.79
880.861	7150.41
883.754	6750.66
886.647	6451.16
889.539	5904.85
892.432	5501.22
895.325	4863.79
898.218	4356.24
901.11	3798.02
904.003	3405.56
906.896	3042.37
909.788	2505.89
912.681	2147.86
915.574	1671.83
918.466	1224.09
921.359	1019.91
924.252	775.071
927.145	532.39
930.037	462.078
932.93	472.647
935.823	363.399
938.715	250.539
941.608	127.447
944.501	34.5645
947.393	23.8018
950.286	107.647
953.179	23.3789
956.072	33.4893
958.964	9.39551
961.857	19.3818
964.75	67.6699
967.642	15.5508
970.535	54.2725
973.428	78.6807
976.32	62.5449
979.213	32.9668
982.106	58.5244
984.999	64.6201
987.891	88.5654
990.784	35.419
993.677	25.3975
996.569	51.7607
999.462	127.792
1002.36	224.627
1005.25	208.757
1008.14	200.794
1011.03	170.417
1013.93	184.074
1016.82	238.038
1019.71	239.185
1022.6	232.98
1025.5	171.156
1028.39	240.956
1031.28	148.887
1034.17	204.514
1037.07	239.975
1039.96	255.067
1042.85	117.106
1045.74	126.499
1048.64	176.952
1051.53	74.3662
1054.42	31.2939
1057.32	56.4727
1060.21	63.5801
1063.1	8.55469
1065.99	64.5879
1068.89	34.5957
1071.78	8.67773
1074.67	67.6523
1077.57	15.7441
1080.46	77.7275
1083.35	113.81
1086.24	118.541
1089.14	222.097
1092.03	315.683
1094.92	289.049
1097.81	432.888
1100.71	390.239
1103.6	294.051
1106.49	160.642
1109.38	280.956
1112.28	201.075
1115.17	110.672
1118.06	111.131
1120.96	177.117
1123.85	73.3643
1126.74	15.2822
1129.63	143.359
1132.53	111.273
1135.42	152.263
1138.31	183.878
1141.2	126.607
1144.1	243.279
1146.99	309.735
1149.88	287.964
1152.78	410.449
1155.67	416.835
1158.56	430.89
1161.45	468.819
1164.35	467.653
1167.24	371.526
1170.13	345.731
1173.02	408.107
1175.92	336.352
1178.81	235.435
1181.7	243.029
1184.6	231.022
1187.49	148.294
1190.38	115.305
1193.27	127.162
1196.17	73.7148
1199.06	146.93
1201.95	157.67
1204.84	187.416
1207.74	143.834
1210.63	284.454
1213.52	298.181
1216.41	404.913
1219.31	306.047
1222.2	274.416
1225.09	293.246
1227.98	185.742
1230.88	294.481
1233.77	178.293
1236.66	20.9199
1239.56	56.6582
1242.45	147.798
1245.34	99.8477
1248.23	60.9541
1251.13	95.8447
1254.02	56.3086
1256.91	50.7705
1259.81	25.0928
1262.7	121.384
1265.59	37.3477
