Measurement: Raman, 532 nm, unoriented, Raman Data Processed
Mineral: Arsenolite
Rruff sample: R050383
Ideal chemistry: As^3+^_2_O_3_
Locality: Eureka, Nevada, USA
Source: University of Arizona Mineral Museum
Description: Colorless hoppered octahedra
Measured chemistry: As_2.00_O_3_
Raman shift (cm-1)	intensity
107.781	0
111.156	12.4474
114.531	25.1529
117.906	67.442
121.281	62.1924
124.655	70.0035
128.03	66.4124
131.405	64.9031
134.78	49.1864
138.155	57.776
141.529	50.6334
144.904	39.1498
148.279	36.188
151.654	42.143
155.029	58.0637
158.404	52.5992
161.778	125.852
165.153	452.325
168.528	516.994
171.903	629.996
175.278	845.856
178.652	1232.47
182.027	3182.36
185.402	1133.63
188.777	103.067
192.152	31.0048
195.526	11.1117
198.901	8.87897
202.276	0.867676
205.651	9.28172
209.026	6.38849
212.401	1.16307
215.775	6.38501
219.15	4.51767
222.525	5.03308
225.9	14.2004
229.275	16.0219
232.649	9.15973
236.024	23.2875
239.399	27.2632
242.774	71.8098
246.149	224.587
249.524	1716.31
252.898	2297.79
256.273	2844.82
259.648	3671.39
263.023	5403.37
266.398	13002.4
269.772	8101.39
273.147	375.558
276.522	106.083
279.897	59.128
283.272	31.9393
286.647	8.16121
290.021	7.19826
293.396	6.68411
296.771	12.2011
300.146	4.12129
303.521	6.03201
306.895	6.55701
310.27	9.98789
313.645	2.2005
317.02	17.2232
320.395	11.2227
323.769	23.431
327.144	26.2297
330.519	23.1006
333.894	30.7899
337.269	30.9051
340.644	67.2114
344.018	129.092
347.393	409.932
350.768	2402.14
354.143	4729.31
357.518	6122.21
360.892	8626.64
364.267	14740.5
367.642	31973
371.017	24306.9
374.392	2827.67
377.767	1145.92
381.141	718.417
384.516	419.941
387.891	219.631
391.266	99.6017
394.641	44.8094
398.015	35.1645
401.39	25.2322
404.765	33.2725
408.14	56.7641
411.515	126.44
414.89	162.256
418.264	16.3723
421.639	2.97079
425.014	1.04926
428.389	1.20825
431.764	5.61444
435.139	17.285
438.513	37.1692
441.888	45.8365
445.263	77.5485
448.638	148.246
452.012	330.583
455.387	573.295
458.762	788.768
462.137	1099.62
465.512	1761.27
468.887	2495.62
472.261	1979.64
475.636	689.721
479.011	277.609
482.386	115.153
485.761	47.2526
489.135	3.66931
492.51	31.7694
495.885	3.14572
499.26	5.97531
502.635	26.6673
506.01	36.6372
509.384	33.3698
512.759	9.80908
516.134	26.993
519.509	53.9252
522.884	53.1185
526.259	125.751
529.633	163.085
533.008	227.641
536.383	258.767
539.758	327.296
543.133	998.025
546.507	1777.22
549.882	2544.15
553.257	4127.66
556.632	7337.43
560.007	10471.6
563.381	2850.8
566.756	626.415
570.131	259.425
573.506	133.196
576.881	66.1942
580.256	53.5502
583.63	37.7951
587.005	25.1831
590.38	23.9195
593.755	39.8366
597.13	45.2857
600.505	29.339
603.879	6.44365
607.254	14.4046
610.629	3.03508
614.004	0.644592
617.379	9.54558
620.753	5.39363
624.128	12.2395
627.503	14.8471
630.878	12.8539
634.253	14.8773
637.627	16.8298
641.002	14.9931
644.377	18.843
647.752	16.7619
651.127	19.2828
654.501	21.5589
657.876	22.9884
661.251	29.7266
664.626	28.992
668.001	35.2898
671.376	27.6516
674.75	29.2586
678.125	36.3247
681.5	47.2642
684.875	52.8456
688.25	35.0797
691.625	24.0897
694.999	9.00316
698.374	12.2559
701.749	1.78772
705.124	2.28351
708.499	2.4381
711.873	0.372559
715.248	15.7677
718.623	1.43106
721.998	15.873
725.373	3.93504
728.747	8.48619
732.122	8.75455
735.497	9.4263
738.872	3.87611
742.247	35.164
745.622	13.1903
748.996	29.7145
752.371	34.3863
755.746	53.6575
759.121	83.3943
762.496	131.502
765.87	371.988
769.245	586.979
772.62	849.718
775.995	1468.08
779.37	2506.53
782.745	1380.7
786.119	309.393
789.494	125.86
792.869	59.3223
796.244	26.1021
799.619	26.3188
802.994	22.8468
806.368	0.769547
809.743	19.5873
813.118	14.8985
816.493	19.127
819.868	15.4099
823.242	40.0129
826.617	43.3518
829.992	15.2313
833.367	5.97968
836.742	10.0076
840.116	2.42854
843.491	3.98436
846.866	2.17361
850.241	5.84274
853.616	1.67592
856.99	11.11
860.365	5.88194
863.74	8.49887
867.115	0.049545
870.49	22.2866
873.865	2.47317
877.239	2.76842
880.614	12.414
883.989	4.79071
887.364	10.7815
890.739	13.3492
894.114	12.9243
897.488	9.30986
900.863	2.19037
904.238	9.79404
907.613	9.51698
910.988	0.886414
914.362	13.0049
917.737	8.51717
921.112	15.4949
924.487	22.1942
927.862	26.687
931.236	8.79689
934.611	16.1359
937.986	7.8635
941.361	6.7979
944.736	1.08424
948.111	11.1801
951.485	1.08029
954.86	5.39407
958.235	5.86896
961.61	12.2525
964.985	6.25122
968.36	10.3181
971.734	10.6149
975.109	10.649
978.484	1.76238
981.859	4.54587
985.234	3.68201
988.608	11.4248
991.983	4.54149
995.358	1.295
998.733	5.47443
1002.11	1.6525
1005.48	10.2759
1008.86	4.82713
1012.23	13.1383
1015.61	16.8126
1018.98	2.06543
1022.36	5.8026
1025.73	15.1515
1029.11	11.1393
1032.48	21.5729
1035.86	20.0907
1039.23	15.3426
1042.61	13.485
1045.98	14.2641
1049.36	11.1853
1052.73	16.7145
1056.11	11.7919
1059.48	17.517
1062.85	13.9532
1066.23	9.21056
1069.6	3.26358
1072.98	15.086
1076.35	8.93687
1079.73	1.32613
1083.1	4.23398
1086.48	2.24034
1089.85	5.29697
1093.23	10.6809
1096.6	4.3362
1099.98	5.91859
1103.35	14.6104
1106.73	19.587
1110.1	16.6156
1113.48	13.0274
1116.85	6.91432
1120.23	2.31976
1123.6	6.51625
1126.98	2.77962
1130.35	9.59302
1133.72	5.68744
1137.1	12.1245
1140.47	12.7012
1143.85	16.6772
1147.22	24.6271
1150.6	5.06566
1153.97	13.7635
1157.35	2.35106
1160.72	6.74676
1164.1	0.147629
1167.47	12.2226
1170.85	23.2974
1174.22	14.8493
1177.6	6.8828
1180.97	17.7248
1184.35	11.3134
1187.72	0.120575
1191.1	11.3876
1194.47	7.80496
1197.85	8.70872
1201.22	3.94009
1204.6	6.57555
1207.97	11.9926
1211.35	1.9662
1214.72	8.31957
1218.1	6.74751
1221.47	0.211746
1224.85	17.3607
1228.22	2.86928
1231.6	4.85596
1234.97	18.8772
1238.35	8.09517
1241.72	21.4237
1245.09	18.1858
1248.47	10.8828
1251.84	6.56447
1255.22	10.7688
1258.59	7.09686
1261.97	17.2223
1265.34	12.8314
1268.72	11.5642
1272.09	10.4156
1275.47	0.749344
1278.84	10.2319
1282.22	0.023895
