Measurement: Raman, 785 nm, unoriented, Raman Data Processed
Mineral: Arseniopleite
Rruff sample: R070166
Ideal chemistry: CaNaMn^2+^Mn^2+^_2_(As^5+^O_4_)_3_
Locality: Varenche Mine, Saint-Barthélemy, Nus, Aosta Valley, Italy
Source: Michael Scott
Description: Reddish brown granular
Measured chemistry: (Ca_0.70_Na_0.30_)_Σ=1_(Na_0.94_Pb^2+^_0.06_)_Σ=1_Mn^2+^_1.00_(Mn^2+^_1.30_Mg_0.40_Fe^3+^_0.24_Fe^2+^_0.06_)_Σ=2_((As_0.99_P_0.01_)_Σ=1_O_4_)_3_; Fe^2+^ and Fe^3+^ splitted by charge balance
Raman shift (cm-1)	intensity
195.555	0
198.448	146.035
201.341	218.613
204.233	195.221
207.126	268.26
210.019	215.15
212.912	175.332
215.804	186.6
218.697	190.596
221.59	376.832
224.482	327.703
227.375	215.016
230.268	147.699
233.161	185.31
236.053	217.393
238.946	282.371
241.839	315.426
244.731	307.332
247.624	329.99
250.517	227.391
253.409	193.998
256.302	171.281
259.195	103.164
262.087	160.326
264.98	162.217
267.873	57.6055
270.766	92.332
273.658	4.06641
276.551	59.498
279.444	114.088
282.336	75.9082
285.229	105.014
288.122	283.971
291.014	232.705
293.907	433.029
296.8	228.236
299.693	234.881
302.585	579.918
305.478	518.744
308.371	537.498
311.263	619.074
314.156	646.106
317.049	529.924
319.942	479.432
322.834	441.842
325.727	381.082
328.62	287.752
331.512	232.523
334.405	145.715
337.298	5.56641
340.19	15.8125
343.083	119.285
345.976	23.1914
348.868	156.908
351.761	314.106
354.654	730.619
357.547	1002.38
360.439	1368.21
363.332	1666.05
366.225	1779.11
369.117	1657.33
372.01	1669.17
374.903	1600.02
377.796	1270.94
380.688	1273.75
383.581	1336.87
386.474	1449.4
389.366	1767.49
392.259	1935.66
395.152	2056.07
398.044	2105.06
400.937	2126.53
403.83	2167.36
406.723	2173.43
409.615	2067.19
412.508	1919.85
415.401	2107.73
418.293	1618.01
421.186	1389.2
424.079	992.266
426.971	802.811
429.864	381.406
432.757	271.164
435.649	150.857
438.542	18.4062
441.435	22.0684
444.328	14.9141
447.22	14.957
450.113	157.807
453.006	243.772
455.898	501.023
458.791	634.225
461.684	953.394
464.577	943.07
467.469	971.604
470.362	927.592
473.255	772.023
476.147	606.721
479.04	520.096
481.933	429.572
484.825	442.359
487.718	255.857
490.611	396.486
493.503	178.19
496.396	234.107
499.289	143.947
502.182	8.21484
505.074	13.5508
507.967	117.176
510.86	83.2656
513.752	182.84
516.645	250.539
519.538	116.199
522.431	90.3516
525.323	97.5195
528.216	30.9043
531.109	73.8144
534.001	2.3125
536.894	96.9883
539.787	124.904
542.679	269.371
545.572	309.492
548.465	544.953
551.357	469.103
554.25	561.801
557.143	700.238
560.036	643.844
562.928	546.539
565.821	409.484
568.714	359.312
571.606	328.168
574.499	282.543
577.392	42.0781
580.284	147.223
583.177	123.016
586.07	188.953
588.963	160.691
591.855	26.7891
594.748	45.5078
597.641	124.606
600.533	105.031
603.426	127.184
606.319	166.629
609.212	102.215
612.104	81.9727
614.997	156.258
617.89	37.7109
620.782	86.2578
623.675	70.8516
626.568	197.199
629.46	166.203
632.353	92.1562
635.246	136.5
638.139	198.234
641.031	261.586
643.924	154.465
646.817	175.051
649.709	193.469
652.602	150.781
655.495	187.617
658.387	228.543
661.28	138.367
664.173	146.363
667.066	151.863
669.958	249.609
672.851	220.652
675.744	356.129
678.636	383.891
681.529	503.965
684.422	332.68
687.314	354.074
690.207	370.356
693.1	311.922
695.992	412.098
698.885	440.578
701.778	425.574
704.671	397.516
707.563	294.172
710.456	229.641
713.349	203.406
716.241	225.777
719.134	162.523
722.027	155.086
724.919	103.121
727.812	71.2031
730.705	12.7227
733.598	23.3633
736.49	87.5938
739.383	54.418
742.276	87.6094
745.168	23.6836
748.061	103.148
750.954	99.6914
753.846	191.762
756.739	415.344
759.632	447.387
762.525	703.531
765.417	557.902
768.31	780.254
771.203	653.223
774.095	742.902
776.988	619.711
779.881	438.957
782.774	249.394
785.666	300.133
788.559	343.512
791.452	409.098
794.344	677.641
797.237	975.867
800.13	1269.22
803.022	1530.15
805.915	1709.74
808.808	2015.48
811.701	2106.74
814.593	2441.34
817.486	2685.54
820.379	3272.16
823.271	3815.32
826.164	5081.43
829.057	6903.85
831.949	9116.61
834.842	11980.4
837.735	14974.8
840.628	17242.3
843.52	17423.5
846.413	15574.1
849.306	12545.6
852.198	9914.81
855.091	8194.22
857.984	7125.44
860.876	6579.09
863.769	6575.64
866.662	6422.97
869.554	6189.81
872.447	5299.62
875.34	4461.59
878.233	3499.49
881.125	2994.39
884.018	2612.83
886.911	2379.32
889.803	2119.55
892.696	1836.16
895.589	1597.19
898.481	1171.83
901.374	819.809
904.267	650.57
907.16	403.516
910.052	297.738
912.945	55.0508
915.838	163.211
918.73	145.215
921.623	124.094
924.516	23.3828
927.409	125.215
930.301	37.5234
933.194	74.082
936.087	129.004
938.979	2.61719
941.872	14.875
944.765	379.402
947.657	178.644
950.55	212.055
953.443	149.109
956.336	163.93
959.228	489.348
962.121	373.152
965.014	368
967.906	336.582
970.799	297.332
973.692	418.957
976.584	393.887
979.477	440.336
982.37	318.551
985.263	419.113
988.155	377.445
991.048	380.047
993.941	234.629
996.833	316.988
999.726	289.457
1002.62	221.406
1005.51	233.512
1008.4	208.344
1011.3	232.25
1014.19	187.981
1017.08	130.996
1019.98	144.059
1022.87	293.023
1025.76	156.59
1028.65	30.7266
1031.55	116.043
1034.44	139.644
1037.33	156.219
1040.22	167.207
1043.12	27.5742
1046.01	145.488
1048.9	100.547
1051.8	94.6055
1054.69	93.4922
1057.58	41.5312
1060.47	87.4219
1063.37	58.0078
1066.26	56.8594
1069.15	89.8633
1072.04	11.5547
1074.94	27.8438
1077.83	43.9727
1080.72	179.816
1083.61	84.2891
1086.51	198.234
1089.4	78.3398
1092.29	133.969
1095.18	31.9219
1098.08	20.4531
1100.97	33.4492
1103.86	6.13672
1106.76	104
1109.65	54.4297
1112.54	289.379
1115.43	96.4688
1118.33	144.973
1121.22	199.504
1124.11	74.7227
1127.01	212
1129.9	197.641
1132.79	122.961
1135.68	47.0547
1138.58	127.418
1141.47	101.477
1144.36	137.84
1147.25	116.125
1150.15	136.141
1153.04	98.3477
1155.93	80.6602
1158.82	26.0352
1161.72	49.5742
1164.61	61.0352
1167.5	101.828
1170.39	92.543
1173.29	28.1719
1176.18	132.762
1179.07	162.066
1181.97	177.203
1184.86	93.9961
1187.75	212.109
1190.64	44.0664
1193.54	224.688
1196.43	268.738
1199.32	186.414
1202.21	204.258
1205.11	253.926
1208	218.519
1210.89	219.519
1213.79	208.481
1216.68	258.172
1219.57	283.406
1222.46	283.883
1225.36	215.465
1228.25	142.812
1231.14	151.547
