Measurement: Raman, 532 nm, unoriented, Raman Data Processed
Mineral: Arsenbrackebuschite
Rruff sample: R100184
Ideal chemistry: Pb^2+^_2_(Fe^3+^,Zn^2+^)(As^5+^O_4_)_2_(OH,H_2_O)
Locality: Mina Ojuela (Campo Sur), Mapimi, Durango, Mexico
Source: Marcus Origlieri
Description: Yellow to yellowish-orange wedge shaped crystals associated with mimetite and segnitite
Raman shift (cm-1)	intensity
150.818	0
153.71	28.6989
156.603	72.682
159.496	87.1507
162.388	84.7785
165.281	96.6739
168.174	127.955
171.067	151.64
173.959	159.169
176.852	142.282
179.745	119.496
182.637	93.4247
185.53	64.2267
188.423	49.4557
191.315	37.4815
194.208	22.202
197.101	13.8655
199.994	6.21329
202.886	3.4122
205.779	0.226532
208.672	1.98019
211.565	6.68411
214.457	3.98901
217.35	5.43527
220.243	1.97284
223.135	5.45947
226.028	3.70004
228.921	3.47037
231.813	0.280792
234.706	5.20441
237.599	13.6943
240.492	20.9392
243.384	33.5054
246.277	45.833
249.17	63.552
252.062	89.772
254.955	118.021
257.848	152.371
260.74	185.255
263.633	218.025
266.526	241.185
269.418	252.908
272.311	231.993
275.204	191.996
278.097	136.317
280.989	80.5697
283.882	42.3757
286.775	19.9235
289.667	11.6906
292.56	26.0436
295.453	54.4522
298.346	106.395
301.238	166.764
304.131	255.399
307.024	358.18
309.916	440.779
312.809	469.894
315.702	423.082
318.594	334.222
321.487	266.092
324.38	223.296
327.273	209.596
330.165	215.922
333.058	238.481
335.951	273.124
338.843	309.06
341.736	338.351
344.629	331.782
347.522	282.197
350.414	207.179
353.307	129.814
356.2	77.3315
359.092	43.1345
361.985	25.6237
364.878	15.2675
367.77	10.5203
370.663	6.58386
373.556	8.34042
376.449	7.18832
379.341	12.67
382.234	15.5226
385.127	20.1479
388.019	18.7103
390.912	9.19705
393.805	2.42816
396.697	4.02185
399.59	3.74405
402.483	4.38193
405.376	3.68866
408.268	4.92213
411.161	3.51721
414.054	4.64168
416.946	20.1379
419.839	38.3051
422.732	62.2053
425.625	83.7292
428.517	100.998
431.41	109.942
434.303	108.706
437.195	99.8556
440.088	91.1977
442.981	90.8096
445.873	96.5859
448.766	109.254
451.659	129.298
454.551	152.69
457.444	180.628
460.337	220.065
463.23	269.077
466.122	323.444
469.015	385.536
471.908	437.492
474.8	460.038
477.693	428.532
480.586	352.011
483.479	268.048
486.371	189.701
489.264	133.856
492.157	97.8655
495.049	74.0024
497.942	54.994
500.835	39.8012
503.728	28.7729
506.62	19.0804
509.513	11.1931
512.406	5.79019
515.298	1.52608
518.191	1.72633
521.084	1.60513
523.976	1.29892
526.869	1.94881
529.762	6.16801
532.654	5.0332
535.547	8.01439
538.44	9.8253
541.333	9.58076
544.225	10.8628
547.118	11.7237
550.011	8.48645
552.903	6.50665
555.796	3.2567
558.689	3.29316
561.582	1.20508
564.474	1.58662
567.367	0.218613
570.26	0.358894
573.152	0.273941
576.045	1.00646
578.938	0.774475
581.83	0.430962
584.723	0.791031
587.616	1.37359
590.509	6.07253
593.401	6.1959
596.294	7.49153
599.187	9.52621
602.079	11.897
604.972	12.4224
607.865	17.3176
610.758	20.4953
613.65	25.1742
616.543	28.4471
619.436	30.1557
622.328	35.8511
625.221	31.7725
628.114	31.7351
631.006	31.4424
633.899	28.6645
636.792	28.3355
639.684	28.8813
642.577	25.9257
645.47	26.0096
648.363	22.5692
651.255	21.2215
654.148	18.951
657.041	20.5828
659.933	15.2333
662.826	11.3051
665.719	9.79613
668.612	6.27586
671.504	4.52812
674.397	3.94373
677.29	3.4771
680.182	0.482918
683.075	1.04341
685.968	1.31081
688.861	0.599609
691.753	1.0293
694.646	0.611694
697.539	4.00636
700.431	8.94511
703.324	17.4174
706.217	25.3886
709.109	39.102
712.002	57.996
714.895	76.2422
717.788	99.2587
720.68	119.833
723.573	134.298
726.466	146.659
729.358	154.638
732.251	141.038
735.144	121.543
738.036	99.7534
740.929	77.7441
743.822	57.3437
746.715	45.7052
749.607	38.7912
752.5	28.5617
755.393	20.542
758.285	11.0614
761.178	4.20789
764.071	4.47714
766.963	9.51559
769.856	8.94791
772.749	6.22907
775.642	0.962555
778.534	13.6841
781.427	30.7288
784.32	49.4488
787.212	71.8366
790.105	96.8695
792.998	128.335
795.89	170.107
798.783	225.632
801.676	301.914
804.569	399.343
807.461	529.235
810.354	697.672
813.247	899.36
816.139	1110
819.032	1286.15
821.925	1371
824.818	1314.1
827.71	1180.26
830.603	1034.89
833.496	936.832
836.388	865.612
839.281	824.244
842.174	799.248
845.067	770.159
847.959	737.75
850.852	708.943
853.745	701.394
856.637	706.838
859.53	715.6
862.423	706.7
865.315	663.707
868.208	578.981
871.101	461.927
873.994	342.572
876.886	244.97
879.779	169.082
882.672	120.638
885.564	84.1529
888.457	58.0199
891.35	39.0424
894.242	23.3998
897.135	10.9937
900.028	5.39754
902.92	0.085876
905.813	1.53207
908.706	4.6338
911.599	4.09497
914.491	5.89741
917.384	4.23621
920.277	4.54227
923.169	2.55052
926.062	0.811005
928.955	0.718033
931.847	2.88159
934.74	5.69532
937.633	8.17339
940.526	11.1342
943.418	13.5492
946.311	17.5365
949.204	21.2738
952.096	27.0652
954.989	31.2142
957.882	42.4388
960.775	51.7637
963.667	63.5114
966.56	74.2543
969.453	82.0585
972.345	77.6817
975.238	65.3184
978.131	49.7334
981.024	36.2706
983.916	28.8014
986.809	25.4301
989.702	24.8855
992.594	24.7258
995.487	24.6591
998.38	24.184
1001.27	23.6428
1004.16	18.4928
1007.06	17.0701
1009.95	12.3239
1012.84	13.1144
1015.74	13.5193
1018.63	13.4196
1021.52	15.0967
1024.41	13.3138
1027.31	12.5625
1030.2	12.2188
1033.09	7.92845
1035.98	7.44389
1038.88	4.63778
1041.77	3.12809
1044.66	2.64069
1047.56	0.884232
1050.45	0.598549
1053.34	0.365417
1056.23	0.553261
1059.13	1.4043
1062.02	0.559448
1064.91	0.557846
1067.81	0.390312
1070.7	0.49836
1073.59	1.13163
1076.48	2.9533
1079.38	0.7239
1082.27	1.08434
1085.16	2.15027
1088.05	1.27487
1090.95	2.73491
1093.84	4.29121
1096.73	4.17196
1099.62	3.38266
1102.52	2.11591
1105.41	2.01843
1108.3	2.18007
1111.19	1.5237
1114.09	0.079277
1116.98	0.404877
1119.87	0.190994
1122.77	0.287079
1125.66	0.609306
1128.55	0.280983
1131.44	1.64996
1134.34	1.25033
1137.23	1.57484
1140.12	2.77325
1143.02	4.30555
1145.91	3.16727
1148.8	4.58661
1151.69	5.01275
1154.59	3.98218
1157.48	6.05758
1160.37	5.48753
1163.26	4.99262
1166.16	6.11089
1169.05	3.16509
1171.94	2.78612
1174.84	3.38783
1177.73	0.600433
1180.62	1.15122
1183.51	1.4982
1186.4	1.19955
1189.3	0.521225
1192.19	0.095673
1195.08	1.05141
1197.98	0.686157
1200.87	1.41238
1203.76	0.034325
1206.65	0.11393
1209.55	1.55473
1212.44	1.66241
1215.33	1.31899
1218.22	1.74021
1221.12	1.96202
1224.01	1.60858
1226.9	2.39826
1229.8	2.71551
1232.69	1.57213
1235.58	1.14996
1238.47	2.53575
1241.37	0.45575
1244.26	1.94342
1247.15	0.346985
1250.05	1.03145
1252.94	2.46108
1255.83	1.63546
1258.72	0.140388
1261.62	2.00682
1264.51	0.886444
1267.4	1.14111
1270.29	0.627205
1273.19	0.031845
1276.08	1.02484
1278.97	1.80212
1281.87	0.846085
1284.76	0.883797
1287.65	2.75698
1290.54	1.82387
1293.43	0.645485
1296.33	0.838516
1299.22	0.561981
1302.11	0.011688
