Measurement: Raman, 785 nm, unoriented, Raman Data Processed
Mineral: Arseniosiderite
Rruff sample: R150061
Ideal chemistry: Ca_2_Fe^3+^_3_O_2_(As^5+^O_4_)_3_3H_2_O
Locality: Las Animas mine, La Mur, Sonora, Mexico
Source: Bob Jenkins
Description: Dark red platy crystals, associated with bright red granular or prismatic sewardite (R060720)
Raman shift (cm-1)	intensity
145.151	0
148.044	793.112
150.936	862.14
153.829	266.387
156.722	33.0701
159.615	30.6541
162.507	417.09
165.4	886.871
168.293	1377.78
171.185	1450.39
174.078	1038.73
176.971	720.113
179.863	595.01
182.756	414.348
185.649	398.568
188.542	572.416
191.434	1019.28
194.327	1612.71
197.22	2301.56
200.112	2489.8
203.005	1331.53
205.898	224.848
208.791	131.471
211.683	20.4812
214.576	224.031
217.469	559.865
220.361	982.536
223.254	1353.48
226.147	1201.03
229.039	912.556
231.932	946.67
234.825	1008.11
237.718	1177.15
240.61	1322.48
243.503	1310.95
246.396	1249.69
249.288	1161.55
252.181	1077.88
255.074	1054.3
257.966	845.436
260.859	507.311
263.752	280.616
266.645	78.9636
269.537	7.03906
272.43	58.6157
275.323	125.793
278.215	175.74
281.108	140.84
284.001	123.863
286.894	210.839
289.786	248.679
292.679	291.366
295.572	167.486
298.464	128.017
301.357	182.133
304.25	265.629
307.142	244.687
310.035	213.142
312.928	149.026
315.82	94.1304
318.713	94.9086
321.606	88.7831
324.499	155.624
327.391	233.662
330.284	249.423
333.177	139.584
336.069	4.64209
338.962	105.698
341.855	116.492
344.748	46.6265
347.64	117.922
350.533	290.115
353.426	323.974
356.318	314.48
359.211	372.678
362.104	496.5
364.996	681.996
367.889	931.462
370.782	1364.13
373.675	1925.35
376.567	2697.46
379.46	3469.61
382.353	4126.09
385.245	4698.43
388.138	5254.82
391.031	5560.41
393.923	5223.71
396.816	4219.61
399.709	2887.18
402.601	1765.53
405.494	1181.77
408.387	989.745
411.28	938.588
414.172	984.197
417.065	1042.23
419.958	1090.25
422.85	1007.59
425.743	972.359
428.636	966.973
431.529	1028.12
434.421	1052.95
437.314	1240.89
440.207	1415.93
443.099	1465.11
445.992	1329.41
448.885	1089.66
451.777	822.126
454.67	578.501
457.563	387.447
460.455	262.155
463.348	182.019
466.241	73.3047
469.134	0.486084
472.026	43.8229
474.919	72.1334
477.812	12.2274
480.704	84.7529
483.597	153.346
486.49	258.207
489.382	367.225
492.275	333.796
495.168	252.708
498.061	174.92
500.953	67.2246
503.846	46.9307
506.739	9.88928
509.631	34.3572
512.524	7.13232
515.417	63.5242
518.309	164.803
521.202	338.095
524.095	538.298
526.988	749.506
529.88	949.925
532.773	889.07
535.666	716.273
538.558	600.911
541.451	422.711
544.344	353.872
547.236	257.485
550.129	184.141
553.022	113.053
555.915	75.071
558.807	40.7144
561.7	37.6699
564.593	61.7342
567.485	10.5049
570.378	41.7277
573.271	17.6486
576.163	1.11426
579.056	20.9352
581.949	12.7034
584.842	11.4799
587.734	46.7717
590.627	25.9023
593.52	35.4493
596.412	90.4393
599.305	110.447
602.198	130.123
605.091	141.059
607.983	175.402
610.876	176.773
613.769	177.732
616.661	198.873
619.554	197.632
622.447	242.343
625.339	244.096
628.232	247.326
631.125	252.699
634.018	253.782
636.91	265.931
639.803	292.493
642.696	282.317
645.588	283.64
648.481	293.61
651.374	302.663
654.266	281.368
657.159	253.914
660.052	238.814
662.944	232.894
665.837	241.649
668.73	210.488
671.623	209.477
674.515	197.932
677.408	216.648
680.301	163.678
683.193	149.262
686.086	153.258
688.979	135.783
691.871	123.242
694.764	121.169
697.657	84.2533
700.55	79.7471
703.442	84.6119
706.335	64.1893
709.228	44.5967
712.12	41.395
715.013	32.4312
717.906	6.60297
720.798	7.75299
723.691	12.2281
726.584	5.09576
729.477	12.7977
732.369	14.6729
735.262	7.03284
738.155	14.0626
741.047	34.2486
743.94	51.7433
746.833	64.1002
749.726	159.377
752.618	260.23
755.511	425.722
758.404	624.62
761.296	805.562
764.189	913.99
767.082	980.036
769.974	974.543
772.867	931.245
775.76	802.341
778.653	679.431
781.545	626.936
784.438	516.131
787.331	412.821
790.223	269.17
793.116	128.637
796.009	39.1136
798.901	3.21204
801.794	27.4658
804.687	8.08337
807.58	51.7971
810.472	122.789
813.365	218.726
816.258	306.779
819.15	405.536
822.043	514.396
824.936	682.468
827.828	967.47
830.721	1205.51
833.614	1223.37
836.507	1039.55
839.399	742.416
842.292	734.949
845.185	1119.25
848.077	2003.52
850.97	3421.82
853.863	5247.18
856.755	6004.93
859.648	4796.42
862.541	2980.69
865.434	1756.91
868.326	1006.23
871.219	542.798
874.112	259.03
877.004	112.225
879.897	39.9961
882.79	33.8762
885.683	3.8446
888.575	23.0194
891.468	113
894.361	239.433
897.253	436.848
900.146	703.315
903.039	1086.72
905.931	1348.33
908.824	1386.82
911.717	1075.21
914.61	774.11
917.502	712.64
920.395	831.343
923.288	1236.71
926.18	2018.78
929.073	3210
931.966	4641.04
934.858	6303.03
937.751	6731.18
940.644	4627.49
943.537	2305.93
946.429	1125.65
949.322	549.466
952.215	311.186
955.107	155.268
958	64.9228
960.893	2.19775
963.785	4.43677
966.678	1.2442
969.571	23.0929
972.463	5.14117
975.356	12.8129
978.249	10.832
981.142	3.86478
984.034	13.8465
986.927	37.5702
989.82	19.2355
992.712	2.4848
995.605	2.30194
998.498	20.7475
1001.39	57.2285
1004.28	78.2319
1007.18	61.7201
1010.07	59.0215
1012.96	71.5479
1015.85	55.9211
1018.75	77.0658
1021.64	68.3972
1024.53	17.4854
1027.42	58.3295
1030.32	69.6166
1033.21	36.597
1036.1	102.965
1039	108.031
1041.89	79.5075
1044.78	65.0745
1047.67	72.2937
1050.57	55.3863
1053.46	58.2778
1056.35	67.0116
1059.24	45.534
1062.14	42.1618
1065.03	43.3753
1067.92	49.271
1070.82	39.5919
1073.71	37.2825
1076.6	39.1221
1079.49	37.6808
1082.39	47.4993
1085.28	39.6594
1088.17	54.4727
1091.06	42.2001
1093.96	40.0902
1096.85	38.4352
1099.74	52.6192
1102.63	35.4825
1105.53	49.3741
1108.42	29.2663
1111.31	36.4467
1114.21	16.3852
1117.1	34.1222
1119.99	26.2343
1122.88	22.4456
1125.78	14.6449
1128.67	39.6728
1131.56	12.5131
1134.45	31.866
1137.35	26.4196
1140.24	6.58993
1143.13	12.1061
1146.03	17.7427
1148.92	3.36136
1151.81	37.8576
1154.7	17.2823
1157.6	39.2875
1160.49	30.6065
1163.38	42.5381
1166.27	11.9283
1169.17	6.74655
1172.06	11.1848
1174.95	51.209
1177.85	38.6556
1180.74	47.6137
1183.63	14.9447
1186.52	33.3371
1189.42	30.483
1192.31	42.8905
1195.2	27.8958
1198.09	45.764
1200.99	66.9558
1203.88	62.886
1206.77	16.9867
1209.66	46.0824
1212.56	34.5559
1215.45	41.9171
1218.34	60.7038
1221.24	44.2495
1224.13	55.8862
1227.02	45.7201
1229.91	49.9542
1232.81	63.0791
1235.7	17.7263
1238.59	4.94568
1241.48	2.76654
1244.38	39.8475
1247.27	59.659
1250.16	50.2636
1253.06	41.5342
1255.95	20.0382
1258.84	13.2056
1261.73	19.0972
1264.63	6.6601
