Measurement: Raman, 785 nm, unoriented, Raman Data Processed
Mineral: Arsenolamprite
Rruff sample: R060680
Ideal chemistry: As
Locality: Copiapo, Atacama, Chile
Source: Michael Scott
Description: Black oxidized coating of arsenolite over a group of elongated bladed and platy crystals
Measured chemistry: light phase: As_1.00_ ; dark phase: As_2.00_O_3_
Raman shift (cm-1)	intensity
105.136	0
108.511	4.401
111.886	4.157
115.26	0.276
118.635	29.191
122.01	4.712
125.385	12.082
128.76	141.211
132.135	290.48
135.509	382.108
138.884	398.95
142.259	286.122
145.634	284.815
149.009	394.287
152.383	457.948
155.758	433.355
159.133	336.96
162.508	324.296
165.883	348.61
169.258	371.909
172.632	366.386
176.007	314.203
179.382	312.639
182.757	282.239
186.132	294.246
189.507	362.259
192.881	404.595
196.256	449.744
199.631	496.806
203.006	552.174
206.38	652.14
209.755	1235.58
213.13	2730.24
216.505	6240.31
219.88	12523
223.255	14575.1
226.629	12665.1
230.004	2182.26
233.379	634.617
236.754	379.865
240.129	453.234
243.503	1086.37
246.878	2599.33
250.253	4974.72
253.628	8298.47
257.003	1114.7
260.378	324.656
263.752	238.21
267.127	149.208
270.502	108.496
273.877	84.901
277.252	73.317
280.626	66.355
284.001	68.639
287.376	46.526
290.751	51.236
294.126	53.748
297.501	39.362
300.875	42.908
304.25	20.693
307.625	25.379
311	20.989
314.375	12.842
317.75	6.269
321.124	14.938
324.499	8.412
327.874	14.116
331.249	40.999
334.624	37.744
337.998	46.548
341.373	43.371
344.748	49.216
348.123	47.864
351.498	45.657
354.872	41.79
358.247	40.03
361.622	5.902
364.997	1.689
368.372	31.546
371.747	2.5
375.121	3.184
378.496	16.071
381.871	15.459
385.246	13.138
388.621	9.418
391.996	22.066
395.37	3.797
398.745	11.074
402.12	5.222
405.495	9.305
408.87	20.882
412.244	11.925
415.619	12.764
418.994	70.853
422.369	78.34
425.744	127.261
429.118	95.439
432.493	80.115
435.868	100.079
439.243	113.551
442.618	142.036
445.992	257.427
449.367	344.08
452.742	360.432
456.117	308.282
459.492	188.743
462.867	97.096
466.241	91.939
469.616	74.313
472.991	65.478
476.366	85.358
479.741	124.184
483.116	109.222
486.49	112.617
489.865	76.554
493.24	49.191
496.615	46.654
499.99	19.588
503.364	37.015
506.739	15.114
510.114	33.982
513.489	7.055
516.864	1.724
520.239	11.818
523.613	11.964
526.988	14.308
530.363	15.238
533.738	27.08
537.112	1.301
540.487	9.387
543.862	9.521
547.237	22.076
550.612	2.632
553.987	16.179
557.362	11.393
560.736	19.514
564.111	18.232
567.486	4.848
570.861	3.158
574.235	4.289
577.61	2.258
580.985	0.909
584.36	16.008
587.735	29.348
591.11	4.82
594.484	19.323
597.859	0.628
601.234	7.493
604.609	8.584
607.984	17.459
611.359	12.114
614.733	17.376
618.108	6.828
621.483	2.676
624.858	23.379
628.233	9.555
631.607	1.398
634.982	17.852
638.357	28.792
641.732	15.956
645.107	5.538
648.482	19.678
651.856	21.843
655.231	43.35
658.606	13.256
661.981	0.157
665.356	36.108
668.73	45.524
672.105	12.404
675.48	37.911
678.855	5.535
682.23	16.74
685.604	18.389
688.979	20.999
692.354	22.371
695.729	23.165
699.104	36.846
702.479	22.026
705.853	44.691
709.228	17.094
712.603	8.915
715.978	13.842
719.353	36.312
722.727	36.326
726.102	47.887
729.477	25.733
732.852	28.63
736.227	17.796
739.602	10.816
742.976	17.714
746.351	54.029
749.726	15.615
753.101	15.807
756.476	30.389
759.851	21.396
763.225	3.923
766.6	8.59
769.975	6.119
773.35	10.43
776.724	22.429
780.099	21.996
783.474	19.15
786.849	20.129
790.224	10.796
793.599	11.547
796.973	32.731
800.348	9.62
803.723	7.588
807.098	8.261
810.473	26.509
813.847	12.882
817.222	28.571
820.597	5.035
823.972	28.116
827.347	37.553
830.722	20.823
834.096	2.632
837.471	18.683
840.846	43.849
844.221	23.283
847.596	27.955
850.971	7.707
854.345	28.741
857.72	22.252
861.095	17.594
864.47	11.671
867.844	17.139
871.219	22.654
874.594	23.409
877.969	22.971
881.344	18.776
884.719	36.994
888.093	29.615
891.468	38.111
894.843	8.514
898.218	16.987
901.593	45.246
904.968	20.671
908.342	32.433
911.717	15.444
915.092	19.228
918.467	3.782
921.842	30.707
925.216	17.789
928.591	4.387
931.966	20.51
935.341	26.055
938.716	22.508
942.091	34.541
945.465	19.769
948.84	2.209
952.215	2.09
955.59	11.762
958.965	23.468
962.339	12.371
965.714	10.462
969.089	5.917
972.464	20.578
975.839	13.659
979.214	17.271
982.588	13.08
985.963	16.953
989.338	34.899
992.713	26.199
996.088	19.643
999.462	19.413
1002.84	22.245
1006.21	28.879
1009.59	15.289
1012.96	13.031
1016.34	25.349
1019.71	10.978
1023.09	20.173
1026.46	0.711
1029.84	1.76
1033.21	10.834
1036.59	50.419
1039.96	19.932
1043.34	29.28
1046.71	33.852
1050.09	14.073
1053.46	28.714
1056.83	32.625
1060.21	9.344
1063.58	36.209
1066.96	48.858
1070.33	33.687
1073.71	25.046
1077.08	27.491
1080.46	39.11
1083.83	25.814
1087.21	22.476
1090.58	24.489
1093.96	12.06
1097.33	21.259
1100.71	2.613
1104.08	16.666
1107.46	8.216
1110.83	36.816
1114.21	21.841
1117.58	14.411
1120.96	21.37
1124.33	44.986
1127.7	2.825
1131.08	20.215
1134.45	6.173
1137.83	8.199
1141.2	2.907
1144.58	6.17
1147.95	10.804
1151.33	4.904
1154.7	23.352
1158.08	25.181
1161.45	26.983
1164.83	14.752
1168.2	10.8
1171.58	16.256
1174.95	9.103
1178.33	6.059
1181.7	38.977
1185.08	10.758
1188.45	11.077
1191.83	25.532
1195.2	5.003
1198.58	25.506
1201.95	21.388
1205.33	20.188
1208.7	6.049
1212.08	32.347
1215.45	16.13
1218.83	17.205
1222.2	5.459
1225.58	5.264
1228.95	25.306
1232.33	34.104
1235.7	19.771
1239.07	4.573
1242.45	11.088
1245.82	9.824
1249.2	36.005
1252.57	24.029
1255.95	2.493
1259.32	18.686
1262.7	4.886
1266.07	11.109
1269.45	3.474
