Measurement: Raman, 532 nm, unoriented, Raman Data Processed
Mineral: Arsenohauchecornite
Rruff sample: R070347
Ideal chemistry: Ni_18_Bi_3_AsS_16_
Locality: Vermilion Mine, Denison Township, Sudbury District, Ontario, Canada
Source: Michael Scott
Description: Bright bronze massive with chonchoidal fracture
Raman shift (cm-1)	intensity
151.59	0
154.965	29.1661
158.34	6.53131
161.715	32.8411
165.09	32.0761
168.464	68.4865
171.839	95.8906
175.214	50.7516
178.589	38.7883
181.964	60.9105
185.339	79.0422
188.713	55.3337
192.088	49.1683
195.463	43.5519
198.838	22.8228
202.213	36.0481
205.587	8.10797
208.962	18.4286
212.337	9.04584
215.712	19.5577
219.087	2.47205
222.462	22.6027
225.836	10.3522
229.211	3.03308
232.586	23.3901
235.961	34.2252
239.336	39.2815
242.71	81.3452
246.085	109.541
249.46	161.263
252.835	224.921
256.21	267.101
259.584	292.886
262.959	371.804
266.334	345.606
269.709	335.08
273.084	335.158
276.459	563.893
279.833	872.47
283.208	1321.5
286.583	2120.77
289.958	2821.3
293.333	1966.73
296.707	595.117
300.082	247.57
303.457	137.883
306.832	127.513
310.207	164.848
313.582	242.032
316.956	317.826
320.331	375.456
323.706	270.68
327.081	161.03
330.456	137.648
333.83	115.05
337.205	135.316
340.58	171.191
343.955	244.474
347.33	333.042
350.705	456.461
354.079	412.948
357.454	236.961
360.829	110.409
364.204	54.2894
367.579	46.5085
370.954	63.7706
374.328	32.2643
377.703	16.0718
381.078	15.9873
384.453	3.35602
387.828	0.346191
391.202	12.8011
394.577	18.4999
397.952	0.616516
401.327	12.2896
404.702	11.4061
408.077	31.17
411.451	47.4424
414.826	32.3956
418.201	63.1254
421.576	48.8652
424.951	67.2355
428.325	70.5535
431.7	89.9386
435.075	92.8614
438.45	102.124
441.825	91.8305
445.2	131.601
448.574	189.886
451.949	202.047
455.324	300.508
458.699	375.909
462.074	514.332
465.448	638.325
468.823	754.693
472.198	787.445
475.573	700.401
478.948	480.316
482.322	262.63
485.697	142.262
489.072	95.6663
492.447	41.234
495.822	41.8198
499.197	50.7951
502.571	21.3428
505.946	29.1918
509.321	6.70288
512.696	23.5755
516.071	8.46484
519.446	9.39362
522.82	30.2228
526.195	24.1542
529.57	13.9607
532.945	21.0298
536.32	9.13025
539.694	4.42352
543.069	16.2021
546.444	21.4946
549.819	1.90521
553.194	17.7906
556.568	15.8587
559.943	1.11713
563.318	29.8784
566.693	19.7302
570.068	12.4027
573.443	0.957581
576.817	11.2903
580.192	32.4697
583.567	20.4779
586.942	6.56146
590.317	4.02795
593.692	44.8682
597.066	2.01636
600.441	24.1843
603.816	6.15955
607.191	10.1986
610.566	23.5912
613.94	32.9645
617.315	18.2319
620.69	29.0964
624.065	11.5798
627.44	2.29144
630.814	13.832
634.189	15.27
637.564	16.9447
640.939	23.2275
644.314	37.4035
647.689	24.1839
651.063	4.47742
654.438	8.28223
657.813	45.7867
661.188	9.56537
664.563	24.8709
667.938	20.1031
671.312	23.1307
674.687	1.60638
678.062	27.0911
681.437	17.2969
684.812	29.4661
688.186	24.7374
691.561	24.0358
694.936	22.441
698.311	46.9689
701.686	18.5384
705.061	32.4111
708.435	22.3964
711.81	30.2999
715.185	44.0461
718.56	45.0367
721.935	33.7688
725.309	37.1049
728.684	23.047
732.059	24.4083
735.434	17.2314
738.809	7.38922
742.183	25.7784
745.558	9.21649
748.933	33.8064
752.308	25.8787
755.683	16.5651
759.058	36.958
762.432	21.9453
765.807	22.6959
769.182	27.7443
772.557	33.727
775.932	13.3489
779.307	7.91614
782.681	27.9045
786.056	21.2459
789.431	25.863
792.806	27.4324
796.181	4.98498
799.555	22.1603
802.93	6.98767
806.305	21.7709
809.68	24.2898
813.055	24.1659
816.429	28.6257
819.804	32.8772
823.179	19.7067
826.554	1.98853
829.929	24.9767
833.304	5.56104
836.678	18.5671
840.053	7.39075
843.428	6.54688
846.803	31.1184
850.178	5.58203
853.553	2.47278
856.927	9.91687
860.302	2.59021
863.677	24.7744
867.052	30.7058
870.427	25.0852
873.801	35.3357
877.176	34.6912
880.551	15.3655
883.926	9.27185
887.301	45.757
890.676	51.7378
894.05	21.4153
897.425	11.9886
900.8	43.7681
904.175	48.5696
907.55	32.4136
910.924	30.5572
914.299	22.3839
917.674	36.8933
921.049	62.3013
924.424	80.1821
927.798	84.4359
931.173	61.9879
934.548	27.0033
937.923	67.3304
941.298	43.998
944.673	37.9532
948.047	45.2291
951.422	25.4946
954.797	12.0494
958.172	22.2405
961.547	6.84729
964.922	36.0217
968.296	7.31396
971.671	12.217
975.046	15.445
978.421	7.72705
981.796	13.6928
985.17	10.8042
988.545	26.1157
991.92	44.0367
995.295	37.7662
998.67	34.608
1002.04	26.7891
1005.42	26.7417
1008.79	10.7144
1012.17	27.9302
1015.54	37.3402
1018.92	21.9156
1022.29	40.6222
1025.67	24.9712
1029.04	7.03748
1032.42	21.2275
1035.79	30.3788
1039.17	24.0978
1042.54	5.44006
1045.92	4.75952
1049.29	23.1151
1052.67	28.6887
1056.04	34.598
1059.42	31.2092
1062.79	9.98438
1066.17	4.02246
1069.54	9.34216
1072.92	33.818
1076.29	46.2109
1079.66	35.9462
1083.04	5.40405
1086.41	12.0803
1089.79	30.5955
1093.16	38.023
1096.54	40.5114
1099.91	10.1226
1103.29	26.2625
1106.66	13.2489
1110.04	39.3755
1113.41	12.1834
1116.79	12.5984
1120.16	16.0048
1123.54	51.8702
1126.91	30.6571
1130.29	13.3677
1133.66	17.8099
1137.04	16.219
1140.41	17.1049
1143.79	41.1863
1147.16	20.2036
1150.54	33.8789
1153.91	6.24988
1157.29	20.3441
1160.66	54.6765
1164.04	14.906
1167.41	30.6036
1170.79	21.3781
1174.16	45.1537
1177.54	10.3155
1180.91	18.183
1184.29	5.04895
1187.66	28.6594
1191.03	28.751
1194.41	14.3409
1197.78	43.9243
1201.16	30.1068
1204.53	29.0118
1207.91	27.1135
1211.28	6.16211
1214.66	25.3248
1218.03	36.0033
1221.41	21.996
1224.78	6.48108
1228.16	32.7858
1231.53	20.193
1234.91	37.7799
1238.28	33.3425
1241.66	63.4474
1245.03	32.9866
1248.41	24.5635
1251.78	3.00952
1255.16	16.3412
1258.53	35.4333
1261.91	49.6891
1265.28	23.1152
1268.65	46.0845
1272.03	17.134
1275.4	26.2279
1278.78	22.3341
1282.15	11.2268
1285.53	38.6548
1288.9	1.37378
1292.28	3.03455
1295.65	3.44409
1299.03	37.4565
1302.4	32.3969
1305.78	45.7071
1309.15	40.7111
1312.53	0.251709
