Measurement: Raman, 532 nm, unoriented, Raman Data Processed
Mineral: Arthurite
Rruff sample: R060235
Ideal chemistry: Cu^2+^Fe^3+^_2_(As^5+^O_4_)_2_(OH)_2_4H_2_O
Locality: Copper Stope, Majuba Hill mine, Pershing County, Nevada, USA
Source: Michael Scott
Description: Divergent sprays of green thin prismatic crystals
Raman shift (cm-1)	intensity
144.147	0
147.522	101.244
150.896	259.666
154.271	185.157
157.646	10.1151
161.021	2.49488
164.396	54.0018
167.77	167.584
171.145	392.142
174.52	630.648
177.895	746.46
181.27	763.785
184.644	526.866
188.019	246.432
191.394	43.8679
194.769	0.672283
198.144	0.434586
201.519	13.3296
204.893	15.5252
208.268	92.9165
211.643	265.622
215.018	530.405
218.393	682.495
221.768	560.001
225.142	632.489
228.517	839.888
231.892	906.126
235.267	1042.7
238.642	1450.08
242.016	1779.18
245.391	1193.78
248.766	557.627
252.141	368.139
255.516	328.04
258.89	227.96
262.265	86.5794
265.64	34.1369
269.015	49.63
272.39	93.9032
275.764	149.983
279.139	200.006
282.514	235.521
285.889	241.197
289.264	239.314
292.639	232.592
296.013	221.18
299.388	207.121
302.763	182.506
306.138	132.536
309.513	83.6523
312.887	49.6035
316.262	26.1913
319.637	1.95288
323.012	5.02351
326.387	4.87679
329.762	4.75088
333.136	77.7163
336.511	145.895
339.886	160.056
343.261	104.511
346.636	28.2789
350.01	3.46078
353.385	8.21976
356.76	1.71783
360.135	30.5859
363.51	52.8103
366.885	37.5529
370.259	18.6991
373.634	12.5152
377.009	12.7181
380.384	11.5018
383.759	2.54529
387.134	1.21959
390.508	8.10423
393.883	8.70616
397.258	2.03696
400.633	1.83153
404.007	4.55729
407.382	1.21745
410.757	49.8054
414.132	146.263
417.507	283.584
420.882	421.299
424.256	467.308
427.631	415.551
431.006	373.751
434.381	353.624
437.756	352.757
441.13	358.478
444.505	338.328
447.88	295.228
451.255	235.075
454.63	155.935
458.005	77.8163
461.379	20.269
464.754	6.38647
468.129	5.96682
471.504	14.8989
474.879	57.0797
478.253	100.406
481.628	138.545
485.003	186.209
488.378	292.273
491.753	477.119
495.128	754.254
498.502	1121.7
501.877	1439.62
505.252	1488.15
508.627	1213.56
512.002	867.775
515.376	548.794
518.751	316.177
522.126	174.195
525.501	94.3364
528.876	62.2263
532.25	51.152
535.625	44.2051
539	54.1124
542.375	81.6414
545.75	99.8684
549.125	109.119
552.5	100.204
555.874	63.9193
559.249	41.6164
562.624	18.441
565.999	1.73311
569.374	5.40519
572.748	1.58063
576.123	1.71099
579.498	0.237613
582.873	0.370588
586.248	2.40459
589.622	5.4351
592.997	1.24352
596.372	3.79103
599.747	7.95064
603.122	12.3648
606.496	19.0835
609.871	22.2296
613.246	28.0102
616.621	24.4481
619.996	26.3196
623.37	29.3827
626.745	33.7112
630.12	28.9059
633.495	28.0269
636.87	26.6474
640.245	24.4838
643.619	16.4389
646.994	12.6828
650.369	13.7249
653.744	8.55979
657.119	6.73316
660.494	6.57817
663.868	8.43631
667.243	8.01668
670.618	11.2421
673.993	8.99553
677.368	13.863
680.742	22.6199
684.117	33.056
687.492	40.8803
690.867	49.6194
694.242	57.4087
697.616	67.8107
700.991	77.8707
704.366	73.886
707.741	74.7896
711.116	70.6991
714.491	69.9802
717.865	58.5838
721.24	47.9778
724.615	33.5441
727.99	19.5616
731.365	7.80835
734.74	7.99779
738.114	1.00268
741.489	4.05883
744.864	3.33564
748.239	3.40192
751.614	6.27415
754.988	20.1998
758.363	9.83435
761.738	59.1365
765.113	143.036
768.488	274.965
771.862	458.761
775.237	676.661
778.612	812.092
781.987	734.65
785.362	487.282
788.736	289.843
792.111	203.672
795.486	204.906
798.861	278.221
802.236	425.149
805.611	615.312
808.985	782.67
812.36	789.76
815.735	605.44
819.11	361.562
822.485	214.575
825.86	174.33
829.234	261.052
832.609	486.499
835.984	885.929
839.359	1440.43
842.734	2014.36
846.108	2169.8
849.483	1671.12
852.858	1000.51
856.233	546.941
859.608	294.256
862.982	159.22
866.357	73.0625
869.732	14.516
873.107	9.21192
876.482	8.70029
879.857	14.4383
883.231	42.8282
886.606	72.6937
889.981	96.5518
893.356	135.958
896.731	205.773
900.106	278.749
903.48	300.349
906.855	232.932
910.23	125.944
913.605	50.3414
916.98	6.64542
920.354	14.7607
923.729	0.251536
927.104	5.91668
930.479	2.55814
933.854	4.60493
937.229	2.55702
940.603	1.05502
943.978	0.188569
947.353	1.67941
950.728	5.8625
954.102	12.582
957.477	19.446
960.852	24.8175
964.227	31.9008
967.602	35.9394
970.977	42.2813
974.351	49.788
977.726	49.4088
981.101	49.108
984.476	44.1632
987.851	42.4739
991.226	34.3965
994.6	32.5671
997.975	24.6213
1001.35	20.7803
1004.73	12.9574
1008.1	16.6907
1011.47	10.6832
1014.85	5.24076
1018.22	3.89964
1021.6	7.46889
1024.97	15.0385
1028.35	18.5749
1031.72	30.3536
1035.1	55.8976
1038.47	93.4472
1041.85	131.736
1045.22	158.058
1048.6	144.479
1051.97	104.501
1055.35	87.1679
1058.72	67.9438
1062.1	47.9033
1065.47	29.1384
1068.85	16.0131
1072.22	8.58251
1075.6	1.45815
1078.97	0.626677
1082.35	2.87148
1085.72	1.87671
1089.1	1.19479
1092.47	6.40231
1095.85	6.95215
1099.22	9.06857
1102.59	11.3719
1105.97	10.5733
1109.34	7.1273
1112.72	9.83757
1116.09	6.91757
1119.47	4.46667
1122.84	1.19269
1126.22	2.99375
1129.59	1.33395
1132.97	0.324795
1136.34	0.868658
1139.72	0.696182
1143.09	0.714312
1146.47	2.122
1149.84	0.280367
1153.22	0.233553
1156.59	0.973905
1159.97	1.85918
1163.34	0.970084
1166.72	2.85725
1170.09	1.37459
1173.47	1.7441
1176.84	2.40972
1180.21	2.87942
1183.59	1.58934
1186.96	1.14105
1190.34	0.780626
1193.71	2.8079
1197.09	5.80174
1200.46	4.19521
1203.84	1.29857
1207.21	2.94826
1210.59	4.87084
1213.96	5.46714
1217.34	5.70787
1220.71	5.75792
1224.09	6.35556
1227.46	5.78948
1230.84	1.11435
1234.21	4.84831
1237.59	0.161147
1240.96	6.02868
1244.34	5.34332
1247.71	2.69198
1251.09	0.114919
1254.46	0.553169
1257.84	1.99468
1261.21	2.53294
1264.59	1.94028
1267.96	2.76127
1271.34	0.120436
1274.71	2.10478
1278.09	0.153313
1281.46	1.24048
1284.83	0.192771
1288.21	2.52717
1291.58	2.01096
1294.96	1.30809
1298.33	1.00246
1301.71	3.49774
