Measurement: Raman, 532 nm, unoriented, Raman Data Processed
Mineral: Artinite
Rruff sample: R060166
Ideal chemistry: Mg_2_CO_3_(OH)_2_3H_2_O
Locality: San Benito County, California, USA
Source: Marcus Origlieri
Description: Spherical aggregates of divergent colorless acicular crystals
Measured chemistry: Mg_2.00_CO_3_(OH)_2_Â·3H_2_O ; C and H not measured but estimated by charge balance
Raman shift (cm-1)	intensity
149.564	0
152.457	0.87146
155.35	178.308
158.242	271.712
161.135	224.01
164.028	205.305
166.92	292.951
169.813	483.976
172.706	604.332
175.598	364.104
178.491	130.768
181.384	51.928
184.277	35.9524
187.169	26.4307
190.062	6.97357
192.955	7.97519
195.847	8.92819
198.74	6.86658
201.633	7.1535
204.525	25.5721
207.418	46.2981
210.311	72.5606
213.204	78.7922
216.096	82.1481
218.989	105.947
221.882	138.233
224.774	171.223
227.667	203.189
230.56	246.45
233.452	306.82
236.345	386.991
239.238	431.494
242.131	384.674
245.023	313.738
247.916	269.054
250.809	233.146
253.701	188.704
256.594	158.1
259.487	132.633
262.38	115.403
265.272	108.642
268.165	106.944
271.058	109.211
273.95	108.27
276.843	103.891
279.736	89.8175
282.628	67.2504
285.521	45.7824
288.414	29.393
291.307	20.2
294.199	12.7037
297.092	11.5922
299.985	6.62039
302.877	4.86842
305.77	5.04793
308.663	10.493
311.555	13.8008
314.448	22.6557
317.341	34.0331
320.234	41.9886
323.126	48.7654
326.019	44.1662
328.912	32.3904
331.804	14.2049
334.697	5.86493
337.59	0.3909
340.483	1.73581
343.375	0.064209
346.268	2.35358
349.161	5.48932
352.053	6.30167
354.946	4.53587
357.839	2.74254
360.731	12.3221
363.624	29.8155
366.517	45.5722
369.41	67.4353
372.302	79.0194
375.195	89.9661
378.088	92.8704
380.98	80.8958
383.873	52.3495
386.766	31.4262
389.659	20.4875
392.551	16.3666
395.444	15.6369
398.337	16.8306
401.229	15.1933
404.122	9.57408
407.015	7.76251
409.908	9.12286
412.8	12.7554
415.693	22.0031
418.586	32.9788
421.478	44.0192
424.371	54.3918
427.264	64.4879
430.156	75.2042
433.049	84.3829
435.942	86.7568
438.834	91.6919
441.727	89.543
444.62	89.3954
447.513	92.2529
450.405	100.356
453.298	111.696
456.191	129.721
459.083	146.165
461.976	165.769
464.869	180.874
467.762	189.76
470.654	185.341
473.547	159.082
476.44	112.713
479.332	72.3585
482.225	46.6486
485.118	26.5532
488.01	14.4808
490.903	7.50531
493.796	2.26535
496.689	0.863708
499.581	1.33099
502.474	1.76735
505.367	0.485535
508.259	0.996826
511.152	1.96144
514.045	1.29913
516.938	0.491455
519.83	1.16071
522.723	2.20576
525.616	1.89587
528.508	3.2137
531.401	4.29042
534.294	3.84923
537.187	4.55223
540.079	4.59914
542.972	6.52493
545.865	6.85239
548.757	8.3261
551.65	8.22809
554.543	7.97432
557.435	7.19026
560.328	8.10674
563.221	6.9566
566.114	7.95207
569.006	6.29662
571.899	6.01918
574.792	6.0088
577.684	5.71834
580.577	4.84372
583.47	5.30989
586.362	5.03517
589.255	4.14258
592.148	3.06001
595.04	2.12074
597.933	2.93574
600.826	2.06943
603.719	1.17035
606.611	1.08025
609.504	1.60695
612.397	0.952576
615.289	0.536224
618.182	2.69897
621.075	0.007156
623.967	0.024918
626.86	0.187424
629.753	0.186203
632.646	0.306473
635.538	0.096741
638.431	1.11691
641.324	1.21861
644.216	1.25472
647.109	2.60791
650.002	1.53987
652.895	2.3374
655.787	4.23761
658.68	4.54962
661.573	8.44412
664.465	10.148
667.358	13.1575
670.251	16.766
673.144	21.5788
676.036	25.0355
678.929	29.5798
681.822	34.8032
684.714	37.859
687.607	41.1911
690.5	44.1512
693.393	51.6492
696.285	58.4817
699.178	66.7425
702.071	71.8621
704.963	68.0871
707.856	55.1064
710.749	37.0042
713.641	25.427
716.534	19.6012
719.427	13.8998
722.319	10.3356
725.212	8.2345
728.105	4.72877
730.998	4.1674
733.89	2.05077
736.783	1.00867
739.676	1.43603
742.568	0.794601
745.461	1.7787
748.354	0.121292
751.246	0.238083
754.139	1.58962
757.032	0.612213
759.925	0.79953
762.817	2.23511
765.71	4.3786
768.603	7.25819
771.495	9.31941
774.388	12.8958
777.281	16.5784
780.174	19.7596
783.066	24.9032
785.959	29.9071
788.852	32.6426
791.744	33.3664
794.637	32.0336
797.53	27.1231
800.423	25.5445
803.315	21.9918
806.208	18.859
809.101	14.807
811.993	11.4906
814.886	8.63687
817.779	6.90361
820.671	5.43253
823.564	3.30446
826.457	2.34645
829.35	2.08533
832.242	0.506317
835.135	0.709167
838.028	1.1293
840.92	0.601501
843.813	0.500961
846.706	1.28224
849.598	0.243652
852.491	3.0105
855.384	2.9088
858.277	4.15295
861.169	4.52409
864.062	5.93448
866.955	6.80083
869.847	9.21434
872.74	10.6823
875.633	13.1536
878.525	16.132
881.418	19.1795
884.311	21.8281
887.204	23.4488
890.096	24.9685
892.989	25.4626
895.882	25.432
898.774	27.1382
901.667	26.1962
904.56	25.1053
907.452	24.5292
910.345	22.4568
913.238	22.8867
916.131	20.3843
919.023	18.3588
921.916	18.1453
924.809	13.564
927.702	11.4416
930.594	10.4876
933.487	7.66403
936.38	6.97968
939.272	7.25218
942.165	6.20988
945.058	4.01047
947.95	3.85272
950.843	1.06393
953.736	0.863251
956.629	0.925232
959.521	0.488815
962.414	0.926849
965.307	1.5108
968.199	0.441544
971.092	0.230972
973.985	0.391769
976.877	0.302185
979.77	0.43158
982.663	0.52153
985.556	1.39247
988.448	0.091553
991.341	1.53674
994.234	0.584213
997.126	1.6295
1000.02	2.44879
1002.91	3.51494
1005.8	2.68874
1008.7	5.68278
1011.59	2.00011
1014.48	1.82654
1017.38	2.54649
1020.27	2.35017
1023.16	2.12302
1026.05	1.59729
1028.95	1.59569
1031.84	1.9411
1034.73	5.29803
1037.62	5.30252
1040.52	5.32065
1043.41	9.40599
1046.3	10.6859
1049.19	14.2251
1052.09	15.5116
1054.98	18.2219
1057.87	20.8451
1060.77	23.2693
1063.66	27.2427
1066.55	31.1145
1069.44	36.3015
1072.34	47.6467
1075.23	64.0615
1078.12	92.5523
1081.02	153.82
1083.91	256.852
1086.8	374.377
1089.69	539.671
1092.59	731.996
1095.48	620.478
1098.37	337.623
1101.26	169.82
1104.16	87.9134
1107.05	50.1675
1109.94	31.5794
1112.83	18.6797
1115.73	12.6108
1118.62	9.13654
1121.51	5.90854
1124.4	3.55142
1127.3	2.2332
1130.19	1.52387
1133.08	1.30662
1135.98	1.69525
1138.87	0.698059
1141.76	0.365936
1144.65	0.424194
1147.55	0.83931
1150.44	0.861404
1153.33	1.00473
1156.22	0.328461
1159.12	0.692032
1162.01	0.774048
1164.9	0.513397
1167.8	0.278564
1170.69	0.442444
1173.58	1.13258
1176.47	2.42827
1179.37	1.22211
1182.26	1.049
1185.15	0.332291
1188.05	2.23766
1190.94	3.05434
1193.83	1.59068
1196.72	2.41412
1199.62	1.72154
1202.51	3.38527
1205.4	1.34367
1208.29	2.26024
1211.19	3.22333
1214.08	2.74568
1216.97	2.67319
1219.87	1.98309
1222.76	1.90389
1225.65	2.49242
1228.54	2.48615
1231.43	2.01375
1234.33	4.49947
1237.22	1.64293
1240.11	1.43323
1243.01	1.8895
1245.9	1.6235
1248.79	1.39679
1251.68	0.584091
1254.58	2.0325
1257.47	3.12202
1260.36	3.2097
1263.26	1.57825
1266.15	2.08658
1269.04	3.94402
1271.93	0.909775
1274.83	2.91203
1277.72	1.63718
1280.61	0.339081
1283.5	1.87283
1286.4	1.46838
1289.29	2.6422
1292.18	1.86887
1295.08	1.31056
1297.97	0.697189
1300.86	2.02814
