Measurement: Raman, 780 nm, unoriented, Raman Data Processed
Mineral: Artinite
Rruff sample: R060166
Ideal chemistry: Mg_2_CO_3_(OH)_2_3H_2_O
Locality: San Benito County, California, USA
Source: Marcus Origlieri
Description: Spherical aggregates of divergent colorless acicular crystals
Measured chemistry: Mg_2.00_CO_3_(OH)_2_Â·3H_2_O ; C and H not measured but estimated by charge balance
Raman shift (cm-1)	intensity
149.879	0
152.772	0.119995
155.665	5.3224
158.557	12.4018
161.45	19.6507
164.343	29.2996
167.236	47.0989
170.128	76.8488
173.021	103.013
175.914	72.8978
178.806	30.7362
181.699	15.9499
184.592	12.7859
187.484	11.8362
190.377	5.25092
193.27	1.12204
196.162	1.42502
199.055	0.934525
201.948	0.459839
204.841	2.05253
207.733	3.09515
210.626	6.86886
213.519	8.20661
216.411	8.57825
219.304	10.4392
222.197	13.4927
225.089	15.733
227.982	17.9823
230.875	21.2962
233.768	26.909
236.66	31.6845
239.553	38.2375
242.446	38.79
245.338	37.1716
248.231	35.0762
251.124	31.3701
254.017	27.0689
256.909	22.3668
259.802	20.9949
262.695	21.4556
265.587	20.5267
268.48	21.2168
271.373	21.2921
274.265	23.3037
277.158	23.4645
280.051	21.5119
282.943	18.83
285.836	15.6427
288.729	10.8255
291.622	6.9683
294.514	6.12214
297.407	4.47185
300.3	4.17695
303.192	2.86399
306.085	2.81418
308.978	2.84203
311.87	3.93578
314.763	3.6069
317.656	4.87273
320.548	5.89463
323.441	5.98854
326.334	5.15303
329.227	3.52047
332.119	1.81202
335.012	1.53217
337.905	0.525997
340.797	0.30724
343.69	0.327896
346.583	0.22641
349.476	0.827026
352.368	0.369572
355.261	0.005844
358.154	0.453823
361.046	0.238811
363.939	1.39469
366.832	2.57116
369.724	4.16945
372.617	4.24461
375.51	6.17936
378.402	7.57406
381.295	5.91042
384.188	4.25767
387.081	2.22635
389.973	1.65265
392.866	2.06193
395.759	2.67657
398.651	1.89387
401.544	2.1443
404.437	1.61842
407.329	0.66011
410.222	0.274498
413.115	0.292496
416.008	0.160179
418.9	0.648682
421.793	1.11286
424.686	1.5796
427.578	1.24664
430.471	2.647
433.364	3.5216
436.257	3.81696
439.149	4.24859
442.042	4.78357
444.935	5.35097
447.827	5.9316
450.72	6.66333
453.613	8.94207
456.505	9.52298
459.398	12.1197
462.291	14.4831
465.183	16.8426
468.076	19.4543
470.969	20.2124
473.861	18.1432
476.754	13.0705
479.647	10.2126
482.54	7.10419
485.432	3.95081
488.325	2.31908
491.218	2.11201
494.11	0.438488
497.003	0.450336
499.896	0.69043
502.788	0.040123
505.681	0.503487
508.574	0.054489
511.467	0.000259
514.359	0.214581
517.252	0.684242
520.145	0.723148
523.037	0.85392
525.93	0.057949
528.823	0.088745
531.716	1.16361
534.608	0.678993
537.501	0.142113
540.394	1.35658
543.286	2.62468
546.179	1.97655
549.072	2.4254
551.964	2.62293
554.857	2.66388
557.75	2.15261
560.643	1.73087
563.535	1.34055
566.428	1.69016
569.321	0.800819
572.213	0.801907
575.106	0.977562
577.999	1.07677
580.891	0.599575
583.784	0.986179
586.677	0.876755
589.569	1.11803
592.462	0.910923
595.355	0.195744
598.248	0.387112
601.14	0.261665
604.033	0.780602
606.926	0.175938
609.818	0.930004
612.711	0.298134
615.604	0.79586
618.496	0.571812
621.389	0.19521
624.282	0.274788
627.174	0.090881
630.067	0.070713
632.96	0.214321
635.853	0.514904
638.745	0.509796
641.638	0.300076
644.531	0.163662
647.423	1.0484
650.316	0.964252
653.209	1.05347
656.101	0.088409
658.994	0.757263
661.887	0.560387
664.78	0.67981
667.672	1.66509
670.565	2.07742
673.458	2.18355
676.35	2.85017
679.243	3.76344
682.136	3.94809
685.029	5.1302
687.921	5.99261
690.814	6.92986
693.707	8.30385
696.599	10.0941
699.492	11.4196
702.385	11.7899
705.277	11.4903
708.17	9.17141
711.063	7.20057
713.955	4.21067
716.848	2.2968
719.741	2.45163
722.634	1.31419
725.526	1.23496
728.419	1.03804
731.312	1.09601
734.204	0.665707
737.097	1.47538
739.99	1.02298
742.882	0.039303
745.775	0.6404
748.668	0.184937
751.561	0.062172
754.453	0.08754
757.346	0.281704
760.239	0.375809
763.131	0.529922
766.024	0.198322
768.917	0.584045
771.809	0.435726
774.702	1.46798
777.595	1.39962
780.487	1.52873
783.38	1.89117
786.273	2.30816
789.166	2.81406
792.058	2.66427
794.951	2.23143
797.844	2.42255
800.736	2.44263
803.629	1.41359
806.522	2.22239
809.414	1.52462
812.307	1.44212
815.2	1.37468
818.093	1.41233
820.985	0.715454
823.878	0.797352
826.771	0.772526
829.663	0.633789
832.556	0.431156
835.449	0.124691
838.341	0.315853
841.234	0.620045
844.127	0.014755
847.02	0.205616
849.912	0.05299
852.805	1.14508
855.698	0.132221
858.59	0.516983
861.483	0.00285
864.376	1.58586
867.269	0.104473
870.161	0.389183
873.054	1.09045
875.947	1.74097
878.839	1.30513
881.732	1.32697
884.625	1.50531
887.517	1.76877
890.41	0.85968
893.303	1.69175
896.195	1.52612
899.088	1.28779
901.981	1.11718
904.874	0.938074
907.766	0.473564
910.659	1.11152
913.552	1.17118
916.444	1.43151
919.337	1.05144
922.23	1.38104
925.122	1.24429
928.015	1.19584
930.908	0.961067
933.801	1.0202
936.693	0.927004
939.586	0.964674
942.479	1.4755
945.371	0.594198
948.264	1.03266
951.157	1.43184
954.049	1.40348
956.942	0.711269
959.835	0.154408
962.727	0.048922
965.62	0.741745
968.513	0.321363
971.406	0.000532
974.298	0.270494
977.191	0.271502
980.084	0.717911
982.976	0.528131
985.869	0.117477
988.762	0.526602
991.654	0.127382
994.547	0.476498
997.44	0.013004
1000.33	0.111307
1003.23	0.872881
1006.12	0.30246
1009.01	0.470997
1011.9	0.694633
1014.8	0.219906
1017.69	0.717468
1020.58	1.06871
1023.47	1.23954
1026.37	0.745356
1029.26	1.48586
1032.15	1.6218
1035.05	2.09796
1037.94	1.88086
1040.83	2.72747
1043.72	3.19199
1046.62	3.93703
1049.51	3.79456
1052.4	3.82844
1055.29	4.51711
1058.19	4.86348
1061.08	4.52912
1063.97	5.42403
1066.87	5.03789
1069.76	6.09251
1072.65	6.2221
1075.54	8.46108
1078.43	11.3469
1081.33	17.7491
1084.22	25.663
1087.11	36.7393
1090.01	54.7559
1092.9	80.6865
1095.79	77.1258
1098.68	41.094
1101.58	18.89
1104.47	9.01615
1107.36	4.79098
1110.26	2.85392
1113.15	1.62158
1116.04	0.967924
1118.93	0.28417
1121.83	0.583319
1124.72	0.385281
1127.61	0.451958
1130.5	0.615204
1133.4	0.616377
1136.29	0.119473
1139.18	0.038105
1142.08	0.217466
1144.97	0.187401
1147.86	0.492285
1150.75	0.358154
1153.65	0.220875
1156.54	0.077278
1159.43	0.042038
1162.32	0.409912
1165.22	0.110806
1168.11	0.069698
1171	0.495998
1173.89	1.06685
1176.79	0.224052
1179.68	0.793634
1182.57	1.0344
1185.46	0.423046
1188.36	0.427786
1191.25	0.693039
1194.14	0.81963
1197.04	1.44633
1199.93	0.922258
1202.82	0.867941
1205.71	0.810783
1208.61	0.544024
1211.5	0.751553
1214.39	0.770164
1217.29	0.53249
1220.18	0.846886
1223.07	0.69327
1225.96	0.566801
1228.86	0.295042
1231.75	0.44808
1234.64	0.030447
1237.53	0.788752
1240.43	0.935143
1243.32	0.951561
1246.21	1.15772
1249.11	0.773663
1252	1.05408
1254.89	1.01263
1257.78	0.694878
1260.67	0.849543
1263.57	0.359669
1266.46	0.86079
1269.35	0.817886
1272.25	1.55458
1275.14	0.50774
