Measurement: Raman, 532 nm, unoriented, Raman Data Processed
Mineral: Artinite
Rruff sample: R060234
Ideal chemistry: Mg_2_CO_3_(OH)_2_3H_2_O
Locality: southern San Benito County, California, USA
Source: Michael Scott
Description: Divergent sprays of clear colorless acicular crystals
Measured chemistry: Mg_2.00_(CO_3_)(OH)_2_Â·3H_2_O
Raman shift (cm-1)	intensity
134.88	0
138.255	4.06427
141.63	4.00263
145.005	18.7433
148.38	45.9825
151.755	45.5121
155.129	78.742
158.504	139.216
161.879	190.608
165.254	274.597
168.629	448.794
172.003	693.466
175.378	545.405
178.753	185.266
182.128	86.793
185.503	69.7884
188.877	41.3315
192.252	5.08922
195.627	4.92378
199.002	6.29637
202.377	1.08217
205.752	9.83463
209.126	19.397
212.501	11.9758
215.876	5.48689
219.251	8.53457
222.626	11.6554
226	18.2679
229.375	23.7865
232.75	33.7879
236.125	49.3695
239.5	62.0959
242.875	59.5445
246.249	57.4751
249.624	54.9242
252.999	48.4176
256.374	43.5881
259.749	46.1776
263.123	53.1357
266.498	58.7197
269.873	61.6328
273.248	64.4432
276.623	66.9513
279.998	68.2486
283.372	58.3973
286.747	34.1253
290.122	15.8565
293.497	8.19331
296.872	4.1124
300.247	1.94789
303.621	2.54625
306.996	4.57911
310.371	8.92006
313.746	16.2963
317.12	24.1477
320.495	30.5143
323.87	31.1648
327.245	24.2517
330.62	15.9467
333.995	9.46871
337.369	5.82167
340.744	2.39838
344.119	0.553547
347.494	1.33382
350.869	2.48562
354.243	2.07976
357.618	0.013866
360.993	3.44547
364.368	8.73707
367.743	15.0711
371.118	22.1923
374.492	28.6334
377.867	31.8573
381.242	24.5892
384.617	14.9748
387.992	7.77074
391.366	7.72753
394.741	8.48793
398.116	9.23467
401.491	7.34684
404.866	4.03858
408.241	2.85581
411.615	3.13109
414.99	2.93954
418.365	3.94875
421.74	5.06659
425.115	5.25448
428.49	5.92279
431.864	8.86032
435.239	10.5254
438.614	12.8366
441.989	13.8461
445.364	16.3635
448.738	19.917
452.113	25.9941
455.488	34.1615
458.863	47.4981
462.238	60.7519
465.613	75.7654
468.987	85.3548
472.362	85.7314
475.737	67.7167
479.112	43.3065
482.486	26.0341
485.861	14.5832
489.236	7.93858
492.611	4.54226
495.986	2.25766
499.361	1.48508
502.735	1.24719
506.11	0.661751
509.485	0.203438
512.86	0.201344
516.235	0.95015
519.61	0.367455
522.984	0.202419
526.359	0.506207
529.734	0.030689
533.109	0.728516
536.484	1.27569
539.859	0.469601
543.233	0.663197
546.608	1.16412
549.983	1.17381
553.358	1.25708
556.732	1.91174
560.107	1.371
563.482	2.18728
566.857	0.537159
570.232	1.3587
573.607	1.1197
576.981	1.71436
580.356	0.51889
583.731	1.87011
587.106	1.58598
590.481	1.63213
593.856	1.25882
597.23	0.019703
600.605	1.12242
603.98	1.24834
607.355	0.51025
610.73	0.810127
614.104	0.551739
617.479	1.11369
620.854	0.292103
624.229	0.218548
627.604	0.28252
630.979	0.903809
634.353	0.158474
637.728	0.16386
641.103	0.472767
644.478	0.90361
647.852	1.29964
651.227	0.890514
654.602	1.32958
657.977	1.90102
661.352	2.67932
664.727	3.82821
668.101	5.114
671.476	7.14801
674.851	9.84613
678.226	14.1435
681.601	18.2413
684.976	23.7235
688.35	31.3944
691.725	38.9152
695.1	49.3766
698.475	61.2741
701.85	65.6852
705.224	57.3952
708.599	34.6473
711.974	19.5527
715.349	11.8379
718.724	7.45012
722.098	5.3329
725.473	3.95338
728.848	2.82873
732.223	2.37225
735.598	0.311852
738.973	0.314289
742.347	0.651089
745.722	0.448345
749.097	0.277534
752.472	0.331135
755.847	0.057823
759.221	0.039005
762.596	0.626923
765.971	1.99046
769.346	2.21493
772.721	2.69106
776.096	4.92975
779.47	8.28114
782.845	9.35321
786.22	12.0099
789.595	11.7182
792.97	13.02
796.345	11.7411
799.719	9.49719
803.094	8.78703
806.469	7.52592
809.844	5.96366
813.219	4.83732
816.593	3.79282
819.968	3.43734
823.343	2.15144
826.718	1.8849
830.093	0.406471
833.467	0.586281
836.842	0.346386
840.217	0.475174
843.592	0.108604
846.967	0.509285
850.342	0.624046
853.716	0.070862
857.091	0.910583
860.466	0.489017
863.841	1.06222
867.216	1.62379
870.591	2.9258
873.965	3.50954
877.34	5.84433
880.715	5.87214
884.09	7.67141
887.465	8.84405
890.839	8.72198
894.214	7.96438
897.589	8.16353
900.964	7.76488
904.339	7.44571
907.713	6.48724
911.088	6.18016
914.463	6.93317
917.838	6.93504
921.213	8.61425
924.587	10.2201
927.962	8.95753
931.337	10.2393
934.712	12.2268
938.087	12.2672
941.462	13.2945
944.836	11.9876
948.211	10.8763
951.586	9.45284
954.961	7.34113
958.336	5.73896
961.711	4.6355
965.085	3.01735
968.46	1.76667
971.835	1.48443
975.21	0.892666
978.585	0.256268
981.959	0.229362
985.334	0.193478
988.709	0.867592
992.084	0.936623
995.459	0.398937
998.833	0.660049
1002.21	0.742817
1005.58	0.55999
1008.96	1.24588
1012.33	1.82824
1015.71	2.35185
1019.08	4.26741
1022.46	5.79605
1025.83	6.49714
1029.21	9.6276
1032.58	12.4273
1035.96	17.0861
1039.33	24.5558
1042.71	27.7996
1046.08	34.5442
1049.46	43.6526
1052.83	47.559
1056.2	51.819
1059.58	53.2807
1062.95	55.2718
1066.33	54.9386
1069.7	56.9302
1073.08	65.222
1076.45	76.3749
1079.83	101.824
1083.2	168.312
1086.58	278.558
1089.95	448.699
1093.33	651.402
1096.7	432.129
1100.08	170.099
1103.45	70.9886
1106.83	33.8745
1110.2	17.5149
1113.58	10.596
1116.95	6.58787
1120.33	3.59385
1123.7	1.29165
1127.08	0.796799
1130.45	0.753044
1133.83	1.07627
1137.2	0.461651
1140.58	0.130196
1143.95	0.500599
1147.33	0.238567
1150.7	0.371624
1154.08	0.080883
1157.45	0.472965
1160.83	0.924541
1164.2	0.30661
1167.57	0.942188
1170.95	0.538544
1174.32	0.989758
1177.7	0.423702
1181.07	1.16051
1184.45	0.99239
1187.82	0.943546
1191.2	0.813896
1194.57	0.224358
1197.95	1.72061
1201.32	1.0415
1204.7	1.52851
1208.07	0.72155
1211.45	1.19531
1214.82	1.86949
1218.2	1.34093
1221.57	0.763355
1224.95	1.41189
1228.32	1.72853
1231.7	0.557365
1235.07	0.963562
1238.44	0.966728
1241.82	0.99855
1245.19	1.09578
1248.57	0.778233
1251.94	1.1699
1255.32	1.15925
1258.69	1.11127
1262.07	0.620342
1265.44	1.14527
1268.82	0.614628
1272.19	1.21263
1275.57	0.084984
1278.94	0.146358
1282.32	1.35439
1285.69	0.03281
1289.07	0.517605
1292.44	0.768345
1295.82	0.467453
1299.19	1.66689
1302.57	0.002068
