Measurement: Raman, 780 nm, unoriented, Raman Data Processed
Mineral: Artroeite
Rruff sample: R100034
Ideal chemistry: PbAlF_3_(OH)_2_
Locality: Grand Reef mine, Klondyke, Aravaipa District, Graham County, Arizona, USA
Source: Natural History Museum of Los Angeles County
Description: Colorless fragments from the type specimen, associated with calcioaravaipaite R100033.  Photos of type specimen are courtesy of LACMNH.
Raman shift (cm-1)	intensity
92.9796	0
96.3544	71.2671
99.7292	24.1461
103.104	4.1875
106.479	2.99768
109.854	8.24271
113.228	43.9504
116.603	103.7
119.978	138.095
123.353	183.158
126.728	240.249
130.102	324.054
133.477	419.591
136.852	362.348
140.227	172.908
143.602	79.26
146.977	49.3787
150.351	42.7604
153.726	44.2803
157.101	53.2507
160.476	56.3289
163.851	48.1246
167.226	33.9424
170.6	16.4619
173.975	2.88066
177.35	2.68169
180.725	5.7896
184.1	0.034157
187.474	6.35045
190.849	14.2617
194.224	43.6076
197.599	93.4489
200.974	132.679
204.349	164.951
207.723	190.82
211.098	240.331
214.473	339.829
217.848	295.09
221.223	132.508
224.597	66.9877
227.972	45.344
231.347	36.3851
234.722	36.6378
238.097	46.0904
241.471	44.5428
244.846	23.812
248.221	20.2853
251.596	21.8041
254.971	29.8172
258.346	37.8658
261.72	51.9455
265.095	60.9446
268.47	61.656
271.845	56.1009
275.22	59.493
278.594	66.6935
281.969	59.2426
285.344	34.0465
288.719	16.8951
292.094	9.05946
295.469	3.93107
298.843	0.052795
302.218	1.70155
305.593	2.1018
308.968	1.49078
312.343	0.420921
315.717	1.57101
319.092	5.80885
322.467	12.4825
325.842	19.7282
329.217	29.8914
332.592	39.822
335.966	52.928
339.341	66.6948
342.716	68.9412
346.091	60.4843
349.466	58.4144
352.841	59.186
356.215	67.307
359.59	65.1173
362.965	55.0412
366.34	44.5568
369.715	32.1913
373.089	18.7992
376.464	7.41442
379.839	0.17572
383.214	0.221497
386.589	1.44705
389.964	0.965492
393.338	1.42868
396.713	3.73827
400.088	7.39682
403.463	10.139
406.838	15.558
410.212	17.5037
413.587	16.2206
416.962	14.3786
420.337	15.1474
423.712	17.1957
427.087	17.9864
430.461	25.1861
433.836	23.464
437.211	18.0315
440.586	16.9588
443.961	25.2601
447.335	40.5721
450.71	54.0074
454.085	72.0631
457.46	91.907
460.835	115.882
464.209	109.994
467.584	68.9948
470.959	34.1036
474.334	15.9447
477.709	7.17985
481.084	4.48189
484.458	0.419769
487.833	0.41156
491.208	0.049232
494.583	0.741142
497.958	1.62846
501.332	0.089417
504.707	2.67596
508.082	5.65672
511.457	8.3872
514.832	10.1747
518.207	15.6793
521.581	20.1294
524.956	20.5198
528.331	22.4639
531.706	28.9857
535.081	37.7656
538.455	47.8946
541.83	63.4988
545.205	79.9614
548.58	95.6038
551.955	96.7434
555.33	98.1755
558.704	114.069
562.079	139.384
565.454	169.56
568.829	177.343
572.204	131.941
575.578	87.1244
578.953	54.2156
582.328	39.8531
585.703	34.305
589.078	31.5405
592.452	32.9225
595.827	41.7809
599.202	46.1977
602.577	49.893
605.952	46.6069
609.327	33.267
612.701	23.6388
616.076	19.961
619.451	10.4678
622.826	8.54259
626.201	5.0934
629.576	6.10052
632.95	2.3745
636.325	3.51006
639.7	3.17111
643.075	0.276394
646.45	0.559967
649.824	0.155773
653.199	0.665794
656.574	1.70978
659.949	1.30803
663.324	1.87876
666.698	0.940369
670.073	0.314003
673.448	0.374207
676.823	2.72781
680.198	0.146896
683.573	0.417648
686.947	1.23072
690.322	1.70772
693.697	0.757923
697.072	2.72252
700.447	3.26333
703.822	3.31807
707.196	5.6089
710.571	3.82399
713.946	3.98398
717.321	3.45165
720.696	3.68381
724.07	2.62959
727.445	1.65241
730.82	2.34248
734.195	1.61031
737.57	3.08183
740.944	0.067329
744.319	1.23077
747.694	2.32281
751.069	2.279
754.444	0.545555
757.818	0.756615
761.193	2.26918
764.568	0.754501
767.943	0.431942
771.318	2.008
774.693	1.31452
778.067	0.114841
781.442	2.49491
784.817	1.49913
788.192	1.95485
791.567	4.27317
794.942	5.70749
798.316	4.4262
801.691	5.02065
805.066	7.57
808.441	2.97599
811.816	3.90371
815.19	3.68899
818.565	2.25592
821.94	1.34906
825.315	3.0561
828.69	2.99518
832.064	3.70404
835.439	2.17867
838.814	3.4766
842.189	2.59702
845.564	3.45356
848.939	6.71437
852.313	7.54475
855.688	10.4563
859.063	12.3686
862.438	15.9655
865.813	17.0588
869.188	19.4876
872.562	19.2979
875.937	17.4758
879.312	13.6863
882.687	8.8697
886.062	7.96667
889.436	6.92149
892.811	5.88448
896.186	3.35119
899.561	4.77838
902.936	0.436543
906.311	1.69571
909.685	2.17445
913.06	0.47789
916.435	1.10383
919.81	0.163845
923.185	0.349076
926.559	1.78375
929.934	0.35928
933.309	0.519325
936.684	1.21853
940.059	1.08459
943.433	0.935986
946.808	0.283981
950.183	2.47318
953.558	2.73876
956.933	2.52694
960.308	5.69549
963.682	6.21425
967.057	9.48498
970.432	12.6571
973.807	16.3389
977.182	19.0108
980.557	17.5433
983.931	14.8109
987.306	8.75147
990.681	5.94611
994.056	2.02572
997.431	0.207932
1000.8	1.71491
1004.18	0.653774
1007.55	0.297764
1010.93	1.06685
1014.3	1.59672
1017.68	4.59281
1021.05	3.68586
1024.43	5.98124
1027.8	11.3855
1031.18	16.31
1034.55	16.936
1037.93	22.6967
1041.3	21.9385
1044.68	15.3402
1048.05	9.43265
1051.43	3.0504
1054.8	3.41013
1058.18	2.11671
1061.55	0.904232
1064.93	0.049446
1068.3	0.823986
1071.68	1.70168
1075.05	1.3912
1078.43	2.5854
1081.8	2.22898
1085.18	1.4736
1088.55	0.920841
1091.92	0.495064
1095.3	3.25631
1098.67	1.80183
1102.05	0.110397
1105.42	0.919312
1108.8	0.491821
1112.17	0.850006
1115.55	1.19459
1118.92	4.42387
1122.3	1.91078
1125.67	2.7037
1129.05	0.726254
1132.42	1.34313
1135.8	1.78983
1139.17	3.16255
1142.55	1.74552
1145.92	0.419346
1149.3	5.44385
1152.67	3.40598
1156.05	3.24878
1159.42	0.290215
1162.8	3.30237
1166.17	1.82779
1169.55	2.7334
1172.92	2.00304
1176.3	0.306026
1179.67	1.48991
1183.05	2.59745
1186.42	2.64491
1189.8	2.84969
1193.17	2.63548
1196.55	1.90935
1199.92	1.81283
1203.29	2.86647
1206.67	0.536533
1210.04	3.4174
1213.42	3.39693
1216.79	3.20219
1220.17	1.44352
1223.54	2.00532
1226.92	2.13193
1230.29	2.4993
1233.67	1.64776
1237.04	3.60176
1240.42	2.04852
1243.79	2.8742
1247.17	1.31322
1250.54	3.31942
1253.92	2.67522
1257.29	2.00014
1260.67	1.61226
1264.04	0.60643
1267.42	2.09863
1270.79	1.57449
1274.17	1.11688
1277.54	0.207558
1280.91	2.03366
1284.29	0.324501
