Measurement: Raman, 532 nm, unoriented, Raman Data Processed
Mineral: Artroeite
Rruff sample: R100034
Ideal chemistry: PbAlF_3_(OH)_2_
Locality: Grand Reef mine, Klondyke, Aravaipa District, Graham County, Arizona, USA
Source: Natural History Museum of Los Angeles County
Description: Colorless fragments from the type specimen, associated with calcioaravaipaite R100033.  Photos of type specimen are courtesy of LACMNH.
Raman shift (cm-1)	intensity
155.578	0
158.471	8.56757
161.363	35.5926
164.256	66.0217
167.149	68.1248
170.041	43.6472
172.934	26.5628
175.827	8.31107
178.72	3.29328
181.612	1.67566
184.505	1.86255
187.398	2.83258
190.29	7.87567
193.183	16.9165
196.076	31.9472
198.968	77.4833
201.861	123.362
204.754	157.991
207.647	182.008
210.539	228.239
213.432	342.783
216.325	437.399
219.217	293.401
222.11	128.031
225.003	67.3391
227.895	42.8976
230.788	33.8438
233.681	30.4724
236.573	39.455
239.466	56.0322
242.359	55.8078
245.252	28.1
248.144	23.9994
251.037	29.4467
253.93	40.1529
256.822	50.7194
259.715	65.1283
262.608	77.957
265.5	91.8017
268.393	92.6792
271.286	79.2607
274.179	68.2596
277.071	66.756
279.964	69.73
282.857	58.2852
285.75	31.7385
288.642	18.2537
291.535	12.4923
294.428	8.30649
297.32	2.28738
300.213	3.30331
303.106	3.36469
305.998	0.976868
308.891	2.57281
311.784	3.31445
314.676	8.10764
317.569	3.63944
320.462	5.33685
323.355	11.5714
326.247	16.967
329.14	27.2055
332.033	44.1482
334.925	57.2031
337.818	81.4073
340.711	100.17
343.603	104.657
346.496	97.6681
349.389	97.9948
352.281	104.678
355.174	119.83
358.067	124.077
360.96	123.422
363.852	103.305
366.745	88.8568
369.638	67.7931
372.53	43.4508
375.423	25.5727
378.316	9.28116
381.209	6.24326
384.101	-0.154661
386.994	2.06928
389.887	0.370514
392.779	2.29501
395.672	0.096588
398.565	3.974
401.457	11.9572
404.35	18.5567
407.243	27.4046
410.135	33.9361
413.028	31.7558
415.921	25.9873
418.814	18.8493
421.706	14.3736
424.599	12.158
427.492	20.0103
430.384	29.0114
433.277	32.0303
436.17	26.4656
439.062	16.7585
441.955	17.4548
444.848	22.855
447.741	36.3538
450.633	57.4257
453.526	84.5792
456.419	116.322
459.311	157.241
462.204	189.053
465.097	178.546
467.99	117.992
470.882	63.2294
473.775	30.8797
476.668	18.0047
479.56	7.55032
482.453	4.2244
485.346	3.82837
488.238	2.01907
491.131	0.370239
494.024	3.73502
496.916	5.08804
499.809	0.515472
502.702	0.866211
505.595	2.49475
508.487	5.59595
511.38	11.672
514.273	20.3487
517.165	23.2384
520.058	31.4123
522.951	37.6894
525.844	38.4754
528.736	40.6277
531.629	45.5967
534.522	56.397
537.414	71.3427
540.307	86.1979
543.2	110.019
546.092	130.769
548.985	141.845
551.878	136.824
554.771	130.87
557.663	142.291
560.556	178.177
563.449	229.822
566.341	275.019
569.234	284.583
572.127	232.862
575.019	161.455
577.912	107.287
580.805	73.6577
583.697	55.0815
586.59	49.5768
589.483	47.5437
592.376	46.7831
595.268	58.4117
598.161	69.0489
601.054	77.725
603.946	85.381
606.839	77.0769
609.732	67.0997
612.625	48.3123
615.517	34.5502
618.41	26.8397
621.303	17.7726
624.195	12.3668
627.088	7.06158
629.981	9.18878
632.873	3.58902
635.766	7.55743
638.659	5.62738
641.552	0.056702
644.444	0.774353
647.337	0.447601
650.23	0.818481
653.122	3.60727
656.015	0.894958
658.908	1.00842
661.8	0.538635
664.693	0.341064
667.586	3.08975
670.479	1.58481
673.371	0.860992
676.264	2.28696
679.157	4.3067
682.049	0.963379
684.942	2.33749
687.835	0.947693
690.727	1.15988
693.62	2.6897
696.513	4.18204
699.405	4.48795
702.298	4.4527
705.191	2.59463
708.084	5.04874
710.976	6.43906
713.869	8.44107
716.762	5.83893
719.654	6.12726
722.547	4.85556
725.44	3.94708
728.332	5.4924
731.225	0.002808
734.118	3.26169
737.011	0.574127
739.903	3.4397
742.796	1.49533
745.689	2.47024
748.581	2.15598
751.474	3.55112
754.367	2.36847
757.26	0.414246
760.152	0.006165
763.045	0.501648
765.938	2.47638
768.83	1.37
771.723	0.639709
774.616	2.9574
777.508	1.67352
780.401	5.34766
783.294	5.0058
786.187	3.26013
789.079	3.06833
791.972	9.23776
794.865	11.1218
797.757	12.0114
800.65	13.6369
803.543	11.6979
806.435	11.5399
809.328	10.879
812.221	6.6105
815.114	4.008
818.006	4.76007
820.899	4.33936
823.792	4.29096
826.684	1.22076
829.577	2.09644
832.47	1.22519
835.362	1.77429
838.255	1.86798
841.148	5.88986
844.04	6.45554
846.933	5.7543
849.826	8.86472
852.719	13.4601
855.611	19.5921
858.504	25.5586
861.397	31.9931
864.289	39.9201
867.182	45.9926
870.075	53.4048
872.967	55.6817
875.86	56.689
878.753	46.0738
881.646	34.7451
884.538	25.5995
887.431	19.9057
890.324	20.4096
893.216	15.2932
896.109	10.7683
899.002	10.3958
901.894	8.15854
904.787	6.39551
907.68	4.25
910.573	4.81247
913.465	1.11804
916.358	2.58661
919.251	2.75143
922.143	1.75977
925.036	0.308258
927.929	0.189941
930.822	0.896301
933.714	0.128357
936.607	1.15826
939.5	0.296417
942.392	0.266846
945.285	3.23834
948.178	5.23282
951.07	2.52536
953.963	3.40549
956.856	8.56543
959.749	8.29474
962.641	10.1511
965.534	10.5237
968.427	19.2154
971.319	23.7748
974.212	34.3176
977.105	43.5718
979.997	47.2497
982.89	40.7655
985.783	33.7733
988.676	21.6471
991.568	17.9258
994.461	7.65323
997.354	5.69308
1000.25	5.9776
1003.14	5.62302
1006.03	1.80383
1008.92	4.61441
1011.82	3.43408
1014.71	8.82782
1017.6	8.98282
1020.5	9.56638
1023.39	12.9689
1026.28	18.6395
1029.17	28.5382
1032.07	36.4025
1034.96	49.8029
1037.85	58.4643
1040.74	60.1282
1043.64	46.7386
1046.53	31.6209
1049.42	18.0218
1052.32	8.89771
1055.21	4.79144
1058.1	7.48859
1060.99	1.49066
1063.89	5.42835
1066.78	0.153481
1069.67	1.28174
1072.56	0.279358
1075.46	2.16003
1078.35	0.876099
1081.24	3.06433
1084.13	3.46167
1087.03	1.41589
1089.92	2.13727
1092.81	2.04816
1095.7	1.74524
1098.6	2.69061
1101.49	2.93182
1104.38	2.59051
1107.28	3.99872
1110.17	7.09955
1113.06	2.33752
1115.95	3.76917
1118.85	4.50024
1121.74	3.03503
1124.63	0.220581
1127.53	0.696167
1130.42	2.0163
1133.31	2.75513
1136.2	2.31812
1139.1	4.61633
1141.99	2.89642
1144.88	1.72791
1147.77	2.06873
1150.67	0.753357
1153.56	1.0899
1156.45	5.00629
1159.35	3.01373
1162.24	4.95203
1165.13	4.22644
1168.02	2.0022
1170.92	1.375
1173.81	2.95581
1176.7	3.31409
1179.59	1.05811
1182.49	0.691162
1185.38	5.79358
1188.27	2.63531
1191.16	5.30023
1194.06	1.5835
1196.95	0.086121
1199.84	5.79987
1202.73	2.5033
1205.63	3.01672
1208.52	0.614624
1211.41	0.988831
1214.31	5.27966
1217.2	2.44678
1220.09	6.14838
1222.98	4.6499
1225.88	0.698425
1228.77	3.39105
1231.66	5.26703
1234.56	3.01404
1237.45	0.13208
1240.34	6.0965
1243.23	2.94977
1246.13	3.51587
1249.02	2.56549
1251.91	5.68628
1254.8	5.98377
1257.7	3.15942
1260.59	2.69428
1263.48	1.63422
1266.38	3.51416
1269.27	5.25159
1272.16	2.99701
1275.05	2.66949
1277.95	3.70154
1280.84	2.07733
1283.73	1.07587
1286.62	1.90027
1289.52	0.111328
1292.41	1.84259
1295.3	5.29089
1298.19	2.14069
1301.09	2.38806
