Measurement: Raman, 532 nm, unoriented, Raman Data Processed
Mineral: Arzakite
Rruff sample: R070021
Ideal chemistry: Hg_3_S_2_(Br,Cl)_2_
Locality: Arzak deposit, Tuva, Siberia, Russia
Source: Michael Scott
Description: Orange brown crystals lining vug, co-type material; associated with jarosite (sharp crystals), montroydite (dark red - blackish)
Raman shift (cm-1)	intensity
175.252	0
178.145	44.395
181.038	2.69531
183.93	6.78955
186.823	96.3735
189.716	279.772
192.608	540.837
195.501	848.398
198.394	1349.69
201.286	1860.6
204.179	2413.24
207.072	3039.33
209.965	3461.15
212.857	3664.46
215.75	3374.86
218.643	2853.29
221.535	2242.09
224.428	1724.32
227.321	1402.17
230.214	1134.27
233.106	975.544
235.999	827.257
238.892	816.713
241.784	821.267
244.677	916.618
247.57	1026.48
250.462	1203.1
253.355	1471.49
256.248	1788.88
259.14	2147.07
262.033	2509.53
264.926	2886.78
267.818	3138.65
270.711	3323.76
273.604	3463.45
276.497	3385.65
279.389	3181.72
282.282	2934.58
285.175	2483.69
288.067	2099.59
290.96	1845.5
293.853	1537.19
296.745	1227.96
299.638	919.105
302.531	723.727
305.424	430.786
308.316	297.09
311.209	216.714
314.102	175.808
316.994	54.6582
319.887	50.0376
322.78	13.4121
325.673	3.17822
328.565	46.2915
331.458	89.6924
334.351	11.5527
337.243	44.6103
340.136	8.62158
343.029	28.9087
345.921	94.1699
348.814	120.38
351.707	159.949
354.599	263.483
357.492	259.738
360.385	391.706
363.277	467.401
366.17	564.401
369.063	636.974
371.956	699.939
374.848	785.116
377.741	897.393
380.634	888.251
383.526	987.084
386.419	996.477
389.312	971.84
392.204	874.78
395.097	810.828
397.99	699.408
400.883	680.516
403.775	567.544
406.668	398.127
409.561	403.964
412.453	337.235
415.346	233.134
418.239	227.568
421.131	138.926
424.024	101.474
426.917	93.5806
429.81	28.0093
432.702	9.26074
435.595	29.0269
438.488	25.6064
441.38	7.46973
444.273	1.62207
447.166	55.1802
450.058	67.3491
452.951	29.2666
455.844	91.8521
458.736	103.957
461.629	174.588
464.522	131.341
467.415	185.887
470.307	253.493
473.2	186.675
476.093	238.636
478.985	232.335
481.878	213.737
484.771	217.502
487.663	262.451
490.556	166.459
493.449	203.145
496.342	146.793
499.234	129.669
502.127	47.521
505.02	65.2388
507.912	23.1636
510.805	54.8154
513.698	74.1562
516.591	18.145
519.483	19.8672
522.376	40.5552
525.269	1.91357
528.161	4.18262
531.054	2.61914
533.947	17.3227
536.839	6.74609
539.732	34.4565
542.625	10.5317
545.517	78.8701
548.41	104.95
551.303	138.027
554.196	185.07
557.088	189.956
559.981	259.331
562.874	329.249
565.766	307.39
568.659	338.22
571.552	429.746
574.444	445.717
577.337	486.323
580.23	509.653
583.122	459.005
586.015	532.587
588.908	471.38
591.801	468.354
594.693	446.997
597.586	410.996
600.479	390.865
603.371	314.128
606.264	291.088
609.157	190.642
612.049	181.115
614.942	115.977
617.835	165.856
620.727	145.474
623.62	118.272
626.513	88.5889
629.406	86.0801
632.298	54.6636
635.191	110.584
638.084	83.4756
640.976	32.2275
643.869	93.6856
646.762	87.3828
649.654	100.981
652.547	58.9004
655.44	71.0449
658.333	79.1479
661.225	73.3311
664.118	83.0796
667.011	76.2266
669.903	49.4023
672.796	6.25781
675.689	26.5869
678.581	55.5923
681.474	31.3223
684.367	47.4297
687.26	43.8179
690.152	15.7632
693.045	70.1646
695.938	46.7471
698.83	31.5444
701.723	48.9536
704.616	27.1343
707.508	33.3818
710.401	10.0991
713.294	35.0205
716.187	0.89502
719.079	33.5059
721.972	35.3091
724.865	39.187
727.757	8.59766
730.65	22.3921
733.543	73.4741
736.435	4.92236
739.328	1.48828
742.221	42.5342
745.114	55.5063
748.006	67.1929
750.899	67.103
753.792	14.7627
756.684	85.688
759.577	61.7808
762.47	19.9756
765.362	45.3779
768.255	68.397
771.148	52.0942
774.04	51.4219
776.933	39.6011
779.826	63.6411
782.718	80.5386
785.611	117.793
788.504	84.6133
791.397	89.4014
794.289	14.7344
797.182	62.7651
800.075	162.009
802.967	32.8433
805.86	20.3325
808.753	57.3765
811.645	82.0464
814.538	29.2002
817.431	7.60254
820.323	0.749023
823.216	63.2666
826.109	77.7188
829.002	88.9238
831.894	75.4956
834.787	39.1367
837.68	26.4692
840.572	28.6411
843.465	72.3389
846.358	15.5806
849.25	32.8291
852.143	40.7974
855.036	38.3589
857.929	23.7231
860.821	63.0317
863.714	46.3931
866.607	19.6846
869.499	88.5996
872.392	52.3901
875.285	107.351
878.178	89.6606
881.07	37.7739
883.963	62.0303
886.856	56.4946
889.748	34.9385
892.641	59.2095
895.534	20.3296
898.426	58.6475
901.319	37.2393
904.212	106.641
907.105	101.554
909.997	90.5854
912.89	53.3428
915.783	89.187
918.675	64.4522
921.568	49.0972
924.461	36.1714
927.353	87.2353
930.246	6.71143
933.139	53.6235
936.031	59.9004
938.924	43.8364
941.817	41.582
944.71	92.5088
947.602	34.8926
950.495	74.3618
953.388	56.9863
956.28	12.7124
959.173	83.0161
962.066	32.6079
964.958	51.501
967.851	48.5527
970.744	76.2769
973.636	26.3799
976.529	20.0064
979.422	25.7861
982.315	14.063
985.207	83.7754
988.1	55.5772
990.993	9.95801
993.885	26.3325
996.778	13.9976
999.671	87.7407
1002.56	55.312
1005.46	106.505
1008.35	57.124
1011.24	43.7144
1014.13	28.4116
1017.03	91.4219
1019.92	57.4727
1022.81	95.3345
1025.7	8.19141
1028.6	38.7666
1031.49	68.3066
1034.38	52.6118
1037.28	86.8945
1040.17	52.1113
1043.06	14.2856
1045.95	17.2788
1048.85	58.4546
1051.74	69.354
1054.63	51.5972
1057.53	90.1196
1060.42	53.1484
1063.31	20.7886
1066.2	28.7441
1069.1	45.5083
1071.99	5.80664
1074.88	5.00342
1077.77	3.75342
1080.67	62.9458
1083.56	39.8203
1086.45	57.7002
1089.34	41.1323
1092.24	75.4463
1095.13	67.5957
1098.02	59.8184
1100.91	19.7349
1103.81	58.456
1106.7	39.023
1109.59	35.3799
1112.49	95.5356
1115.38	20.7236
1118.27	35.7803
1121.16	66.6665
1124.06	8.2793
1126.95	49.1157
1129.84	31.0527
1132.73	63.1645
1135.63	26.9639
1138.52	75.4263
1141.41	19.0908
1144.31	42.6797
1147.2	22.5928
1150.09	70.167
1152.98	31.0161
1155.88	29.9917
1158.77	58.8306
1161.66	111.626
1164.55	47.6328
1167.45	13.7388
1170.34	25.3086
1173.23	21.6846
1176.12	19.77
1179.02	6.7251
1181.91	3.95654
1184.8	65.5864
1187.7	36.1265
1190.59	43.0239
1193.48	64.541
1196.37	51.3169
1199.27	10.5503
1202.16	28.9199
1205.05	39.8603
1207.94	23.0933
1210.84	56.9736
1213.73	52.3452
1216.62	75.7153
1219.52	75.7173
1222.41	134.995
1225.3	7.68018
1228.19	18.0088
1231.09	67.1123
1233.98	70.1533
1236.87	63.8823
1239.77	88.2949
1242.66	102.819
1245.55	120.106
1248.44	124.204
1251.34	149.909
1254.23	127.517
1257.12	164.999
1260.01	143.672
1262.91	157.084
1265.8	91.5054
1268.69	126.204
1271.58	131.977
1274.48	101.974
1277.37	118.351
1280.26	162.21
1283.15	150.148
1286.05	133.326
1288.94	149.058
1291.83	104.064
1294.73	104.527
1297.62	70.5449
1300.51	109.495
1303.4	108.089
1306.3	4.35938
