Measurement: Raman, 785 nm, unoriented, Raman Data Processed
Mineral: Arzakite
Rruff sample: R070021
Ideal chemistry: Hg_3_S_2_(Br,Cl)_2_
Locality: Arzak deposit, Tuva, Siberia, Russia
Source: Michael Scott
Description: Orange brown crystals lining vug, co-type material; associated with jarosite (sharp crystals), montroydite (dark red - blackish)
Raman shift (cm-1)	intensity
148.79	0
151.683	516.461
154.576	483.911
157.469	130.535
160.361	22.1719
163.254	288.219
166.147	1013.03
169.039	1511.45
171.932	1701.34
174.825	1503.26
177.717	1339.72
180.61	1218.3
183.503	1201.38
186.395	1267.92
189.288	1431.17
192.181	1603.82
195.074	2066.91
197.966	2258.34
200.859	2444.99
203.752	2612.78
206.644	2399.5
209.537	2059.19
212.43	1904.01
215.322	1655.42
218.215	1538.05
221.108	1468.4
224.001	1540.63
226.893	1520.39
229.786	1551.15
232.679	1686.87
235.571	2011.85
238.464	2400.49
241.357	2780.45
244.25	2917.34
247.142	2818.79
250.035	2367.67
252.928	1719.04
255.82	1082.85
258.713	769.469
261.606	368.815
264.498	198.326
267.391	60.3438
270.284	66.1172
273.176	58.4199
276.069	88.5723
278.962	366.565
281.855	816.055
284.747	1602.61
287.64	2727.15
290.533	3946.45
293.425	5534.09
296.318	7095.96
299.211	8355.12
302.103	8273.78
304.996	6946.86
307.889	4967.3
310.782	3354.81
313.674	2096.37
316.567	1166.92
319.46	566.553
322.352	100.361
325.245	101.744
328.138	150.195
331.031	359.9
333.923	182.727
336.816	128.299
339.709	78.0254
342.601	155.621
345.494	414.916
348.387	908.769
351.279	1460.77
354.172	2072.69
357.065	2864.6
359.957	3697.16
362.85	4719.98
365.743	5909.51
368.636	7557.16
371.528	9425.34
374.421	11440.9
377.314	13809.8
380.207	16188.8
383.099	18499.6
385.992	20894.8
388.885	22726
391.777	24194.3
394.67	25280.1
397.563	25540.8
400.455	24486.1
403.348	22612.7
406.241	20014.7
409.134	17194.5
412.026	14469.1
414.919	12105
417.812	10288.5
420.704	8654.21
423.597	7400
426.49	6345.99
429.382	5251.72
432.275	4414.39
435.168	3646.64
438.06	2813.34
440.953	2222.86
443.846	1646.11
446.739	1351.9
449.631	990.959
452.524	861.611
455.417	760.934
458.309	995.555
461.202	1429.26
464.095	1864.18
466.988	1788.95
469.88	1318.04
472.773	1270.83
475.666	1276.57
478.558	1448.18
481.451	1165.77
484.344	988.469
487.236	671.248
490.129	552.258
493.022	165.965
495.914	150.799
498.807	141.459
501.7	243.24
504.593	256.065
507.485	227.462
510.378	83.208
513.271	78.0449
516.163	175.784
519.056	345.556
521.949	620.731
524.841	855.24
527.734	1141.8
530.627	1573.77
533.52	1958.23
536.412	2394.77
539.305	2974.39
542.198	3659.16
545.09	4349.16
547.983	5032.32
550.876	5628.78
553.769	5872.99
556.661	5871.98
559.554	5482.69
562.447	4859.22
565.339	3953.33
568.232	3278.84
571.125	2670.66
574.017	2114.12
576.91	1690.93
579.803	1208.34
582.696	939.949
585.588	693.366
588.481	523.14
591.374	376.582
594.266	210.834
597.159	169.984
600.052	129.962
602.944	97.6182
605.837	162.417
608.73	50.9072
611.622	23.5811
614.515	62.4033
617.408	39.9434
620.301	26.3301
623.193	22.6836
626.086	0.669922
628.979	41.6787
631.871	15.1143
634.764	33.5293
637.657	55.3789
640.549	0.902344
643.442	85.7353
646.335	30.1777
649.228	116.948
652.12	93.9746
655.013	158.796
657.906	144.892
660.798	219.361
663.691	288.268
666.584	327.409
669.476	387.757
672.369	468.585
675.262	489.596
678.155	574.941
681.047	612.363
683.94	763.787
686.833	672.574
689.726	677.508
692.618	783.693
695.511	702.172
698.404	800.438
701.296	643.118
704.189	487.118
707.082	559.368
709.974	493.782
712.867	333.166
715.76	343.032
718.653	284.974
721.545	245.7
724.438	301.456
727.331	183.172
730.223	160.327
733.116	94.1455
736.009	73.6816
738.901	79.6494
741.794	77.5644
744.687	56.8193
747.58	41.355
750.472	69.5239
753.365	32.9395
756.258	8.86035
759.15	22.7983
762.043	61.1435
764.936	13.1279
767.828	22.7754
770.721	40.9517
773.614	19.21
776.506	76.0088
779.399	45.624
782.292	89.2261
785.185	102.876
788.077	153.643
790.97	110.936
793.863	155.233
796.755	170.944
799.648	209.649
802.541	220.319
805.433	183.006
808.326	243.584
811.219	219.017
814.112	230.105
817.004	356.55
819.897	305.67
822.79	347.671
825.682	361.448
828.575	294.302
831.468	431.485
834.361	414.041
837.253	346.159
840.146	357.256
843.039	483.314
845.931	398.009
848.824	417.097
851.717	290.143
854.609	268.329
857.502	305.803
860.395	251.76
863.288	275.946
866.18	179.29
869.073	211.102
871.966	171.878
874.858	126.957
877.751	166.501
880.644	109.352
883.536	93.4658
886.429	29.1997
889.322	59.0566
892.215	64.5659
895.107	23.7246
898	71.6416
900.893	88.4399
903.785	23.0288
906.678	12.6299
909.571	16.1392
912.463	22.8916
915.356	32.9273
918.249	62.0654
921.141	43.8369
924.034	75.8701
926.927	14.8735
929.82	18.2056
932.712	14.4517
935.605	74.2847
938.498	50.293
941.39	15.1758
944.283	40.5088
947.176	47.8047
950.068	63.2148
952.961	42.0928
955.854	105.004
958.747	73.4736
961.639	141.833
964.532	167.39
967.425	218.18
970.317	299.306
973.21	330.708
976.103	417.652
978.995	449.455
981.888	549.284
984.781	503.763
987.674	490.37
990.566	518.519
993.459	432.391
996.352	435.358
999.244	403.968
1002.14	316.746
1005.03	336.571
1007.92	316.279
1010.82	286.584
1013.71	281.642
1016.6	297.803
1019.49	166.79
1022.39	164.596
1025.28	146.269
1028.17	165.661
1031.06	108.542
1033.96	78.3188
1036.85	73.6748
1039.74	62.9609
1042.63	74.5879
1045.53	50.1899
1048.42	46.8716
1051.31	3.89746
1054.21	0.785156
1057.1	4.74268
1059.99	59.5093
1062.88	12.5601
1065.78	65.6123
1068.67	42.6919
1071.56	47.1123
1074.45	24.7148
1077.35	14.52
1080.24	76.2319
1083.13	45.0107
1086.03	111.815
1088.92	84.2334
1091.81	80.7461
1094.7	17.9546
1097.6	76.9273
1100.49	77.9756
1103.38	49.2036
1106.27	95.4995
1109.17	46.0967
1112.06	181.892
1114.95	64.5972
1117.85	125.436
1120.74	163.618
1123.63	170.675
1126.52	171.922
1129.42	160.079
1132.31	154.119
1135.2	114.551
1138.09	173.094
1140.99	151.235
1143.88	136.874
1146.77	121.573
1149.66	145.369
1152.56	169.298
1155.45	57.8096
1158.34	114.511
1161.24	129.27
1164.13	86.2495
1167.02	43.0591
1169.91	71.8203
1172.81	53.061
1175.7	17.0483
1178.59	126.221
1181.48	36.1172
1184.38	18.686
1187.27	5.21484
1190.16	38.9443
1193.06	49.9233
1195.95	5.32422
1198.84	55.4453
1201.73	107.331
1204.63	95.2353
1207.52	69.8682
1210.41	87.1133
1213.3	105.408
1216.2	64.4394
1219.09	51.8081
1221.98	77.7549
1224.88	43.2632
1227.77	9.23633
