Measurement: Raman, 532 nm, unoriented, Raman Data Processed
Mineral: Asbecasite
Rruff sample: R060719
Ideal chemistry: Ca_3_Ti^4+^As^3+^_6_Be_2_Si_2_O_20_
Locality: Binntal, Wallis, Switzerland
Source: Bob Jenkins
Description: Brownish-yellow transparent fragments associated with dark green chamosite
Raman shift (cm-1)	intensity
113.809	0
117.184	1847.81
120.559	2698.33
123.934	2841.87
127.308	3738.71
130.683	1023.58
134.058	1064.49
137.433	1675.19
140.808	2014.44
144.182	1709.64
147.557	2204.79
150.932	3947.15
154.307	7146.74
157.682	12449.4
161.057	7285.97
164.431	6900.05
167.806	4501.59
171.181	3915.27
174.556	5985.89
177.931	10777.8
181.305	17830.5
184.68	27220.1
188.055	11138.4
191.43	4807.44
194.805	5028.11
198.18	8229.6
201.554	13455.1
204.929	18960.4
208.304	10140.6
211.679	4255.31
215.054	2476.51
218.428	1636.33
221.803	1097.32
225.178	487.213
228.553	116.48
231.928	360.401
235.303	624.162
238.677	981.495
242.052	1031.74
245.427	866.523
248.802	533.395
252.176	125.979
255.551	310.637
258.926	704.46
262.301	739.568
265.676	491.13
269.051	272.221
272.425	383.436
275.8	1211.53
279.175	2520.11
282.55	4294.43
285.925	5430
289.299	5270.89
292.674	5995.18
296.049	6730.62
299.424	7693.74
302.799	9571.96
306.174	12631.2
309.548	17058.8
312.923	22810.6
316.298	30429.8
319.673	42705.4
323.048	62113.2
326.422	88028.8
329.797	115486
333.172	131397
336.547	116244
339.922	80044.8
343.297	51834.6
346.671	31423
350.046	16792.9
353.421	9407.14
356.796	6582.66
360.171	6147.48
363.545	6458.03
366.92	4999.75
370.295	4400.38
373.67	4096.47
377.045	5747.94
380.419	9460.05
383.794	13886.5
387.169	17393.7
390.544	16502.2
393.919	12912.9
397.293	10869
400.668	11657.8
404.043	16369.7
407.418	24469.5
410.793	32588.2
414.168	34819.4
417.542	28327.4
420.917	17980.8
424.292	10884.5
427.667	7680.73
431.042	6284.41
434.417	6190.56
437.791	5925.32
441.166	4550.25
444.541	3073.34
447.916	2930.44
451.29	3472.22
454.665	3289.69
458.04	2450
461.415	2768
464.79	4611.88
468.165	6290.19
471.539	6752.26
474.914	7906.32
478.289	9176.23
481.664	9335.5
485.039	10384.9
488.414	13575.3
491.788	16402.4
495.163	17897.2
498.538	18386.5
501.913	15141.5
505.288	11147
508.662	9439.8
512.037	9485.01
515.412	10844.4
518.787	12439.5
522.162	13462.4
525.536	12383
528.911	9421.54
532.286	6950
535.661	5340.5
539.036	4093.36
542.411	3022.78
545.785	1659.09
549.16	512.832
552.535	204.229
555.91	458.32
559.284	20.084
562.659	833.951
566.034	1119.79
569.409	723.625
572.784	46.889
576.159	217.387
579.533	51.68
582.908	341.932
586.283	605.314
589.658	697.764
593.033	890.432
596.407	1302.65
599.782	2091.06
603.157	2806
606.532	3410.65
609.907	3800.47
613.282	4119.77
616.656	4260.26
620.031	4468.77
623.406	5445.78
626.781	6974.3
630.156	8995.26
633.531	11123.4
636.905	13192.8
640.28	14904.2
643.655	16559.1
647.03	18881.6
650.404	21318.6
653.779	23464.7
657.154	25565.1
660.529	27565.8
663.904	29037.3
667.279	30836.8
670.653	33333.9
674.028	35959
677.403	39344.3
680.778	42757.7
684.153	44673.8
687.528	42761.4
690.902	38765.5
694.277	34347.8
697.652	29971.1
701.027	25539.4
704.402	21567.7
707.776	18074.3
711.151	15034
714.526	12650.2
717.901	10778.8
721.276	8943.94
724.651	7410.53
728.025	6366.32
731.4	5703.06
734.775	5759.94
738.15	6416.55
741.524	7385.3
744.899	8742.56
748.274	10322
751.649	11887.2
755.024	14089.3
758.399	16453.3
761.773	17821.8
765.148	18818
768.523	19654.2
771.898	20028.3
775.273	19770.3
778.648	19464.4
782.022	18903.6
785.397	18018.5
788.772	16769.6
792.147	15644
795.521	14312.8
798.896	12902.8
802.271	11379.1
805.646	9718.75
809.021	8071.27
812.396	6700.16
815.77	5428.64
819.145	4244.56
822.52	3399.19
825.895	3108.72
829.27	2785.44
832.644	1807.53
836.019	733.363
839.394	58.836
842.769	362.263
846.144	458.024
849.519	615.232
852.893	626.111
856.268	752.965
859.643	828.916
863.018	784.03
866.393	698.308
869.767	850.933
873.142	746.47
876.517	756.687
879.892	664.758
883.267	697.459
886.641	659.721
890.016	555.633
893.391	471.578
896.766	316.427
900.141	261.176
903.516	257.073
906.89	136.229
910.265	134.488
913.64	37.99
917.015	153.048
920.39	168.715
923.764	105.606
927.139	83.443
930.514	104.029
933.889	63.388
937.264	17.914
940.638	156.834
944.013	223.819
947.388	293.655
950.763	166.309
954.138	100.024
957.513	60.685
960.887	158.736
964.262	107.767
967.637	131.252
971.012	170.6
974.387	207.045
977.761	147.968
981.136	84.728
984.511	95.964
987.886	162.909
991.261	69.533
994.635	93.293
998.01	17.411
1001.38	159.116
1004.76	205.598
1008.13	274.931
1011.51	408.385
1014.88	366.972
1018.26	394.819
1021.63	286.06
1025.01	231.476
1028.38	189.6
1031.76	78.461
1035.13	53.278
1038.51	3.572
1041.88	32.946
1045.26	61.253
1048.63	113.022
1052.01	97.993
1055.38	81.142
1058.76	1.444
1062.13	40.043
1065.51	77.965
1068.88	103.114
1072.26	18.794
1075.63	60.033
1079.01	80.808
1082.38	128.952
1085.76	61.758
1089.13	3.844
1092.51	17.404
1095.88	53.521
1099.26	23.687
1102.63	30.332
1106	60.456
1109.38	3.773
1112.75	29.214
1116.13	31.231
1119.5	88.367
1122.88	169.788
1126.25	275.051
1129.63	524.485
1133	893.276
1136.38	1038.44
1139.75	911.902
1143.13	620.901
1146.5	422.647
1149.88	231.109
1153.25	132.493
1156.63	106.958
1160	171.416
1163.38	80.047
1166.75	104.131
1170.13	51.642
1173.5	64.443
1176.88	121.577
1180.25	22.743
1183.62	74.385
1187	52.647
1190.38	44.344
1193.75	5.926
1197.12	11.891
1200.5	34.998
1203.87	1.429
1207.25	1.675
1210.62	86.258
1214	100.494
1217.37	8.662
1220.75	50.25
1224.12	56.51
1227.5	60.343
1230.87	115.565
1234.25	141.926
1237.62	143.877
1241	142.634
1244.37	164.33
1247.75	132.067
1251.12	130.233
1254.5	106.562
1257.87	90.216
1261.25	134.515
1264.62	21.386
1267.99	7.764
1271.37	77.675
1274.74	58.581
1278.12	1.972
1281.49	54.208
1284.87	21.982
1288.24	71.676
1291.62	78.293
1294.99	31.351
