Measurement: Raman, 532 nm, unoriented, Raman Data Processed
Mineral: Ashburtonite
Rruff sample: R110003
Ideal chemistry: HPb_4_Cu_4_(Si_4_O_12_)(HCO_3_)_4_(OH)_4_Cl
Locality: Tonopah-Belmont mine, Maricopa County, Arizona, USA
Source: Bob Jenkins
Description: Blue prismatic crystals associated with calcite
Raman shift (cm-1)	intensity
166.728	0
169.62	4.49985
172.513	12.4792
175.406	16.9474
178.298	24.9449
181.191	20.7158
184.084	18.8723
186.976	11.8268
189.869	8.2148
192.762	4.27385
195.655	5.1371
198.547	0.111633
201.44	1.56517
204.333	0.070511
207.225	0.238846
210.118	5.00598
213.011	6.04823
215.904	3.34296
218.796	1.64668
221.689	5.24826
224.582	4.05379
227.474	2.43121
230.367	5.04567
233.26	4.34769
236.152	1.82947
239.045	1.80685
241.938	1.0303
244.831	0.784027
247.723	0.711487
250.616	1.73888
253.509	1.03201
256.401	1.05808
259.294	4.13289
262.187	3.89825
265.079	2.64325
267.972	3.09457
270.865	5.15742
273.758	7.8152
276.65	11.0117
279.543	6.69663
282.436	11.0778
285.328	11.334
288.221	8.89835
291.114	7.31801
294.007	5.7701
296.899	2.24109
299.792	1.47298
302.685	1.47037
305.577	2.25217
308.47	1.6301
311.363	0.963318
314.255	0.383194
317.148	1.29997
320.041	0.049088
322.933	2.48042
325.826	1.99795
328.719	0.78508
331.612	6.55173
334.504	2.8941
337.397	2.69249
340.29	4.4066
343.183	4.01328
346.075	8.17888
348.968	15.1021
351.861	14.3455
354.753	15.6956
357.646	20.1587
360.539	19.3858
363.431	25.3818
366.324	24.0051
369.217	21.8406
372.11	15.9685
375.002	14.0341
377.895	11.6757
380.788	8.12105
383.68	8.19061
386.573	7.09747
389.466	9.87364
392.358	9.94383
395.251	10.1187
398.144	9.91447
401.036	11.126
403.929	16.3965
406.822	18.4784
409.715	21.2763
412.607	26.1326
415.5	24.3297
418.393	16.9259
421.285	10.8363
424.178	6.51958
427.071	4.65951
429.964	6.33493
432.856	2.0453
435.749	0.972473
438.642	3.5556
441.534	3.47881
444.427	2.12235
447.32	0.70079
450.212	1.12878
453.105	0.555396
455.998	0.758743
458.891	0.749969
461.783	1.72778
464.676	2.51604
467.569	1.74785
470.461	3.71037
473.354	0.0353047
476.247	3.40285
479.139	0.122253
482.032	3.05257
484.925	0.962875
487.818	1.25223
490.71	1.5863
493.603	0.166565
496.496	2.13931
499.388	0.362228
502.281	1.32579
505.174	0.850128
508.067	3.13168
510.959	3.35663
513.852	4.35107
516.745	4.93265
519.637	3.12843
522.53	4.97385
525.423	6.30736
528.316	6.84064
531.208	5.01456
534.101	2.40453
536.994	1.31511
539.886	2.75604
542.779	0.914719
545.672	2.14436
548.564	0.432693
551.457	0.938843
554.35	1.24799
557.242	0.808121
560.135	1.20976
563.028	1.61824
565.921	3.40993
568.813	0.865509
571.706	2.8024
574.599	3.32619
577.491	2.45671
580.384	4.65454
583.277	2.12073
586.17	2.6908
589.062	3.71901
591.955	3.8986
594.848	4.56093
597.74	2.54274
600.633	2.48229
603.526	1.20291
606.418	0.312378
609.311	2.21562
612.204	1.53217
615.097	2.6051
617.989	1.87894
620.882	2.35539
623.775	0.286804
626.667	1.13816
629.56	2.14757
632.453	2.88881
635.346	1.03867
638.238	2.87233
641.131	0.283432
644.024	2.44504
646.916	3.03543
649.809	2.75362
652.702	0.976089
655.594	3.19119
658.487	1.07811
661.38	0.987549
664.273	0.25589
667.165	3.74773
670.058	5.68652
672.951	2.5323
675.843	4.0163
678.736	0.278503
681.629	4.52951
684.521	2.4185
687.414	5.76581
690.307	5.09413
693.199	3.56706
696.092	7.20767
698.985	5.80379
701.878	3.24165
704.77	5.164
707.663	7.45804
710.556	10.4287
713.448	12.2069
716.341	15.3048
719.234	7.87296
722.127	4.18141
725.019	1.7016
727.912	3.92369
730.805	2.70009
733.697	2.85963
736.59	0.885925
739.483	1.59183
742.375	5.11798
745.268	1.07645
748.161	2.00339
751.054	1.6682
753.946	1.39569
756.839	0.057617
759.732	0.112564
762.625	1.20636
765.517	3.5558
768.41	4.24936
771.303	2.40318
774.195	1.48459
777.088	3.02745
779.981	2.18898
782.873	2.84651
785.766	3.28943
788.659	2.23431
791.552	2.30043
794.444	0.702286
797.337	0.462799
800.23	0.461884
803.122	5.86906
806.015	3.61653
808.908	3.20723
811.8	1.87175
814.693	4.03455
817.586	1.87766
820.479	3.67983
823.371	0.9758
826.264	5.05046
829.157	2.52484
832.049	2.24503
834.942	3.11687
837.835	4.96626
840.727	2.29141
843.62	2.91171
846.513	2.11714
849.405	2.65274
852.298	3.12914
855.191	3.88031
858.084	3.8277
860.976	2.79153
863.869	4.05441
866.762	3.01056
869.654	3.86377
872.547	4.01237
875.44	4.08453
878.333	4.15991
881.225	3.38113
884.118	2.75264
887.011	3.60142
889.903	4.9386
892.796	1.00842
895.689	1.68776
898.582	0.575409
901.474	0.917496
904.367	2.48814
907.26	0.284561
910.152	0.146072
913.045	0.26918
915.938	0.933838
918.83	2.50137
921.723	1.44353
924.616	2.2403
927.509	3.16753
930.401	2.90454
933.294	4.56699
936.187	3.94218
939.079	5.79509
941.972	4.92729
944.865	4.58205
947.757	2.64181
950.65	2.56673
953.543	2.13031
956.436	2.94011
959.328	5.11458
962.221	6.51288
965.114	5.24858
968.006	6.41777
970.899	7.15587
973.792	5.63171
976.684	2.30089
979.577	3.19615
982.47	1.87546
985.362	1.06332
988.255	1.35902
991.148	2.12401
994.041	0.365906
996.933	2.30821
999.826	1.26759
1002.72	1.67071
1005.61	0.820679
1008.5	2.32419
1011.4	1.24368
1014.29	1.61641
1017.18	6.1194
1020.08	5.72627
1022.97	4.90243
1025.86	10.6709
1028.75	22.9865
1031.65	51.7764
1034.54	98.7676
1037.43	190.157
1040.32	305.684
1043.22	311.234
1046.11	151.945
1049	87.8836
1051.89	59.4451
1054.79	55.2664
1057.68	21.1874
1060.57	5.9173
1063.47	3.27077
1066.36	1.97278
1069.25	1.41934
1072.14	2.31471
1075.04	0.089523
1077.93	1.5226
1080.82	3.87108
1083.71	1.75577
1086.61	0.275589
1089.5	2.67979
1092.39	1.34259
1095.29	2.15327
1098.18	1.56239
1101.07	0.477158
1103.96	0.943405
1106.86	0.222183
1109.75	0.461929
1112.64	2.5106
1115.53	0.701355
1118.43	0.336624
1121.32	3.57488
1124.21	0.716232
1127.11	0.491638
1130	0.923431
1132.89	4.21707
1135.78	1.53748
1138.68	2.74146
1141.57	4.01521
1144.46	2.45552
1147.35	2.21863
1150.25	3.28833
1153.14	2.23213
1156.03	4.49052
1158.92	3.94991
1161.82	5.00645
1164.71	4.10037
1167.6	0.61174
1170.5	1.51833
1173.39	2.08121
1176.28	1.89278
1179.17	2.95563
1182.07	1.93918
1184.96	1.67004
1187.85	1.38129
1190.74	4.28712
1193.64	2.25887
1196.53	3.6057
1199.42	5.41069
1202.32	3.7346
1205.21	3.51965
1208.1	3.78445
1210.99	1.72295
1213.89	3.62398
1216.78	2.99184
1219.67	3.38162
1222.56	3.81407
1225.46	1.61664
1228.35	1.97212
1231.24	2.78471
1234.13	3.68634
1237.03	1.41338
1239.92	1.25327
1242.81	1.52025
1245.71	2.18346
1248.6	0.354828
1251.49	4.1702
1254.38	4.98526
1257.28	0.488022
1260.17	1.41924
1263.06	1.58029
1265.95	2.72667
1268.85	2.36449
1271.74	3.94197
1274.63	0.236053
1277.53	3.04927
1280.42	1.6915
1283.31	2.91847
1286.2	1.02824
1289.1	0.778778
1291.99	1.6203
1294.88	3.0566
1297.78	1.91727
1300.67	0.255676
