Measurement: Raman, 532 nm, unoriented, Raman Data Processed
Mineral: Ashcroftine-(Y)
Rruff sample: R110189
Ideal chemistry: K_5_Na_5_Y_12_Si_28_O_70_(OH)_2_(CO_3_)_8_8H_2_O
Locality: Poudrette quarry, Mont Saint-Hilaire, Quebec, Canada
Source: Donald Doell
Description: Aggregate of pink fibrous crystals
Raman shift (cm-1)	intensity
239.948	0
242.841	6.07282
245.734	12.5644
248.626	22.863
251.519	27.2891
254.412	31.6279
257.305	35.0235
260.197	35.4569
263.09	30.9289
265.983	30.7439
268.875	32.1415
271.768	33.7577
274.661	28.3504
277.553	22.8592
280.446	17.3357
283.339	12.2646
286.232	8.49075
289.124	5.26471
292.017	3.50244
294.91	0.376923
297.802	2.92093
300.695	1.07556
303.588	0.414551
306.481	2.91611
309.373	8.98367
312.266	12.4512
315.159	21.4752
318.051	31.8261
320.944	39.994
323.837	59.8473
326.729	83.1788
329.622	109.12
332.515	129.571
335.408	141.47
338.3	152.676
341.193	158.922
344.086	161.149
346.978	157.284
349.871	147.63
352.764	135.17
355.656	120.622
358.549	103.03
361.442	90.6847
364.334	72.8798
367.227	60.1479
370.12	47.2167
373.012	32.1248
375.905	16.4239
378.798	1.21368
381.691	2.10889
384.583	9.55286
387.476	9.71356
390.369	6.29102
393.261	4.03894
396.154	14.4473
399.047	24.3487
401.94	34.3329
404.832	46.2601
407.725	58.7513
410.618	68.31
413.51	78.3991
416.403	84.7869
419.296	84.7546
422.188	81.2427
425.081	75.4052
427.974	70.2008
430.866	57.9514
433.759	47.5596
436.652	38.7856
439.545	33.1327
442.437	35.9443
445.33	37.4712
448.223	47.4281
451.115	56.9221
454.008	62.4274
456.901	65.9124
459.793	63.7722
462.686	64.0209
465.579	62.3171
468.472	63.0761
471.364	64.4211
474.257	67.4307
477.15	75.1248
480.042	84.2321
482.935	93.2515
485.828	94.3239
488.721	88.5768
491.613	77.7097
494.506	66.0167
497.399	58.896
500.291	54.3188
503.184	47.8111
506.077	47.6752
508.969	52.9758
511.862	62.4542
514.755	74.475
517.648	78.4878
520.54	82.8496
523.433	85.5409
526.326	81.3464
529.218	77.3782
532.111	69.6891
535.004	62.535
537.896	50.6967
540.789	47.4885
543.682	37.1885
546.575	31.0519
549.467	22.671
552.36	16.1511
555.253	11.6753
558.145	2.84283
561.038	0.944641
563.931	2.05383
566.823	7.12146
569.716	5.81604
572.609	9.87903
575.502	9.29804
578.394	4.09857
581.287	1.65826
584.18	6.26105
587.072	16.5042
589.965	25.1974
592.858	37.7083
595.75	46.6622
598.643	53.2479
601.536	55.788
604.428	57.1334
607.321	61.8974
610.214	68.4443
613.107	75.5385
615.999	82.603
618.892	91.4302
621.785	103.895
624.677	123.591
627.57	151.344
630.463	201.999
633.356	264
636.248	335.709
639.141	391.146
642.034	374.309
644.926	285.965
647.819	193.136
650.712	132.163
653.604	101.679
656.497	84.4533
659.39	79.856
662.283	75.3921
665.175	70.947
668.068	69.3695
670.961	68.8538
673.853	60.5902
676.746	51.9106
679.639	42.9801
682.531	37.5576
685.424	32.4669
688.317	22.5396
691.21	16.5831
694.102	13.7134
696.995	18.5518
699.888	18.3029
702.78	14.8042
705.673	22.5453
708.566	23.2985
711.458	24.5916
714.351	21.7485
717.244	25.2454
720.136	30.6881
723.029	34.9722
725.922	35.817
728.815	35.4023
731.707	30.9533
734.6	25.4087
737.493	15.1355
740.385	5.45752
743.278	0.389709
746.171	2.28375
749.063	2.94623
751.956	2.95502
754.849	3.81311
757.742	1.44116
760.634	0.123291
763.527	7.11841
766.42	13.6128
769.312	23.0465
772.205	32.3543
775.098	33.3656
777.99	27.6455
780.883	24.8868
783.776	17.0438
786.669	16.6081
789.561	16.5438
792.454	19.6495
795.347	19.3914
798.239	18.9818
801.132	18.4602
804.025	16.8882
806.918	19.4231
809.81	16.2457
812.703	15.409
815.596	13.5034
818.488	13.3015
821.381	13.1666
824.274	11.1293
827.166	10.4465
830.059	8.29157
832.952	7.61822
835.845	8.80035
838.737	4.31287
841.63	2.87237
844.523	2.73248
847.415	0.046936
850.308	1.93213
853.201	0.619507
856.093	4.78284
858.986	1.34839
861.879	2.71021
864.771	4.01556
867.664	2.27014
870.557	3.45691
873.45	6.27332
876.342	7.25775
879.235	5.26489
882.128	6.1839
885.02	11.3393
887.913	12.0859
890.806	16.1057
893.698	11.302
896.591	8.80426
899.484	9.22882
902.377	10.1575
905.269	11.1273
908.162	9.43854
911.055	8.25165
913.947	6.13965
916.84	7.10522
919.733	3.30896
922.625	3.38068
925.518	5.42194
928.411	5.16937
931.304	0.219543
934.196	2.24005
937.089	2.51025
939.982	2.31085
942.875	0.77002
945.767	7.06537
948.66	9.94128
951.553	9.45813
954.445	13.7336
957.338	11.2361
960.231	8.24542
963.123	7.95636
966.016	11.4229
968.909	15.9415
971.802	14.5009
974.694	19.2129
977.587	18.3409
980.48	21.7336
983.372	21.3628
986.265	19.6393
989.158	19.759
992.05	22.3926
994.943	22.3153
997.836	18.9496
1000.73	19.9142
1003.62	20.7656
1006.51	23.6173
1009.41	26.5411
1012.3	28.0093
1015.19	30.8569
1018.09	30.8413
1020.98	33.6365
1023.87	33.2929
1026.76	21.6024
1029.66	14.7412
1032.55	9.91199
1035.44	8.34387
1038.33	4.3374
1041.23	1.47839
1044.12	2.57666
1047.01	1.4375
1049.9	2.97693
1052.8	4.14636
1055.69	12.3793
1058.58	33.9636
1061.47	77.7498
1064.37	176.573
1067.26	331.02
1070.15	470.765
1073.05	466.332
1075.94	326.902
1078.83	159.54
1081.72	76.1672
1084.62	56.2853
1087.51	53.1307
1090.4	64.0703
1093.3	73.0582
1096.19	87.4983
1099.08	96.1908
1101.97	96.3892
1104.87	89.1799
1107.76	78.4265
1110.65	66.4015
1113.54	51.6791
1116.44	36.5193
1119.33	27.1023
1122.22	17.5315
1125.12	10.2498
1128.01	11.2516
1130.9	3.85486
1133.79	6.46289
1136.68	5.43298
1139.58	5.46948
1142.47	6.3346
1145.36	4.62463
1148.26	3.91223
1151.15	4.65405
1154.04	0.680176
1156.93	2.84534
1159.83	2.5105
1162.72	1.36975
1165.61	3.19885
1168.51	1.77466
1171.4	0.87915
1174.29	2.24109
1177.18	2.89197
1180.08	3.02173
1182.97	5.65161
1185.86	10.9586
1188.75	8.23071
1191.65	6.99316
1194.54	6.86499
1197.43	8.30908
1200.33	7.20044
1203.22	7.22815
1206.11	13.7655
1209	10.759
1211.9	16.4238
1214.79	14.1051
1217.68	11.5614
1220.57	6.85303
1223.47	7.59644
1226.36	9.41589
1229.25	6.44946
1232.14	5.53479
1235.04	0.973511
1237.93	1.56897
1240.82	2.60803
1243.71	9.28992
1246.61	5.01086
1249.5	0.012573
1252.39	3.81641
1255.29	5.46106
1258.18	6.04529
1261.07	8.64477
1263.96	12.0416
1266.86	9.49426
1269.75	14.3412
1272.64	8.85669
1275.54	8.20166
1278.43	9.68579
1281.32	4.20911
1284.21	4.81592
1287.11	2.96289
1290	3.2544
1292.89	3.96826
1295.78	1.35986
1298.68	7.82715
1301.57	0.782837
