Measurement: Raman, 780 nm, unoriented, Raman Data Processed
Mineral: Asisite
Rruff sample: R070635
Ideal chemistry: Pb_7_SiO_8_Cl_2_
Locality: Kombat mine, Kombat, Grootfontein District, Otjozondjupa Region, Namibia
Source: Ausrox/Rob Sielicki
Description: Reddish-orange crystals with pronounced cleavage
Measured chemistry: Pb_7.00_(Si_0.55_V^5+^_0.26_As^5+^_0.10_[box]_0.09_)_Î£=1_O_8_Cl_2.00_
Raman shift (cm-1)	intensity
141.487	0
144.38	1137.58
147.272	449.582
150.165	299.15
153.058	187.072
155.951	47.6855
158.843	54.1875
161.736	265.953
164.629	683.152
167.521	1177.98
170.414	2109.78
173.307	3055.1
176.199	3520.47
179.092	3770.56
181.985	3529.51
184.877	3106.54
187.77	2531.46
190.663	1704.03
193.556	839.214
196.448	132.148
199.341	478.722
202.234	255.015
205.126	76.9619
208.019	3.02539
210.912	94.5752
213.804	113.341
216.697	170.933
219.59	364.905
222.483	401.566
225.375	515.299
228.268	752.376
231.161	1020.66
234.053	1159.46
236.946	1417.05
239.839	1507.98
242.732	1628.97
245.624	1762.36
248.517	1778.73
251.41	1811.9
254.302	1847.88
257.195	1775.31
260.088	1675.13
262.98	1535.18
265.873	1606.93
268.766	1589.1
271.659	1689.96
274.551	1704.86
277.444	1726.52
280.337	1773.74
283.229	1836.5
286.122	2037.52
289.015	2248.93
291.907	2489.22
294.8	2675.93
297.693	2862.31
300.586	2911.36
303.478	3305.13
306.371	3423.24
309.264	3470.52
312.156	3504.78
315.049	3553.68
317.942	3521.69
320.834	3632.81
323.727	3525.4
326.62	3533.35
329.512	3509.89
332.405	3426.49
335.298	3220.41
338.191	3046.17
341.083	2747.83
343.976	2501.63
346.869	2230.18
349.761	1877.19
352.654	1644.36
355.547	1401.18
358.44	1141.18
361.332	994.539
364.225	829.98
367.118	755.505
370.01	689.242
372.903	654.628
375.796	525.173
378.688	338.305
381.581	145.148
384.474	23.208
387.366	87.5811
390.259	176.932
393.152	156.571
396.045	131.082
398.937	69.1279
401.83	21.3311
404.723	22.0088
407.615	76.6025
410.508	113.874
413.401	46.2441
416.293	9.04297
419.186	60.3096
422.079	40.3345
424.972	53.1562
427.864	104.731
430.757	131.137
433.65	159.865
436.542	194.028
439.435	370.496
442.328	366.871
445.221	375.178
448.113	381.42
451.006	412.122
453.899	425.51
456.791	450.683
459.684	574.358
462.577	788.619
465.469	865.376
468.362	1068.66
471.255	1303.91
474.148	1419.58
477.04	1472.58
479.933	1560.6
482.826	1419.32
485.718	1220.56
488.611	962.99
491.504	759.192
494.397	555.837
497.289	410.194
500.182	413.506
503.075	330.318
505.967	237.039
508.86	233.673
511.753	95.4722
514.645	68.1196
517.538	65.5659
520.431	4.22412
523.323	48.6221
526.216	30.0039
529.109	11.8223
532.002	22.7744
534.894	54.8423
537.787	28.5933
540.68	16.7402
543.572	2.68457
546.465	77.3047
549.358	62.1177
552.25	113.12
555.143	128.95
558.036	66.3481
560.929	104.186
563.821	115.277
566.714	89.8931
569.607	114.406
572.499	95.9961
575.392	190.465
578.285	154.319
581.178	136.54
584.07	170.214
586.963	158.957
589.856	159.574
592.748	188.284
595.641	167.041
598.534	125.363
601.426	122.591
604.319	142.884
607.212	127.892
610.105	106.679
612.997	113.128
615.89	106.379
618.783	98.0356
621.675	71.3267
624.568	14.8852
627.461	53.1079
630.353	48.2964
633.246	18.2544
636.139	1.98486
639.032	46.8418
641.924	6.37207
644.817	37.1934
647.71	56.3721
650.602	17.3003
653.495	12.0391
656.388	14.1812
659.28	54.5259
662.173	36.3945
665.066	28.7959
667.958	10.3701
670.851	8.29883
673.744	37.6309
676.637	98.3521
679.529	172.951
682.422	153.266
685.315	148.233
688.207	224.197
691.1	335.47
693.993	488.291
696.885	638.484
699.778	929.273
702.671	1394.43
705.564	2047.01
708.456	2914.47
711.349	4343.6
714.242	6318.78
717.134	8712.13
720.027	11379.5
722.92	13374.2
725.812	13602.8
728.705	11998.6
731.598	9391.9
734.491	6784.42
737.383	4717.88
740.276	3150.69
743.169	2234.27
746.061	1517.17
748.954	1094.72
751.847	790.9
754.74	613.253
757.632	384.124
760.525	217.598
763.418	134.648
766.31	58.1699
769.203	19.3784
772.096	82.5288
774.988	38.4263
777.881	8.78076
780.774	36.0962
783.667	92.7935
786.559	260.594
789.452	558.471
792.345	807.321
795.237	1183.81
798.13	1592.96
801.023	2138.47
803.915	2625.02
806.808	2834.2
809.701	2738.02
812.593	2333.77
815.486	1870.18
818.379	1503.52
821.272	1412.38
824.164	1615.93
827.057	1922.43
829.95	2604.84
832.842	3748.03
835.735	5192.02
838.628	6621.04
841.521	7176.76
844.413	6354.19
847.306	4770.48
850.199	3201.83
853.091	2152.39
855.984	1523.56
858.877	1021.93
861.769	669.578
864.662	430.474
867.555	256.684
870.448	224.517
873.34	132.067
876.233	60.6148
879.126	105.656
882.018	38.8608
884.911	26.3613
887.804	10.4243
890.697	37.979
893.589	2.5376
896.482	28.958
899.375	51.8037
902.267	8.48975
905.16	8.62256
908.053	3.77051
910.945	5.16943
913.838	37.126
916.731	7.92627
919.624	64.1143
922.516	32.9199
925.409	77.2368
928.302	41.2554
931.194	12.9297
934.087	87.7837
936.98	27.3965
939.872	43.6558
942.765	119.675
945.658	52.8525
948.551	101.575
951.443	80.2769
954.336	56.9248
957.229	121.337
960.121	67.9268
963.014	57.981
965.907	92.0015
968.799	105.75
971.692	113.519
974.585	130.563
977.477	122.008
980.37	165.045
983.263	167.127
986.156	256.545
989.048	175.862
991.941	119.779
994.834	52.3843
997.726	35.9692
1000.62	13.5215
1003.51	46.0078
1006.4	32.4795
1009.3	22.854
1012.19	8.72021
1015.08	52.0845
1017.98	57.0835
1020.87	42.5625
1023.76	68.5049
1026.65	75.6572
1029.55	67.6323
1032.44	71.5
1035.33	26.2163
1038.22	23.6157
1041.12	10.5727
1044.01	19.5059
1046.9	60.2437
1049.8	87.1641
1052.69	64.0205
1055.58	71.959
1058.47	66.6567
1061.37	81.3076
1064.26	58.2661
1067.15	45.9228
1070.04	62.6899
1072.94	48.2539
1075.83	6.35791
1078.72	37.3218
1081.62	143.125
1084.51	148.339
1087.4	111.772
1090.29	64.5542
1093.19	26.668
1096.08	67.042
1098.97	31.1733
1101.86	51.2822
1104.76	6.22217
1107.65	33.9829
1110.54	23.2998
1113.43	14.8655
1116.33	13.3777
1119.22	30.5193
1122.11	5.62817
1125.01	11.8032
1127.9	34.3857
1130.79	15.4668
1133.68	14.3599
1136.58	5.52466
1139.47	44.2659
1142.36	25.6946
1145.25	71.1362
1148.15	46.8613
1151.04	80.033
1153.93	44.449
1156.83	68.3196
1159.72	30.4956
1162.61	30.1116
1165.5	46.2439
1168.4	62.1152
1171.29	37.6255
1174.18	50.5991
1177.07	62.1172
1179.97	48.1548
1182.86	28.8833
1185.75	50.8911
1188.64	54.9119
1191.54	57.7043
1194.43	48.512
1197.32	80.1445
1200.21	77.4707
1203.11	47.53
1206	29.6829
1208.89	17.6545
1211.79	62.053
1214.68	37.7334
1217.57	41.3376
1220.46	54.1658
1223.36	47.4092
1226.25	73.9028
1229.14	21.5471
1232.04	54.9697
1234.93	12.5398
1237.82	47.3408
1240.71	42.906
1243.61	37.831
1246.5	43.7361
1249.39	55.7839
1252.28	27.1699
1255.18	49.2678
1258.07	48.355
1260.96	51.9316
1263.86	27.3992
1266.75	21.7712
1269.64	34.6748
