Measurement: Raman, 532 nm, unoriented, Raman Data Processed
Mineral: Asisite
Rruff sample: R070635
Ideal chemistry: Pb_7_SiO_8_Cl_2_
Locality: Kombat mine, Kombat, Grootfontein District, Otjozondjupa Region, Namibia
Source: Ausrox/Rob Sielicki
Description: Reddish-orange crystals with pronounced cleavage
Measured chemistry: Pb_7.00_(Si_0.55_V^5+^_0.26_As^5+^_0.10_[box]_0.09_)_Î£=1_O_8_Cl_2.00_
Raman shift (cm-1)	intensity
121.574	0
124.948	702.77
128.323	2722.72
131.698	4891.66
135.073	6774.02
138.448	7074.13
141.823	5580.87
145.197	3496.46
148.572	2219.8
151.947	1361.84
155.322	937.562
158.697	625.969
162.071	659.875
165.446	668.273
168.821	605.779
172.196	598.201
175.571	508.481
178.946	386.636
182.32	213.025
185.695	129.002
189.07	5.75586
192.445	57.96
195.82	12.917
199.194	184.453
202.569	99.0176
205.944	71.5283
209.319	168.42
212.694	50.6484
216.069	0.030762
219.443	120.876
222.818	159.641
226.193	214.714
229.568	352.665
232.943	378.43
236.317	470.969
239.692	478.391
243.067	488.831
246.442	566.723
249.817	578.224
253.191	698.365
256.566	771.625
259.941	658.468
263.316	573.27
266.691	644.21
270.066	571.857
273.44	449.494
276.815	463.783
280.19	514.891
283.565	479.132
286.94	607.74
290.314	701.685
293.689	838.973
297.064	812.615
300.439	990.779
303.814	1009.56
307.188	1252.54
310.563	1310.64
313.938	1439.68
317.313	1644.92
320.688	1948.06
324.063	1995.02
327.437	2335.8
330.812	2690.65
334.187	3018.48
337.562	3204.18
340.937	3325.22
344.312	2856.65
347.686	2394.49
351.061	1799.7
354.436	1305.6
357.811	899.977
361.186	581.935
364.56	426.284
367.935	245.83
371.31	215.563
374.685	198.494
378.06	117.605
381.434	25.0142
384.809	69.9268
388.184	3.31445
391.559	16.7212
394.934	9.52002
398.308	38.4766
401.683	51.3193
405.058	15.4419
408.433	4.19385
411.808	29.252
415.183	75.7168
418.557	21.2529
421.932	23.624
425.307	4.53857
428.682	104.388
432.057	171.997
435.432	233.552
438.806	295.218
442.181	476.789
445.556	577.782
448.931	783.822
452.306	943.605
455.68	1172.87
459.055	1293.36
462.43	1579.37
465.805	1741.2
469.18	1800.66
472.555	1808.81
475.929	1804.92
479.304	1839.57
482.679	1717.58
486.054	1479.6
489.429	1227.66
492.803	975.748
496.178	784.913
499.553	606.606
502.928	568.907
506.303	301.551
509.678	334.685
513.052	141.121
516.427	85.3276
519.802	77.2358
523.177	16.0815
526.552	16.147
529.926	55.2114
533.301	16.6123
536.676	69.8188
540.051	64.5518
543.426	68.8413
546.8	9.04688
550.175	20.46
553.55	79.4497
556.925	50.5298
560.3	118.299
563.674	119.356
567.049	150.729
570.424	79.7544
573.799	119.986
577.174	165.885
580.549	142.176
583.923	189.277
587.298	239.778
590.673	287.162
594.048	268.148
597.423	281.412
600.798	274.634
604.172	163.576
607.547	167.612
610.922	131.26
614.297	139.379
617.672	111.871
621.046	34.5947
624.421	9.93408
627.796	4.4834
631.171	31.686
634.546	13.1851
637.92	68.4775
641.295	58.1787
644.67	68.3535
648.045	8.60352
651.42	38.2022
654.795	56.3023
658.169	101.893
661.544	225.114
664.919	335.744
668.294	484.485
671.669	597.467
675.043	734.638
678.418	966.455
681.793	1419.63
685.168	1759.3
688.543	2292.65
691.918	2941.25
695.292	3759.09
698.667	5014.9
702.042	6726.25
705.417	8877.42
708.792	11718.2
712.166	15067.3
715.541	18948.8
718.916	22773.5
722.291	26019.2
725.666	27607.5
729.04	26706.4
732.415	23614.2
735.79	19593.2
739.165	15413.3
742.54	11807.6
745.915	8965.28
749.289	6571.38
752.664	4710.6
756.039	3361.8
759.414	2362.41
762.789	1582.16
766.163	1166.72
769.538	512.002
772.913	216.699
776.288	8.81738
779.663	125.468
783.038	156.69
786.412	53.3525
789.787	80.9629
793.162	296.218
796.537	753.31
799.912	988.99
803.286	1594.2
806.661	2193.96
810.036	2813.08
813.411	3448.79
816.786	4210.87
820.16	5151.31
823.535	5991.49
826.91	7042.8
830.285	8528.05
833.66	9749.73
837.034	10313.8
840.409	9700.62
843.784	7996.95
847.159	5921.44
850.534	4195.25
853.909	2853.89
857.283	1974.88
860.658	1404.56
864.033	888.204
867.408	580.727
870.783	447.196
874.158	234.409
877.532	218.949
880.907	169.171
884.282	87.9756
887.657	23.2539
891.032	13.0347
894.406	11.9365
897.781	20.8486
901.156	38.1069
904.531	10.731
907.906	21.8027
911.28	13.085
914.655	94.2197
918.03	44.6289
921.405	101.461
924.78	89.1406
928.155	165.686
931.529	142.535
934.904	150.37
938.279	191.843
941.654	251.315
945.029	312.631
948.404	283.191
951.778	285.481
955.153	326.04
958.528	283.461
961.903	258.735
965.278	286.157
968.652	295.043
972.027	226.827
975.402	201.264
978.777	196.621
982.152	106.964
985.527	125.123
988.901	97.4375
992.276	70.2559
995.651	57.707
999.026	53.959
1002.4	41.4756
1005.77	0.278809
1009.15	30.9282
1012.52	0.137695
1015.9	46.4233
1019.27	18.166
1022.65	0.005859
1026.02	16.1968
1029.4	39.2983
1032.77	101.948
1036.15	66.6533
1039.52	59.2969
1042.9	119.647
1046.27	105.804
1049.65	152.954
1053.02	259.861
1056.4	247.713
1059.77	427.281
1063.15	396.01
1066.52	427.508
1069.9	481.779
1073.27	474.982
1076.65	492.696
1080.02	486.262
1083.4	419.009
1086.77	384.153
1090.15	303.318
1093.52	270.532
1096.89	206.258
1100.27	168.326
1103.64	139.513
1107.02	94.645
1110.39	88.3315
1113.77	84.5742
1117.14	85.561
1120.52	42.5742
1123.89	68.0918
1127.27	34.8799
1130.64	50.7681
1134.02	57.2827
1137.39	12.5991
1140.77	15.2124
1144.14	23.3081
1147.52	6.76709
1150.89	16.1113
1154.27	69.1235
1157.64	40.2417
1161.02	27.4067
1164.39	49.5757
1167.77	107.853
1171.14	154.495
1174.52	112.26
1177.89	241.494
1181.27	234.555
1184.64	135.86
1188.02	283.668
1191.39	280.828
1194.77	213.958
1198.14	245.543
1201.52	258.229
1204.89	270.188
1208.26	257.978
1211.64	248.776
1215.01	188.261
1218.39	196.371
1221.76	165.306
1225.14	153.253
1228.51	112.939
1231.89	95.1689
1235.26	52.2085
1238.64	107.958
1242.01	35.2607
1245.39	5.49414
1248.76	5.80859
1252.14	72.625
1255.51	26.2007
1258.89	2.52637
1262.26	47.2134
1265.64	67.3286
1269.01	38.478
1272.39	62.6538
1275.76	44.669
1279.13	4.28955
1282.51	63.7471
1285.88	16.0601
