Measurement: Raman, 514 nm, unoriented, Raman Data Processed
Mineral: Astrophyllite
Rruff sample: R060202
Ideal chemistry: K_2_NaFe^2+^_7_Ti_2_(Si_4_O_12_)_2_O_2_(OH)_4_F
Locality: Demix Quarry, Mont Saint-Hilaire, Rouville County, Quebec, Canada
Source: Royal Ontario Museum
Description: Aggregate of brown splintered wafers
Measured chemistry: (K_0.56_Na_0.38_Ca_0.06_)_3_(Fe^2+^_0.52_Mn_0.44_Mg_0.04_)_7_(Ti_0.75_Zr_0.15_Al_0.15_)_2_Si_8_O_24_(O_0.27_OH_0.73_)_7_
Raman shift (cm-1)	intensity
78.729	0
82.916	20.438
87.101	618.789
91.284	2123.67
95.465	3034.43
99.644	4085.95
103.82	4266.36
107.995	3181.3
112.168	1592.72
116.339	1037.16
120.508	787.96
124.675	663.305
128.84	988.6
133.003	1357.18
137.164	553.013
141.323	237.631
145.48	40.73
149.635	46.834
153.788	35.479
157.939	78.458
162.088	305.652
166.235	652.807
170.38	802
174.523	863.593
178.664	722.767
182.803	338.796
186.94	99.315
191.076	1.477
195.209	46.971
199.34	48.957
203.47	342.964
207.597	677.988
211.722	1049.95
215.846	1639.8
219.967	2481.48
224.087	3177.97
228.204	3854.28
232.32	4409.39
236.434	4888.28
240.545	5106.95
244.655	4688.23
248.763	3684.77
252.869	2636.03
256.973	2029.69
261.075	1580.08
265.175	1280.76
269.273	927.622
273.369	519.079
277.463	265.623
281.556	125.079
285.646	173.352
289.734	212.934
293.821	195.668
297.905	409.145
301.988	334.762
306.069	346.037
310.147	334.863
314.224	426.256
318.299	613.109
322.372	807.982
326.443	940.585
330.512	952.071
334.579	1088.28
338.645	1262.36
342.708	1593.06
346.769	1839.2
350.829	1764.17
354.887	1455.76
358.942	1392.18
362.996	1631.15
367.048	1647.23
371.098	1689.92
375.146	1595.19
379.192	1635.18
383.236	1613.9
387.279	1586.35
391.319	1409.53
395.358	1013.43
399.394	859.065
403.429	652.421
407.462	511.529
411.493	353.556
415.522	340.493
419.549	374.496
423.575	358.896
427.598	328.307
431.619	215.5
435.639	76.457
439.657	22.877
443.673	119.834
447.687	136.879
451.699	248.169
455.709	259.901
459.717	91.158
463.724	98.715
467.728	17.427
471.731	60.106
475.732	91.196
479.731	98.926
483.728	140.26
487.723	109.216
491.716	65.825
495.708	163.089
499.697	162.034
503.685	182.666
507.671	155.999
511.655	255.046
515.637	256.849
519.617	235.482
523.596	149.016
527.572	225.46
531.547	208.956
535.52	366.492
539.491	430.973
543.46	670.357
547.427	1070.55
551.393	1910.53
555.356	2753.28
559.318	3528.79
563.278	3496.07
567.236	2826.13
571.192	2227.97
575.147	1754.58
579.099	1463.97
583.05	1327.15
586.999	1334.12
590.946	1431.88
594.891	1637.85
598.834	1517.25
602.776	1439.44
606.715	1413.12
610.653	1393.87
614.589	1465.95
618.523	1544.82
622.456	1679.62
626.386	1878.43
630.315	2004.49
634.242	2487.48
638.167	3025.83
642.09	4075.53
646.012	5824.46
649.931	8725.19
653.849	12486.9
657.765	13788.6
661.679	10590.8
665.592	7143.22
669.502	5588.08
673.411	5088.55
677.318	5267.32
681.223	5872.23
685.126	6366.3
689.028	6983.21
692.927	7212.52
696.825	7679.69
700.721	7866.13
704.616	7782.73
708.508	7765.96
712.399	7869.23
716.288	7772.56
720.175	7555.96
724.06	6699.42
727.944	5413.95
731.825	4649.56
735.705	3958.24
739.584	3328.02
743.46	2954.88
747.334	2594.84
751.207	2263.9
755.078	2208.11
758.947	2031.7
762.815	1866.85
766.68	1751.64
770.544	1570.12
774.406	1464.31
778.267	1334.14
782.125	1315.44
785.982	1371.04
789.837	1196.82
793.69	1081.76
797.542	1015.88
801.391	734.172
805.239	513.608
809.085	349.192
812.93	189.916
816.772	158.775
820.613	4.763
824.452	9.841
828.29	42.041
832.125	93.043
835.959	103.244
839.791	169.476
843.621	128.462
847.45	72.598
851.277	10.932
855.102	28.272
858.925	78.465
862.746	118.388
866.566	233.51
870.384	352.798
874.2	570.26
878.015	702.87
881.828	955.626
885.639	1170.52
889.448	1484.54
893.256	1743.69
897.061	2098.97
900.865	2323.36
904.668	2734.88
908.468	3208.51
912.267	3618.25
916.064	4046.1
919.86	4399.06
923.653	4797.11
927.445	4788.24
931.236	4834.44
935.024	4953.7
938.811	4674.01
942.596	4108.37
946.379	3598.77
950.161	3082.22
953.94	2652.7
957.719	2162.56
961.495	1719.78
965.27	1333.37
969.043	985.974
972.814	816.587
976.583	701.157
980.351	666.324
984.117	612.168
987.882	601.221
991.644	697.762
995.405	735.043
999.165	849.321
1002.92	1080.07
1006.68	1304.94
1010.43	1612.26
1014.18	2147.97
1017.93	2757.36
1021.68	3412.88
1025.43	4125.7
1029.18	4714.38
1032.92	5085.27
1036.66	4806.18
1040.4	4518.78
1044.14	3786.74
1047.88	3145.74
1051.62	2404.29
1055.35	1808.61
1059.08	1460.34
1062.81	1135.04
1066.54	996.151
1070.27	955.107
1073.99	846.333
1077.72	796.776
1081.44	771.557
1085.16	766.297
1088.88	826.427
1092.59	901.604
1096.31	723.733
1100.02	671.844
1103.73	631.596
1107.44	491.67
1111.15	443.447
1114.86	264.037
1118.57	191.622
1122.27	203.662
1125.97	127.316
1129.67	47.269
1133.37	35.574
1137.07	58.871
1140.76	45.382
1144.45	7.034
1148.15	68.91
1151.84	14.412
1155.53	18.581
1159.21	49.525
1162.9	7.429
1166.58	13.336
1170.26	21.413
1173.94	48.565
1177.62	30.529
1181.3	42.599
1184.97	42.285
1188.65	38.192
1192.32	45.161
1195.99	66.888
1199.66	143.179
1203.33	48.752
1206.99	94.249
1210.65	29.198
1214.32	25.673
1217.98	84.298
1221.64	79.461
1225.29	53.571
1228.95	128.427
1232.6	165
1236.26	129.429
1239.91	102.739
1243.56	77.796
1247.2	144.746
1250.85	90.482
1254.49	119.047
1258.13	120.433
1261.78	161.642
1265.41	56.67
1269.05	101.514
1272.69	68.269
1276.32	110.873
1279.95	91.313
1283.59	112.108
1287.21	123.485
1290.84	8.229
1294.47	68.974
1298.09	100.42
1301.72	85.73
1305.34	43.295
1308.96	20.104
1312.58	32.84
1316.19	14.395
1319.81	11.543
1323.42	59.397
1327.03	43.07
1330.64	37.55
1334.25	23.862
1337.86	23.147
1341.46	12.699
1345.07	26.901
1348.67	81.699
1352.27	101.439
1355.87	28.275
1359.46	49.981
1363.06	87.403
1366.65	123.281
1370.25	60.158
1373.84	96.123
1377.43	67.093
1381.02	68.684
1384.6	84.42
1388.18	78.806
1391.77	94.717
1395.35	96.291
1398.93	89.68
1402.51	72.974
1406.08	107.149
1409.66	73.83
1413.23	63.293
1416.8	50.477
1420.37	56.276
1423.94	113.688
1427.51	54.69
1431.08	128.116
1434.64	113.053
1438.2	89.195
1441.76	83.856
1445.32	78.867
1448.88	93.802
1452.43	81.08
1455.99	135.981
1459.54	82.592
1463.09	153.975
1466.64	146.083
1470.19	127.873
1473.74	167.64
1477.28	113.551
1480.83	169.195
1484.37	105.563
1487.91	115.074
1491.45	98.615
1494.98	158.306
1498.52	97.353
1502.05	89.142
1505.59	38.595
1509.12	129.747
1512.65	19.005
1516.17	76.785
1519.7	0.295
1523.23	27.019
