Measurement: Raman, 532 nm, unoriented, Raman Data Processed
Mineral: Astrophyllite
Rruff sample: R060202
Ideal chemistry: K_2_NaFe^2+^_7_Ti_2_(Si_4_O_12_)_2_O_2_(OH)_4_F
Locality: Demix Quarry, Mont Saint-Hilaire, Rouville County, Quebec, Canada
Source: Royal Ontario Museum
Description: Aggregate of brown splintered wafers
Measured chemistry: (K_0.56_Na_0.38_Ca_0.06_)_3_(Fe^2+^_0.52_Mn_0.44_Mg_0.04_)_7_(Ti_0.75_Zr_0.15_Al_0.15_)_2_Si_8_O_24_(O_0.27_OH_0.73_)_7_
Raman shift (cm-1)	intensity
142.951	0
146.325	71.2156
149.7	120.488
153.075	250.434
156.45	297.234
159.825	371.334
163.199	550.998
166.574	568.662
169.949	631.309
173.324	514.76
176.699	325.313
180.073	183.013
183.448	83.136
186.823	111.652
190.198	122.514
193.573	142.472
196.947	290.577
200.322	422.81
203.697	508.133
207.072	604.646
210.447	636.759
213.821	803.776
217.196	1008.15
220.571	1181.23
223.946	1444.43
227.321	1682.56
230.696	1984.96
234.07	2337.11
237.445	2488.07
240.82	2695.27
244.195	2696.82
247.57	2554
250.945	2465.71
254.319	2379.22
257.694	2136
261.069	1890.53
264.444	1522.61
267.819	1100.4
271.193	749.431
274.568	457.27
277.943	289.479
281.318	168.965
284.693	101.457
288.067	26.3115
291.442	12.7988
294.817	45.043
298.192	19.0832
301.567	11.6907
304.942	27.8406
308.316	8.52759
311.691	16.9197
315.066	54.6782
318.441	96.939
321.816	128.865
325.19	180.388
328.565	220.576
331.94	302.665
335.315	359.78
338.69	452.699
342.065	539.537
345.439	559.399
348.814	591.007
352.189	566.886
355.564	584.895
358.938	641.434
362.313	634.88
365.688	669.849
369.063	627.191
372.438	619.587
375.813	626.562
379.187	665.66
382.562	660.168
385.937	673.519
389.312	640.162
392.687	612.654
396.062	613.184
399.436	613.437
402.811	637.882
406.186	572.411
409.561	636.908
412.936	653.017
416.31	633.21
419.685	639.201
423.06	594.79
426.435	516.153
429.81	377.173
433.184	215.117
436.559	131.872
439.934	29.9111
443.309	59.4182
446.684	25.6301
450.058	33.6003
453.433	23.0684
456.808	141.297
460.183	215.209
463.558	338.047
466.933	440.742
470.307	453.63
473.682	437.154
477.057	476.724
480.432	448.087
483.807	388.082
487.182	434.603
490.556	437.151
493.931	354.822
497.306	337.247
500.681	280.516
504.055	185.711
507.43	202.508
510.805	137.397
514.18	81.3525
517.555	45.0942
520.93	72.2251
524.304	20.0171
527.679	11.522
531.054	84.6231
534.429	61.6831
537.804	184.877
541.178	410.354
544.553	642.029
547.928	1006.58
551.303	1271.01
554.678	1389.34
558.053	1434.65
561.427	1196.91
564.802	976.931
568.177	701.678
571.552	516.838
574.927	340.72
578.302	193.652
581.676	179.754
585.051	60.249
588.426	23.6743
591.801	28.9946
595.176	37.4614
598.55	42.2725
601.925	43.105
605.3	84.8428
608.675	2.01318
612.05	33.5425
615.424	70.3227
618.799	81.4771
622.174	307.394
625.549	280.16
628.924	476.732
632.298	790.934
635.673	1111.63
639.048	1625.67
642.423	2485.05
645.798	3383.34
649.173	4318.59
652.547	4907.2
655.922	4632.99
659.297	3726.4
662.672	2735.8
666.047	2159.26
669.421	1919.33
672.796	1893.63
676.171	2089.23
679.546	2370.28
682.921	2639.55
686.295	2839.53
689.67	2975.29
693.045	3116.44
696.42	3239.55
699.795	3230.21
703.17	3125.4
706.544	3104.68
709.919	2863.18
713.294	2641.85
716.669	2238.56
720.044	1944.17
723.418	1522.7
726.793	1217.19
730.168	777.628
733.543	545.689
736.918	353.563
740.293	133.485
743.667	83.1069
747.042	5.89209
750.417	32.3438
753.792	26.5977
757.167	24.2578
760.541	66.6313
763.916	91.6548
767.291	58.1069
770.666	90.0425
774.041	140.297
777.415	181.176
780.79	203.352
784.165	163.773
787.54	223.655
790.915	212.31
794.29	126.522
797.664	80.6973
801.039	65.9204
804.414	12.8623
807.789	29.896
811.164	37.2578
814.538	35.3105
817.913	37.2461
821.288	49.6299
824.663	36.1816
828.038	19.3569
831.413	4.12207
834.787	1.8584
838.162	10.7803
841.537	35.1435
844.912	59.3291
848.287	110.295
851.661	200.813
855.036	260.283
858.411	383.252
861.786	470.192
865.161	601.418
868.535	699.288
871.91	898.508
875.285	1087.21
878.66	1268.1
882.035	1505.98
885.409	1762.73
888.784	2037.37
892.159	2357.22
895.534	2757.9
898.909	3171.03
902.284	3618.03
905.658	4102.86
909.033	4613.54
912.408	5020.89
915.783	5358.95
919.158	5595.58
922.533	5744.6
925.907	5761.34
929.282	5806.35
932.657	5515.44
936.032	5245.55
939.407	4748.4
942.781	4139.05
946.156	3553.43
949.531	3017.49
952.906	2485.88
956.281	1986.18
959.655	1557.81
963.03	1090.43
966.405	783.027
969.78	476.319
973.155	272.163
976.529	146.846
979.904	47.5464
983.279	46.417
986.654	48.6279
990.029	35.3101
993.404	32.4238
996.778	25.9961
1000.15	21.6196
1003.53	60.4219
1006.9	192.208
1010.28	221.05
1013.65	497.469
1017.03	729.77
1020.4	790.152
1023.78	954.322
1027.15	1016.12
1030.53	1125.12
1033.9	1055.4
1037.28	887.576
1040.65	813.031
1044.03	586.045
1047.4	409.47
1050.78	246.255
1054.15	132.343
1057.53	78.7236
1060.9	43.1902
1064.28	5.19922
1067.65	5.72119
1071.02	10.9512
1074.4	36.262
1077.77	162.45
1081.15	199.449
1084.52	124.472
1087.9	189.058
1091.27	140.122
1094.65	158.92
1098.02	150.578
1101.4	127.744
1104.77	78.4219
1108.15	61.0862
1111.52	26.2439
1114.9	30.0254
1118.27	2.65015
1121.65	34.5005
1125.02	36.7976
1128.4	83.5085
1131.77	1.74902
1135.15	32.4885
1138.52	24.1716
1141.89	66.5574
1145.27	38.4253
1148.64	40.9058
1152.02	50.0471
1155.39	13.5549
1158.77	79.3882
1162.14	59.2566
1165.52	43.1443
1168.89	23.6213
1172.27	29.2568
1175.64	28.6101
1179.02	34.2244
1182.39	75.5022
1185.77	40.8328
1189.14	24.3894
1192.52	14.8384
1195.89	88.0027
1199.27	74.0383
1202.64	7.77783
1206.02	26.5112
1209.39	23.7742
1212.77	105.761
1216.14	25.8413
1219.52	49.9578
1222.89	67.9202
1226.27	126.727
1229.64	96.7673
1233.02	147.593
1236.39	129.854
1239.77	135.984
1243.14	132.365
1246.52	151.281
1249.89	116.984
1253.26	182.039
1256.64	165.374
1260.01	170.396
1263.39	157.779
1266.76	195.858
1270.14	186.294
1273.51	158.218
1276.89	200.092
1280.26	105.407
1283.64	146.86
1287.01	123.781
1290.39	120.348
1293.76	60.9429
1297.14	79.8025
1300.51	79.5315
1303.89	52.2393
1307.26	6.80591
1310.64	24.9084
1314.01	11.04
1317.39	31.2117
