Measurement: Raman, 532 nm, unoriented, Raman Data Processed
Mineral: Astrophyllite
Rruff sample: R060103
Ideal chemistry: K_2_NaFe^2+^_7_Ti_2_(Si_4_O_12_)_2_O_2_(OH)_4_F
Locality: Brivik, Norway
Source: University of Arizona Mineral Museum
Description: Brown fragment embedded in matrix
Measured chemistry: K_2.00_Na_1.00_(Fe^2+^_0.55_Mn_0.32_Fe^3+^_0.04_Mg_0.04_Ca_0.04_)_7_(Ti_0.66_Zr_0.18_Al_0.16_)_2_Si_8.00_O_26_(OH)_4_F_1.00_
Raman shift (cm-1)	intensity
144.743	0
148.118	0.367073
151.493	10.7506
154.867	18.9721
158.242	20.3206
161.617	29.0484
164.992	32.3853
168.367	35.7219
171.742	33.7466
175.116	24.6334
178.491	13.581
181.866	4.67945
185.241	0.003181
188.616	0.257324
191.99	1.6932
195.365	4.99495
198.74	10.7359
202.115	17.9693
205.49	22.4595
208.864	26.7889
212.239	31.1068
215.614	40.4846
218.989	52.2229
222.364	63.4012
225.739	76.0514
229.113	87.0378
232.488	96.6178
235.863	105.657
239.238	110.505
242.613	112.156
245.988	108.164
249.362	102.03
252.737	95.9133
256.112	91.2439
259.487	84.2535
262.862	72.7606
266.236	55.25
269.611	38.7122
272.986	28.1065
276.361	18.314
279.736	10.9359
283.111	6.54936
286.485	2.92198
289.86	1.00032
293.235	0.116821
296.61	0.353989
299.985	0.461494
303.36	0.530769
306.734	1.00076
310.109	0.685181
313.484	0.370575
316.859	1.55259
320.234	1.30162
323.608	3.27188
326.983	6.37089
330.358	9.82157
333.733	12.966
337.108	15.2322
340.483	20.8835
343.857	24.4012
347.232	28.1441
350.607	29.145
353.982	31.0009
357.357	30.7646
360.731	33.0465
364.106	30.2892
367.481	28.738
370.856	25.0481
374.231	22.8772
377.606	21.8641
380.98	22.4644
384.355	23.5189
387.73	24.298
391.105	23.9249
394.48	21.244
397.854	21.0743
401.229	22.4336
404.604	23.9182
407.979	24.1813
411.354	25.1334
414.729	24.9823
418.103	25.5832
421.478	24.9607
424.853	22.5621
428.228	17.3426
431.603	11.0273
434.978	5.41416
438.352	2.40868
441.727	1.17232
445.102	1.04667
448.477	1.72486
451.852	0.751514
455.226	4.38401
458.601	8.90294
461.976	14.9708
465.351	20.5076
468.726	24.0763
472.101	26.4597
475.475	25.504
478.85	22.8118
482.225	21.7424
485.6	21.1965
488.975	18.799
492.349	16.1465
495.724	12.3453
499.099	10.6595
502.474	7.31783
505.849	5.67388
509.224	2.94743
512.598	3.05591
515.973	2.52015
519.348	1.24571
522.723	1.15206
526.098	0.950607
529.472	1.19015
532.847	3.06659
536.222	6.80247
539.597	12.131
542.972	22.2925
546.347	37.598
549.721	56.5063
553.096	76.8625
556.471	92.139
559.846	99.6565
563.221	91.46
566.596	73.1254
569.97	52.4157
573.345	36.708
576.72	26.0963
580.095	19.6102
583.47	12.9302
586.845	11.569
590.219	9.91029
593.594	8.3829
596.969	5.13034
600.344	1.69005
603.719	1.10579
607.093	2.08974
610.468	2.69226
613.843	3.86556
617.218	3.59736
620.593	1.83645
623.967	0.018196
627.342	4.12998
630.717	8.76672
634.092	18.6664
637.467	35.0394
640.842	59.3966
644.216	91.2483
647.591	127.272
650.966	159.459
654.341	175.845
657.716	153.574
661.091	105.925
664.465	71.4992
667.84	61.7489
671.215	61.7289
674.59	71.9404
677.965	86.0245
681.34	101.013
684.714	119.889
688.089	135.352
691.464	150.014
694.839	160.539
698.214	172.316
701.588	174.064
704.963	174.547
708.338	175.405
711.713	168.281
715.088	159.928
718.462	145.506
721.837	127.429
725.212	105.716
728.587	85.7916
731.962	65.6781
735.337	48.7783
738.712	33.4971
742.086	24.2688
745.461	17.9123
748.836	12.4369
752.211	10.8192
755.586	8.25485
758.96	7.62977
762.335	5.86711
765.71	4.31512
769.085	4.12119
772.46	4.43123
775.835	6.04007
779.209	8.52988
782.584	9.48451
785.959	10.2806
789.334	8.63639
792.709	8.09639
796.083	6.33666
799.458	3.14922
802.833	0.306259
806.208	1.78024
809.583	3.14894
812.957	3.34622
816.332	2.64344
819.707	2.51453
823.082	1.91294
826.457	0.566719
829.832	0.015015
833.207	1.39626
836.581	1.92909
839.956	4.27756
843.331	5.04405
846.706	5.95437
850.081	6.93492
853.455	9.6879
856.83	11.5493
860.205	14.2384
863.58	16.1699
866.955	19.3889
870.33	22.7766
873.704	27.9413
877.079	32.096
880.454	39.0716
883.829	44.8852
887.204	53.213
890.578	61.3379
893.953	71.4525
897.328	81.7299
900.703	94.1178
904.078	104.058
907.452	115.454
910.827	125.228
914.202	132.815
917.577	138.39
920.952	138.245
924.327	132.38
927.702	128.394
931.076	121.145
934.451	110.108
937.826	98.1022
941.201	85.7684
944.576	73.7915
947.95	63.7441
951.325	53.3647
954.7	45.3618
958.075	34.9767
961.45	23.5138
964.824	14.8945
968.199	8.64836
971.574	4.18045
974.949	1.74176
978.324	0.780609
981.699	1.67948
985.073	1.68467
988.448	1.87926
991.823	1.06906
995.198	1.40898
998.573	2.55701
1001.95	4.78841
1005.32	8.53635
1008.7	11.7024
1012.07	17.1108
1015.45	21.9084
1018.82	26.695
1022.2	30.4473
1025.57	34.2657
1028.95	35.6853
1032.32	35.0184
1035.7	33.6693
1039.07	30.4654
1042.44	26.4503
1045.82	21.6816
1049.19	17.198
1052.57	13.4541
1055.94	11.8437
1059.32	10.53
1062.69	9.41972
1066.07	9.7994
1069.44	9.36673
1072.82	10.5033
1076.19	10.9606
1079.57	10.6055
1082.94	9.86887
1086.32	9.77689
1089.69	7.553
1093.07	5.96772
1096.44	5.23653
1099.82	4.94432
1103.19	3.20828
1106.57	2.43283
1109.94	1.01332
1113.32	0.20339
1116.69	0.114958
1120.07	0.008595
1123.44	0.416128
1126.82	0.433807
1130.19	0.021765
1133.57	0.003708
1136.94	0.913263
1140.32	0.1884
1143.69	0.100143
1147.07	0.272417
1150.44	0.440622
1153.81	1.39171
1157.19	1.18926
1160.56	1.66012
1163.94	0.49358
1167.31	1.01417
1170.69	1.29631
1174.06	0.752205
1177.44	1.36267
1180.81	1.30289
1184.19	1.58173
1187.56	1.57763
1190.94	0.988108
1194.31	0.612741
1197.69	1.78829
1201.06	0.58522
1204.44	0.91184
1207.81	1.27952
1211.19	0.681694
1214.56	1.27401
1217.94	1.01643
1221.31	0.759357
1224.69	1.57423
1228.06	1.91051
1231.43	1.19527
1234.81	1.45206
1238.18	0.967276
1241.56	0.258148
1244.93	1.24125
1248.31	0.488138
1251.68	0.115379
1255.06	0.990808
1258.43	1.15512
1261.81	0.465498
1265.18	0.082775
1268.56	0.953939
1271.93	0.426052
1275.31	0.257532
1278.68	0.339054
1282.06	0.807095
1285.43	0.705193
1288.81	0.690582
1292.18	0.234058
1295.56	0.482944
1298.93	0.267767
1302.31	0
