Measurement: Raman, 785 nm, unoriented, Raman Data Processed
Mineral: Astrophyllite
Rruff sample: R060202
Ideal chemistry: K_2_NaFe^2+^_7_Ti_2_(Si_4_O_12_)_2_O_2_(OH)_4_F
Locality: Demix Quarry, Mont Saint-Hilaire, Rouville County, Quebec, Canada
Source: Royal Ontario Museum
Description: Aggregate of brown splintered wafers
Measured chemistry: (K_0.56_Na_0.38_Ca_0.06_)_3_(Fe^2+^_0.52_Mn_0.44_Mg_0.04_)_7_(Ti_0.75_Zr_0.15_Al_0.15_)_2_Si_8_O_24_(O_0.27_OH_0.73_)_7_
Raman shift (cm-1)	intensity
156.987	0
159.879	38.7222
162.772	303.5
165.665	354.594
168.557	550.896
171.45	616.107
174.343	508.363
177.236	370.733
180.128	240.743
183.021	125.097
185.914	52.999
188.806	139.267
191.699	191.099
194.592	212.843
197.484	336.505
200.377	271.031
203.27	516.597
206.162	516.345
209.055	512.93
211.948	543.551
214.841	600.08
217.733	747.691
220.626	983.082
223.519	1151.57
226.411	1307.87
229.304	1492.44
232.197	1717.99
235.089	2012.92
237.982	2411.51
240.875	2627.58
243.768	2817.45
246.66	2906.08
249.553	2833.56
252.446	2720.73
255.338	2607.04
258.231	2529.85
261.124	2346.84
264.016	2044.83
266.909	1645.4
269.802	1230.83
272.695	823.2
275.587	615.333
278.48	428.446
281.373	314.274
284.265	200.719
287.158	123.665
290.051	109.177
292.943	20.8315
295.836	67.5288
298.729	8.72217
301.622	86.5606
304.514	8.90527
307.407	100.73
310.3	47.6977
313.192	64.7022
316.085	16.8271
318.978	67.5523
321.87	58.2959
324.763	43.1323
327.656	95.5166
330.548	116.277
333.441	130.222
336.334	102.436
339.227	208.231
342.119	331.819
345.012	325.553
347.905	273.813
350.797	334.16
353.69	353.709
356.583	388.279
359.476	397.705
362.368	386.422
365.261	436.081
368.154	396.776
371.046	384.486
373.939	371.214
376.832	359.456
379.724	359.912
382.617	386.75
385.51	464.725
388.402	433.812
391.295	486.677
394.188	435.967
397.081	459.61
399.973	508.978
402.866	430.709
405.759	398.28
408.651	399.885
411.544	446.275
414.437	469.296
417.329	527.206
420.222	502.067
423.115	434.882
426.008	448.968
428.9	369.146
431.793	219.523
434.686	167.106
437.578	121.879
440.471	35.1172
443.364	51.7178
446.257	36.7759
449.149	52.4995
452.042	31.1719
454.935	46.1724
457.827	206.007
460.72	250.04
463.613	306.647
466.505	453.129
469.398	494.752
472.291	529.679
475.183	507.466
478.076	491.387
480.969	472.243
483.861	513.531
486.754	529.495
489.647	453.737
492.54	443.223
495.432	398.923
498.325	345.11
501.218	315.606
504.11	271.996
507.003	238.044
509.896	215.362
512.788	218.384
515.681	162.356
518.574	140.852
521.467	88.4385
524.359	23.8789
527.252	76.7417
530.145	92.3359
533.037	148.59
535.93	170.874
538.823	240.357
541.716	317.557
544.608	409.411
547.501	563.389
550.394	830.455
553.286	970.186
556.179	1074.68
559.072	1103.8
561.964	947.823
564.857	758.731
567.75	582.904
570.643	410.036
573.535	324.743
576.428	167.165
579.321	105.128
582.213	115.667
585.106	0.248535
587.999	14.6855
590.891	38.5327
593.784	24.626
596.677	41.2349
599.569	13.6479
602.462	3.14307
605.355	23.4145
608.248	78.3804
611.14	71.2832
614.033	13.1841
616.926	96.7764
619.818	45.8828
622.711	169.244
625.604	218.972
628.496	341.526
631.389	422.808
634.282	668.562
637.175	896.185
640.067	1189.56
642.96	1606.44
645.853	2161.55
648.745	2790.58
651.638	3264.52
654.531	3490.07
657.423	3202.89
660.316	2573.51
663.209	1840.47
666.102	1516.34
668.994	1293.69
671.887	1227.85
674.78	1306.56
677.672	1518.98
680.565	1708.23
683.458	1795.51
686.351	1946.77
689.243	2098.3
692.136	2182.83
695.029	2347.08
697.921	2268.67
700.814	2330.16
703.707	2258.67
706.599	2290.33
709.492	1987.88
712.385	1956.78
715.278	1755.65
718.17	1575.3
721.063	1380.42
723.956	1164.71
726.848	970.525
729.741	695.743
732.634	546.627
735.526	325.101
738.419	299.866
741.312	182.479
744.204	49.1773
747.097	45.7754
749.99	28.707
752.883	14.5962
755.775	29.7852
758.668	29.9111
761.561	19.896
764.453	34.2988
767.346	32.522
770.239	79.291
773.131	66.8174
776.024	7.16211
778.917	122.892
781.809	93.0737
784.702	139.101
787.595	76.5713
790.488	114.065
793.38	168.388
796.273	44.7246
799.166	70.9385
802.058	57.6621
804.951	44.8745
807.844	24.2534
810.736	20.6577
813.629	19.9297
816.522	49.6196
819.415	16.5386
822.307	39.5698
825.2	48.7671
828.093	34.7344
830.985	35.625
833.878	21.8164
836.771	6.47217
839.663	43.3716
842.556	52.043
845.449	82.355
848.342	95.1675
851.234	127.906
854.127	220.237
857.02	215.334
859.912	211.48
862.805	349.987
865.698	291.729
868.591	412.238
871.483	512.36
874.376	580.374
877.269	701.019
880.161	835.247
883.054	855.036
885.947	980.093
888.839	1055.68
891.732	1214.78
894.625	1361.47
897.518	1484.21
900.41	1722.06
903.303	1825.44
906.196	2104.57
909.088	2326.48
911.981	2557.64
914.874	2641.04
917.766	2758.33
920.659	2894.34
923.552	2901.66
926.444	2947.43
929.337	2983.83
932.23	2977.04
935.123	2877.27
938.015	2695.14
940.908	2345.68
943.801	2166.89
946.693	1793.09
949.586	1647.05
952.479	1414.99
955.371	1042.36
958.264	929.321
961.157	666.28
964.05	461.168
966.942	355.32
969.835	226.336
972.728	193.904
975.62	136.492
978.513	103.597
981.406	7.68799
984.298	20.8193
987.191	25.4023
990.084	26.4854
992.976	27.6309
995.869	11.2207
998.762	78.8638
1001.65	16.9702
1004.55	79.5674
1007.44	65.7544
1010.33	161.74
1013.23	168.041
1016.12	231.014
1019.01	170.892
1021.9	271.087
1024.8	314.422
1027.69	241.259
1030.58	242.309
1033.47	222.449
1036.37	167.189
1039.26	174.999
1042.15	118.079
1045.05	175.808
1047.94	154.776
1050.83	128.712
1053.72	125.769
1056.62	26.8091
1059.51	25.9277
1062.4	118.805
1065.29	47.7398
1068.19	42.9712
1071.08	64.8682
1073.97	127.092
1076.87	134.862
1079.76	70.061
1082.65	139.868
1085.54	159.656
1088.44	116.623
1091.33	124.501
1094.22	111.588
1097.11	96.3769
1100.01	76.0703
1102.9	55.5708
1105.79	60.1211
1108.68	35.6626
1111.58	72.7188
1114.47	75.0713
1117.36	20.843
1120.26	26.491
1123.15	49.6846
1126.04	66.9792
1128.93	21.4326
1131.83	45.4902
1134.72	35.3638
1137.61	34.0149
1140.5	0.482666
1143.4	114.004
1146.29	4.87646
1149.18	30.5523
1152.08	55.4678
1154.97	43.428
1157.86	62.6033
1160.75	59.7151
1163.65	35.0535
1166.54	40.0757
1169.43	89.7288
1172.32	40.571
1175.22	50.5354
1178.11	84.9959
1181	88.2749
1183.89	104.989
1186.79	66.8254
1189.68	128.631
1192.57	87.8201
1195.46	99.2754
1198.36	111.577
1201.25	48.1748
1204.14	83.4753
1207.04	93.8704
1209.93	118.711
1212.82	188.037
1215.71	121.82
1218.61	65.0112
1221.5	90.3157
1224.39	90.5425
1227.29	108.714
1230.18	105.496
1233.07	68.4839
1235.96	44.5818
1238.86	80.1738
1241.75	84.1291
1244.64	58.9946
