Measurement: Raman, 780 nm, unoriented, Raman Data Processed
Mineral: Astrophyllite
Rruff sample: R060103
Ideal chemistry: K_2_NaFe^2+^_7_Ti_2_(Si_4_O_12_)_2_O_2_(OH)_4_F
Locality: Brivik, Norway
Source: University of Arizona Mineral Museum
Description: Brown fragment embedded in matrix
Measured chemistry: K_2.00_Na_1.00_(Fe^2+^_0.55_Mn_0.32_Fe^3+^_0.04_Mg_0.04_Ca_0.04_)_7_(Ti_0.66_Zr_0.18_Al_0.16_)_2_Si_8.00_O_26_(OH)_4_F_1.00_
Raman shift (cm-1)	intensity
145.058	0
147.951	0.811691
150.844	0.224415
153.736	0.13763
156.629	1.13007
159.522	1.76862
162.414	3.3518
165.307	3.16501
168.2	5.44485
171.093	5.7989
173.985	4.52842
176.878	2.90131
179.771	2.31178
182.663	0.478519
185.556	0.047932
188.449	0.5662
191.341	0.228729
194.234	0.380749
197.127	0.917561
200.019	1.02727
202.912	2.39414
205.805	3.70011
208.697	5.39259
211.59	8.01705
214.483	11.6942
217.376	12.9557
220.268	14.8393
223.161	17.9285
226.054	20.3449
228.946	21.2109
231.839	23.1196
234.732	25.6703
237.625	27.4453
240.517	27.6779
243.41	27.7448
246.303	28.2812
249.195	27.2559
252.088	27.4937
254.981	27.2018
257.873	26.0923
260.766	24.9826
263.659	21.6789
266.551	17.2272
269.444	13.4604
272.337	8.59895
275.23	5.88185
278.122	3.6577
281.015	2.74435
283.908	2.37108
286.8	2.10096
289.693	0.995167
292.586	0.251896
295.478	0.663967
298.371	0.167923
301.264	0.489758
304.157	0.836712
307.049	0.431618
309.942	0.827911
312.835	0.248737
315.727	0.236172
318.62	0.426929
321.513	0.713196
324.406	0.547668
327.298	0.915016
330.191	1.9536
333.084	1.39918
335.976	2.29385
338.869	2.26749
341.762	2.81587
344.654	3.13506
347.547	3.28645
350.44	3.2994
353.332	4.11303
356.225	4.37211
359.118	4.26061
362.01	4.33183
364.903	4.22352
367.796	4.66055
370.689	4.08244
373.581	4.34076
376.474	4.04622
379.367	4.45296
382.259	4.31099
385.152	4.63704
388.045	3.70063
390.938	4.5782
393.83	5.0294
396.723	4.05791
399.616	4.46626
402.508	4.81339
405.401	5.1555
408.294	5.56581
411.186	6.14122
414.079	5.57341
416.972	6.13735
419.865	5.54421
422.757	6.65728
425.65	5.40189
428.543	4.06079
431.435	4.28911
434.328	1.57573
437.221	1.86537
440.113	0.24581
443.006	0.550117
445.899	0.335054
448.791	0.180134
451.684	0.243958
454.577	0.076193
457.47	0.691921
460.362	1.32618
463.255	1.01229
466.148	1.7976
469.04	2.62958
471.933	3.03588
474.826	3.76298
477.719	4.00058
480.611	3.25602
483.504	3.49833
486.397	4.06098
489.289	4.05759
492.182	3.32721
495.075	2.43314
497.967	2.59249
500.86	2.54316
503.753	1.86269
506.645	1.85133
509.538	1.17592
512.431	0.767916
515.323	1.84915
518.216	1.19489
521.109	0.731575
524.002	0.154531
526.894	0.793678
529.787	0.474449
532.68	0.050737
535.572	0.06686
538.465	0.989511
541.358	1.5864
544.25	2.63155
547.143	4.10655
550.036	5.45757
552.929	7.25338
555.821	8.04265
558.714	8.84773
561.607	8.72078
564.499	7.57876
567.392	5.81422
570.285	4.35645
573.178	2.78788
576.07	1.77926
578.963	1.76673
581.856	1.31498
584.748	0.406015
587.641	0.115873
590.534	0.297127
593.426	0.033714
596.319	0.148499
599.212	0.270857
602.105	0.143791
604.997	0.265377
607.89	0.098185
610.783	0.017691
613.675	0.421236
616.568	0.751041
619.461	0.405102
622.353	0.679333
625.246	0.217361
628.139	2.01391
631.031	2.66685
633.924	3.26963
636.817	5.60003
639.71	8.43829
642.602	12.2759
645.495	16.1079
648.388	21.1911
651.28	26.2686
654.173	29.1205
657.066	27.0094
659.958	19.5218
662.851	12.7084
665.744	8.86436
668.636	6.28163
671.529	5.61255
674.422	6.00702
677.315	5.76098
680.207	6.82612
683.1	8.56816
685.993	9.0763
688.885	9.64084
691.778	10.4298
694.671	11.6454
697.563	13.1763
700.456	14.3821
703.349	14.961
706.242	14.1044
709.134	14.3627
712.027	14.3535
714.92	13.281
717.812	12.7459
720.705	11.2353
723.598	9.09904
726.49	7.35518
729.383	5.48242
732.276	4.6612
735.169	3.9072
738.061	2.17448
740.954	1.2297
743.847	1.2877
746.739	0.254358
749.632	0.451063
752.525	0.430559
755.418	0.440807
758.31	0.107967
761.203	0.023079
764.096	0.409328
766.988	0.092476
769.881	0.620258
772.774	1.15614
775.666	1.20351
778.559	1.12991
781.452	0.852585
784.345	1.50915
787.237	0.711416
790.13	0.931454
793.023	0.478193
795.915	0.667101
798.808	0.489529
801.701	0.978556
804.593	0.126043
807.486	0.042765
810.379	0.262423
813.271	0.263964
816.164	0.246357
819.057	0.758957
821.949	0.177917
824.842	0.463921
827.735	0.245895
830.628	0.368082
833.52	0.173141
836.413	1.09245
839.306	0.616354
842.198	1.20933
845.091	0.164597
847.984	0.813959
850.876	0.79122
853.769	1.16967
856.662	1.28346
859.555	1.77868
862.447	1.68602
865.34	1.95699
868.233	2.49128
871.125	2.88074
874.018	3.25854
876.911	4.34957
879.803	5.6639
882.696	7.49334
885.589	7.99625
888.482	9.62324
891.374	11.449
894.267	13.5243
897.16	14.704
900.052	15.8614
902.945	17.9491
905.838	20.2691
908.731	22.5571
911.623	24.7027
914.516	25.8899
917.409	26.5424
920.301	26.9825
923.194	25.677
926.087	26.0478
928.979	24.7497
931.872	23.1583
934.765	21.8342
937.658	18.9878
940.55	17.2112
943.443	16.0834
946.336	14.2718
949.228	12.359
952.121	10.3202
955.014	9.1717
957.906	7.8764
960.799	5.36279
963.692	4.44712
966.584	3.00504
969.477	1.37803
972.37	0.913651
975.263	0.140185
978.155	0.001149
981.048	0.248661
983.941	0.484261
986.833	0.342287
989.726	0.248876
992.619	0.159348
995.511	0.18603
998.404	0.796632
1001.3	0.701254
1004.19	0.709575
1007.08	1.3646
1009.98	1.41716
1012.87	1.06889
1015.76	1.94804
1018.65	2.80989
1021.55	2.83608
1024.44	2.36875
1027.33	2.99599
1030.22	3.11384
1033.12	3.01057
1036.01	1.9345
1038.9	2.28879
1041.8	2.11979
1044.69	1.57944
1047.58	1.31901
1050.47	1.78357
1053.37	0.958119
1056.26	0.676818
1059.15	0.61044
1062.04	0.409902
1064.94	0.792672
1067.83	0.699334
1070.72	0.459696
1073.61	0.138663
1076.51	0.912113
1079.4	0.985231
1082.29	0.270944
1085.18	0.673829
1088.08	1.17575
1090.97	1.51923
1093.86	0.960744
1096.76	0.931341
1099.65	0.641766
1102.54	0.60842
1105.43	0.809116
1108.33	0.12624
1111.22	0.700661
1114.11	0.099264
1117.01	0.082822
1119.9	0.211081
1122.79	0.544651
1125.68	0.130733
1128.58	0.081694
1131.47	0.031021
1134.36	0.261873
1137.25	0.328285
1140.15	0.922241
1143.04	0.355912
1145.93	0.481101
1148.82	0.772487
1151.72	0.439759
1154.61	0.626502
1157.5	0.094494
1160.39	0.786361
1163.29	0.459435
1166.18	0.44489
1169.07	1.10386
1171.97	1.17911
1174.86	1.27429
1177.75	0.860875
1180.64	0.309491
1183.54	0.71918
1186.43	0.659063
1189.32	0.60438
1192.21	1.04084
1195.11	0.37181
1198	0.165511
1200.89	0.619
1203.79	0.365911
1206.68	0.466003
1209.57	0.91356
1212.46	1.16318
1215.36	0.441116
1218.25	0.750381
1221.14	0.750824
1224.04	0.565988
1226.93	0.172956
1229.82	1.16584
1232.71	0.232213
1235.61	0.194054
1238.5	1.27746
1241.39	0.558824
1244.28	0.5689
1247.18	0.976329
1250.07	0.595948
1252.96	0.229327
1255.85	0.64246
1258.75	1.36178
1261.64	0.110165
1264.53	0.466223
1267.42	0.478248
1270.32	0.430165
1273.21	0.515415
1276.1	0.400923
1279	0.197193
1281.89	0.312908
1284.78	0.252238
