Measurement: Raman, 532 nm, unoriented, Raman Data Processed
Mineral: Atacamite
Rruff sample: R050098
Ideal chemistry: Cu_2_Cl(OH)_3_
Locality: La Farola mine, Tierra Amarilla, Atacama, Chile
Source: Rock Currier
Description: Green prismatic single crystals
Measured chemistry: Cu_2.00_Cl_1.00_(OH)_3_
Raman shift (cm-1)	intensity
124.958	0
127.851	76.971
130.744	359.755
133.636	594.712
136.529	1042.11
139.422	886.188
142.314	899.761
145.207	1394.8
148.1	1662.25
150.992	899.116
153.885	331.379
156.778	203.67
159.671	115.432
162.563	97.4391
165.456	70.103
168.349	33.1292
171.241	14.8491
174.134	55.5679
177.027	37.7157
179.919	21.6152
182.812	10.2685
185.705	18.1793
188.597	8.78027
191.49	4.375
194.383	19.9261
197.276	37.4982
200.168	44.9352
203.061	54.8634
205.954	76.637
208.846	126.474
211.739	153.956
214.632	171.551
217.524	150.093
220.417	173.955
223.31	135.024
226.203	147.58
229.095	175.538
231.988	183.624
234.881	182.063
237.773	148.881
240.666	187.462
243.559	163.22
246.452	173.958
249.344	156.308
252.237	151.018
255.13	210.599
258.022	207.963
260.915	218.036
263.808	243.16
266.7	201.644
269.593	171.369
272.486	116.842
275.378	114.319
278.271	53.0229
281.164	34.5712
284.057	8.97284
286.949	3.51904
289.842	21.5845
292.735	2.76788
295.627	9.43396
298.52	0.165527
301.413	4.20544
304.305	10.0057
307.198	28.9219
310.091	20.7117
312.984	3.05487
315.876	7.61163
318.769	2.34405
321.662	54.0375
324.554	31.3608
327.447	27.046
330.34	55.6575
333.232	74.7304
336.125	92.2168
339.018	124.219
341.911	175.375
344.803	181.375
347.696	262.238
350.589	265.583
353.481	273.298
356.374	268.968
359.267	272.724
362.159	226.341
365.052	174.184
367.945	154.321
370.837	110.816
373.73	136.058
376.623	114.271
379.516	119.482
382.408	142.095
385.301	155.81
388.194	192.685
391.086	182.05
393.979	174.767
396.872	176.759
399.764	161.332
402.657	185.831
405.55	236.988
408.443	205.84
411.335	226.658
414.228	156.861
417.121	101.713
420.013	21.6618
422.906	15.0825
425.799	2.28284
428.692	3.95929
431.584	12.6343
434.477	9.32007
437.37	62.4788
440.262	55.221
443.155	104.614
446.048	144.768
448.94	147.802
451.833	120.167
454.726	46.4186
457.618	17.3285
460.511	18.5085
463.404	18.0432
466.296	13.515
469.189	5.67664
472.082	33.963
474.975	46.2856
477.867	74.9951
480.76	103.37
483.653	184.212
486.545	269.033
489.438	364.418
492.331	521.345
495.224	667.472
498.116	900.025
501.009	1033.49
503.902	1163.19
506.794	1256.37
509.687	1315.61
512.58	1265.77
515.472	1052.2
518.365	757.155
521.258	559.301
524.15	356.346
527.043	259.375
529.936	190.019
532.829	106.84
535.721	86.7759
538.614	48.7806
541.507	39.2463
544.399	24.1943
547.292	18.096
550.185	10.3682
553.077	7.06744
555.97	2.75281
558.863	16.8111
561.756	24.5608
564.648	1.15472
567.541	41.7402
570.434	50.5353
573.326	99.8458
576.219	76.9693
579.112	92.6366
582.005	109.186
584.897	147.702
587.79	139.25
590.683	148.887
593.575	152.719
596.468	128.815
599.361	121.229
602.253	105.763
605.146	76.6093
608.039	54.6571
610.932	29.0763
613.824	4.42596
616.717	4.06513
619.61	1.49335
622.502	0.372742
625.395	4.84473
628.288	2.96643
631.18	4.12128
634.073	4.15912
636.966	13.4795
639.859	14.7858
642.751	9.47913
645.644	7.1889
648.537	0.441528
651.429	27.4987
654.322	11.2907
657.215	5.97028
660.107	20.3839
663	21.3564
665.893	2.39172
668.785	22.9811
671.678	8.92139
674.571	5.43536
677.463	18.6199
680.356	19.8143
683.249	13.7932
686.142	20.7872
689.034	40.3092
691.927	14.676
694.82	16.3964
697.712	9.66071
700.605	23.9521
703.498	21.2161
706.39	19.4261
709.283	3.87567
712.176	17.8791
715.069	24.465
717.961	25.1843
720.854	18.0957
723.747	27.5178
726.639	22.9996
729.532	4.526
732.425	1.40747
735.317	0.424133
738.21	13.3533
741.103	9.24384
743.996	1.32404
746.888	25.6896
749.781	0.734436
752.674	11.3273
755.566	9.65332
758.459	3.13403
761.352	30.7646
764.244	26.1689
767.137	7.7865
770.03	11.4451
772.923	19.9946
775.815	28.5627
778.708	25.8663
781.601	26.6725
784.493	19.3933
787.386	39.901
790.279	64.3932
793.171	84.9551
796.064	121.24
798.957	175.552
801.85	254.704
804.742	314.913
807.635	409.624
810.528	508.157
813.42	629.779
816.313	673.864
819.206	609.274
822.098	528.726
824.991	442.837
827.884	321.341
830.777	267.647
833.669	224.58
836.562	203.031
839.455	181.118
842.347	173.937
845.24	135.662
848.133	69.7071
851.025	43.7249
853.918	28.3463
856.811	20.3
859.703	26.6479
862.596	3.44672
865.489	14.671
868.382	2.27777
871.274	4.46973
874.167	18.1883
877.06	5.93579
879.952	14.2191
882.845	57.8734
885.738	91.3721
888.63	122.358
891.523	205.047
894.416	330.464
897.309	476.27
900.201	640.579
903.094	807.192
905.987	912.34
908.879	918.896
911.772	757.546
914.665	494.787
917.558	297.904
920.45	180.215
923.343	92.5065
926.236	51.2623
929.128	25.1225
932.021	21.6655
934.914	6.11359
937.806	1.24628
940.699	4.37903
943.592	7.43311
946.484	20.7554
949.377	48.2577
952.27	79.3997
955.163	76.7833
958.055	96.7849
960.948	180.157
963.841	246.774
966.733	338.058
969.626	496.156
972.519	468.337
975.411	368.407
978.304	189.473
981.197	147.843
984.09	128.319
986.982	83.1085
989.875	74.2328
992.768	44.1998
995.66	32.9466
998.553	26.403
1001.45	45.5735
1004.34	28.0936
1007.23	26.3466
1010.12	0.795105
1013.02	8.16992
1015.91	12.8055
1018.8	0.865234
1021.7	23.4797
1024.59	22.2212
1027.48	6.57904
1030.37	14.9596
1033.27	5.38202
1036.16	12.7763
1039.05	6.20825
1041.94	13.7651
1044.84	0.844727
1047.73	15.6663
1050.62	12.6856
1053.51	4.90625
1056.41	1.81677
1059.3	12.6058
1062.19	13.0306
1065.09	2.70355
1067.98	8.14331
1070.87	10.5788
1073.76	17.9011
1076.66	27.3975
1079.55	15.1904
1082.44	0.852173
1085.33	6.3927
1088.23	0.516968
1091.12	3.49188
1094.01	0.006836
1096.9	27.6871
1099.8	5.58551
1102.69	5.94708
1105.58	14.622
1108.48	15.1629
1111.37	20.0673
1114.26	15.5914
1117.15	36.0555
1120.05	18.6286
1122.94	21.9711
1125.83	16.3807
1128.72	17.2654
1131.62	20.7418
1134.51	24.0849
1137.4	5.73144
1140.3	31.1035
1143.19	32.6535
1146.08	19.5676
1148.97	15.475
1151.87	24.3284
1154.76	20.8007
1157.65	16.8049
1160.54	15.4229
1163.44	21.7289
1166.33	23.0417
1169.22	8.05823
1172.12	32.0273
1175.01	21.8195
1177.9	5.26434
1180.79	21.2916
1183.69	10.2421
1186.58	9.87665
1189.47	36.1058
1192.36	10.4643
1195.26	10.2293
1198.15	20.2029
1201.04	23.5982
1203.93	20.6586
1206.83	4.59119
1209.72	0.988342
1212.61	20.2894
1215.51	7.89966
1218.4	12.2816
1221.29	24.9543
1224.18	13.4215
1227.08	16.0131
1229.97	22.7273
1232.86	21.8299
1235.75	18.7772
1238.65	30.8531
1241.54	13.2103
1244.43	15.1506
1247.33	3.42456
1250.22	21.3284
1253.11	17.944
1256	5.19031
1258.9	7.1286
1261.79	13.3619
1264.68	22.8188
1267.57	21.5994
1270.47	0.684265
1273.36	2.16748
1276.25	0
