Measurement: Raman, 780 nm, unoriented, Raman Data Processed
Mineral: Atelestite
Rruff sample: R080139
Ideal chemistry: Bi^3+^_2_O(As^5+^O_4_)(OH)
Locality: Daniel mine, Schneeberg, Saxony, Germany
Source: William W. Pinch
Description: Small sharp tan to cream colored crystals, associated with dark brown eulytine
Raman shift (cm-1)	intensity
145.852	0
148.744	5.42407
151.637	53.5618
154.53	331.706
157.423	638.031
160.315	933.126
163.208	1423.7
166.101	2212.89
168.994	3453.16
171.886	4624.34
174.779	3993.95
177.672	2594.24
180.564	1945.46
183.457	1771.62
186.35	1973.34
189.242	2456.01
192.135	3187
195.028	4140.83
197.921	4931.89
200.813	4966.05
203.706	4299.34
206.599	3537.78
209.491	3140.18
212.384	3093.09
215.277	3295
218.169	3262.02
221.062	2520.75
223.955	1631.64
226.847	1046.42
229.74	672.68
232.633	372.778
235.526	150.778
238.418	19.7044
241.311	55.4563
244.204	101.603
247.096	87.3897
249.989	88.5741
252.882	22.9707
255.774	90.0885
258.667	265.272
261.56	486.534
264.453	742.738
267.345	1067.45
270.238	1469.85
273.131	1874.03
276.023	2020.25
278.916	1721.8
281.809	1173.57
284.702	694.492
287.594	397.158
290.487	260.966
293.38	241.455
296.272	289.789
299.165	399.501
302.058	607.965
304.95	884.512
307.843	1113.08
310.736	1081.38
313.628	874.319
316.521	792.066
319.414	852.725
322.307	909.338
325.199	753.789
328.092	460.164
330.985	263.022
333.877	215.825
336.77	273.732
339.663	382.808
342.556	524.674
345.448	668.279
348.341	770.036
351.234	803.447
354.126	763.131
357.019	696.341
359.912	634.042
362.805	593.468
365.697	567.604
368.59	522.934
371.483	453.386
374.375	349.219
377.268	254.524
380.161	183.959
383.053	166.311
385.946	184.011
388.839	207.219
391.731	224.003
394.624	208.182
397.517	169.554
400.41	130.804
403.302	82.5765
406.195	27.0718
409.088	11.9585
411.98	31.5771
414.873	43.1077
417.766	44.2412
420.659	32.177
423.551	10.4319
426.444	4.23901
429.337	20.9447
432.229	38.119
435.122	48.9786
438.015	66.5886
440.907	86.4989
443.8	108.976
446.693	138.642
449.586	155.879
452.478	163.435
455.371	158.035
458.264	156.561
461.156	172.46
464.049	193.803
466.942	222.782
469.834	250.919
472.727	284.298
475.62	312.767
478.513	331.181
481.405	313.791
484.298	242.934
487.191	154.612
490.083	86.5182
492.976	48.4882
495.869	24.7947
498.762	14.1372
501.654	3.13641
504.547	1.11426
507.44	0.327209
510.332	0.24646
513.225	2.34369
516.118	1.87134
519.01	0.940491
521.903	4.63354
524.796	1.29248
527.688	1.99799
530.581	4.68109
533.474	6.93536
536.367	10.2149
539.259	11.1504
542.152	15.6314
545.045	18.5496
547.937	21.0207
550.83	24.1562
553.723	22.891
556.615	27.4706
559.508	26.9047
562.401	19.1979
565.294	17.0261
568.186	15.4217
571.079	14.7333
573.972	15.6364
576.864	14.3807
579.757	16.8326
582.65	10.1196
585.543	8.07825
588.435	15.6531
591.328	8.9668
594.221	10.5412
597.113	8.60144
600.006	15.6245
602.899	13.6519
605.791	20.4109
608.684	27.2297
611.577	30.824
614.47	32.7567
617.362	45.186
620.255	51.3465
623.148	49.5635
626.04	53.3956
628.933	46.8356
631.826	43.7637
634.718	36.1555
637.611	33.1989
640.504	28.5267
643.397	28.4914
646.289	34.3157
649.182	26.6323
652.075	29.9897
654.967	30.7086
657.86	30.3019
660.753	33.0777
663.645	39.4216
666.538	34.6652
669.431	35.6345
672.324	34.3215
675.216	31.5801
678.109	29.1588
681.002	25.3851
683.894	22.5673
686.787	18.7883
689.68	13.2971
692.572	13.1951
695.465	9.45056
698.358	6.86365
701.251	6.53674
704.143	1.85883
707.036	0.483582
709.929	4.55304
712.821	5.1889
715.714	12.0032
718.607	12.411
721.5	11.7276
724.392	10.719
727.285	14.9834
730.178	6.11676
733.07	5.86633
735.963	19.9503
738.856	37.0848
741.749	70.8468
744.641	114.319
747.534	171.839
750.427	250.328
753.319	347.939
756.212	482.438
759.105	635.457
761.997	748.471
764.89	814.21
767.783	857.462
770.676	862.94
773.568	833.71
776.461	846.42
779.354	870.842
782.246	805.344
785.139	664.706
788.032	553.822
790.924	515.005
793.817	530.525
796.71	575.64
799.602	609.21
802.495	585.61
805.388	499.735
808.281	437.275
811.173	437.505
814.066	518.777
816.959	713.177
819.851	1043.84
822.744	1507.01
825.637	2090.7
828.529	2773.8
831.422	3451.68
834.315	3784.7
837.208	3316.44
840.1	2363.38
842.993	1550.64
845.886	1015.14
848.778	680.93
851.671	465.239
854.564	323.802
857.457	227.53
860.349	163.593
863.242	115.689
866.135	80.5362
869.027	62.3603
871.92	40.6193
874.813	21.9786
877.705	17.8581
880.598	3.63751
883.491	2.67981
886.384	4.37793
889.276	8.7713
892.169	11.0396
895.062	11.4901
897.954	12.5231
900.847	6.58533
903.74	6.04919
906.632	4.4552
909.525	0.863403
912.418	0.620056
915.311	6.32397
918.203	11.1823
921.096	15.5479
923.989	19.6276
926.881	28.609
929.774	34.3383
932.667	44.8278
935.559	43.5042
938.452	45.0593
941.345	47.0958
944.238	53.1329
947.13	60.6573
950.023	62.9168
952.916	50.6314
955.808	38.2615
958.701	33.1052
961.594	28.7244
964.486	26.4713
967.379	23.9042
970.272	19.769
973.165	17.3102
976.057	17.3547
978.95	14.212
981.843	11.4302
984.735	13.1913
987.628	10.1045
990.521	12.8887
993.413	10.6439
996.306	10.3436
999.199	9.08057
1002.09	10.4227
1004.98	7.67206
1007.88	9.33887
1010.77	7.2612
1013.66	7.15054
1016.55	5.39291
1019.45	6.5795
1022.34	6.40509
1025.23	6.16681
1028.13	6.46088
1031.02	3.4314
1033.91	7.3136
1036.8	5.78427
1039.7	5.45102
1042.59	1.12701
1045.48	4.61166
1048.38	1.91724
1051.27	6.10172
1054.16	5.09589
1057.05	9.99252
1059.95	10.1603
1062.84	16.5328
1065.73	21.4389
1068.62	30.5363
1071.52	36.9151
1074.41	47.8275
1077.3	55.2013
1080.19	60.8751
1083.09	60.5281
1085.98	52.9625
1088.87	40.8398
1091.77	29.9703
1094.66	24.8098
1097.55	19.217
1100.44	12.3994
1103.34	8.16391
1106.23	4.49823
1109.12	6.806
1112.01	3.7695
1114.91	2.96405
1117.8	2.20532
1120.69	0.108368
1123.59	0.909637
1126.48	1.68497
1129.37	3.5676
1132.26	1.34177
1135.16	1.7041
1138.05	1.51556
1140.94	0.943817
1143.83	0.84375
1146.73	2.35703
1149.62	3.09061
1152.51	0.277344
1155.4	2.40247
1158.3	0.515137
1161.19	0.137268
1164.08	0.490814
1166.98	1.74426
1169.87	0.516724
1172.76	1.08365
1175.65	2.39587
1178.55	1.48398
1181.44	2.70724
1184.33	1.43951
1187.22	3.48669
1190.12	4.89264
1193.01	3.32486
1195.9	3.71506
1198.8	3.61511
1201.69	5.64767
1204.58	7.71365
1207.47	6.79977
1210.37	5.69254
1213.26	6.31811
1216.15	6.19055
1219.04	5.84982
1221.94	4.68253
1224.83	4.2865
1227.72	6.00888
1230.62	7.70691
1233.51	6.67334
1236.4	5.11676
1239.29	7.14044
1242.19	5.74493
1245.08	3.63834
1247.97	5.10446
1250.86	3.92954
1253.76	2.81863
1256.65	3.55786
1259.54	1.6442
1262.43	2.24631
1265.33	4.71567
1268.22	4.97583
1271.11	1.98349
1274.01	1.21579
1276.9	2.95764
1279.79	0.131592
1282.68	4.43961
1285.58	3.91232
