Measurement: Raman, 532 nm, unoriented, Raman Data Processed
Mineral: Atelestite
Rruff sample: R080139
Ideal chemistry: Bi^3+^_2_O(As^5+^O_4_)(OH)
Locality: Daniel mine, Schneeberg, Saxony, Germany
Source: William W. Pinch
Description: Small sharp tan to cream colored crystals, associated with dark brown eulytine
Raman shift (cm-1)	intensity
143.076	0
146.451	35.1934
149.826	79.1748
153.201	1219.31
156.576	4310.56
159.951	7890.43
163.325	12385.2
166.7	20547.6
170.075	32837.8
173.45	36235.8
176.825	22750
180.199	15069.2
183.574	13461.1
186.949	16022.3
190.324	21372.9
193.699	29220.4
197.073	37022.5
200.448	38284.2
203.823	32610.5
207.198	26375.7
210.573	23842.4
213.948	24801.5
217.322	25850.7
220.697	20510.5
224.072	12839.7
227.447	7892.91
230.822	4715.19
234.196	2257.92
237.571	768.815
240.946	115.045
244.321	551.155
247.696	765.69
251.071	584.829
254.445	61.9482
257.82	1293.2
261.195	3370.09
264.57	6235.3
267.945	9948.63
271.32	14307.1
274.694	17384.7
278.069	15663.1
281.444	10458.7
284.819	5585.56
288.193	2726.97
291.568	1482.29
294.943	1592.64
298.318	2478.61
301.693	4080.53
305.068	6505.62
308.442	8456.29
311.817	7683.4
315.192	6370.04
318.567	6759.56
321.942	7368.26
325.317	6050.65
328.691	3626.38
332.066	2363.88
335.441	2631.81
338.816	3869.45
342.191	5455.77
345.565	7101.21
348.94	8161.77
352.315	8190.53
355.69	7509.33
359.065	6614.18
362.44	5972.31
365.814	5513.59
369.189	4847.1
372.564	3899.73
375.939	2761.73
379.314	1903.23
382.688	1513.7
386.063	1594.62
389.438	1727.15
392.813	1659.2
396.188	1384.89
399.562	1025.94
402.937	579.825
406.312	181.51
409.687	141.091
413.062	321.734
416.437	333.28
419.811	302.388
423.186	104.953
426.561	74.6826
429.936	289.027
433.311	416.39
436.685	589.581
440.06	840.119
443.435	1075.56
446.81	1351.42
450.185	1493.03
453.56	1476.66
456.934	1405.42
460.309	1446.15
463.684	1676.15
467.059	2089.55
470.434	2579.01
473.808	3083.67
477.183	3578.92
480.558	3515.48
483.933	2793.35
487.308	1724.77
490.683	941.554
494.057	449.71
497.432	233.02
500.807	77.3008
504.182	31.834
507.557	17.8164
510.931	33.6182
514.306	27.0889
517.681	18.8477
521.056	24.7725
524.431	42.6103
527.806	69.2212
531.18	84.0923
534.555	110.463
537.93	183.749
541.305	215.809
544.68	279.345
548.054	290.364
551.429	309.672
554.804	300.19
558.179	273.56
561.554	235.75
564.928	260.512
568.303	219.2
571.678	217.892
575.053	191.41
578.428	169.592
581.803	158.932
585.177	130.139
588.552	114.823
591.927	136.69
595.302	144.697
598.677	135.891
602.052	198.972
605.426	289.021
608.801	352.02
612.176	451.871
615.551	549.217
618.926	625.432
622.3	693.56
625.675	667.605
629.05	611.84
632.425	552.937
635.8	468.153
639.174	400.801
642.549	402.456
645.924	350.759
649.299	357.688
652.674	383.608
656.048	374.682
659.423	390.522
662.798	419.04
666.173	437.293
669.548	449.282
672.923	414.43
676.297	409.359
679.672	337.495
683.047	321.841
686.422	281.85
689.797	241.247
693.172	196.506
696.546	104.397
699.921	72.4004
703.296	6.75684
706.671	5.63769
710.046	55.3125
713.42	63.7734
716.795	155.805
720.17	178.106
723.545	199.856
726.92	127.871
730.294	50.1065
733.669	114.145
737.044	361.444
740.419	702.565
743.794	1146.73
747.169	1778.87
750.543	2649.03
753.918	4038.41
757.293	5862.12
760.668	7634.83
764.043	8770.9
767.418	9301.76
770.792	9573.07
774.167	9674.26
777.542	10007.4
780.917	9906.15
784.292	8163.76
787.666	6475.68
791.041	5965.85
794.416	6319.79
797.791	6924.49
801.166	6810.15
804.54	5868.72
807.915	4749.66
811.29	4522.77
814.665	5625.84
818.04	8437.95
821.415	13459.5
824.789	21166.3
828.164	31137.2
831.539	40842.9
834.914	44175.9
838.289	36558.5
841.663	24325
845.038	15402.5
848.413	9939.69
851.788	6534.1
855.163	4431.91
858.538	3029.86
861.912	2090.02
865.287	1426.6
868.662	967.255
872.037	611.444
875.412	430.517
878.786	230.322
882.161	85.0781
885.536	35.6982
888.911	103.389
892.286	155.12
895.66	169.791
899.035	139.645
902.41	96.0986
905.785	81.2031
909.16	27.6641
912.535	18.4824
915.909	57.5
919.284	136.615
922.659	174.743
926.034	308.101
929.409	364.194
932.784	455.724
936.158	445.253
939.533	519.449
942.908	626.686
946.283	680.247
949.658	708.53
953.032	610.158
956.407	491.555
959.782	384.732
963.157	356.941
966.532	341.146
969.907	311.953
973.281	257.138
976.656	224.69
980.031	269.563
983.406	227.817
986.781	178.369
990.155	135.918
993.53	130.103
996.905	118.414
1000.28	101.938
1003.65	97.4912
1007.03	80.5117
1010.4	133.758
1013.78	59.3955
1017.15	98.7793
1020.53	69.8066
1023.9	71.8711
1027.28	43.0732
1030.65	47.7461
1034.03	3.4043
1037.4	11.209
1040.78	15.4326
1044.15	35.9941
1047.53	90.6562
1050.9	29.4795
1054.28	46.8623
1057.65	67.9238
1061.03	126.012
1064.4	235.786
1067.78	325.739
1071.15	473.915
1074.53	632.153
1077.9	767.394
1081.28	841.403
1084.65	818.27
1088.03	599.687
1091.4	402.067
1094.78	336.842
1098.15	240.884
1101.52	211.435
1104.9	99.8398
1108.27	88.3945
1111.65	68.1397
1115.02	91.1455
1118.4	55.1279
1121.77	74.4551
1125.15	39.2549
1128.52	40.3164
1131.9	35.7637
1135.27	77.126
1138.65	37.7256
1142.02	28.7715
1145.4	1.22363
1148.77	5.96582
1152.15	15.3027
1155.52	8.45605
1158.9	17.751
1162.27	0.799805
1165.65	21.4053
1169.02	17.0576
1172.4	21.6709
1175.77	2.41699
1179.14	19.2988
1182.52	18.7832
1185.89	25.2568
1189.27	14.1973
1192.64	10.6543
1196.02	29.752
1199.39	42.1914
1202.77	49.8477
1206.14	33.1006
1209.52	62.4209
1212.89	67.8086
1216.27	100.405
1219.64	91.5615
1223.02	51.3955
1226.39	90.4258
1229.77	60.8965
1233.14	50.6484
1236.52	37.5654
1239.89	79.4609
1243.27	54.6103
1246.64	53.8721
1250.02	91.1103
1253.39	70.3897
1256.77	58.6172
1260.14	54.6455
1263.52	29.2891
1266.89	25.042
1270.27	32.794
1273.64	39.7451
1277.02	10.8604
1280.39	34.7666
1283.76	35.1543
1287.14	23.4912
1290.51	32.9092
1293.89	28.8662
1297.26	0.366211
1300.64	5.01562
