Measurement: Raman, 780 nm, unoriented, Raman Data Processed
Mineral: Atencioite
Rruff sample: R060893
Ideal chemistry: Ca_2_Fe^2+^_3_Mg_2_Be_4_(PO_4_)_6_(OH)_4_6H_2_O
Locality: Lin√≥polis, Minas Gerias, Brazil
Source: Michael Scott
Description: Elongated, spherically radiating gray to pale yellow-green crystals, associated with prismatic orange ushkovite and dark green rockbridgeite.
Raman shift (cm-1)	intensity
95.4169	0
98.7917	5.95621
102.166	0.04538
105.541	0.801086
108.916	3.46793
112.291	14.4189
115.666	19.4263
119.041	10.6535
122.415	6.59399
125.79	1.09845
129.165	0.617432
132.54	0.17453
135.915	2.97992
139.29	9.89374
142.664	21.4855
146.039	17.9907
149.414	7.08502
152.789	2.13525
156.163	1.34201
159.538	1.06723
162.913	0.121887
166.288	1.23984
169.663	5.2655
173.038	6.39941
176.412	10.5086
179.787	15.4547
183.162	21.8855
186.537	21.1197
189.912	14.1847
193.286	10.9684
196.661	16.2364
200.036	26.5467
203.411	38.5816
206.786	43.6675
210.161	42.4943
213.535	49.5953
216.91	46.9205
220.285	35.7308
223.66	26.9338
227.035	20.7198
230.409	19.5513
233.784	19.181
237.159	21.1227
240.534	19.8969
243.909	17.1218
247.284	16.3044
250.658	15.2904
254.033	16.1659
257.408	17.2462
260.783	15.4046
264.158	10.9275
267.532	8.84332
270.907	11.8284
274.282	11.3313
277.657	7.49062
281.032	6.49512
284.406	1.93327
287.781	0.834396
291.156	0.458786
294.531	0.256897
297.906	2.10959
301.281	0.323959
304.655	4.01352
308.03	3.7196
311.405	7.53029
314.78	10.6312
318.155	10.4554
321.529	8.90775
324.904	5.25273
328.279	2.26852
331.654	3.07539
335.029	2.40637
338.404	4.92984
341.778	5.03532
345.153	4.95087
348.528	3.69763
351.903	2.86296
355.278	0.728592
358.652	0.620163
362.027	0.026505
365.402	0.917465
368.777	2.00845
372.152	6.76959
375.526	12.0458
378.901	19.8748
382.276	31.3514
385.651	37.0685
389.026	31.1411
392.401	20.0757
395.775	12.4159
399.15	9.24016
402.525	14.5974
405.9	27.1131
409.275	34.3812
412.649	36.0654
416.024	37.3696
419.399	37.8142
422.774	28.1277
426.149	13.0245
429.524	9.67801
432.898	12.6218
436.273	20.556
439.648	32.5811
443.023	35.6948
446.398	24.6643
449.772	13.4537
453.147	6.50706
456.522	3.10638
459.897	0.772415
463.272	0.48674
466.647	0.742981
470.021	2.30736
473.396	1.86232
476.771	2.01245
480.146	0.818512
483.521	1.44041
486.895	1.56935
490.27	2.96164
493.645	4.38243
497.02	4.04633
500.395	6.42122
503.769	10.7181
507.144	10.5694
510.519	9.00597
513.894	4.42928
517.269	1.64975
520.644	2.22443
524.018	4.55995
527.393	6.21727
530.768	6.69489
534.143	2.46989
537.518	0.151749
540.892	0.054779
544.267	0.612976
547.642	0.739639
551.017	1.05743
554.392	3.69766
557.766	6.86151
561.141	12.6865
564.516	14.509
567.891	11.4753
571.266	9.27315
574.64	7.51538
578.015	8.15814
581.39	10.3215
584.765	10.3748
588.14	6.81636
591.515	4.84726
594.889	4.8727
598.264	5.9843
601.639	10.0613
605.014	11.1356
608.389	13.6359
611.764	11.131
615.138	6.9395
618.513	4.55264
621.888	8.01837
625.263	12.257
628.638	23.4977
632.012	40.8548
635.387	58.3114
638.762	55.4012
642.137	33.9496
645.512	19.2511
648.886	9.8956
652.261	6.21666
655.636	2.71478
659.011	2.66702
662.386	1.16335
665.76	0.866592
669.135	0.52092
672.51	0.020691
675.885	0.04039
679.26	0.116241
682.635	0.248322
686.009	1.09053
689.384	1.29022
692.759	0.630539
696.134	1.36311
699.509	1.93607
702.884	2.21812
706.258	3.5684
709.633	3.56992
713.008	4.37761
716.383	7.75368
719.758	6.71915
723.132	5.49211
726.507	3.69475
729.882	3.48561
733.257	2.13397
736.632	1.8548
740.006	2.8407
743.381	0.02594
746.756	0.078857
750.131	1.4222
753.506	0.206177
756.88	0.173813
760.255	0.297302
763.63	0.123566
767.005	1.85303
770.38	1.3615
773.755	1.20842
777.129	2.42743
780.504	2.21289
783.879	1.05965
787.254	2.69637
790.629	2.66746
794.003	4.01543
797.378	3.56096
800.753	4.54138
804.128	4.0442
807.503	6.48209
810.878	6.78055
814.252	6.09428
817.627	7.06708
821.002	7.9379
824.377	6.39989
827.752	6.62419
831.126	5.53229
834.501	6.26938
837.876	6.74181
841.251	6.2588
844.626	3.12889
848	4.34602
851.375	3.96043
854.75	3.05064
858.125	2.39014
861.5	1.99971
864.875	2.95741
868.249	1.54568
871.624	1.68004
874.999	1.98534
878.374	0.584671
881.749	0.976257
885.123	0.119644
888.498	0.714066
891.873	0.704559
895.248	0.093948
898.623	0.036407
901.997	2.32129
905.372	0.011215
908.747	0.198685
912.122	0.282349
915.497	0.966492
918.872	0.970917
922.246	1.80629
925.621	0.527969
928.996	0.384735
932.371	1.3678
935.746	1.97554
939.12	3.17635
942.495	5.42023
945.87	10.3474
949.245	15.6169
952.62	24.207
955.995	29.8681
959.369	31.5495
962.744	27.2538
966.119	27.8085
969.494	33.8331
972.869	49.4446
976.243	79.404
979.618	139.453
982.993	209.818
986.368	185.51
989.743	126.735
993.117	82.4437
996.492	54.3796
999.867	35.4625
1003.24	24.7803
1006.62	15.6815
1009.99	13.3913
1013.37	12.1821
1016.74	17.0989
1020.12	18.3544
1023.49	17.633
1026.87	14.4705
1030.24	10.915
1033.62	7.8811
1036.99	9.77922
1040.37	10.3734
1043.74	8.23753
1047.12	7.93303
1050.49	9.7142
1053.86	11.3135
1057.24	10.3417
1060.61	8.61441
1063.99	6.8819
1067.36	5.12349
1070.74	3.82844
1074.11	0.148483
1077.49	0.425034
1080.86	0.956696
1084.24	0.289948
1087.61	0.860504
1090.99	0.266525
1094.36	0.436554
1097.74	1.50198
1101.11	0.83046
1104.49	0.184433
1107.86	2.98822
1111.24	5.0407
1114.61	6.28449
1117.99	11.332
1121.36	14.5599
1124.73	11.7819
1128.11	7.65318
1131.48	5.67564
1134.86	3.62242
1138.23	1.96475
1141.61	1.28981
1144.98	0.85144
1148.36	1.09705
1151.73	1.371
1155.11	0.076172
1158.48	0.101013
1161.86	0.254608
1165.23	0.090256
1168.61	1.39496
1171.98	0.908524
1175.36	1.30241
1178.73	1.70689
1182.11	1.3269
1185.48	1.12106
1188.86	0.47905
1192.23	2.38812
1195.61	0.657623
1198.98	2.64412
1202.36	1.77611
1205.73	2.48053
1209.11	3.3846
1212.48	1.71159
1215.86	0.736572
1219.23	1.60181
1222.61	0.696182
1225.98	1.83183
1229.35	1.4852
1232.73	0.220581
1236.1	2.02887
1239.48	0.909485
1242.85	0.782013
1246.23	0.232208
1249.6	1.0572
1252.98	0.644867
1256.35	1.00868
1259.73	1.55103
1263.1	0.475861
1266.48	0.672623
1269.85	1.55916
1273.23	1.30376
1276.6	0.850952
1279.98	0.95816
1283.35	0.622116
