Measurement: Raman, 532 nm, unoriented, Raman Data Processed
Mineral: Atencioite
Rruff sample: R060893
Ideal chemistry: Ca_2_Fe^2+^_3_Mg_2_Be_4_(PO_4_)_6_(OH)_4_6H_2_O
Locality: Lin√≥polis, Minas Gerias, Brazil
Source: Michael Scott
Description: Elongated, spherically radiating gray to pale yellow-green crystals, associated with prismatic orange ushkovite and dark green rockbridgeite.
Raman shift (cm-1)	intensity
111.961	0
115.335	5.57703
118.71	5.54716
122.085	2.24116
125.46	0.220879
128.835	0.420082
132.209	0.289501
135.584	0.733093
138.959	4.04059
142.334	9.35511
145.709	11.0773
149.084	5.22112
152.458	3.30858
155.833	3.15449
159.208	2.86593
162.583	2.54436
165.958	3.7532
169.333	6.58958
172.707	9.98452
176.082	11.9622
179.457	17.0002
182.832	22.5275
186.207	21.3671
189.581	15.6165
192.956	12.8184
196.331	12.2827
199.706	14.3144
203.081	16.9858
206.455	17.6034
209.83	20.0715
213.205	25.0433
216.58	28.6287
219.955	23.5828
223.329	19.9359
226.704	19.4684
230.079	18.3719
233.454	17.0809
236.829	12.97
240.204	9.60313
243.578	6.5557
246.953	4.57367
250.328	4.18227
253.703	5.19746
257.078	5.88289
260.452	5.80326
263.827	4.61843
267.202	3.94746
270.577	4.77238
273.952	4.62233
277.327	3.71032
280.701	1.89626
284.076	0.137627
287.451	1.09084
290.826	1.38229
294.201	0.88942
297.575	0.253014
300.95	2.3822
304.325	5.72391
307.7	9.39845
311.075	13.1477
314.45	14.6957
317.824	15.8431
321.199	12.7505
324.574	9.06403
327.949	4.75513
331.324	2.80049
334.699	3.04791
338.073	2.84166
341.448	4.07639
344.823	5.04168
348.198	3.86137
351.573	2.15233
354.947	0.969292
358.322	0.813477
361.697	0.192337
365.072	2.59045
368.447	6.93467
371.822	13.4087
375.196	23.5735
378.571	37.1097
381.946	51.5424
385.321	59.4801
388.696	50.1477
392.07	33.3539
395.445	20.2549
398.82	14.8728
402.195	15.8513
405.57	18.6098
408.945	23.188
412.319	22.2015
415.694	19.7515
419.069	16.8291
422.444	13.9751
425.818	9.80078
429.193	11.0236
432.568	20.0848
435.943	34.103
439.318	49.1967
442.693	53.6978
446.067	38.8545
449.442	21.094
452.817	11.14
456.192	4.38883
459.567	2.12889
462.942	0.781357
466.316	0.990807
469.691	1.65383
473.066	0.850624
476.441	0.355438
479.816	0.785286
483.19	0.322945
486.565	0.803261
489.94	2.14636
493.315	2.56132
496.69	4.10244
500.065	5.28013
503.439	7.22395
506.814	7.46031
510.189	4.99051
513.564	3.62404
516.939	4.70303
520.313	5.11101
523.688	7.32405
527.063	10.2033
530.438	9.27041
533.813	5.34882
537.188	1.5974
540.562	0.718712
543.937	0.693108
547.312	0.082405
550.687	0.665573
554.062	2.07825
557.436	3.15472
560.811	5.57962
564.186	6.4088
567.561	6.7867
570.936	7.70876
574.311	9.01076
577.685	9.69376
581.06	11.4475
584.435	12.6224
587.81	9.8009
591.185	6.3769
594.559	8.20623
597.934	10.3186
601.309	13.6941
604.684	17.4583
608.059	18.4035
611.433	14.2676
614.808	7.49273
618.183	5.94264
621.558	9.0765
624.933	13.3862
628.308	26.0741
631.682	41.5297
635.057	57.8211
638.432	55.8219
641.807	36.5239
645.182	20.5824
648.557	10.7778
651.931	5.92293
655.306	4.31133
658.681	0.988182
662.056	0.784622
665.431	0.4552
668.805	0.11515
672.18	0.193268
675.555	0.10675
678.93	1.03389
682.305	1.26199
685.679	0.50721
689.054	0.886444
692.429	0.388046
695.804	0.151581
699.179	1.74221
702.553	2.91485
705.928	4.44461
709.303	6.47634
712.678	7.9539
716.053	9.82673
719.428	10.0831
722.802	9.68269
726.177	8.6055
729.552	7.15256
732.927	6.6908
736.302	4.26864
739.677	4.10512
743.051	2.16769
746.426	0.954292
749.801	1.13499
753.176	1.26263
756.551	1.6392
759.925	3.49735
763.3	4.37324
766.675	7.12792
770.05	7.30135
773.425	8.60323
776.799	9.72156
780.174	11.8404
783.549	14.1468
786.924	16.2799
790.299	19.3666
793.674	23.5397
797.048	27.8245
800.423	34.2169
803.798	37.8762
807.173	40.9449
810.548	42.7982
813.923	43.8864
817.297	41.8917
820.672	41.2634
824.047	36.744
827.422	34.6347
830.797	31.2839
834.171	27.1834
837.546	24.6548
840.921	22.0518
844.296	18.9705
847.671	14.6058
851.045	11.492
854.42	8.34473
857.795	6.32844
861.17	4.31238
864.545	2.27442
867.92	0.005562
871.294	2.0391
874.669	1.28101
878.044	0.037682
881.419	0.718735
884.794	0.176666
888.168	0.124458
891.543	0.55571
894.918	0.096962
898.293	0.22065
901.668	0.307129
905.043	0.009666
908.417	0.861923
911.792	1.0905
915.167	0.770668
918.542	1.0464
921.917	0.293091
925.291	0.494278
928.666	0.428833
932.041	1.38808
935.416	4.26965
938.791	7.29799
942.165	13.6292
945.54	20.5914
948.915	33.6932
952.29	48.2405
955.665	58.8164
959.04	59.8239
962.414	54.765
965.789	53.6799
969.164	63.5487
972.539	88.5865
975.914	137.497
979.288	220.49
982.663	319.875
986.038	310.525
989.413	213.456
992.788	138.03
996.163	87.0417
999.537	57.6926
1002.91	38.1392
1006.29	28.7165
1009.66	27.0172
1013.04	27.2812
1016.41	33.5412
1019.79	40.2449
1023.16	40.5625
1026.54	33.3667
1029.91	23.3016
1033.29	16.4756
1036.66	12.6183
1040.04	9.63353
1043.41	9.62871
1046.79	12.1732
1050.16	13.4602
1053.53	16.9481
1056.91	14.5581
1060.28	10.9353
1063.66	6.91664
1067.03	4.87657
1070.41	3.06847
1073.78	0.57251
1077.16	0.485138
1080.53	1.27568
1083.91	1.81018
1087.28	1.34535
1090.66	0.205521
1094.03	1.96664
1097.41	4.60208
1100.78	4.15967
1104.16	4.55309
1107.53	4.94412
1110.91	8.89755
1114.28	11.8663
1117.66	17.3529
1121.03	21.1974
1124.41	20.4045
1127.78	15.4084
1131.15	9.55551
1134.53	6.37547
1137.9	5.64954
1141.28	3.85948
1144.65	2.45337
1148.03	0.928238
1151.4	0.121063
1154.78	0.443024
1158.15	0.372833
1161.53	0.532318
1164.9	0.331985
1168.28	0.551125
1171.65	0.932762
1175.03	0.510193
1178.4	0.659836
1181.78	1.88666
1185.15	0.265686
1188.53	0.812836
1191.9	1.84939
1195.28	2.03073
1198.65	1.64845
1202.03	1.4118
1205.4	2.40892
1208.78	1.21084
1212.15	1.97012
1215.53	2.35011
1218.9	1.62783
1222.28	3.27422
1225.65	2.34799
1229.03	1.9593
1232.4	1.82037
1235.78	1.70414
1239.15	2.5319
1242.52	0.207664
1245.9	1.77803
1249.27	2.14107
1252.65	1.52077
1256.02	0.586678
1259.4	1.44881
1262.77	1.09675
1266.15	1.05558
1269.52	1.13294
1272.9	0.629799
1276.27	1.59094
1279.65	0.980766
1283.02	1.12314
1286.4	0.087509
1289.77	0.236389
1293.15	0.245575
1296.52	0.813164
1299.9	0.546745
