Measurement: Raman, 532 nm, unoriented, Raman Data Processed
Mineral: Aubertite
Rruff sample: R060751
Ideal chemistry: Cu^2+^Al(SO_4_)_2_Cl14H_2_O
Locality: Quetena mine, Chuquicamata, Chile
Source: Bob Jenkins
Description: Light green massive
Raman shift (cm-1)	intensity
120.772	0
124.147	13.8011
127.522	68.4089
130.897	119.489
134.272	241.155
137.647	393.184
141.021	444.235
144.396	380.313
147.771	296.214
151.146	237.863
154.521	205.735
157.895	218.577
161.27	251.178
164.645	323.779
168.02	324.21
171.395	397.89
174.77	421.072
178.144	498.978
181.519	466.484
184.894	486.311
188.269	418.87
191.644	276.265
195.018	224.269
198.393	72.4639
201.768	7.92786
205.143	30.4274
208.518	25.7212
211.893	6.57275
215.267	24.3568
218.642	40.7289
222.017	60.6612
225.392	58.1146
228.767	84.9184
232.142	148.2
235.516	232.046
238.891	357.636
242.266	435.692
245.641	565.664
249.016	708.388
252.39	718.699
255.765	721.974
259.14	664.237
262.515	650.904
265.89	633.167
269.264	645.466
272.639	609.662
276.014	530.16
279.389	434.284
282.764	307.439
286.139	195.954
289.513	160.921
292.888	139.13
296.263	173.502
299.638	210.739
303.013	151.693
306.387	95.42
309.762	88.3187
313.137	124.852
316.512	160.541
319.887	231.34
323.262	259.749
326.636	205.276
330.011	173.026
333.386	123.375
336.761	129.382
340.136	56.9464
343.51	30.0315
346.885	5.57812
350.26	21.932
353.635	18.0794
357.01	15.5541
360.385	26.3083
363.759	10.4322
367.134	20.2219
370.509	1.60748
373.884	12.7439
377.259	12.9821
380.634	33.1404
384.008	57.955
387.383	63.8453
390.758	81.3426
394.133	94.1904
397.507	107.466
400.882	165.37
404.257	205.564
407.632	321.116
411.007	489.379
414.382	724.508
417.756	1071.02
421.131	1351.72
424.506	1431.96
427.881	1255.12
431.256	1075.08
434.63	974.156
438.005	989.942
441.38	1000.85
444.755	1002.3
448.13	1035.03
451.505	1034.47
454.879	994.567
458.254	972.22
461.629	922.166
465.004	861.326
468.379	896.165
471.753	797.416
475.128	768.739
478.503	663.789
481.878	540.448
485.253	369.577
488.628	241.259
492.002	160.711
495.377	87.6874
498.752	79.6676
502.127	64.1029
505.502	29.6236
508.877	61.5739
512.251	83.994
515.626	111.213
519.001	141.633
522.376	130.796
525.751	195.518
529.125	222.593
532.5	209.153
535.875	165.346
539.25	117.484
542.625	64.2076
546	29.4104
549.374	10.3313
552.749	17.6776
556.124	19.127
559.499	27.2885
562.874	14.5685
566.248	0.281982
569.623	9.06934
572.998	22.5939
576.373	52.3336
579.748	75.5475
583.122	132.207
586.497	190.568
589.872	335.594
593.247	513.595
596.622	801.437
599.997	1005.05
603.371	1179.42
606.746	1066.79
610.121	949.736
613.496	811.923
616.871	731.548
620.245	737.502
623.62	813.358
626.995	819.167
630.37	779.322
633.745	628.26
637.12	470.933
640.494	359.356
643.869	255.853
647.244	173.413
650.619	134.295
653.994	87.5885
657.369	53.6
660.743	32.7899
664.118	4.66284
667.493	5.13776
670.868	9.29169
674.243	4.99957
677.617	7.8811
680.992	14.673
684.367	7.08063
687.742	12.9601
691.117	4.47968
694.491	17.0925
697.866	22.635
701.241	51.8712
704.616	45.2229
707.991	36.3334
711.365	52.1379
714.74	55.9766
718.115	84.6603
721.49	56.0107
724.865	54.941
728.24	78.2831
731.614	49.3094
734.989	60.7141
738.364	47.1137
741.739	40.2924
745.114	15.2585
748.489	32.101
751.863	7.10101
755.238	4.12073
758.613	12.2252
761.988	4.7096
765.363	1.7384
768.737	0.315796
772.112	8.43451
775.487	1.65997
778.862	6.11401
782.237	3.65949
785.611	5.8277
788.986	23.858
792.361	15.2399
795.736	18.0043
799.111	22.9902
802.486	13.3916
805.86	45.011
809.235	42.7852
812.61	72.3231
815.985	59.6133
819.36	37.3666
822.735	54.2764
826.109	52.2977
829.484	80.3385
832.859	48.7654
836.234	59.1388
839.609	66.13
842.983	71.5978
846.358	67.0695
849.733	57.8882
853.108	81.9694
856.483	90.0867
859.857	95.5061
863.232	79.6364
866.607	93.8712
869.982	89.54
873.357	91.4626
876.732	69.2045
880.106	66.6725
883.481	38.6282
886.856	34.4913
890.231	20.2344
893.606	27.8781
896.981	1.17224
900.355	9.43726
903.73	10.7932
907.105	16.5665
910.48	16.7644
913.855	9.41626
917.229	6.22565
920.604	2.98383
923.979	2.35669
927.354	22.0486
930.729	32.3158
934.104	73.753
937.478	113.627
940.853	148.381
944.228	219.123
947.603	277.176
950.978	391.553
954.352	442.705
957.727	535.108
961.102	652.164
964.477	790.615
967.852	997.361
971.226	1291.83
974.601	1792.39
977.976	2953.59
981.351	5944.7
984.726	11422.3
988.101	18693.2
991.475	19874.8
994.85	8354.92
998.225	2847.87
1001.6	1188.73
1004.98	648.897
1008.35	394.405
1011.72	308.599
1015.1	290.652
1018.47	250.402
1021.85	166.704
1025.22	150.793
1028.6	74.4132
1031.97	16.4852
1035.35	26.1611
1038.72	27.675
1042.1	22.5073
1045.47	96.0858
1048.85	143.694
1052.22	182.744
1055.6	141.616
1058.97	61.3815
1062.35	2.82733
1065.72	6.66956
1069.1	0.073364
1072.47	19.5689
1075.85	59.4726
1079.22	126.234
1082.6	239.433
1085.97	436.476
1089.35	779.023
1092.72	1305.63
1096.1	1933.07
1099.47	2368.93
1102.84	2082.67
1106.22	1409.38
1109.59	864.478
1112.97	580.27
1116.34	481.246
1119.72	449.344
1123.09	510.05
1126.47	581.105
1129.84	607.583
1133.22	517.873
1136.59	351.748
1139.97	216.135
1143.34	121.302
1146.72	113.53
1150.09	156.606
1153.47	49.6026
1156.84	53.527
1160.22	26.5544
1163.59	10.2064
1166.97	0.173889
1170.34	13.4066
1173.72	15.1426
1177.09	0.469147
1180.46	1.65457
1183.84	0.75769
1187.21	8.35947
1190.59	6.10428
1193.96	14.0216
1197.34	10.6925
1200.71	6.44739
1204.09	0.722015
1207.46	12.4908
1210.84	16.8157
1214.21	13.2226
1217.59	25.9436
1220.96	29.3741
1224.34	16.8321
1227.71	22.4599
1231.09	18.1148
1234.46	15.739
1237.84	19.9488
1241.21	12.7772
1244.59	4.65933
1247.96	14.7318
1251.34	2.73914
1254.71	32.7157
1258.09	18.7289
1261.46	24.7938
1264.84	25.0258
1268.21	30.3711
1271.59	18.2094
1274.96	20.236
1278.34	11.7293
1281.71	23.0685
1285.08	6.2901
1288.46	1.8866
1291.83	0.155762
1295.21	16.1124
1298.58	7.10324
1301.96	17.184
1305.33	3.15976
