Measurement: Raman, 785 nm, unoriented, Raman Data Processed
Mineral: Aubertite
Rruff sample: R060751
Ideal chemistry: Cu^2+^Al(SO_4_)_2_Cl14H_2_O
Locality: Quetena mine, Chuquicamata, Chile
Source: Bob Jenkins
Description: Light green massive
Raman shift (cm-1)	intensity
125.648	0
128.541	33.459
131.434	174.517
134.327	220.711
137.219	58.0622
140.112	11.5433
143.005	73.5735
145.897	187.391
148.79	299.316
151.683	284.776
154.576	135.322
157.468	127.502
160.361	160.764
163.254	158.67
166.146	209.614
169.039	250.538
171.932	279.029
174.824	291.195
177.717	328.366
180.61	337.925
183.502	346.017
186.395	370.448
189.288	314.889
192.181	268.904
195.073	185.917
197.966	121.789
200.859	68.5459
203.751	1.30634
206.644	2.15341
209.537	3.50028
212.429	6.15712
215.322	0.882446
218.215	25.807
221.108	51.5693
224	103.542
226.893	160.351
229.786	242.534
232.678	354.154
235.571	455.775
238.464	543.099
241.357	624.526
244.249	719.218
247.142	804.507
250.035	859.652
252.927	854.223
255.82	819.281
258.713	761.671
261.605	730.983
264.498	671.059
267.391	629.932
270.284	566.504
273.176	510.477
276.069	459.294
278.962	360.877
281.854	298.24
284.747	221.384
287.64	200.336
290.532	177.904
293.425	209.108
296.318	234.337
299.211	266.189
302.103	220.526
304.996	168.986
307.889	162.584
310.781	154.702
313.674	179.984
316.567	220.575
319.459	243.078
322.352	298.651
325.245	249.95
328.137	204.029
331.03	151.498
333.923	136.125
336.816	90.5912
339.708	64.2129
342.601	28.2392
345.494	13.1845
348.386	11.002
351.279	5.58765
354.172	23.7203
357.065	10.5822
359.957	27.3229
362.85	19.7587
365.743	6.28897
368.635	15.0774
371.528	0.143707
374.421	15.4395
377.313	34.2421
380.206	33.4803
383.099	54.6658
385.991	51.4338
388.884	38.1983
391.777	55.6222
394.67	63.862
397.562	99.2625
400.455	96.3243
403.348	113.67
406.24	167.492
409.133	233.843
412.026	318.501
414.918	479.57
417.811	654.207
420.704	789.442
423.597	853.759
426.489	806.345
429.382	718.362
432.275	643.258
435.167	601.684
438.06	599.985
440.953	606.209
443.846	621.338
446.738	691.227
449.631	705.093
452.524	710.572
455.416	698.627
458.309	625.237
461.202	569.778
464.094	529.301
466.987	444.017
469.88	413.292
472.772	422.432
475.665	402.742
478.558	318.034
481.451	279.925
484.343	204.112
487.236	151.622
490.129	92.0404
493.021	36.223
495.914	38.425
498.807	11.0382
501.7	8.71323
504.592	10.8254
507.485	9.87619
510.378	57.3714
513.27	60.1127
516.163	75.4891
519.056	88.1957
521.948	107.788
524.841	119.694
527.734	138.81
530.626	172.161
533.519	141.84
536.412	122.799
539.305	75.0861
542.197	65.3787
545.09	24.6417
547.983	2.67148
550.875	10.2943
553.768	20.927
556.661	3.55606
559.553	17.9609
562.446	8.31952
565.339	2.98267
568.232	9.03955
571.124	3.08707
574.017	24.5225
576.91	39.6276
579.802	53.3486
582.695	68.5529
585.588	101.059
588.481	156.602
591.373	205.752
594.266	300.325
597.159	417.534
600.051	534.307
602.944	655.298
605.837	643.29
608.729	647.956
611.622	606.949
614.515	566.337
617.408	536.388
620.3	544.591
623.193	580.949
626.086	591.698
628.978	604.265
631.871	549.353
634.764	474.675
637.656	385.974
640.549	279.216
643.442	200.412
646.335	178.969
649.227	136.959
652.12	109.343
655.013	86.6294
657.905	58.6816
660.798	38.8391
663.691	30.2665
666.583	26.2728
669.476	13.6073
672.369	19.6099
675.261	3.44687
678.154	2.54062
681.047	7.47668
683.94	14.2667
686.832	3.26031
689.725	4.32944
692.618	0.345612
695.51	3.41568
698.403	8.02676
701.296	10.0619
704.188	29.1069
707.081	24.8623
709.974	26.6697
712.867	35.4173
715.759	23.5584
718.652	39.0795
721.545	29.5986
724.437	25.1091
727.33	43.073
730.223	29.0205
733.115	18.8913
736.008	32.5483
738.901	29.4648
741.794	8.89258
744.686	18.8488
747.579	27.9471
750.472	10.0186
753.364	3.1022
756.257	19.3459
759.15	4.14026
762.043	7.02637
764.935	9.61453
767.828	7.72661
770.721	10.1222
773.613	10.3905
776.506	12.6647
779.399	2.19125
782.291	5.81406
785.184	0.693512
788.077	0.90509
790.97	4.42522
793.862	14.4794
796.755	8.31889
799.648	4.30782
802.54	12.6133
805.433	10.6236
808.326	9.3803
811.218	7.17131
814.111	19.4543
817.004	19.2691
819.896	25.4467
822.789	23.2873
825.682	15.6132
828.575	14.6474
831.467	18.6549
834.36	20.111
837.253	13.5713
840.145	15.4648
843.038	27.0232
845.931	27.6325
848.823	35.6208
851.716	15.9788
854.609	43.0296
857.502	41.8459
860.394	42.1922
863.287	53.2409
866.18	50.7714
869.072	57.3209
871.965	41.8837
874.858	51.2672
877.75	49.8949
880.643	31.9179
883.536	29.1451
886.429	23.279
889.321	36.5958
892.214	22.9941
895.107	5.53876
897.999	3.35779
900.892	11.5752
903.785	17.1642
906.678	13.4468
909.57	13.1053
912.463	10.867
915.356	8.78787
918.248	14.3604
921.141	5.93106
924.034	1.45218
926.926	0.710938
929.819	3.08887
932.712	2.3046
935.605	14.1251
938.497	42.6793
941.39	58.244
944.283	64.2104
947.175	106.427
950.068	129.196
952.961	165.179
955.853	197.124
958.746	243.01
961.639	282.454
964.532	340.918
967.424	431.155
970.317	568.188
973.21	725.75
976.102	1035.17
978.995	1659.87
981.888	2967.84
984.78	5067.65
987.673	8463.01
990.566	9985.88
993.458	6419.85
996.351	2792.67
999.244	1146.97
1002.14	590.123
1005.03	311.439
1007.92	188.927
1010.82	145.486
1013.71	112.127
1016.6	103.648
1019.49	101.441
1022.38	152.553
1025.28	177.181
1028.17	126.849
1031.06	69.8414
1033.96	18.5479
1036.85	12.9307
1039.74	17.7939
1042.63	43.6435
1045.53	87.7516
1048.42	114.35
1051.31	141.603
1054.2	118.227
1057.1	101.204
1059.99	45.1184
1062.88	16.4228
1065.78	1.43732
1068.67	11.2049
1071.56	3.09164
1074.45	1.19211
1077.35	6.83441
1080.24	37.2172
1083.13	70.1247
1086.03	124.061
1088.92	206.501
1091.81	329.775
1094.7	463.606
1097.6	606.965
1100.49	689.754
1103.38	613.375
1106.27	440.969
1109.17	318.139
1112.06	250.798
1114.95	220.385
1117.85	217.996
1120.74	231.181
1123.63	294.622
1126.52	335.432
1129.41	356.624
1132.31	342.488
1135.2	278.266
1138.09	196.932
1140.99	137.691
1143.88	92.0647
1146.77	66.3026
1149.66	49.2564
1152.56	11.912
1155.45	21.0754
1158.34	17.5094
1161.23	11.2229
1164.13	15.1288
1167.02	9.32461
1169.91	6.09148
1172.81	11.681
1175.7	6.03839
1178.59	1.36043
1181.48	9.34653
1184.38	11.5168
1187.27	4.3007
1190.16	2.11346
1193.06	16.4002
1195.95	17.0344
1198.84	59.805
1201.73	39.2558
1204.63	12.2388
1207.52	19.7433
1210.41	16.7903
1213.3	2.12758
1216.2	8.80304
1219.09	7.70158
1221.98	14.5861
1224.88	17.3311
1227.77	26.7449
1230.66	15.158
1233.55	1.15047
1236.44	19.9534
