Measurement: Raman, 780 nm, unoriented, Raman Data Processed
Mineral: Augelite
Rruff sample: R050100
Ideal chemistry: Al_2_PO_4_(OH)_3_
Locality: Rapid Creek, Yukon Territory, Canada
Source: Rock Currier
Description: Pale green thick tabular crystals
Measured chemistry: Al_2.00_(P_1.00_O_4_)(OH_0.98_F_0.02_)_3_
Raman shift (cm-1)	intensity
138.754	0
141.647	27.1511
144.54	113.904
147.432	184.258
150.325	305.842
153.218	510
156.11	778.431
159.003	1112.85
161.896	1245.25
164.788	1130.08
167.681	851.337
170.574	580.513
173.467	372.439
176.359	240.836
179.252	131.153
182.145	36.7224
185.037	43.7189
187.93	19.5422
190.823	22.6016
193.715	14.8951
196.608	10.4871
199.501	1.3844
202.394	20.4962
205.286	27.0233
208.179	87.4593
211.072	106.117
213.964	169.076
216.857	288.515
219.75	479.463
222.643	739.49
225.535	964.497
228.428	654.318
231.321	375.279
234.213	290.109
237.106	204.935
239.999	216.166
242.891	240.97
245.784	253.396
248.677	379.232
251.57	484.24
254.462	434.84
257.355	184.961
260.248	82.6837
263.14	34.1315
266.033	0.467407
268.926	20.094
271.818	0.660217
274.711	7.4895
277.604	28.2051
280.497	23.9007
283.389	6.24029
286.282	4.8645
289.175	0.798462
292.067	31.4254
294.96	73.6757
297.853	51.8701
300.745	5.81494
303.638	5.33563
306.531	19.0513
309.424	29.4073
312.316	53.5131
315.209	80.9621
318.102	112.934
320.994	183.629
323.887	201.218
326.78	192.873
329.673	212.456
332.565	195.74
335.458	145.745
338.351	151.249
341.243	123.749
344.136	118.417
347.029	116.704
349.921	101.998
352.814	89.2744
355.707	140.893
358.599	203.343
361.492	269.116
364.385	486.563
367.278	618.687
370.17	366.957
373.063	183.473
375.956	69.5426
378.848	48.4853
381.741	6.80682
384.634	0.22406
387.526	19.0467
390.419	9.4339
393.312	17.2595
396.205	40.575
399.097	121.356
401.99	215.643
404.883	334.466
407.775	353.925
410.668	276.153
413.561	206.089
416.454	212.349
419.346	266.613
422.239	292.731
425.132	265.818
428.024	220.693
430.917	227.928
433.81	240.499
436.702	280.12
439.595	311.842
442.488	253.451
445.38	223.454
448.273	225.97
451.166	230.119
454.059	274.123
456.951	257.456
459.844	230.521
462.737	189.933
465.629	127.929
468.522	64.4683
471.415	59.8723
474.308	33.1323
477.2	46.7141
480.093	8.62531
482.986	2.44385
485.878	18.353
488.771	0.208679
491.664	0.702271
494.557	2.4101
497.449	12.4048
500.342	23.3141
503.235	52.2537
506.127	96.1197
509.02	164.168
511.913	244.928
514.805	328.598
517.698	505.059
520.591	620.228
523.484	708.977
526.376	670.915
529.269	558.887
532.162	418.207
535.054	298.265
537.947	210.679
540.84	176.5
543.732	127.954
546.625	88.0925
549.518	89.0948
552.41	104.189
555.303	77.8909
558.196	93.913
561.089	102.266
563.981	94.3997
566.874	83.7003
569.767	60.5082
572.659	42.2195
575.552	28.7648
578.445	4.19727
581.337	13.0756
584.23	7.79236
587.123	1.21869
590.016	13.694
592.908	3.37732
595.801	3.71857
598.694	27.604
601.586	37.5205
604.479	59.1541
607.372	114.38
610.264	140.126
613.157	223.816
616.05	319.664
618.943	402.155
621.835	585.397
624.728	855.31
627.621	1262.62
630.513	1693.55
633.406	2099.68
636.299	2071.78
639.192	1446.58
642.084	909.167
644.977	546.077
647.87	364.935
650.762	245.405
653.655	181.265
656.548	128.555
659.44	91.7049
662.333	64.8466
665.226	55.4763
668.119	42.0798
671.011	10.5483
673.904	24.5093
676.797	28.6088
679.689	2.12433
682.582	25.2646
685.475	4.80743
688.367	7.67584
691.26	6.27081
694.153	1.95019
697.045	11.9266
699.938	10.8428
702.831	18.596
705.724	16.5883
708.616	3.57519
711.509	22.7766
714.402	19.6691
717.294	8.04096
720.187	43.9294
723.08	17.9676
725.972	38.1832
728.865	50.0635
731.758	43.3366
734.651	43.1943
737.543	76.241
740.436	95.8456
743.329	76.4645
746.221	79.3889
749.114	50.9953
752.007	36.8805
754.9	15.3431
757.792	8.27252
760.685	16.2909
763.578	2.96368
766.47	16.0996
769.363	11.55
772.256	3.52142
775.149	5.97272
778.041	7.5614
780.934	8.29388
783.827	8.67853
786.719	0.248535
789.612	12.8785
792.505	5.12439
795.397	3.17535
798.29	5.15033
801.183	18.7283
804.076	13.5212
806.968	34.0622
809.861	15.7636
812.754	15.4631
815.646	25.2625
818.539	7.48602
821.432	36.8715
824.324	34.3431
827.217	38.7455
830.11	50.9487
833.003	83.874
835.895	98.3109
838.788	124.21
841.681	129.58
844.573	156.623
847.466	195.137
850.359	195.681
853.251	208.146
856.144	223.548
859.037	185.63
861.929	156.144
864.822	114.193
867.715	100.391
870.608	92.3321
873.5	58.5295
876.393	55.5178
879.286	50.1479
882.178	59.9832
885.071	68.1916
887.964	83.9581
890.857	106.221
893.749	93.4354
896.642	80.9923
899.535	60.8977
902.427	62.7877
905.32	19.2338
908.213	30.4963
911.106	11.9786
913.998	17.4805
916.891	17.5422
919.784	12.9888
922.676	14.8243
925.569	5.32394
928.462	14.8998
931.354	15.0683
934.247	11.3684
937.14	2.90805
940.033	3.07147
942.925	6.07312
945.818	2.11679
948.711	8.69662
951.603	5.23953
954.496	12.6867
957.389	1.08621
960.281	1.64224
963.174	6.57892
966.067	29.8679
968.96	4.21982
971.852	0.794373
974.745	4.9325
977.638	11.8539
980.53	11.3923
983.423	2.854
986.316	6.21814
989.208	4.98212
992.101	7.18344
994.994	19.24
997.886	52.0491
1000.78	47.4426
1003.67	72.5863
1006.57	91.6719
1009.46	71.8106
1012.35	62.3555
1015.24	42.6522
1018.13	21.9074
1021.03	4.85223
1023.92	8.65356
1026.81	14.9473
1029.71	8.0141
1032.6	3.42157
1035.49	31.9266
1038.38	24.2402
1041.28	38.2176
1044.17	31.6181
1047.06	21.9271
1049.95	27.2705
1052.85	36.4875
1055.74	49.2653
1058.63	54.8408
1061.53	54.5378
1064.42	7.63422
1067.31	2.47058
1070.2	10.3662
1073.1	6.33423
1075.99	18.064
1078.88	56.2136
1081.78	74.9744
1084.67	147.445
1087.56	182.771
1090.45	268.116
1093.35	364.422
1096.24	549.065
1099.13	775.953
1102.02	1034.14
1104.92	1151.13
1107.81	1079.7
1110.7	811.611
1113.6	537.661
1116.49	381.714
1119.38	277.242
1122.27	231.986
1125.16	168.011
1128.06	160.205
1130.95	142.432
1133.84	92.41
1136.74	78.0377
1139.63	66.3065
1142.52	55.2659
1145.41	80.4423
1148.31	111.42
1151.2	105.859
1154.09	114.097
1156.98	110.475
1159.88	107.805
1162.77	120.374
1165.66	138.109
1168.56	106.985
1171.45	78.4324
1174.34	30.3533
1177.23	21.816
1180.13	9.08893
1183.02	6.31757
1185.91	1.32788
1188.81	15.154
1191.7	8.07483
1194.59	4.33557
1197.48	3.10806
1200.38	9.16553
1203.27	8.8566
1206.16	3.66763
1209.05	6.60757
1211.95	2.55408
1214.84	5.19125
1217.73	3.98245
1220.62	1.77313
1223.52	9.73495
1226.41	22.8839
1229.3	20.5775
1232.19	25.9787
1235.09	30.2892
1237.98	8.07568
1240.87	34.4217
1243.77	23.3397
1246.66	18.2042
1249.55	22.4799
1252.44	21.6582
1255.34	22.4616
1258.23	19.7812
1261.12	15.9686
1264.02	19.5245
1266.91	11.2369
1269.8	10.5518
1272.69	14.4261
1275.59	9.77762
