Measurement: Raman, 780 nm, unoriented, Raman Data Processed
Mineral: Augelite
Rruff sample: R050316
Ideal chemistry: Al_2_PO_4_(OH)_3_
Locality: Rapid Creek, Yukon Territory, Canada
Source: Eugene Schlepp
Description: Pale green thick prismatic crystals
Measured chemistry: Al_2.00_(P_1.00_O_4_)(OH)_3_
Raman shift (cm-1)	intensity
106.023	0
109.397	0.857559
112.772	9.2216
116.147	27.5225
119.522	59.9549
122.897	115.668
126.272	165.651
129.646	168.71
133.021	107.847
136.396	62.0073
139.771	89.1762
143.146	157.982
146.52	238.292
149.895	335.514
153.27	454.591
156.645	598.561
160.02	738.69
163.395	765.394
166.769	597.062
170.144	377.17
173.519	222.965
176.894	131.656
180.269	73.7671
183.643	38.8717
187.018	18.5936
190.393	5.5892
193.768	2.03166
197.143	6.58647
200.518	3.97263
203.892	3.7552
207.267	24.6648
210.642	32.4115
214.017	49.3861
217.392	78.9476
220.766	121.485
224.141	201.37
227.516	184.097
230.891	80.5001
234.266	77.7477
237.641	90.4452
241.015	121.957
244.39	170.688
247.765	248.833
251.14	339.638
254.515	239.737
257.889	90.7165
261.264	34.9694
264.639	14.8992
268.014	6.79492
271.389	2.73186
274.764	0.386627
278.138	0.326366
281.513	1.33148
284.888	0.06559
288.263	0.824883
291.638	3.43827
295.012	9.43087
298.387	9.11322
301.762	0.529797
305.137	2.47105
308.512	1.69582
311.887	0.315464
315.261	0.745232
318.636	2.89074
322.011	7.42603
325.386	9.83466
328.761	13.4363
332.135	15.4424
335.51	16.9498
338.885	19.402
342.26	26.0559
345.635	38.6128
349.01	54.4982
352.384	64.9412
355.759	74.2079
359.134	94.4921
362.509	131.618
365.884	183.417
369.258	181.774
372.633	92.3469
376.008	36.2416
379.383	13.7713
382.758	5.33428
386.132	0.333221
389.507	3.43934
392.882	4.71077
396.257	9.97111
399.632	19.0864
403.007	32.0919
406.381	45.764
409.756	46.8194
413.131	36.8617
416.506	30.9066
419.881	29.987
423.255	27.9797
426.63	26.3247
430.005	29.2969
433.38	36.6803
436.755	45.66
440.13	53.9352
443.504	58.1073
446.879	54.4442
450.254	49.7081
453.629	43.664
457.004	36.4635
460.378	29.5566
463.753	21.7453
467.128	15.227
470.503	11.5694
473.878	6.63966
477.252	3.24243
480.627	0.900932
484.002	2.92585
487.377	3.0983
490.752	2.82436
494.127	2.5043
497.501	1.2794
500.876	3.20409
504.251	7.9409
507.626	15.4514
511.001	24.8049
514.375	39.6544
517.75	55.0852
521.125	71.9149
524.5	85.9911
527.875	94.5497
531.25	99.8494
534.624	105.158
537.999	114.104
541.374	130.871
544.749	152.047
548.124	179.098
551.498	212.235
554.873	245.175
558.248	275.695
561.623	289.926
564.998	287.655
568.372	266.805
571.747	232.745
575.122	189.991
578.497	149.153
581.872	107.03
585.247	66.9445
588.621	35.7388
591.996	13.735
595.371	3.92564
598.746	1.98561
602.121	5.57447
605.495	15.3653
608.87	30.6684
612.245	52.9939
615.62	89.2314
618.995	142.727
622.37	209.048
625.744	281.676
629.119	372.36
632.494	465.026
635.869	473.268
639.244	325.752
642.619	171.599
645.993	89.0717
649.368	50.8463
652.743	30.6422
656.118	17.2929
659.493	10.5689
662.867	6.40813
666.242	2.97248
669.617	0.274899
672.992	0.440022
676.367	0.986332
679.741	1.87641
683.116	1.27828
686.491	1.99447
689.866	2.10953
693.241	0.252426
696.615	0.521183
699.99	0.835262
703.365	3.67386
706.74	4.53335
710.115	7.16866
713.49	10.5598
716.864	14.4699
720.239	14.7695
723.614	15.0752
726.989	14.7734
730.364	14.4715
733.739	14.7745
737.113	13.7538
740.488	13.9343
743.863	12.3575
747.238	10.099
750.612	5.96992
753.987	3.74295
757.362	2.3358
760.737	1.47157
764.112	1.8679
767.487	1.13334
770.861	0.435135
774.236	0.190697
777.611	0.1087
780.986	0.483627
784.361	0.827087
787.736	0.573872
791.11	0.017105
794.485	0.541492
797.86	0.032795
801.235	0.648304
804.61	0.583614
807.984	1.25799
811.359	2.11077
814.734	3.76017
818.109	4.01776
821.484	5.90964
824.859	7.61252
828.233	10.5455
831.608	13.8586
834.983	19.4656
838.358	25.0371
841.733	33.5462
845.107	40.2092
848.482	48.5853
851.857	56.6884
855.232	60.995
858.607	60.0277
861.981	53.5753
865.356	44.4781
868.731	35.8805
872.106	27.373
875.481	22.5877
878.856	18.1983
882.23	16.7953
885.605	16.0845
888.98	15.3415
892.355	16.4509
895.73	14.9745
899.105	11.4174
902.479	7.87491
905.854	6.39302
909.229	4.33978
912.604	2.60982
915.979	1.93598
919.353	1.74398
922.728	1.42274
926.103	1.26789
929.478	0.911652
932.853	1.34515
936.227	1.29517
939.602	1.52086
942.977	0.936787
946.352	0.965981
949.727	1.07698
953.102	1.10628
956.476	1.2637
959.851	0.517017
963.226	0.626408
966.601	0.08297
969.976	1.02771
973.35	0.144672
976.725	0.066067
980.1	0.304329
983.475	0.225418
986.85	0.515865
990.225	1.65651
993.599	4.24312
996.974	6.5796
1000.35	11.141
1003.72	17.3411
1007.1	24.575
1010.47	28.0853
1013.85	29.0053
1017.22	22.4212
1020.6	13.2376
1023.97	7.1468
1027.35	3.22912
1030.72	0.833443
1034.1	0.142338
1037.47	1.59024
1040.85	0.657703
1044.22	2.66326
1047.6	9.44875
1050.97	21.0532
1054.35	33.8659
1057.72	45.5955
1061.1	47.2727
1064.47	36.2853
1067.85	21.8084
1071.22	14.4436
1074.6	10.021
1077.97	9.76361
1081.34	14.1155
1084.72	22.6611
1088.09	33.9813
1091.47	53.5555
1094.84	82.1803
1098.22	120.656
1101.59	168.688
1104.97	211.356
1108.34	225.6
1111.72	190.903
1115.09	125.87
1118.47	75.3387
1121.84	45.8226
1125.22	28.4369
1128.59	19.4807
1131.97	11.8774
1135.34	6.5366
1138.72	4.84699
1142.09	4.34969
1145.47	4.23213
1148.84	8.23624
1152.22	14.1948
1155.59	14.85
1158.96	19.7909
1162.34	22.3001
1165.71	20.639
1169.09	14.2096
1172.46	9.02446
1175.84	5.98626
1179.21	3.32296
1182.59	0.77549
1185.96	0.217686
1189.34	0.079163
1192.71	0.391792
1196.09	1.35851
1199.46	0.640781
1202.84	0.480083
1206.21	1.28698
1209.59	0.183281
1212.96	0.66555
1216.34	1.23935
1219.71	0.919247
1223.09	1.60433
1226.46	2.95728
1229.84	3.38167
1233.21	4.24583
1236.59	4.76425
1239.96	4.10769
1243.34	3.55889
1246.71	3.79407
1250.09	2.62756
1253.46	2.48957
1256.84	3.96759
1260.21	1.43543
1263.59	1.98521
1266.96	0.011852
1270.33	0.283657
1273.71	0.077431
1277.08	0.788834
