Measurement: Raman, 514 nm, unoriented, Raman Data Processed
Mineral: Augelite
Rruff sample: R050316
Ideal chemistry: Al_2_PO_4_(OH)_3_
Locality: Rapid Creek, Yukon Territory, Canada
Source: Eugene Schlepp
Description: Pale green thick prismatic crystals
Measured chemistry: Al_2.00_(P_1.00_O_4_)(OH)_3_
Raman shift (cm-1)	intensity
100.34	0
104.516	45.546
108.691	67.824
112.864	146.037
117.034	868.877
121.203	1700.1
125.369	2782.67
129.534	3795.09
133.696	3853.1
137.857	3286.67
142.016	3095.21
146.172	3809.17
150.327	5596.35
154.48	9568.48
158.63	13006.3
162.779	14285.6
166.926	11793.3
171.07	7552.21
175.213	4562.03
179.354	2711.61
183.493	1846.83
187.63	1444.61
191.765	1223.98
195.898	1142.89
200.029	1133.26
204.158	1114.25
208.285	1357.74
212.41	2077.57
216.533	3830.59
220.654	5870.72
224.773	6374.88
228.891	4369.89
233.006	2282.47
237.119	1291.56
241.231	1167.19
245.34	1713.38
249.448	2159.17
253.553	1479.57
257.657	551.605
261.758	58.297
265.858	146.626
269.956	299.994
274.052	325.99
278.146	291.672
282.237	430
286.327	275.644
290.416	12.781
294.502	313.644
298.586	295.62
302.668	269.528
306.749	369.887
310.827	555.921
314.903	1140.83
318.978	1912.63
323.051	2856.43
327.121	3541.29
331.19	3385.28
335.257	2721.44
339.322	2007.81
343.385	1466.41
347.446	1219.1
351.505	1133.22
355.563	1402.33
359.618	2620.81
363.672	4573.49
367.723	5396.76
371.773	3572.59
375.821	1692.98
379.866	839.998
383.91	813.593
387.952	710.716
391.992	553.378
396.031	890.634
400.067	1687.48
404.101	2781.9
408.134	3542.94
412.165	3877.57
416.193	4099.8
420.22	3976.55
424.245	3204.76
428.268	2338.91
432.289	1636.51
436.309	1423.29
440.326	1254.65
444.342	1505.88
448.355	1491.23
452.367	1437.26
456.377	1541.77
460.385	1158.98
464.391	1275.99
468.395	1044.67
472.398	654.107
476.398	542.187
480.397	460.954
484.394	367.258
488.389	411.149
492.382	381.645
496.373	804.706
500.362	1171.26
504.349	1840.25
508.335	2873.67
512.319	4323.77
516.3	6124.84
520.28	7760.62
524.259	8747.89
528.235	8323.62
532.209	6740.82
536.182	5159.46
540.152	3965.45
544.121	2878.04
548.088	2406.25
552.053	2063.88
556.017	1756.41
559.978	1450.87
563.938	1133.39
567.895	866.358
571.851	499.611
575.805	270.784
579.758	239.479
583.708	202.458
587.657	195.878
591.603	204.051
595.548	465.786
599.491	673.612
603.432	954.434
607.372	1602.06
611.309	2240.18
615.245	3129.5
619.179	5001.18
623.111	8265.78
627.041	15353
630.97	26528.1
634.896	34354.6
638.821	26401.3
642.744	15179.2
646.665	8321.75
650.584	4925.22
654.502	3026.49
658.418	2106.71
662.331	1386.66
666.244	1033.97
670.154	805.149
674.062	670.177
677.969	461.044
681.874	154.74
685.777	148.247
689.678	197.556
693.577	172.347
697.475	2.713
701.371	50.678
705.265	32.188
709.157	130.366
713.047	135.949
716.936	9.096
720.823	30.348
724.708	33.657
728.591	41.213
732.472	186.745
736.352	394.374
740.23	737.615
744.106	525.555
747.98	156.132
751.853	186.284
755.723	19.134
759.592	206.388
763.459	1.031
767.325	2.852
771.188	27.733
775.05	172.589
778.91	38.595
782.768	55.565
786.625	40.504
790.479	35.578
794.332	7.859
798.183	31.53
802.033	2.722
805.88	20.652
809.726	96.669
813.57	157.458
817.413	325.752
821.253	373.574
825.092	410.937
828.929	586.841
832.764	710.29
836.598	947.285
840.429	1329.83
844.259	1486.93
848.088	2166.66
851.914	2614.78
855.739	3055.56
859.562	3051.34
863.383	2831.49
867.203	2561.88
871.02	2189.78
874.836	1813.99
878.65	1635.28
882.463	1510.24
886.274	1504.78
890.083	1649.95
893.89	1749.76
897.695	1745.22
901.499	1258.23
905.301	896.314
909.102	702.47
912.9	563.636
916.697	432.297
920.492	301.813
924.285	307.68
928.077	258.616
931.867	195.124
935.655	294.998
939.442	115.042
943.226	68.57
947.009	119.981
950.791	92.978
954.57	56.453
958.348	9.056
962.124	6.68
965.899	100.183
969.671	26.887
973.442	191.34
977.211	205.796
980.979	272.245
984.745	47.734
988.509	231.182
992.271	406.597
996.032	551.984
999.791	605.394
1003.55	963.865
1007.3	1439.36
1011.06	1761.9
1014.81	2184.52
1018.56	2211.28
1022.31	2213.14
1026.06	1716.19
1029.8	1336.18
1033.55	1321.61
1037.29	1351.98
1041.03	1569.48
1044.77	1650.83
1048.5	1803.8
1052.24	2479.92
1055.97	3162.85
1059.7	3544.35
1063.43	3055.59
1067.16	2264.53
1070.89	1994.68
1074.61	2112.42
1078.34	2195.62
1082.06	2721.84
1085.78	3206.65
1089.5	4154.83
1093.21	5630.84
1096.93	7709.25
1100.64	11644.5
1104.35	17087.6
1108.06	22936.1
1111.77	23594.8
1115.48	18207.3
1119.18	12286.6
1122.89	8674.4
1126.59	6246.53
1130.29	5158.32
1133.99	4061.15
1137.68	3353.9
1141.38	2858.91
1145.07	2487.79
1148.76	2129.04
1152.45	1882.55
1156.14	1757.89
1159.83	1707.27
1163.51	1444.34
1167.19	1122.83
1170.88	980.865
1174.56	638.122
1178.23	323.945
1181.91	316.136
1185.59	315.965
1189.26	326.526
1192.93	188.446
1196.6	159.552
1200.27	224.831
1203.94	91.378
1207.6	123.914
1211.27	106.179
1214.93	34.312
1218.59	157.386
1222.25	60.101
1225.9	57.386
1229.56	146.336
1233.21	59.041
1236.86	57.388
1240.51	84.462
1244.16	62.108
1247.81	167.495
1251.45	46.521
1255.1	40.095
1258.74	48.648
1262.38	79.214
1266.02	49.765
1269.66	94.825
1273.29	88.154
1276.93	87.455
1280.56	106.555
1284.19	87.618
1287.82	108.444
1291.45	140.688
1295.07	126.654
1298.7	2.646
1302.32	73.918
1305.94	34.982
1309.56	13.201
1313.18	147.271
1316.8	178.423
1320.41	63.301
1324.02	124.918
1327.63	69.232
1331.24	134.234
1334.85	50.972
1338.46	180.453
1342.06	218.62
1345.67	152.969
1349.27	230.64
1352.87	169.015
1356.47	164.516
1360.07	190.08
1363.66	258.16
1367.25	288.391
1370.85	233.713
1374.44	333.635
1378.03	215.262
1381.61	215.207
1385.2	269.83
1388.78	202.336
1392.37	209.123
1395.95	166.184
1399.53	305.572
1403.1	168.686
1406.68	136.949
1410.26	220.375
1413.83	71.631
1417.4	201.111
1420.97	208.393
1424.54	175.711
1428.1	98.42
1431.67	169.824
1435.23	129.578
1438.8	143.91
1442.36	137.795
1445.91	180.057
1449.47	219.738
1453.03	217.758
1456.58	213.457
1460.13	82.318
1463.68	199.762
1467.23	338.951
1470.78	354.615
1474.33	278.07
1477.87	166.393
1481.42	335.559
1484.96	293.213
1488.5	437.738
1492.04	43.607
1495.57	99.811
1499.11	449.32
1502.64	9.955
1506.17	152.057
1509.71	70.729
1513.23	316.16
1516.76	333.094
1520.29	166.803
