Measurement: Raman, 514 nm, unoriented, Raman Data Processed
Mineral: Augelite
Rruff sample: R050100
Ideal chemistry: Al_2_PO_4_(OH)_3_
Locality: Rapid Creek, Yukon Territory, Canada
Source: Rock Currier
Description: Pale green thick tabular crystals
Measured chemistry: Al_2.00_(P_1.00_O_4_)(OH_0.98_F_0.02_)_3_
Raman shift (cm-1)	intensity
78.031	0
82.218	248.712
86.404	27.458
90.587	160.135
94.768	155.785
98.947	390.963
103.124	701.418
107.3	1498.35
111.473	2266.41
115.644	4261.37
119.813	6887.13
123.981	11233.7
128.146	14240.4
132.309	11785
136.47	7487.62
140.63	6707.45
144.787	9175.69
148.942	13948.8
153.096	22841.5
157.247	36073.3
161.396	47327.7
165.544	44838.2
169.689	31836.9
173.833	20092.8
177.974	12539.3
182.114	8263.49
186.251	6079.7
190.387	4637.22
194.52	3972.02
198.652	3360.97
202.782	3310.01
206.909	3263.55
211.035	3170.18
215.159	3728.39
219.281	6972.15
223.4	11842.3
227.518	11450.6
231.634	5030.03
235.748	2977.72
239.86	3791.66
243.97	7189.34
248.079	14406.7
252.185	20344.8
256.289	13088.5
260.391	5338.78
264.492	2247.66
268.59	1128.79
272.687	644.886
276.781	285.295
280.874	92.169
284.964	58.185
289.053	35.159
293.14	166.525
297.225	241.141
301.308	76.06
305.389	198.547
309.468	322.571
313.545	291.95
317.62	336.003
321.693	248.907
325.765	200.499
329.834	141.543
333.902	48.228
337.967	349.102
342.031	785.104
346.093	1322.24
350.153	1742.35
354.21	1996.5
358.267	3398.63
362.321	7248.76
366.373	12133.2
370.423	10682
374.471	5233.18
378.518	2430.74
382.563	1291.71
386.605	628.106
390.646	571.929
394.685	568.168
398.722	845.82
402.757	1688.89
406.79	2163.37
410.821	1940.27
414.851	1667.6
418.878	1543.4
422.904	1367.58
426.927	1354.1
430.949	1289.96
434.969	1745.13
438.987	2057.29
443.003	2250.6
447.018	2347.05
451.03	2211.18
455.041	1885.34
459.049	1535.61
463.056	1273.51
467.061	959.525
471.064	867.714
475.065	626.822
479.064	759.717
483.062	707.69
487.057	628.727
491.051	569.538
495.043	683.281
499.032	910.557
503.02	1292.36
507.007	1562.66
510.991	2228.44
514.973	3301.69
518.954	4810.44
522.933	6483.7
526.91	7582.49
530.885	8583.84
534.858	8971.74
538.829	9708.02
542.799	11332.5
546.766	13345.8
550.732	16768.4
554.696	20511.9
558.658	24634
562.618	27765.6
566.576	28223.6
570.533	26729.2
574.488	23704.2
578.44	19743.7
582.391	15659.6
586.341	11448
590.288	7972.84
594.233	5504.12
598.177	4344.44
602.119	4009.32
606.059	4321.73
609.997	5046.62
613.933	6065.41
617.868	8409.31
621.801	11929.4
625.731	19446.5
629.66	29563.7
633.588	40885.5
637.513	39235.1
641.437	23204.4
645.358	12116.7
649.278	6929.32
653.196	4678.15
657.113	3178.97
661.027	2398.89
664.94	1857.57
668.851	1340.77
672.76	1082.04
676.667	836.362
680.572	554.718
684.476	449.097
688.378	129.482
692.278	184.862
696.176	30.799
700.072	34.525
703.967	76.331
707.86	85.745
711.751	211.747
715.64	550.66
719.527	720.472
723.413	664.17
727.297	645.741
731.179	469.171
735.059	359.45
738.937	354.562
742.814	227.497
746.689	109.242
750.562	32.215
754.433	23.981
758.303	2.709
762.17	183.213
766.036	108.95
769.901	25.559
773.763	126.181
777.624	7.071
781.482	121.927
785.339	47.869
789.195	62.792
793.048	27.615
796.9	32.362
800.75	76.043
804.598	118.55
808.445	83.699
812.289	192.773
816.132	199.402
819.973	378.432
823.813	518.255
827.65	513.965
831.486	819.077
835.32	950.737
839.152	1247.97
842.983	1652.77
846.812	1989.14
850.639	2606.85
854.464	3029.76
858.288	3160.98
862.11	2945.62
865.93	2435.84
869.748	1938.62
873.564	1646.97
877.379	1302.89
881.192	1176.38
885.004	1103.9
888.813	1178.08
892.621	1157.87
896.427	1082.38
900.232	1149.44
904.034	1024.73
907.835	1001.08
911.634	715.543
915.432	609.337
919.227	493.089
923.021	508.615
926.813	412.583
930.604	469.519
934.393	389.292
938.18	669.647
941.965	731.61
945.749	618.875
949.53	464.669
953.311	182.827
957.089	13.473
960.866	74.626
964.641	3.381
968.414	58.172
972.185	35.851
975.955	16.159
979.723	166.027
983.49	168.752
987.254	274.334
991.017	343.789
994.779	544.121
998.538	936.36
1002.3	1242.52
1006.05	2270.6
1009.81	3349.61
1013.56	3769.55
1017.31	3151.4
1021.06	2230.17
1024.81	1978.9
1028.55	1608.56
1032.3	1613.07
1036.04	1661.69
1039.78	1676.17
1043.52	2052.62
1047.26	2573.02
1050.99	3541.4
1054.73	5615.76
1058.46	8212.31
1062.19	9016.61
1065.92	7339.64
1069.65	5674.7
1073.37	4790.09
1077.1	4360.31
1080.82	4542.91
1084.54	5121.62
1088.26	6053.03
1091.97	7562.58
1095.69	10635.6
1099.4	15145.5
1103.12	22478.4
1106.83	28452.5
1110.54	29195
1114.24	19792.4
1117.95	12741.5
1121.65	8549.09
1125.35	6329.91
1129.06	4785.65
1132.75	4000.58
1136.45	3238.34
1140.15	2340.76
1143.84	2032.85
1147.53	1960.1
1151.22	1844.74
1154.91	1936.89
1158.6	2226.96
1162.28	2486.02
1165.97	2575.22
1169.65	2101.62
1173.33	1645.7
1177.01	1136.82
1180.69	793.964
1184.36	582.146
1188.04	548.363
1191.71	371.614
1195.38	249.9
1199.05	160.223
1202.71	166.582
1206.38	80.935
1210.04	20.292
1213.71	54.662
1217.37	33.91
1221.03	65.551
1224.68	124.227
1228.34	58.835
1231.99	29.494
1235.65	28.301
1239.3	16.294
1242.95	112.646
1246.59	90.564
1250.24	108.453
1253.88	24.279
1257.53	67.058
1261.17	36.105
1264.81	24.683
1268.45	89.471
1272.08	40.216
1275.72	11.903
1279.35	113.501
1282.98	1.054
1286.61	15.548
1290.24	37.014
1293.87	18.328
1297.49	11.604
1301.11	107.809
1304.73	97.949
1308.36	137.031
1311.97	89.074
1315.59	219.07
1319.2	113.011
1322.82	104.918
1326.43	399.794
1330.04	227.645
1333.65	242.501
1337.26	247.312
1340.86	430.114
1344.47	374.913
1348.07	535.717
1351.67	531.411
1355.27	441.464
1358.87	570.623
1362.46	560.963
1366.06	522.802
1369.65	534.965
1373.24	366.441
1376.83	517.602
1380.42	437.594
1384	397.188
1387.59	241.47
1391.17	292.325
1394.75	261.81
1398.33	69.343
1401.91	250.472
1405.49	125.419
1409.06	137.826
1412.64	203.789
1416.21	169.034
1419.78	118.17
1423.35	150.548
1426.91	39.761
1430.48	109.793
1434.05	93.629
1437.61	105.281
1441.17	144.775
1444.73	114.036
1448.29	156.282
1451.84	237.287
1455.4	318.713
1458.95	316.125
1462.5	131.678
1466.05	274.373
1469.6	132.462
1473.15	18.93
1476.69	47.745
1480.24	89.962
1483.78	125.765
1487.32	80.25
1490.86	141.339
1494.39	212.186
1497.93	34.799
1501.46	49.68
1505	64.967
1508.53	186.027
1512.06	71.645
1515.59	21.06
1519.11	144.577
