Measurement: Raman, 532 nm, unoriented, Raman Data Processed
Mineral: Augelite
Rruff sample: R050316
Ideal chemistry: Al_2_PO_4_(OH)_3_
Locality: Rapid Creek, Yukon Territory, Canada
Source: Eugene Schlepp
Description: Pale green thick prismatic crystals
Measured chemistry: Al_2.00_(P_1.00_O_4_)(OH)_3_
Raman shift (cm-1)	intensity
106.817	0
110.192	0.078278
113.567	3.32788
116.942	32.6181
120.316	78.4879
123.691	163.487
127.066	212.206
130.441	236.544
133.816	210.742
137.19	173.35
140.565	194.68
143.94	266.418
147.315	362.653
150.69	477.573
154.065	636.197
157.439	833.763
160.814	1008.67
164.189	983.428
167.564	708.334
170.939	442.507
174.313	265.015
177.688	158.359
181.063	93.4021
184.438	54.5883
187.813	23.8179
191.187	4.75699
194.562	1.9144
197.937	3.36388
201.312	1.55106
204.687	21.3507
208.061	54.6608
211.436	90.6166
214.811	142.648
218.186	226.356
221.561	336.036
224.936	441.113
228.31	282.353
231.685	126.205
235.06	96.687
238.435	97.3543
241.81	126.779
245.185	179.606
248.559	283.372
251.934	349.002
255.309	177.181
258.684	58.8184
262.059	19.3342
265.433	2.66792
268.808	2.75657
272.183	3.54645
275.558	2.17683
278.933	2.90023
282.308	1.68653
285.682	1.03814
289.057	6.7112
292.432	17.7159
295.807	35.6859
299.182	21.1742
302.556	8.20983
305.931	13.776
309.306	21.5251
312.681	33.5777
316.056	50.2862
319.43	72.4749
322.805	91.3088
326.18	107.444
329.555	111.294
332.93	94.8193
336.305	76.5945
339.679	61.8451
343.054	55.1865
346.429	62.7279
349.804	76.0055
353.179	88.9413
356.553	106.274
359.928	149.313
363.303	232.05
366.678	322.959
370.053	254.151
373.428	105.414
376.802	34.2791
380.177	6.82608
383.552	2.76439
386.927	5.1479
390.302	0.743622
393.676	11.5489
397.051	34.7848
400.426	65.5105
403.801	118.862
407.176	171.501
410.55	171.25
413.925	150.01
417.3	154.36
420.675	157.13
424.05	137.855
427.425	108.59
430.799	100.197
434.174	107.758
437.549	117.976
440.924	128.369
444.299	133.097
447.673	124.05
451.048	125.344
454.423	118.254
457.798	106.06
461.173	90.5174
464.548	71.1805
467.922	58.1842
471.297	36.251
474.672	20.4914
478.047	6.3121
481.422	2.76537
484.796	3.17181
488.171	5.73456
491.546	2.75575
494.921	2.1819
498.296	13.6235
501.671	30.0013
505.045	53.9939
508.42	97.1912
511.795	146.405
515.17	206.817
518.545	268.353
521.919	315.623
525.294	329.337
528.669	299.897
532.044	247.222
535.419	204.675
538.794	174.101
542.168	154.221
545.543	152.26
548.918	157.988
552.293	175.007
555.668	196.206
559.043	208.969
562.417	212.641
565.792	203.617
569.167	175.492
572.542	147.35
575.917	113.257
579.291	79.5064
582.666	50.8725
586.041	19.9914
589.416	2.51971
592.791	4.86362
596.165	4.01884
599.54	5.66698
602.915	21.7722
606.29	49.8287
609.665	83.6349
613.039	135.057
616.414	209.429
619.789	324.821
623.164	488.613
626.539	715.013
629.914	1002.38
633.288	1259.7
636.663	1210.31
640.038	784.856
643.413	428.363
646.788	246.193
650.163	152.505
653.537	97.9072
656.912	65.8294
660.287	41.4374
663.662	28.2194
667.037	18.2123
670.411	9.02695
673.786	7.02036
677.161	2.47063
680.536	2.53379
683.911	0.357819
687.285	0.055801
690.66	0.298447
694.035	1.3981
697.41	0.986504
700.785	1.0217
704.159	1.3191
707.534	6.35693
710.909	8.69073
714.284	13.3094
717.659	17.5863
721.034	17.9442
724.408	20.9678
727.783	23.3224
731.158	28.56
734.533	35.6425
737.908	43.4641
741.283	45.9361
744.657	35.3964
748.032	22.9551
751.407	14.2639
754.782	8.23917
758.157	6.63234
761.531	2.62186
764.906	1.6174
768.281	1.3496
771.656	1.44985
775.031	0.508667
778.405	0.313202
781.78	0.498558
785.155	1.39241
788.53	0.430275
791.905	0.598885
795.28	0.855865
798.654	1.07229
802.029	0.610085
805.404	0.442467
808.779	1.53574
812.154	2.42632
815.529	5.82149
818.903	8.8559
822.278	12.8339
825.653	16.4724
829.028	24.7608
832.403	30.8723
835.777	37.7416
839.152	51.947
842.527	68.9997
845.902	86.9228
849.277	104.291
852.652	122.378
856.026	133.626
859.401	129.805
862.776	114.892
866.151	97.979
869.526	77.0944
872.9	62.861
876.275	52.2438
879.65	43.641
883.025	45.0915
886.4	46.8918
889.774	53.7442
893.149	58.8587
896.524	53.5172
899.899	42.871
903.274	27.9285
906.649	18.1218
910.023	14.3287
913.398	9.39896
916.773	6.3399
920.148	3.24708
923.523	4.76607
926.898	3.78863
930.272	6.75105
933.647	7.47829
937.022	4.08792
940.397	4.6846
943.771	3.69988
947.146	4.47859
950.521	2.49597
953.896	2.57256
957.271	2.16948
960.646	1.94491
964.02	2.75474
967.395	0.420418
970.77	0.979019
974.145	1.89265
977.52	0.862373
980.894	1.95234
984.269	1.06255
987.644	0.062447
991.019	0.765808
994.394	4.31827
997.769	8.41386
1001.14	19.9337
1004.52	30.6971
1007.89	42.2358
1011.27	51.9569
1014.64	49.7393
1018.02	34.3599
1021.39	20.3313
1024.77	8.92677
1028.14	3.35002
1031.52	0.277649
1034.89	0.930649
1038.27	2.07585
1041.64	0.949112
1045.02	0.695267
1048.39	13.0515
1051.77	30.2864
1055.14	52.5238
1058.52	68.5004
1061.89	59.9838
1065.27	35.8002
1068.64	18.2512
1072.02	10.3645
1075.39	11.7857
1078.76	23.1513
1082.14	40.8407
1085.51	66.2417
1088.89	106.142
1092.26	169.829
1095.64	264.897
1099.01	397.182
1102.39	565.3
1105.76	717.411
1109.14	768.204
1112.51	629.793
1115.89	427.523
1119.26	273.258
1122.64	183.12
1126.01	136.722
1129.39	106.579
1132.76	83.7409
1136.14	63.2835
1139.51	54.943
1142.89	47.9356
1146.26	46.2128
1149.63	44.3574
1153.01	46.2509
1156.38	50.4806
1159.76	52.0867
1163.13	53.3782
1166.51	46.4042
1169.88	29.705
1173.26	17.4338
1176.63	10.3684
1180.01	5.69936
1183.38	1.87691
1186.76	0.270226
1190.13	0.606041
1193.51	0.586403
1196.88	1.92175
1200.26	2.69075
1203.63	1.69162
1207.01	0.610603
1210.38	0.448685
1213.76	1.16586
1217.13	2.70247
1220.51	3.65754
1223.88	5.69258
1227.26	5.88399
1230.63	7.31168
1234.01	10.3956
1237.38	12.1163
1240.76	12.6971
1244.13	9.79895
1247.51	7.12771
1250.88	7.32103
1254.26	8.39731
1257.63	7.74609
1261	5.78445
1264.38	4.9617
1267.75	1.87131
1271.13	3.20179
1274.5	0.488205
1277.88	1.8557
1281.25	0.031868
