Measurement: Raman, 532 nm, unoriented, Raman Data Processed
Mineral: Augelite
Rruff sample: R050100
Ideal chemistry: Al_2_PO_4_(OH)_3_
Locality: Rapid Creek, Yukon Territory, Canada
Source: Rock Currier
Description: Pale green thick tabular crystals
Measured chemistry: Al_2.00_(P_1.00_O_4_)(OH_0.98_F_0.02_)_3_
Raman shift (cm-1)	intensity
139.299	0
142.192	101.086
145.084	691.856
147.977	1217.01
150.87	1846.06
153.762	2607.17
156.655	3345.02
159.548	4023.68
162.44	4150.99
165.333	3525.15
168.226	2595.3
171.119	1791.43
174.011	1163.53
176.904	697.918
179.797	466.171
182.689	225.562
185.582	82.1401
188.475	77.0352
191.368	40.2263
194.26	51.2502
197.153	4.62622
200.046	97.3533
202.938	39.9929
205.831	57.5703
208.724	214.582
211.616	401.59
214.509	600.88
217.402	959.272
220.294	1399.42
223.187	2108.54
226.08	2320.93
228.972	1436.32
231.865	822.965
234.758	629.742
237.651	586.486
240.543	653.394
243.436	773.973
246.329	910.607
249.221	1351.49
252.114	1673.76
255.007	1295.89
257.899	579.741
260.792	277.733
263.685	130.68
266.578	102.401
269.47	91.2051
272.363	48.3648
275.256	84.8813
278.148	44.3862
281.041	17.5352
283.934	9.60791
286.827	36.0239
289.719	21.5996
292.612	84.7876
295.505	155.36
298.397	158.16
301.29	4.81641
304.183	30.5518
307.075	26.6084
309.968	66.5019
312.861	89.2109
315.753	240.833
318.646	304.34
321.539	385.107
324.432	476.958
327.324	495.986
330.217	464.546
333.11	413.204
336.002	374.725
338.895	257.876
341.788	204.23
344.68	291.362
347.573	323.771
350.466	323.78
353.359	374.359
356.251	467.946
359.144	679.047
362.037	989.873
364.929	1536.37
367.822	1671.53
370.715	1028.88
373.608	468.504
376.5	209.502
379.393	36.561
382.286	18.852
385.178	24.2168
388.071	33.6977
390.964	3.33643
393.856	28.312
396.749	100.643
399.642	338.486
402.534	480.054
405.427	771.854
408.32	792.766
411.213	623.448
414.105	516.171
416.998	573.055
419.891	654.747
422.783	697.254
425.676	604.934
428.569	560.062
431.461	595.415
434.354	639.538
437.247	750.066
440.139	780.667
443.032	746.726
445.925	638.082
448.818	618.077
451.71	677.29
454.603	656.771
457.496	706.154
460.388	538.293
463.281	383.497
466.174	270.428
469.067	214.287
471.959	200.578
474.852	109.215
477.745	133.932
480.637	0.756348
483.53	10.1216
486.423	5.20068
489.315	10.7407
492.208	29.1611
495.101	4.25928
497.993	16.8779
500.886	110.775
503.779	230.098
506.672	298.537
509.564	486.928
512.457	728.716
515.35	996.39
518.242	1276.83
521.135	1495.47
524.028	1723.04
526.92	1530.71
529.813	1248.35
532.706	1023.14
535.599	802.464
538.491	633.267
541.384	507.987
544.277	457.711
547.169	469.486
550.062	526.991
552.955	519.808
555.847	633.878
558.74	702.288
561.633	794.139
564.526	784.497
567.418	717.155
570.311	712.842
573.204	545.073
576.096	428.298
578.989	400.737
581.882	272.828
584.774	155.243
587.667	63.9941
590.56	34.2212
593.452	16.7334
596.345	9.9585
599.238	11.5576
602.131	144.449
605.023	205.876
607.916	252.005
610.809	510.182
613.701	722.445
616.594	1028.75
619.487	1486.64
622.38	2148.69
625.272	2942.33
628.165	3967.05
631.058	5037.41
633.95	5682.85
636.843	5281.03
639.736	3727.82
642.628	2296.59
645.521	1388.7
648.414	887.872
651.307	512.245
654.199	429.445
657.092	262.154
659.985	186.725
662.877	111.247
665.77	122.248
668.663	59.2451
671.555	43.2344
674.448	4.03271
677.341	35.1831
680.234	45.6558
683.126	0.044922
686.019	44.4058
688.912	26.4346
691.804	4.11768
694.697	16.2124
697.59	32.9805
700.482	17.6519
703.375	12.7602
706.268	32.3149
709.16	53.3247
712.053	42.8291
714.946	75.3657
717.839	120.621
720.731	145.637
723.624	133.616
726.517	86.0312
729.409	110.21
732.302	93.0278
735.195	168.221
738.087	229.433
740.98	223.266
743.873	197.626
746.766	212.101
749.658	95.6943
752.551	75.3667
755.444	72.2974
758.336	117.02
761.229	46.4145
764.122	26.1113
767.014	34.7769
769.907	54.2935
772.8	13.3345
775.692	41.8481
778.585	8.58984
781.478	29.6509
784.371	36.8555
787.263	24.5288
790.156	15.4761
793.049	44.2974
795.941	14.0293
798.834	6.11523
801.727	20.1406
804.62	5.6792
807.512	23.0395
810.405	11.7769
813.298	2.09522
816.19	27.687
819.083	112.214
821.976	44.102
824.868	109.008
827.761	128.843
830.654	162.498
833.547	290.178
836.439	276.397
839.332	373.249
842.225	435.134
845.117	460.475
848.01	534.204
850.903	593.024
853.795	547.721
856.688	522.8
859.581	487.291
862.473	432.569
865.366	367.881
868.259	322.957
871.152	218.127
874.044	215.09
876.937	191.789
879.83	198.579
882.722	185.73
885.615	212.032
888.508	245.314
891.4	248.226
894.293	246.999
897.186	280.116
900.079	191.977
902.971	147.529
905.864	143.672
908.757	81.2378
911.649	87.4771
914.542	83.8613
917.435	110.502
920.327	41.0469
923.22	44.4429
926.113	22.2026
929.005	71.4941
931.898	75.8901
934.791	99.5264
937.684	45.8999
940.576	68.6577
943.469	3.83398
946.362	14.6626
949.254	52.189
952.147	80.2837
955.04	27.6934
957.933	50.1313
960.825	3.81201
963.718	53.6958
966.611	54.0322
969.503	5.14258
972.396	31.727
975.289	21.1685
978.181	4.51709
981.074	10.5102
983.967	39.8071
986.86	60.271
989.752	11.6641
992.645	11.8203
995.538	58.8023
998.43	79.8794
1001.32	166.595
1004.22	202.902
1007.11	245.165
1010	230.095
1012.89	245.116
1015.79	83.5469
1018.68	16.1592
1021.57	22.21
1024.46	50.8633
1027.36	25.0479
1030.25	37.3013
1033.14	26.5459
1036.04	0.528809
1038.93	22.2124
1041.82	67.5254
1044.71	20.896
1047.61	118.754
1050.5	108.918
1053.39	138.581
1056.28	235.376
1059.18	287.347
1062.07	245.313
1064.96	131.524
1067.86	34.4453
1070.75	31.9756
1073.64	35.6045
1076.53	116.618
1079.43	163.811
1082.32	293.67
1085.21	429.361
1088.1	646.857
1091	859.38
1093.89	1309.29
1096.78	1764.43
1099.67	2427.34
1102.57	3007.49
1105.46	3353.12
1108.35	3048.98
1111.24	2278.65
1114.14	1555.29
1117.03	1070.3
1119.92	763.539
1122.82	568.206
1125.71	469.237
1128.6	427.181
1131.49	394.78
1134.39	262.494
1137.28	218.365
1140.17	102.225
1143.07	207.034
1145.96	188.053
1148.85	245.768
1151.74	329.829
1154.64	337.06
1157.53	351.963
1160.42	329.367
1163.31	330.251
1166.21	373.45
1169.1	323.632
1171.99	242.982
1174.88	164.208
1177.78	139.285
1180.67	69.8897
1183.56	9.33496
1186.46	64.4238
1189.35	2.6416
1192.24	23.1309
1195.13	40.8857
1198.03	30.3555
1200.92	12.1221
1203.81	16.5352
1206.7	23.9375
1209.6	37.666
1212.49	16.9766
1215.38	80.7969
1218.28	45.8789
1221.17	149.796
1224.06	42.7578
1226.95	84.3633
1229.85	70.1455
1232.74	106.391
1235.63	121.976
1238.52	128.403
1241.42	119.933
1244.31	88.1445
1247.2	116.031
1250.1	86.8418
1252.99	113.414
1255.88	94.1416
1258.77	106.903
1261.67	80.9922
1264.56	134.84
1267.45	0.404297
1270.34	91.71
1273.24	134.9
1276.13	59.7598
1279.02	16.1533
1281.91	6.15137
1284.81	46.9072
1287.7	1.02832
1290.59	1.34277
