Measurement: Raman, 532 nm, unoriented, Raman Data Processed
Mineral: Augelite
Rruff sample: R050060
Ideal chemistry: Al_2_PO_4_(OH)_3_
Locality: Machacamarca, Potosi Department, Bolivia
Source: Rock Currier
Description: Colorless prismatic crystals
Measured chemistry: Al_2.00_(P_1.00_O_4_)(OH)_3_; OH estimated by difference
Raman shift (cm-1)	intensity
141.822	0
144.715	80.9795
147.608	624.221
150.501	1446.66
153.393	2782.08
156.286	4725.22
159.179	7021.86
162.071	8685.38
164.964	8195.1
167.857	6024.05
170.75	3858.11
173.642	2315.31
176.535	1402.24
179.428	787.779
182.32	378.675
185.213	173.63
188.106	27.6204
190.998	28.8132
193.891	95.1928
196.784	60.7411
199.677	3.51343
202.569	219.169
205.462	496.983
208.355	931.389
211.247	1517.41
214.14	2381.84
217.033	3722.42
219.925	5603.04
222.818	6775.3
225.711	6625.93
228.603	4121.35
231.496	2184.23
234.389	1277.19
237.282	900.662
240.174	716.902
243.067	579.219
245.96	597.997
248.852	627.723
251.745	490.726
254.638	312.069
257.531	93.6603
260.423	11.6588
263.316	9.37158
266.209	14.0961
269.101	4.78259
271.994	6.78003
274.887	12.3273
277.779	27.5537
280.672	68.7583
283.565	31.5894
286.457	96.1141
289.35	149.719
292.243	305.373
295.136	537.407
298.028	562.878
300.921	206.138
303.814	163.021
306.706	178.411
309.599	272.193
312.492	386.663
315.385	521.208
318.277	681.159
321.17	900.443
324.063	1156.97
326.955	1384.6
329.848	1497.94
332.741	1368.25
335.633	1165.13
338.526	828.633
341.419	636.721
344.312	489.301
347.204	405.45
350.097	375.901
352.99	323.764
355.882	369.224
358.775	430.671
361.668	634.261
364.56	1069.78
367.453	1475.69
370.346	1109.83
373.238	475.799
376.131	117.997
379.024	33.0779
381.917	46.5918
384.809	95.1033
387.702	41.6927
390.595	44.627
393.487	199.665
396.38	461.057
399.273	928.887
402.166	1656.64
405.058	2813.16
407.951	3900.34
410.844	3998.32
413.736	3491.36
416.629	3388.35
419.522	3389.76
422.414	3018.32
425.307	2379.84
428.2	1783.71
431.092	1364.72
433.985	1115.06
436.878	888.479
439.771	705.279
442.663	617.766
445.556	584.702
448.449	588.705
451.341	629.573
454.234	694.674
457.127	868.271
460.019	985.395
462.912	1097.8
465.805	1146.28
468.697	959.37
471.59	780.761
474.483	541.615
477.376	334.713
480.268	167.232
483.161	87.9607
486.054	24.5767
488.946	23.7224
491.839	9.64136
494.732	10.918
497.625	74.4673
500.517	230.678
503.41	430.375
506.303	690.803
509.195	1116.54
512.088	1644.41
514.981	2271.44
517.873	2934.45
520.766	3547.45
523.659	3918.45
526.552	3914.87
529.444	3589.84
532.337	3026.34
535.23	2396.69
538.122	1824.82
541.015	1499.89
543.908	1152.63
546.8	876.421
549.693	684.77
552.586	576.827
555.479	500.153
558.371	412.988
561.264	299.689
564.157	261.958
567.049	126.067
569.942	91.6693
572.835	37.0094
575.727	55.4871
578.62	37.7954
581.513	4.42859
584.405	37.281
587.298	12.6585
590.191	24.589
593.084	98.718
595.976	209.577
598.869	286.721
601.762	399.713
604.654	506.066
607.547	675.718
610.44	927.177
613.332	1217.62
616.225	1468.53
619.118	1935.69
622.011	2662.97
624.903	3751.5
627.796	5434.46
630.689	7903.34
633.581	11087.4
636.474	12179.4
639.367	9263.5
642.26	5827.14
645.152	3583.71
648.045	2418.29
650.938	1697.33
653.83	1172.78
656.723	846.848
659.616	666.839
662.508	481.435
665.401	358.063
668.294	260.253
671.187	202.003
674.079	140.281
676.972	86.2358
679.865	80.8611
682.757	31.642
685.65	15.2192
688.543	18.6995
691.435	18.4944
694.328	10.6779
697.221	3.90112
700.114	33.2854
703.006	19.7306
705.899	48.0671
708.792	67.2507
711.684	138.567
714.577	137.009
717.47	172.505
720.362	160.383
723.255	187.407
726.148	183.279
729.04	235.819
731.933	283.474
734.826	364.94
737.719	515.722
740.611	663.748
743.504	573.174
746.397	365.722
749.289	206.668
752.182	121.713
755.075	47.0315
757.967	39.0769
760.86	42.1709
763.753	2.09729
766.646	46.3634
769.538	8.04541
772.431	17.5991
775.324	8.44251
778.216	1.20007
781.109	7.61047
784.002	0.736084
786.894	29.7604
789.787	18.3308
792.68	9.89258
795.573	5.62219
798.465	20.0801
801.358	22.5074
804.251	0.374634
807.143	6.34314
810.036	13.6902
812.929	8.27563
815.822	32.4291
818.714	3.03735
821.607	58.7344
824.5	15.3104
827.392	51.3409
830.285	51.3798
833.178	99.637
836.07	113.161
838.963	114.048
841.856	158.307
844.748	195.45
847.641	282.081
850.534	319.73
853.427	409.963
856.319	474.312
859.212	510.367
862.105	503.794
864.997	430.488
867.89	415.487
870.783	328.705
873.675	313.962
876.568	272.336
879.461	283.96
882.354	324.25
885.246	411.941
888.139	466.069
891.032	575.281
893.924	730.351
896.817	738.279
899.71	533.399
902.602	386.544
905.495	254.669
908.388	147.764
911.28	123.986
914.173	62.5928
917.066	65.1461
919.959	47.6637
922.851	57.033
925.744	27.0565
928.637	25.3643
931.529	45.0188
934.422	61.5658
937.315	23.5596
940.207	32.1522
943.1	48.1072
945.993	48.3088
948.886	57.3042
951.778	43.538
954.671	72.7634
957.564	23.4224
960.456	33.553
963.349	38.9547
966.242	39.891
969.135	7.46484
972.027	22.1798
974.92	27.8031
977.813	14.7756
980.705	0.546509
983.598	14.2484
986.491	8.88293
989.383	7.01807
992.276	3.67786
995.169	10.3052
998.062	54.027
1000.95	77.6033
1003.85	118.842
1006.74	106.072
1009.63	101.132
1012.52	111.559
1015.42	121.204
1018.31	108.597
1021.2	74.7802
1024.1	54.3817
1026.99	4.32031
1029.88	5.93005
1032.77	43.4595
1035.67	28.4287
1038.56	34.4718
1041.45	2.57581
1044.35	34.5826
1047.24	112.137
1050.13	245.803
1053.02	429.546
1055.92	681.645
1058.81	748.464
1061.7	668.518
1064.59	409.572
1067.49	194.649
1070.38	93.1938
1073.27	96.9089
1076.16	154.227
1079.06	221.844
1081.95	338.157
1084.84	563.504
1087.73	750.906
1090.63	1129.18
1093.52	1603.43
1096.41	2317.76
1099.31	3420.13
1102.2	4877.56
1105.09	6569.82
1107.98	7885.71
1110.88	7983.16
1113.77	6705.2
1116.66	4859.26
1119.56	3416.65
1122.45	2483.3
1125.34	1978.49
1128.23	1749.11
1131.13	1584
1134.02	1471.1
1136.91	1359.61
1139.8	1167.44
1142.7	1038.83
1145.59	938.684
1148.48	871.083
1151.38	881.117
1154.27	956.005
1157.16	1014.8
1160.05	1015.28
1162.94	917.487
1165.84	700.691
1168.73	504.639
1171.62	360.902
1174.52	193.617
1177.41	131.273
1180.3	98.276
1183.19	64.9281
1186.09	23.424
1188.98	12.9038
1191.87	9.56824
1194.77	9.06836
1197.66	37.8083
1200.55	32.8674
1203.44	16.9451
1206.34	23.2386
1209.23	13.9281
1212.12	20.8469
1215.01	15.0095
1217.91	42.892
1220.8	37.6816
1223.69	55.7545
1226.59	33.0732
1229.48	60.264
1232.37	75.8682
1235.26	77.7596
1238.16	90.8043
1241.05	112.558
1243.94	109.577
1246.83	113.518
1249.73	122.723
1252.62	86.948
1255.51	95.3082
1258.4	79.4338
1261.3	80.2339
1264.19	94.5013
1267.08	70.4045
1269.97	42.4305
1272.87	43.7616
1275.76	35.8549
1278.65	69.1278
1281.55	9.90515
1284.44	57.3761
1287.33	5.53638
1290.22	61.9252
1293.12	0.9021
