Measurement: Raman, 780 nm, unoriented, Raman Data Processed
Mineral: Augelite
Rruff sample: R050060
Ideal chemistry: Al_2_PO_4_(OH)_3_
Locality: Machacamarca, Potosi Department, Bolivia
Source: Rock Currier
Description: Colorless prismatic crystals
Measured chemistry: Al_2.00_(P_1.00_O_4_)(OH)_3_; OH estimated by difference
Raman shift (cm-1)	intensity
116.149	0
119.523	24.3416
122.898	219.777
126.273	619.495
129.648	758.902
133.023	961.178
136.398	803.994
139.772	552.81
143.147	568.385
146.522	926.576
149.897	1664.23
153.272	2742.36
156.646	4498.56
160.021	6954.99
163.396	9113.5
166.771	8529.9
170.146	5725.8
173.52	3379.88
176.895	1940.31
180.27	1052.3
183.645	549.21
187.02	278.952
190.395	105.078
193.769	47.9222
197.144	47.9721
200.519	43.2346
203.894	166.705
207.269	455.817
210.643	972.538
214.018	1797.82
217.393	2990.59
220.768	4913.49
224.143	6673.13
227.518	6717.31
230.892	3490.31
234.267	1617.45
237.642	885.663
241.017	590.959
244.392	456.546
247.767	420.138
251.141	454.137
254.516	317.161
257.891	71.0619
261.266	20.2413
264.64	13.1344
268.015	36.1888
271.39	0.128113
274.765	9.22272
278.14	25.8985
281.515	15.9009
284.889	81.611
288.264	148.564
291.639	251.601
295.014	464.367
298.389	713.888
301.764	277.7
305.138	136.889
308.513	109.386
311.888	171.939
315.263	246.91
318.638	362.369
322.012	481.763
325.387	640.529
328.762	781.195
332.137	741.491
335.512	548.597
338.887	398.416
342.261	265.533
345.636	217.023
349.011	145.343
352.386	76.3997
355.761	85.3521
359.135	75.8523
362.51	176.008
365.885	386.056
369.26	502.647
372.635	262.686
376.01	34.5465
379.384	64.2884
382.759	51.1848
386.134	38.0997
389.509	29.5395
392.884	192.762
396.258	502.835
399.633	1006.75
403.008	1891.07
406.383	3390.53
409.758	4621.89
413.132	4404.04
416.507	3783.3
419.882	3364.64
423.257	2930.68
426.632	2202.48
430.007	1741.89
433.381	1316.34
436.756	1042.02
440.131	855.129
443.506	623.977
446.881	535.444
450.255	500.332
453.63	672.133
457.005	931.862
460.38	1305.88
463.755	1836.95
467.13	2168.68
470.504	2096.09
473.879	1610.15
477.254	941.718
480.629	506.001
484.004	201.345
487.378	41.4458
490.753	40.6023
494.128	30.7161
497.503	54.3787
500.878	238.28
504.252	529.147
507.627	991.993
511.002	1588
514.377	2421.24
517.752	3457.88
521.127	4471.42
524.501	5088.5
527.876	5147.52
531.251	4576.66
534.626	3576.41
538.001	2765.73
541.375	2093.08
544.75	1554.25
548.125	1158.93
551.5	865.051
554.875	674.652
558.25	502.769
561.624	367.812
564.999	219.376
568.374	113.308
571.749	13.3207
575.124	14.7702
578.499	20.1434
581.873	45.062
585.248	5.26245
588.623	39.1404
591.998	105.891
595.373	167.172
598.747	239.203
602.122	355.902
605.497	491.872
608.872	733.339
612.247	992.928
615.621	1257.05
618.996	1627.54
622.371	2230.79
625.746	3236.06
629.121	4906.35
632.495	7513.57
635.87	9868.2
639.245	8788.65
642.62	5482.63
645.995	3265.45
649.37	2045.14
652.744	1359.87
656.119	935.401
659.494	634.052
662.869	475.783
666.244	331.821
669.619	220.084
672.993	157.42
676.368	78.3168
679.743	69.1591
683.118	23.4976
686.493	9.22656
689.867	4.19391
693.242	4.48755
696.617	0.503601
699.992	13.405
703.367	39.9177
706.741	127.463
710.116	163.526
713.491	265.287
716.866	344.224
720.241	385.096
723.616	351.122
726.99	314.523
730.365	329.548
733.74	331.182
737.115	431.473
740.49	536.667
743.865	488.949
747.239	290.778
750.614	152.399
753.989	79.1758
757.364	41.8414
760.739	30.5053
764.113	1.362
767.488	2.21838
770.863	9.37592
774.238	8.43543
777.613	4.28931
780.987	45.9562
784.362	2.72031
787.737	13.5456
791.112	4.46188
794.487	4.71539
797.862	17.6913
801.236	14.1706
804.611	9.97028
807.986	0.217834
811.361	3.58658
814.736	5.72769
818.111	43.6041
821.485	71.907
824.86	57.3986
828.235	121.032
831.61	119.026
834.985	170.523
838.359	234.709
841.734	283.75
845.109	412.067
848.484	505.352
851.859	661.211
855.233	768.419
858.608	878.778
861.983	895.689
865.358	833.831
868.733	691.226
872.107	544.365
875.482	479.688
878.857	378.726
882.232	360.452
885.607	392.04
888.982	436.07
892.356	563.925
895.731	627.978
899.106	554.074
902.481	382.865
905.856	239.699
909.231	157.164
912.605	99.7186
915.98	37.4467
919.355	41.9825
922.73	31.1679
926.105	18.7148
929.479	38.7116
932.854	34.259
936.229	11.4187
939.604	15.4843
942.979	17.6733
946.354	9.96362
949.728	19.452
953.103	0.664948
956.478	17.737
959.853	24.2938
963.227	25.4256
966.602	3.06818
969.977	7.67105
973.352	5.58829
976.727	14.9286
980.102	29.0009
983.476	53.7627
986.851	38.6678
990.226	50.67
993.601	60.0132
996.976	57.8389
1000.35	97.795
1003.73	120.669
1007.1	105.38
1010.48	90.106
1013.85	67.2175
1017.23	73.1928
1020.6	56.2901
1023.97	29.8701
1027.35	6.84399
1030.72	13.931
1034.1	33.9289
1037.47	35.4338
1040.85	35.7294
1044.22	17.2305
1047.6	5.15747
1050.97	39.2485
1054.35	112.704
1057.72	172.248
1061.1	214.565
1064.47	192.462
1067.85	143.8
1071.22	178.986
1074.6	201.821
1077.97	251.996
1081.35	372.859
1084.72	499.198
1088.1	702.164
1091.47	1021.82
1094.85	1450.15
1098.22	2173.17
1101.6	3188.21
1104.97	4516.22
1108.35	5665.07
1111.72	5753.97
1115.09	4443.18
1118.47	3004.66
1121.84	1935.42
1125.22	1365.17
1128.59	1146.45
1131.97	1006.69
1135.34	928.942
1138.72	904.426
1142.09	859
1145.47	846.249
1148.84	964.826
1152.22	1214.46
1155.59	1495.49
1158.97	1738.88
1162.34	1727.29
1165.72	1416.21
1169.09	1028.15
1172.47	713.431
1175.84	500.369
1179.22	296.67
1182.59	186.79
1185.96	134.115
1189.34	78.3558
1192.71	62.0417
1196.09	3.41638
1199.46	4.22766
1202.84	24.8486
1206.21	34.1163
1209.59	6.80695
1212.96	14.5916
1216.34	15.1587
1219.71	1.45548
1223.09	15.6348
1226.46	0.102081
1229.84	24.4078
1233.21	52.1343
1236.59	86.1752
1239.96	103.378
1243.34	91.074
1246.71	112.228
1250.09	90.1149
1253.46	44.2128
1256.84	50.6717
1260.21	50.9582
1263.59	47.6862
1266.96	35.8597
1270.34	31.353
1273.71	17.4064
1277.09	5.90186
1280.46	43.0704
