Measurement: Raman, 785 nm, unoriented, Raman Data Processed
Mineral: Augite
Rruff sample: R070231
Ideal chemistry: (Ca,Mg,Fe)_2_(Si,Al)_2_O_6_
Locality: Old Goose Creek Quarry, Leesburg, Loudoun County, Virginia, USA
Source: Michael Scott
Description: Very dark grey-green prismatic crystals frozen in quartz
Measured chemistry: (Mg_0.44_Fe_0.37_Ca_0.17_Ti_0.01_Mn_0.01_)_Σ=1_(Si_0.98_Al_0.02_)_Σ=1_O_3_
Raman shift (cm-1)	intensity
167.785	0
170.677	22.9605
173.57	71.2983
176.463	48.9011
179.356	149.322
182.248	171.885
185.141	161.96
188.034	228.194
190.926	183.003
193.819	205.09
196.712	162.522
199.604	182.28
202.497	126.443
205.39	77.2534
208.282	70.8621
211.175	8.37207
214.068	51.1145
216.961	99.8272
219.853	175.847
222.746	199.877
225.639	176.627
228.531	180.878
231.424	175.522
234.317	170.915
237.209	139.352
240.102	122.433
242.995	160.028
245.888	126.897
248.78	57.3843
251.673	21.561
254.566	28.2529
257.458	29.8171
260.351	2.55933
263.244	4.94287
266.137	0.722656
269.029	20.0442
271.922	25.3616
274.815	23.4912
277.707	9.396
280.6	2.28882
283.493	31.7195
286.385	60.929
289.278	106.16
292.171	150.491
295.063	198.744
297.956	202.78
300.849	349.455
303.742	433.469
306.634	600.976
309.527	714.423
312.42	946.604
315.312	1162.27
318.205	1421.7
321.098	1613.83
323.99	1705.78
326.883	1567.75
329.776	1213.31
332.669	945.068
335.561	673.614
338.454	535.711
341.347	463.003
344.239	376.41
347.132	381.328
350.025	447.298
352.918	407.044
355.81	469.859
358.703	446.325
361.596	452.126
364.488	507.598
367.381	536.997
370.274	626.031
373.166	750.112
376.059	872.854
378.952	1107.09
381.844	1278.64
384.737	1457.96
387.63	1658.34
390.523	1654.96
393.415	1450.53
396.308	989.536
399.201	629.897
402.093	389.622
404.986	246.213
407.879	111.675
410.772	68.5012
413.664	65.1755
416.557	58.4177
419.45	21.8018
422.342	6.80664
425.235	5.80396
428.128	4.7749
431.02	2.48242
433.913	25.6282
436.806	0.039795
439.699	25.114
442.591	32.3489
445.484	5.76782
448.377	9.82935
451.269	8.79468
454.162	2.41113
457.055	35.9358
459.947	48.2014
462.84	31.0867
465.733	46.6309
468.625	61.4746
471.518	47.7019
474.411	2.27441
477.304	42.7122
480.196	44.1528
483.089	63.835
485.982	35.845
488.874	81.4097
491.767	87.3384
494.66	111.376
497.553	140.373
500.445	154.397
503.338	220.704
506.231	325.98
509.123	440.82
512.016	446.182
514.909	543.353
517.802	531.704
520.694	559.667
523.587	588.332
526.48	661.908
529.372	690.935
532.265	631.508
535.158	620.678
538.05	578.394
540.943	538.559
543.836	520.997
546.729	465.163
549.621	435.492
552.514	461.623
555.407	441.785
558.299	429.449
561.192	413.495
564.085	427.394
566.977	356.26
569.87	318.606
572.763	299.793
575.655	218.753
578.548	175.5
581.441	115.091
584.333	119.8
587.226	74.6912
590.119	42.6736
593.012	20.1592
595.904	21.9734
598.797	19.1274
601.69	7.51025
604.582	9.87476
607.475	23.0762
610.368	2.29272
613.26	4.27905
616.153	37.2817
619.046	3.85718
621.939	75.7092
624.831	52.283
627.724	107.351
630.617	93.4463
633.509	119.15
636.402	189.981
639.295	247.284
642.188	282.801
645.08	431.485
647.973	561.496
650.866	801.478
653.758	1119.54
656.651	1477.09
659.544	2007.21
662.436	2414.88
665.329	2512.69
668.222	2185.6
671.115	1585.78
674.007	1139.83
676.9	780.738
679.793	589.662
682.685	427.135
685.578	310.554
688.471	253.523
691.363	201.148
694.256	166.185
697.149	152.254
700.042	139.11
702.934	106.869
705.827	104.39
708.72	104.955
711.612	72.1848
714.505	46.1167
717.398	35.656
720.29	42.5125
723.183	45.5339
726.076	64.2539
728.968	10.0593
731.861	7.75732
734.754	9.34082
737.647	14.5547
740.539	45.8503
743.432	0.210449
746.325	48.5376
749.217	32.2485
752.11	15.8648
755.003	12.9858
757.895	11.9334
760.788	48.468
763.681	0.381104
766.574	36.1252
769.466	42.9917
772.359	30.9556
775.252	22.0291
778.144	13.5584
781.037	25.0369
783.93	31.0962
786.822	62.2305
789.715	49.854
792.608	44.9871
795.501	77.6487
798.393	40.5254
801.286	42.5403
804.179	65.646
807.071	79.439
809.964	67.6582
812.857	69.5142
815.75	87.0857
818.642	74.9988
821.535	114.232
824.428	87.7195
827.32	72.3291
830.213	81.8508
833.106	60.4028
835.998	32.2246
838.891	25.0781
841.784	70.5625
844.677	4.22095
847.569	38.8501
850.462	39.9978
853.355	37.7263
856.247	38.7119
859.14	42.5283
862.033	50.7793
864.925	48.6616
867.818	29.9512
870.711	45.6243
873.604	10.0915
876.496	5.79297
879.389	41.6282
882.282	41.5581
885.174	23.3652
888.067	26.5007
890.96	46.3223
893.852	52.5151
896.745	79.5071
899.638	53.825
902.53	61.1833
905.423	61.2043
908.316	43.7253
911.209	85.6597
914.101	82.167
916.994	119.714
919.887	115.999
922.779	117.03
925.672	133.511
928.565	119.775
931.457	64.5027
934.35	96.6968
937.243	32.8586
940.136	20.3113
943.028	6.00391
945.921	15.7495
948.814	7.9563
951.706	29.7097
954.599	7.30542
957.492	32.4546
960.385	16.4463
963.277	20.1743
966.17	51.2224
969.063	73.4731
971.955	83.7256
974.848	134.775
977.741	168.02
980.633	236.989
983.526	291.397
986.419	329.214
989.312	470.567
992.204	593.433
995.097	757.651
997.99	966.879
1000.88	1236.42
1003.77	1613.3
1006.67	2041.15
1009.56	2449.99
1012.45	2396.52
1015.35	1829.65
1018.24	1145.2
1021.13	699.921
1024.02	488.975
1026.92	371.178
1029.81	285.83
1032.7	322.085
1035.6	292.059
1038.49	259.946
1041.38	236.921
1044.27	219.375
1047.17	195.101
1050.06	164.719
1052.95	134.454
1055.84	147.536
1058.74	109.546
1061.63	75.5493
1064.52	96.8748
1067.41	45.1091
1070.31	55.5618
1073.2	8.59888
1076.09	52.7913
1078.98	8.53149
1081.88	2.72729
1084.77	55.4282
1087.66	18.5037
1090.56	3.48438
1093.45	0.976318
1096.34	28.3848
1099.23	37.5242
1102.13	23.5725
1105.02	22.9524
1107.91	49.2974
1110.81	59.5308
1113.7	49.208
1116.59	42.2779
1119.48	32.068
1122.38	31.2704
1125.27	37.0315
1128.16	26.3803
1131.05	6.67114
1133.95	18.8998
1136.84	10.8339
1139.73	9.51465
1142.62	4.45618
1145.52	10.5643
1148.41	29.891
1151.3	17.045
1154.19	9.25793
1157.09	0.063965
1159.98	20.011
1162.87	22.7826
1165.77	13.5142
1168.66	19.4238
1171.55	22.5874
1174.44	6.05676
1177.34	24.1586
1180.23	43.5477
1183.12	34.0726
1186.02	37.4242
1188.91	44.5641
1191.8	64.3743
1194.69	53.1614
1197.59	45.1652
1200.48	80.5632
1203.37	32.7246
1206.26	24.8888
1209.16	45.6406
1212.05	9.05969
1214.94	32.9211
1217.84	24.6702
1220.73	1.68701
1223.62	6.34558
