Measurement: Raman, 785 nm, unoriented, Raman Data Processed
Mineral: Augite
Rruff sample: R061108
Ideal chemistry: (Ca,Mg,Fe)_2_(Si,Al)_2_O_6_
Locality: Monti Rossi, near Mt. Etna, Sicily, Italy
Source: Michael Scott
Description: Euhedral, short prismatic, black crystals in vesicular basalt.
Measured chemistry: (Ca_0.86_Mg_0.74_Fe^2+^_0.18_Fe^3+^_0.08_Al_0.05_Ti_0.04_Na_0.04_Mn_0.01_)_Σ=2_(Si_1.83_Al_0.17_)_Σ=2_O_6_
Raman shift (cm-1)	intensity
138.504	0
141.396	171.435
144.289	556.79
147.181	885.969
150.074	815.865
152.967	718.302
155.86	608.337
158.752	436.676
161.645	450.315
164.538	511.345
167.43	525.768
170.323	534.747
173.216	567.154
176.108	518.779
179.001	542.088
181.894	544.549
184.787	528.571
187.679	523.483
190.572	424.135
193.465	397.015
196.357	315.947
199.25	282.018
202.143	217.77
205.036	253.415
207.928	118.418
210.821	64.1245
213.714	140.901
216.606	109.083
219.499	77.7292
222.392	148.835
225.284	50.8235
228.177	131.012
231.07	127.058
233.963	28.5603
236.855	22.2327
239.748	18.8457
242.641	55.7075
245.533	51.4269
248.426	24.8364
251.319	19.7808
254.211	2.39453
257.104	46.2146
259.997	9.19898
262.889	23.5252
265.782	22.1034
268.675	27.8418
271.568	5.34631
274.46	23.144
277.353	7.00903
280.246	48.4043
283.138	33.5406
286.031	10.8784
288.924	38.7645
291.817	129.339
294.709	93.9443
297.602	199.093
300.495	273.812
303.387	259.454
306.28	346.165
309.173	404.542
312.065	481.849
314.958	598.315
317.851	609.87
320.743	645.448
323.636	744.742
326.529	749.872
329.422	733.86
332.314	629.139
335.207	562.933
338.1	519.294
340.992	530.539
343.885	480.758
346.778	521.619
349.671	581.905
352.563	579.867
355.456	531.241
358.349	574.158
361.241	503.723
364.134	499.175
367.027	483.662
369.919	461.353
372.812	511.172
375.705	551.331
378.598	643.971
381.49	690.902
384.383	778.677
387.276	862.705
390.168	882.156
393.061	756.87
395.954	618.967
398.846	469.769
401.739	246.989
404.632	147.35
407.524	104.23
410.417	39.6757
413.31	46.1855
416.202	40.9335
419.095	22.5442
421.988	22.8461
424.881	8.29724
427.773	5.18957
430.666	17.7942
433.559	43.8097
436.451	29.9185
439.344	14.4005
442.237	10.7251
445.13	20.1025
448.022	6.88086
450.915	0.478638
453.808	18.467
456.7	44.3191
459.593	38.8555
462.486	39.7744
465.378	49.1132
468.271	29.7373
471.164	50.8362
474.057	75.714
476.949	31.7893
479.842	25.251
482.735	66.8097
485.627	82.4928
488.52	64.5789
491.413	107.383
494.305	123.137
497.198	148.872
500.091	164.268
502.983	231.638
505.876	270.666
508.769	303.052
511.662	324.403
514.554	417.93
517.447	430.067
520.34	482.49
523.232	518.243
526.125	561.912
529.018	542.017
531.91	549.75
534.803	487.817
537.696	564.258
540.589	489.88
543.481	503.695
546.374	510.607
549.267	489.173
552.159	457.102
555.052	484.845
557.945	442.003
560.837	404.22
563.73	358.509
566.623	319.849
569.516	348.258
572.408	306.436
575.301	305.34
578.194	220.477
581.086	167.304
583.979	131.834
586.872	111.499
589.764	55.6929
592.657	15.6641
595.55	24.233
598.443	37.0995
601.335	17.5918
604.228	16.7686
607.121	32.106
610.013	1.11426
612.906	34.3206
615.799	37.12
618.692	5.44849
621.584	27.9209
624.477	47.7183
627.37	120.639
630.262	112.16
633.155	151.933
636.048	154.383
638.94	192.297
641.833	271.794
644.726	357.671
647.619	427.837
650.511	571.233
653.404	788.049
656.297	1115.29
659.189	1307.54
662.082	1594.78
664.975	1561.81
667.867	1328.9
670.76	1070.48
673.653	735.667
676.545	542.393
679.438	388.127
682.331	303.543
685.224	231.038
688.116	200.227
691.009	127.638
693.902	142.207
696.794	91.053
699.687	95.55
702.58	21.2415
705.472	109.614
708.365	55.2578
711.258	38.5099
714.151	11.2911
717.043	54.7291
719.936	3.45471
722.829	2.08142
725.721	35.6263
728.614	11.1289
731.507	14.5281
734.399	28.0092
737.292	34.9675
740.185	6.18738
743.077	25.1222
745.97	11.7257
748.863	31.0586
751.756	41.2373
754.648	4.29712
757.541	17.7299
760.434	39.3362
763.326	42.9605
766.219	60.5824
769.112	79.8751
772.005	74.7671
774.897	34.0504
777.79	93.7395
780.683	80.3019
783.575	102.777
786.468	90.097
789.361	98.5658
792.253	133.245
795.146	117.37
798.039	143.068
800.932	170.801
803.824	175.334
806.717	178.035
809.61	208.376
812.502	198.597
815.395	234.004
818.288	203.218
821.18	181.22
824.073	178.379
826.966	146.749
829.859	94.062
832.751	70.7316
835.644	32.2778
838.537	5.75391
841.429	33.1393
844.322	16.3894
847.215	34.6874
850.107	63.9905
853	28.9777
855.893	71.871
858.785	83.6088
861.678	79.9638
864.571	70.718
867.464	70.0006
870.356	23.1686
873.249	73.5615
876.142	59.6694
879.034	39.2792
881.927	15.5925
884.82	30.0693
887.712	7.36768
890.605	35.8328
893.498	12.3811
896.391	28.473
899.283	26.726
902.176	50.7336
905.069	44.4598
907.961	38.422
910.854	4.10071
913.747	26.7183
916.639	71.7306
919.532	59.0924
922.425	82.2711
925.318	73.8318
928.21	92.3014
931.103	92.7736
933.996	37.1824
936.888	35.5637
939.781	41.7598
942.674	28.1367
945.567	12.7017
948.459	1.02576
951.352	10.379
954.245	0.06665
957.137	16.5438
960.03	48.3641
962.923	48.4222
965.815	17.7044
968.708	31.3115
971.601	39.6537
974.494	93.8235
977.386	160.492
980.279	160.441
983.172	153.023
986.064	199.744
988.957	218.524
991.85	235.622
994.742	391.554
997.635	497.816
1000.53	686.604
1003.42	788.892
1006.31	869.575
1009.21	849.215
1012.1	745.411
1014.99	507.425
1017.88	299.196
1020.78	207.27
1023.67	122.796
1026.56	155.638
1029.45	168.814
1032.35	112.805
1035.24	227.75
1038.13	184.913
1041.03	137.034
1043.92	118.163
1046.81	150.165
1049.7	112.199
1052.6	162.074
1055.49	111.992
1058.38	53.6315
1061.27	73.7407
1064.17	73.5276
1067.06	5.83789
1069.95	34.1145
1072.85	5.28906
1075.74	69.9403
1078.63	51.7919
1081.52	46.0813
1084.42	67.804
1087.31	26.209
1090.2	70.9452
1093.09	3.13354
1095.99	24.1764
1098.88	11.9086
1101.77	1.92712
1104.66	45.6725
1107.56	25.1708
1110.45	43.1725
1113.34	42.1631
1116.24	21.2648
1119.13	53.2051
1122.02	9.9928
1124.91	40.6125
1127.81	21.8539
1130.7	46.2404
1133.59	25.4062
1136.48	19.6642
1139.38	27.3516
1142.27	21.1569
1145.16	21.063
1148.06	34.5075
1150.95	49.5269
1153.84	39.9893
1156.73	3.50043
1159.63	19.7273
1162.52	28.7573
1165.41	7.04962
1168.3	66.2175
1171.2	13.7446
1174.09	18.8322
1176.98	89.8793
1179.88	47.0946
1182.77	72.4697
1185.66	65.3285
1188.55	83.9391
1191.45	39.1511
1194.34	53.2312
1197.23	73.5178
1200.12	56.6363
1203.02	46.771
1205.91	49.9239
1208.8	83.02
1211.69	46.8869
1214.59	44.9807
1217.48	33.5759
1220.37	60.7141
1223.27	18.36
1226.16	71.3393
1229.05	64.4498
1231.94	59.2651
1234.84	15.1879
1237.73	12.2523
1240.62	40.1325
1243.51	15.259
1246.41	5.42029
1249.3	37.3439
1252.19	35.5757
1255.09	8.2608
1257.98	30.5896
1260.87	4.67926
1263.76	0.923523
1266.66	18.5263
1269.55	9.77332
