Measurement: Raman, 785 nm, unoriented, Raman Data Processed
Mineral: Augite
Rruff sample: R061086
Ideal chemistry: (Ca,Mg,Fe)_2_(Si,Al)_2_O_6_
Locality: Boreslav, Teplitz, Bohemia, Czech Republic
Source: Michael Scott
Description: Black to dark green tabular euhedral crystal
Measured chemistry: (Ca_0.88_Mg_0.83_Fe_0.13_Al_0.08_Na_0.04_Ti_0.03_Cr_0.01_)_Σ=2_(Si_1.89_Al_0.11_)_Σ=2_O_6_
Raman shift (cm-1)	intensity
180.448	0
183.34	139.168
186.233	129.039
189.126	172.33
192.018	71.7519
194.911	42.0801
197.804	112.377
200.696	85.3144
203.589	288.023
206.482	201.83
209.375	101.178
212.267	17.3945
215.16	144.221
218.053	331.012
220.945	518.213
223.838	676.363
226.731	559.928
229.624	490.945
232.516	361.215
235.409	276.01
238.302	287.258
241.194	334.67
244.087	339.721
246.98	263.711
249.872	207.394
252.765	171.459
255.658	178.728
258.55	189.33
261.443	223.957
264.336	163.117
267.228	5.60156
270.121	18.7656
273.014	14.5449
275.907	104.236
278.799	7.92578
281.692	46.6953
284.585	280.662
287.477	153.035
290.37	324.812
293.263	379.037
296.156	468.725
299.048	388.045
301.941	545.627
304.834	565.754
307.726	888.828
310.619	1113.65
313.512	1398.16
316.404	1646.36
319.297	1829.04
322.19	2164.39
325.083	2187.37
327.975	1980.05
330.868	1780.17
333.761	1383
336.653	1212.15
339.546	922.238
342.439	847.25
345.331	711.309
348.224	589.215
351.117	672.904
354.01	714.664
356.902	646.479
359.795	717.141
362.688	656.414
365.58	590.012
368.473	675.887
371.366	572.705
374.258	888.994
377.151	1073.2
380.044	1194.89
382.937	1468.57
385.829	1854.03
388.722	2285.18
391.615	2541.44
394.507	2296.06
397.4	1846.69
400.293	1086.36
403.185	844.83
406.078	381.025
408.971	224.897
411.863	42.8184
414.756	132.371
417.649	93.9102
420.542	6.55469
423.434	107.846
426.327	54.9219
429.22	36.4746
432.112	39.7324
435.005	27.7324
437.898	65.6777
440.791	54.0508
443.683	93.8945
446.576	77.2578
449.469	34.8281
452.361	35.1758
455.254	106.898
458.147	75.8984
461.039	20.7031
463.932	51.8828
466.825	134.258
469.717	197.965
472.61	189.652
475.503	75.4023
478.396	60.2617
481.288	34.2852
484.181	134.863
487.074	2.52344
489.966	176.867
492.859	195.488
495.752	138.16
498.644	209.731
501.537	233.019
504.43	215.953
507.323	378.723
510.215	341.508
513.108	568.844
516.001	500.387
518.893	566.738
521.786	609.762
524.679	597.949
527.572	665.078
530.464	652.277
533.357	571.957
536.25	478.465
539.142	447.273
542.035	455.898
544.928	476.301
547.82	376.531
550.713	425.644
553.606	213.242
556.499	336.934
559.391	369.496
562.284	385.793
565.177	407.691
568.069	206.336
570.962	248.172
573.855	183.953
576.747	115.519
579.64	126.488
582.533	149.566
585.425	113.172
588.318	134.965
591.211	13.7578
594.104	44.3281
596.996	23.6445
599.889	25.3711
602.782	130.891
605.674	40.9805
608.567	178.449
611.46	125.758
614.352	92.3125
617.245	116.961
620.138	201.547
623.03	141.789
625.923	125.246
628.816	255.246
631.709	238.418
634.601	170.301
637.494	208.254
640.387	49.1992
643.279	78.4609
646.172	128.996
649.065	361.695
651.957	608.371
654.85	767.523
657.743	1201.39
660.636	1674.19
663.528	1969.79
666.421	1814
669.314	1408.19
672.206	1020.18
675.099	638.047
677.992	407.289
680.885	365.375
683.777	217.211
686.67	200.727
689.563	166.219
692.455	202.43
695.348	76.7109
698.241	331.094
701.133	211.184
704.026	144.078
706.919	238.047
709.812	106.09
712.704	140.289
715.597	16.332
718.49	59.6875
721.382	90.8086
724.275	27.0469
727.168	76.6992
730.06	148.082
732.953	47.9688
735.846	158.078
738.739	6.73828
741.631	47.4414
744.524	13.7148
747.417	18.2891
750.309	30.3867
753.202	38.3047
756.095	16.0586
758.987	102.512
761.88	173.125
764.773	97.3711
767.665	104.769
770.558	181.727
773.451	447.945
776.344	320.867
779.236	392.461
782.129	377.738
785.022	313.949
787.914	426.121
790.807	493.836
793.7	334.047
796.592	431.953
799.485	492.707
802.378	435.336
805.271	581.066
808.163	673.238
811.056	714.594
813.949	666.242
816.841	546.344
819.734	437.894
822.627	302.301
825.519	397.754
828.412	391.59
831.305	304.981
834.198	327.176
837.09	220.281
839.983	181.637
842.876	326.719
845.768	238.125
848.661	318.445
851.554	57.9219
854.447	205.352
857.339	288.641
860.232	185.695
863.125	211.852
866.017	292.633
868.91	186.348
871.803	83.2695
874.695	168.769
877.588	0.59375
880.481	165.195
883.373	117.805
886.266	77.8281
889.159	271.715
892.052	178.457
894.944	97.4883
897.837	107.754
900.73	85.7031
903.622	8.74609
906.515	84.2539
909.408	45.0352
912.3	83.6797
915.193	251.324
918.086	6.27344
920.979	77.5117
923.871	254.758
926.764	264.012
929.657	272.211
932.549	229.676
935.442	54.4062
938.335	42.0352
941.227	23.6758
944.12	15.9062
947.013	107.188
949.905	71.0938
952.798	68.2031
955.691	51.8125
958.584	50.0312
961.476	65.7266
964.369	51.2852
967.262	87.2461
970.154	141.547
973.047	85.8633
975.94	410.922
978.832	204.531
981.725	353.777
984.618	485.324
987.511	597.969
990.403	631.879
993.296	844.789
996.189	1211.43
999.081	1628.38
1001.97	2327.59
1004.87	2673.65
1007.76	3074.5
1010.65	2895.73
1013.54	2228.2
1016.44	1496.74
1019.33	933.562
1022.22	563.965
1025.12	440.75
1028.01	364.672
1030.9	272.406
1033.79	203.367
1036.69	329.531
1039.58	414.652
1042.47	317.312
1045.37	288.398
1048.26	237.848
1051.15	127.738
1054.04	89.2969
1056.93	55.25
1059.83	76.043
1062.72	167.402
1065.61	110.461
1068.51	129.812
1071.4	14.7695
1074.29	43.6133
1077.18	201.438
1080.08	200.082
1082.97	78.6875
1085.86	22.3086
1088.76	92.0195
1091.65	101.168
1094.54	7.48047
1097.43	47.293
1100.33	29.3984
1103.22	118.504
1106.11	71.9844
1109	122.285
1111.9	239.293
1114.79	227.477
1117.68	165.203
1120.58	367.059
1123.47	258.019
1126.36	89.75
1129.25	14.125
1132.15	72.7695
1135.04	91.4922
1137.93	86.7422
1140.82	46.043
1143.72	53.0664
1146.61	142.922
1149.5	21.3867
1152.39	20.5625
1155.29	225.945
1158.18	189.566
1161.07	174.293
1163.96	38.4805
1166.86	293.531
1169.75	272.773
1172.64	299.219
1175.54	305.062
1178.43	282.559
1181.32	273.738
1184.21	207.461
1187.11	267.144
1190	93.043
1192.89	221.953
1195.79	374.84
1198.68	256.691
1201.57	232.391
1204.46	283.09
1207.36	352.703
1210.25	224.566
1213.14	276.203
1216.03	252.246
1218.93	174.637
1221.82	237.535
1224.71	311.766
1227.61	366.113
1230.5	338.477
1233.39	312.953
1236.28	31.1797
1239.17	217.805
1242.07	235.672
1244.96	333.305
1247.85	226.91
1250.75	385.781
1253.64	172.582
1256.53	221.441
1259.42	220.535
1262.32	11.8125
1265.21	304.773
1268.1	104.195
