Measurement: Raman, 532 nm, unoriented, Raman Data Processed
Mineral: Augite
Rruff sample: R061108
Ideal chemistry: (Ca,Mg,Fe)_2_(Si,Al)_2_O_6_
Locality: Monti Rossi, near Mt. Etna, Sicily, Italy
Source: Michael Scott
Description: Euhedral, short prismatic, black crystals in vesicular basalt.
Measured chemistry: (Ca_0.86_Mg_0.74_Fe^2+^_0.18_Fe^3+^_0.08_Al_0.05_Ti_0.04_Na_0.04_Mn_0.01_)_Σ=2_(Si_1.83_Al_0.17_)_Σ=2_O_6_
Raman shift (cm-1)	intensity
113.369	0
116.744	44.2754
120.118	339.053
123.493	718.598
126.868	984.204
130.243	1228.61
133.618	1198.51
136.993	1024.41
140.367	818.23
143.742	628.39
147.117	600.696
150.492	548.024
153.867	454.473
157.241	333.208
160.616	410.737
163.991	468.503
167.366	482.743
170.741	525.854
174.115	490.149
177.49	498.514
180.865	513.503
184.24	491.931
187.615	409.779
190.989	405.623
194.364	322.213
197.739	250.793
201.114	155.454
204.489	73.217
207.864	92.8496
211.238	93.0208
214.613	115.962
217.988	123.817
221.363	83.0333
224.738	109.597
228.113	123.033
231.487	82.8146
234.862	81.1897
238.237	47.993
241.612	91.838
244.987	78.8594
248.361	68.301
251.736	53.4209
255.111	8.21594
258.486	53.1304
261.861	11.41
265.236	31.3461
268.61	51.4688
271.985	9.02527
275.36	6.61206
278.735	0.859863
282.11	53.9653
285.484	114.228
288.859	117.598
292.234	172.014
295.609	238.585
298.984	340.765
302.358	433.006
305.733	531.456
309.108	685.761
312.483	856.079
315.858	1023.06
319.233	1168.44
322.607	1306.77
325.982	1285.18
329.357	1159.38
332.732	1060.82
336.107	959.79
339.481	870.561
342.856	875.284
346.231	838.204
349.606	868.128
352.981	801.027
356.355	730.045
359.73	658.291
363.105	633.467
366.48	564.001
369.855	553.727
373.229	536.902
376.604	617.899
379.979	728.378
383.354	858.124
386.729	971.176
390.104	920.691
393.478	790.423
396.853	571.903
400.228	406.097
403.603	243.123
406.978	99.4779
410.353	67.2859
413.727	54.0999
417.102	28.8449
420.477	24.6793
423.852	16.4503
427.227	22.8873
430.601	0.312134
433.976	13.2866
437.351	1.48218
440.726	23.2537
444.101	14.3235
447.475	12.6877
450.85	17.8091
454.225	4.39185
457.6	28.4764
460.975	34.5021
464.349	28.2845
467.724	48.6169
471.099	58.2985
474.474	47.8737
477.849	53.2473
481.224	46.3079
484.598	66.3342
487.973	99.6569
491.348	152.087
494.723	197.933
498.098	311.934
501.473	352.451
504.847	449.104
508.222	441.111
511.597	411.497
514.972	421.687
518.347	445.914
521.721	463.893
525.096	475.278
528.471	505.09
531.846	499.057
535.221	527.664
538.595	535.679
541.97	492.784
545.345	508.561
548.72	530.359
552.095	535.471
555.47	503.183
558.844	510.252
562.219	454.038
565.594	413.143
568.969	422.776
572.344	338.631
575.718	320.629
579.093	265.328
582.468	170.591
585.843	127.531
589.218	90.6513
592.592	42.587
595.967	23.2452
599.342	3.13074
602.717	46.7941
606.092	6.19336
609.467	14.6731
612.841	31.7006
616.216	27.5128
619.591	79.7406
622.966	73.555
626.341	83.5085
629.715	148.601
633.09	217.323
636.465	283.728
639.84	429.939
643.215	623.245
646.59	896.674
649.964	1296.5
653.339	1738.9
656.714	2279.2
660.089	2791.44
663.464	3081.07
666.838	2729.09
670.213	1984.85
673.588	1343.34
676.963	927.241
680.338	636.413
683.712	493.385
687.087	311.542
690.462	292.279
693.837	247.606
697.212	203.088
700.587	203.647
703.961	131.227
707.336	126.693
710.711	107.451
714.086	90.2719
717.461	61.7616
720.835	30.8745
724.21	20.1876
727.585	2.91138
730.96	6.57837
734.335	12.4045
737.71	38.3015
741.084	45.3937
744.459	63.5358
747.834	53.1603
751.209	29.5467
754.584	119.846
757.958	125.083
761.333	180.299
764.708	173.831
768.083	177.889
771.458	192.52
774.832	137.909
778.207	156.513
781.582	108.028
784.957	92.5846
788.332	96.1595
791.707	57.6482
795.081	107.415
798.456	64.1614
801.831	95.4152
805.206	132.445
808.581	146.013
811.955	181.046
815.33	139.153
818.705	176.892
822.08	163.971
825.455	197.263
828.83	147.252
832.204	98.8313
835.579	76.667
838.954	69.1937
842.329	57.3176
845.704	33.2018
849.078	56.0571
852.453	44.5201
855.828	78.64
859.203	95.8049
862.578	93.3916
865.952	27.2433
869.327	4.8114
872.702	1.96143
876.077	25.1726
879.452	12.2567
882.827	10.6364
886.201	2.46619
889.576	7.07593
892.951	56.5353
896.326	22.5364
899.701	0.015381
903.075	5.17981
906.45	25.448
909.825	31.9352
913.2	50.9764
916.575	71.1699
919.949	134.298
923.324	98.6398
926.699	80.1907
930.074	67.7153
933.449	63.2593
936.823	51.3845
940.198	36.1361
943.573	12.1206
946.948	2.71948
950.323	6.71948
953.698	11.1956
957.072	51.0587
960.447	51.1777
963.822	106.573
967.197	97.1858
970.572	161.631
973.947	193.113
977.321	276.351
980.696	396.437
984.071	537.763
987.446	755.173
990.821	964.335
994.195	1318.04
997.57	1685.47
1000.95	2093.17
1004.32	2362.49
1007.7	2321.64
1011.07	1924.64
1014.44	1296.7
1017.82	801.087
1021.19	566.203
1024.57	423.285
1027.94	355.236
1031.32	293.529
1034.69	310.222
1038.07	234.336
1041.44	249.208
1044.82	228.115
1048.19	178.589
1051.57	121.094
1054.94	56.0459
1058.32	22.6901
1061.69	32.4004
1065.07	7.89099
1068.44	6.40552
1071.82	73.8594
1075.19	16.9089
1078.57	5.50513
1081.94	39.1129
1085.32	6.78992
1088.69	45.2911
1092.07	53.9622
1095.44	79.6301
1098.82	103.405
1102.19	105.528
1105.56	111.125
1108.94	111.934
1112.31	93.7336
1115.69	95.1033
1119.06	55.0363
1122.44	73.3274
1125.81	64.643
1129.19	25.868
1132.56	50.6827
1135.94	1.48608
1139.31	2.5199
1142.69	33.206
1146.06	5.79114
1149.44	2.40588
1152.81	25.1824
1156.19	16.351
1159.56	15.5615
1162.94	45.8773
1166.31	76.0416
1169.69	60.8648
1173.06	63.3593
1176.43	28.2465
1179.81	59.5295
1183.18	66.8949
1186.56	69.3294
1189.93	57.2551
1193.31	104.337
1196.68	71.4767
1200.06	95.2728
1203.43	52.1045
1206.81	82.0269
1210.18	51.7005
1213.56	76.8722
1216.93	56.8428
1220.31	68.6121
1223.68	66.2126
1227.06	35.0992
1230.43	82.527
1233.81	57.5572
1237.18	41.1209
1240.56	24.3514
1243.93	58.3528
1247.31	42.5453
1250.68	32.5444
1254.06	49.1202
1257.43	37.8152
1260.81	36.4982
1264.18	21.8021
1267.56	34.1864
1270.93	18.2969
1274.31	24.7764
1277.68	37.3886
1281.06	24.2875
1284.43	42.1038
1287.8	20.6071
1291.18	31.2649
1294.55	21.9851
