Measurement: Raman, 532 nm, unoriented, Raman Data Processed
Mineral: Augite
Rruff sample: R070231
Ideal chemistry: (Ca,Mg,Fe)_2_(Si,Al)_2_O_6_
Locality: Old Goose Creek Quarry, Leesburg, Loudoun County, Virginia, USA
Source: Michael Scott
Description: Very dark grey-green prismatic crystals frozen in quartz
Measured chemistry: (Mg_0.44_Fe_0.37_Ca_0.17_Ti_0.01_Mn_0.01_)_Σ=1_(Si_0.98_Al_0.02_)_Σ=1_O_3_
Raman shift (cm-1)	intensity
144.841	0
148.215	3.05054
151.59	78.3567
154.965	143.036
158.34	191.826
161.715	217.492
165.09	281.117
168.464	358.223
171.839	403.261
175.214	501.415
178.589	547.092
181.964	586.421
185.339	658.926
188.713	754.211
192.088	708.135
195.463	647.247
198.838	507.569
202.213	430.272
205.587	403.008
208.962	421.929
212.337	448.308
215.712	454.586
219.087	465.912
222.462	573.682
225.836	522.445
229.211	503.393
232.586	474.893
235.961	383.819
239.336	319.794
242.71	303.006
246.085	240.253
249.46	145.757
252.835	122.863
256.21	113.829
259.584	17.886
262.959	5.00537
266.334	52.9438
269.709	37.4619
273.084	26.9048
276.459	1.98584
279.833	46.1636
283.208	81.0205
286.583	90.25
289.958	226.981
293.333	315.342
296.707	391.918
300.082	484.961
303.457	582.232
306.832	850.779
310.207	1196.53
313.582	1649.07
316.956	2120.5
320.331	2518.45
323.706	2595.95
327.081	2242.67
330.456	1678.79
333.83	1183.41
337.205	949.388
340.58	830.02
343.955	789.632
347.33	838.488
350.705	939.418
354.079	1023.82
357.454	991.04
360.829	988.586
364.204	1012.28
367.579	1185.54
370.954	1209.03
374.328	1417.62
377.703	1707.3
381.078	2106.6
384.453	2577.03
387.828	2873.06
391.202	2675.13
394.577	2024.7
397.952	1244.28
401.327	716.759
404.702	407.232
408.077	218.777
411.451	132.724
414.826	18.7891
418.201	27.2834
421.576	19.8147
424.951	6.31128
428.325	19.4529
431.7	22.5957
435.075	9.55151
438.45	27.9846
441.825	33.873
445.2	5.56104
448.574	15.1672
451.949	15.6519
455.324	104.514
458.699	114.396
462.074	76.3699
465.448	124.738
468.823	79.552
472.198	60.2876
475.573	58.4595
478.948	71.1323
482.322	5.28296
485.697	58.4414
489.072	63.7524
492.447	128.642
495.822	181.36
499.197	311.498
502.571	414.031
505.946	536.771
509.321	694.055
512.696	716.672
516.071	710.431
519.446	680.948
522.82	694.711
526.195	703.7
529.57	641.014
532.945	645.129
536.32	575.296
539.694	487.622
543.069	485.103
546.444	523.46
549.819	558.424
553.194	590.329
556.568	582.719
559.943	547.798
563.318	525.532
566.693	445.397
570.068	389.532
573.443	380.34
576.817	342.087
580.192	250.225
583.567	211.35
586.942	190.253
590.317	89.5693
593.692	28.8447
597.066	3.49805
600.441	66.3179
603.816	12.8257
607.191	10.3774
610.566	22.0727
613.94	13.5269
617.315	45.0547
620.69	85.9893
624.065	96.2012
627.44	152.24
630.814	200.36
634.189	184.259
637.564	369.254
640.939	496.897
644.314	682.298
647.689	980.532
651.063	1530.65
654.438	2354.92
657.813	3290.88
661.188	4185.23
664.563	4590.26
667.938	3703.5
671.312	2487.54
674.687	1530.68
678.062	1022.63
681.437	655.14
684.812	490.093
688.186	388.436
691.561	271.743
694.936	257.791
698.311	264.628
701.686	293.436
705.061	223.233
708.435	174.191
711.81	124.606
715.185	67.2876
718.56	73.7817
721.935	37.1001
725.309	35.5308
728.684	11.2681
732.059	3.65039
735.434	15.6904
738.809	24.6587
742.183	30.3389
745.558	71.4448
748.933	13.5649
752.308	19.8804
755.683	27.5259
759.058	50.2261
762.432	8.85742
765.807	53.3428
769.182	5.09814
772.557	6.46143
775.932	83.5942
779.307	37.1182
782.681	25.0962
786.056	17.5371
789.431	53.2515
792.806	8.7334
796.181	13.5166
799.555	9.17773
802.93	17.5996
806.305	17.2388
809.68	27.8926
813.055	51.6812
816.429	136.16
819.804	183.002
823.179	222.289
826.554	213.772
829.929	185.17
833.304	204.981
836.678	124.763
840.053	89.083
843.428	103.353
846.803	101.011
850.178	124.876
853.553	173.448
856.927	175.932
860.302	132.853
863.677	94.8188
867.052	92.6484
870.427	24.1694
873.801	91.6074
877.176	79.8394
880.551	85.6885
883.926	25.4546
887.301	5.52539
890.676	50.4228
894.05	2.73242
897.425	26.9658
900.8	54.2485
904.175	120.318
907.55	76.894
910.924	117.856
914.299	142.65
917.674	146.615
921.049	154.969
924.424	137.752
927.798	138.853
931.173	111.964
934.548	97.9766
937.923	59.2505
941.298	37.9385
944.673	4.0542
948.047	5.56299
951.422	29.2578
954.797	17.3789
958.172	2.65967
961.547	110.24
964.922	61.0127
968.296	133.16
971.671	230.211
975.046	350.084
978.421	416.581
981.796	585.265
985.17	740.768
988.545	1015.75
991.92	1427.08
995.295	1909.1
998.67	2438.51
1002.04	3300.65
1005.42	4432.26
1008.79	5409.91
1012.17	5371.01
1015.54	3773.51
1018.92	2187.33
1022.29	1230.03
1025.67	842.081
1029.04	700.415
1032.42	589.883
1035.79	572.009
1039.17	508.705
1042.54	441.32
1045.92	330.694
1049.29	301.979
1052.67	243.742
1056.04	168.039
1059.42	135.845
1062.79	93.9517
1066.17	71.0078
1069.54	11.6675
1072.92	21.1602
1076.29	41.3516
1079.66	1.32861
1083.04	4.4624
1086.41	30.9097
1089.79	0.775879
1093.16	82.3081
1096.54	49.2212
1099.91	2.07568
1103.29	71.3135
1106.66	57.7388
1110.04	52.9434
1113.41	67.0986
1116.79	47.2661
1120.16	45.6216
1123.54	59.4658
1126.91	46.3154
1130.29	3.68457
1133.66	27.3867
1137.04	60.9175
1140.41	27.1997
1143.79	41.7495
1147.16	18.563
1150.54	58.1567
1153.91	1.14746
1157.29	78.9087
1160.66	22.1748
1164.04	21.1475
1167.41	45.8984
1170.79	35.5132
1174.16	65.0752
1177.54	29.1133
1180.91	33.292
1184.29	26.5102
1187.66	50.9028
1191.03	78.645
1194.41	54.8623
1197.78	74.7759
1201.16	91.0903
1204.53	112.082
1207.91	72.5581
1211.28	25.4238
1214.66	84.2661
1218.03	71.1997
1221.41	116.513
1224.78	75.3921
1228.16	69.5972
1231.53	87.4053
1234.91	54.1001
1238.28	59.3813
1241.66	85.0444
1245.03	65.9067
1248.41	34.4683
1251.78	51.9971
1255.16	62.459
1258.53	106.159
1261.91	66.3677
1265.28	114.26
1268.65	4.25
1272.03	71.7368
1275.4	60.9683
1278.78	26.7578
1282.15	61.9932
1285.53	98.7266
1288.9	50.478
1292.28	4.72217
1295.65	23.7373
1299.03	33.8794
