Measurement: Raman, 532 nm, unoriented, Raman Data Processed
Mineral: Augite
Rruff sample: R061086
Ideal chemistry: (Ca,Mg,Fe)_2_(Si,Al)_2_O_6_
Locality: Boreslav, Teplitz, Bohemia, Czech Republic
Source: Michael Scott
Description: Black to dark green tabular euhedral crystal
Measured chemistry: (Ca_0.88_Mg_0.83_Fe_0.13_Al_0.08_Na_0.04_Ti_0.03_Cr_0.01_)_Σ=2_(Si_1.89_Al_0.11_)_Σ=2_O_6_
Raman shift (cm-1)	intensity
161.58	0
164.473	24.6699
167.366	152.95
170.258	241.928
173.151	245.257
176.044	241.469
178.937	339.501
181.829	403.674
184.722	298.697
187.615	384.353
190.507	356.85
193.4	295.911
196.293	157.872
199.185	80.0459
202.078	14.3179
204.971	42.9224
207.864	12.625
210.756	67.8481
213.649	286.651
216.542	525.977
219.434	714.431
222.327	824.017
225.22	907.77
228.113	925.567
231.005	786.771
233.898	588.938
236.791	390.403
239.683	320.773
242.576	363.322
245.469	287.701
248.361	299.503
251.254	285.277
254.147	223.343
257.039	126.638
259.932	14.8232
262.825	48.5156
265.718	81.8032
268.61	89.854
271.503	99.7612
274.396	6.92627
277.288	75.6973
280.181	130.692
283.074	137.571
285.966	228.762
288.859	396.996
291.752	438.05
294.645	780.928
297.537	892.821
300.43	1068.49
303.323	1333.22
306.215	1693.88
309.108	2191.07
312.001	2800.98
314.893	3428.76
317.786	4080.67
320.679	4641.08
323.572	4901.72
326.464	4740.2
329.357	4325.3
332.25	3663.09
335.142	3189.86
338.035	2846.57
340.928	2610.21
343.82	2447.03
346.713	2349.17
349.606	2322.96
352.498	2341.27
355.391	2305.33
358.284	2233.39
361.177	2142.89
364.069	2036.32
366.962	2030.96
369.855	2011.43
372.747	1973.08
375.64	2001.5
378.533	2195.16
381.425	2706.51
384.318	3108.88
387.211	3718.82
390.104	3954.32
392.996	3628.01
395.889	2990.75
398.782	2000.53
401.674	1199.41
404.567	799.887
407.46	371.697
410.353	196.72
413.245	149.037
416.138	100.221
419.031	2.0332
421.923	19.3511
424.816	29.0308
427.709	22.6172
430.601	30.8613
433.494	39.5454
436.387	31.478
439.279	28.7344
442.172	33.187
445.065	5.38086
447.958	21.5029
450.85	11.8696
453.743	26.7539
456.636	94.9531
459.528	10.5991
462.421	177.154
465.314	155.476
468.207	102.777
471.099	102.339
473.992	70.2471
476.885	68.9482
479.777	172.105
482.67	183.52
485.563	172.6
488.455	246.818
491.348	267.275
494.241	368.106
497.133	500.073
500.026	696.97
502.919	840.119
505.812	1129.74
508.704	1120.09
511.597	1177.45
514.49	1259.6
517.382	1151.34
520.275	1247.16
523.168	1274.4
526.06	1278.2
528.953	1267.6
531.846	1258.66
534.739	1187.5
537.631	1121.34
540.524	1104.19
543.417	1073.78
546.309	1030.57
549.202	1015.57
552.095	1075.87
554.987	984.371
557.88	966.173
560.773	946.021
563.665	947.035
566.558	924.414
569.451	856.599
572.344	854.462
575.236	819.226
578.129	625.479
581.022	596.342
583.914	472.584
586.807	333.293
589.7	171.451
592.592	93.5649
595.485	1.66699
598.378	27.9761
601.271	53.3511
604.163	49.2422
607.056	7.08643
609.949	12.1704
612.841	45.7954
615.734	56.6035
618.627	88.1802
621.519	187.255
624.412	227.134
627.305	299.862
630.197	430.005
633.09	586.397
635.983	644.56
638.876	810.837
641.768	1189.13
644.661	1670.13
647.554	2351.78
650.446	3359.17
653.339	4695.23
656.232	6224
659.125	7885.47
662.017	9458.51
664.91	10196.8
667.803	9083.5
670.695	6797.84
673.588	4703.06
676.481	3311.16
679.373	2411.25
682.266	1727.48
685.159	1299.46
688.052	999.987
690.944	848.297
693.837	664.822
696.73	638.482
699.622	585.477
702.515	525.295
705.408	484.712
708.3	418.628
711.193	356.172
714.086	294.848
716.979	224.931
719.871	134.783
722.764	67.4893
725.657	73.6709
728.549	18.6958
731.442	12.1914
734.335	19.1543
737.227	27.0786
740.12	94.5527
743.013	48.8706
745.905	134.565
748.798	82.3916
751.691	53.6602
754.584	205.58
757.476	150.118
760.369	160.333
763.262	250.719
766.154	233.681
769.047	274.882
771.94	176.187
774.832	234.474
777.725	145.015
780.618	232.055
783.51	178.625
786.403	91.3135
789.296	140.925
792.189	143.219
795.081	137.205
797.974	112.02
800.867	124.754
803.759	105.51
806.652	178.905
809.545	247.67
812.438	252.612
815.33	318.951
818.223	408.473
821.116	532.421
824.008	582.058
826.901	610.226
829.794	573.579
832.686	499.255
835.579	462.302
838.472	332.175
841.365	394.92
844.257	439.75
847.15	589.988
850.043	604.708
852.935	738.537
855.828	752.021
858.721	805.795
861.613	789.188
864.506	635.641
867.399	423.858
870.291	394.339
873.184	283.208
876.077	161.873
878.97	129.567
881.862	100.984
884.755	138.463
887.648	86.7515
890.54	45.5918
893.433	9.86865
896.326	11.4888
899.218	10.3618
902.111	17.0557
905.004	1.0415
907.896	31.0068
910.789	46.4775
913.682	77.6328
916.575	99.3501
919.467	111.467
922.36	90.4609
925.253	12.6821
928.145	38.6792
931.038	75.5039
933.931	13.3555
936.823	8.20996
939.716	16.0024
942.609	69.376
945.502	49.8516
948.394	13.0835
951.287	42.3203
954.18	46.6533
957.072	66.4468
959.965	73.8848
962.858	149.979
965.75	255.616
968.643	231.834
971.536	281.973
974.429	431.712
977.321	538.819
980.214	700.475
983.107	855.709
985.999	1097.02
988.892	1510.28
991.785	1871.48
994.678	2665.37
997.57	3467.76
1000.46	4383.2
1003.36	5452.65
1006.25	6234.19
1009.14	6448.28
1012.03	5527.62
1014.93	3815.99
1017.82	2370.45
1020.71	1590.64
1023.6	1245.56
1026.5	1008.65
1029.39	924.461
1032.28	831.801
1035.17	905.676
1038.07	848.524
1040.96	834.268
1043.85	743.933
1046.75	731.621
1049.64	494.016
1052.53	420.018
1055.42	284.283
1058.32	177.172
1061.21	155.841
1064.1	82.2915
1066.99	49.6333
1069.89	42.3086
1072.78	39.1187
1075.67	17.0757
1078.57	16.3355
1081.46	6.41797
1084.35	6.30566
1087.24	6.68457
1090.14	81.2295
1093.03	31.2197
1095.92	107.303
1098.82	34.2783
1101.71	41.4175
1104.6	135.633
1107.49	62.8267
1110.38	146.741
1113.28	124.266
1116.17	110.234
1119.06	141.941
1121.96	81.1587
1124.85	18.9712
1127.74	117.606
1130.63	67.4673
1133.53	152.249
1136.42	59.5806
1139.31	83.1206
1142.2	7.25049
1145.1	68.4111
1147.99	20.9058
1150.88	31.8325
1153.78	45.2642
1156.67	56.7466
1159.56	0.722656
1162.45	57.8237
1165.35	93.5439
1168.24	42.1372
1171.13	114.319
1174.03	92.8159
1176.92	122.559
1179.81	91.7969
1182.7	57.1909
1185.6	103.26
1188.49	180.121
1191.38	152.696
1194.27	171.139
1197.17	134.63
1200.06	155.918
1202.95	46.2773
1205.84	64.8032
1208.74	202.087
1211.63	126.73
1214.52	129.837
1217.41	40.4736
1220.31	115.047
1223.2	132.978
1226.09	117.433
1228.99	145.255
1231.88	152.102
1234.77	111.689
1237.66	89.1724
1240.56	70.9043
1243.45	65.3696
1246.34	77.1728
1249.23	158.147
1252.13	91.4077
1255.02	89.5122
1257.91	99.3882
1260.81	168.339
1263.7	53.25
1266.59	68.4448
1269.48	84.5952
1272.38	19.1977
1275.27	0
