Measurement: Raman, 532 nm, unoriented, Raman Data Processed
Mineral: Augite
Rruff sample: R110063
Ideal chemistry: (Ca,Mg,Fe)_2_(Si,Al)_2_O_6_
Locality: Betroka, Madagascar
Source: Marcus Origlieri
Description: Dark green, almost black, single euhedral crystal
Raman shift (cm-1)	intensity
161.363	0
164.256	0.142422
167.149	0.667828
170.041	0.987911
172.934	2.90163
175.827	5.67604
178.72	6.29503
181.612	8.32964
184.505	6.47372
187.398	5.30251
190.29	5.12526
193.183	4.42421
196.076	5.58698
198.968	3.96854
201.861	4.20456
204.754	3.67906
207.647	3.1637
210.539	3.40136
213.432	4.45173
216.325	4.43955
219.217	6.72472
222.11	6.85799
225.003	7.86302
227.895	8.96197
230.788	9.36095
233.681	7.71894
236.573	5.29557
239.466	5.28618
242.359	3.91182
245.252	4.40359
248.144	3.75566
251.037	5.71862
253.93	5.72993
256.822	4.65424
259.715	2.96752
262.608	0.8591
265.5	0.660721
268.393	0.242575
271.286	0.87014
274.179	1.31476
277.071	1.09312
279.964	0.179932
282.857	0.916744
285.75	0.656832
288.642	0.942474
291.535	1.02098
294.428	4.74254
297.32	7.09377
300.213	12.0768
303.106	18.5135
305.998	27.6258
308.891	41.652
311.784	56.5666
314.676	67.003
317.569	78.1672
320.462	101.139
323.355	125.967
326.247	111.226
329.14	70.7881
332.033	41.9394
334.925	27.1273
337.818	22.8177
340.711	25.401
343.603	29.1684
346.496	37.6648
349.389	50.5975
352.281	68.7566
355.174	95.8519
358.067	116.271
360.96	114.154
363.852	87.1337
366.745	63.1882
369.638	55.6129
372.53	60.6829
375.423	75.8366
378.316	99.4576
381.209	132.957
384.101	178.301
386.994	251.49
389.887	305.837
392.779	249.181
395.672	130.852
398.565	64.7863
401.457	34.474
404.35	18.7009
407.243	11.5589
410.135	7.4622
413.028	4.03207
415.921	3.14923
418.814	2.68481
421.706	0.100536
424.599	0.001102
427.492	1.08434
430.384	0.637142
433.277	0.287294
436.17	1.36368
439.062	0.098581
441.955	1.14394
444.848	0.123207
447.741	0.067026
450.633	0.450005
453.526	1.46726
456.419	1.57027
459.311	3.24111
462.204	3.9321
465.097	3.70093
467.99	2.79506
470.882	2.03352
473.775	1.08295
476.668	0.856274
479.56	0.98992
482.453	1.28655
485.346	1.39582
488.238	1.14521
491.131	2.81633
494.024	1.8689
496.916	2.79685
499.809	2.61594
502.702	3.98272
505.595	5.95075
508.487	6.93008
511.38	4.87956
514.273	2.9908
517.165	3.77828
520.058	3.58494
522.951	3.67135
525.844	4.7351
528.736	7.1822
531.629	6.58223
534.522	6.79194
537.414	6.10244
540.307	6.24458
543.2	5.04586
546.092	5.38475
548.985	5.59335
551.878	6.47121
554.771	8.62441
557.663	8.77219
560.556	8.78021
563.449	4.95782
566.341	3.92724
569.234	3.22197
572.127	3.38085
575.019	2.3721
577.912	1.71179
580.805	1.39074
583.697	0.89888
586.59	0.783852
589.483	0.071701
592.376	0.577156
595.268	0.169117
598.161	0.635395
601.054	0.479893
603.946	0.578491
606.839	0.070526
609.732	1.41472
612.625	1.9302
615.517	2.47828
618.41	4.24914
621.303	5.44802
624.195	7.55892
627.088	9.60099
629.981	11.5876
632.873	15.2771
635.766	19.4982
638.659	24.488
641.552	32.9457
644.444	43.8991
647.337	64.3526
650.23	97.8362
653.122	154.094
656.015	228.711
658.908	327.271
661.8	458.33
664.693	591.488
667.586	600.345
670.479	426.296
673.371	246.176
676.264	143.512
679.157	87.546
682.049	59.1975
684.942	41.2914
687.835	29.5134
690.727	21.1748
693.62	16.5412
696.513	12.1613
699.405	10.329
702.298	7.58948
705.191	6.90545
708.084	5.00016
710.976	3.30686
713.869	2.50597
716.762	1.1629
719.654	1.46729
722.547	0.409668
725.44	0.544891
728.332	0.439919
731.225	1.48588
734.118	0.212791
737.011	0.321148
739.903	0.207577
742.796	0.374508
745.689	0.131916
748.581	0.060181
751.474	0.328434
754.367	0.447296
757.26	0.376633
760.152	1.0574
763.045	0.13662
765.938	0.141697
768.83	0.501057
771.723	0.276566
774.616	0.076874
777.508	1.25877
780.401	1.55103
783.294	1.21446
786.187	1.37396
789.079	0.572048
791.972	0.773098
794.865	0.007977
797.757	0.906467
800.65	0.342415
803.543	0.049351
806.435	1.01955
809.328	0.544243
812.221	0.01955
815.114	1.26091
818.006	0.629551
820.899	1.22829
823.792	1.01535
826.684	1.52827
829.577	1.97295
832.47	3.1848
835.362	3.08974
838.255	7.57784
841.148	13.8182
844.04	25.5745
846.933	43.5623
849.826	65.9562
852.719	99.1923
855.611	116.196
858.504	85.1594
861.397	48.9185
864.289	29.0809
867.182	17.9814
870.075	12.1218
872.967	8.19048
875.86	6.31268
878.753	6.24183
881.646	4.43454
884.538	2.91327
887.431	3.83811
890.324	3.71392
893.216	3.45528
896.109	3.15367
899.002	1.32083
901.894	1.97467
904.787	2.08664
907.68	0.747833
910.573	1.19294
913.465	0.712273
916.358	1.73421
919.251	1.22536
922.143	0.095879
925.036	0.95047
927.929	0.651764
930.822	0.319138
933.714	0.204319
936.607	0.946499
939.5	0.345417
942.392	0.578945
945.285	1.22085
948.178	0.033192
951.07	0.488224
953.963	0.970974
956.856	2.57021
959.749	2.65617
962.641	2.83892
965.534	3.02662
968.427	3.99023
971.319	3.74021
974.212	5.18086
977.105	6.63121
979.997	6.77341
982.89	9.97928
985.783	11.6722
988.676	15.939
991.568	21.8696
994.461	33.6418
997.354	52.4277
1000.25	90.0537
1003.14	151.571
1006.03	239.462
1008.92	363.958
1011.82	513.152
1014.71	519.096
1017.6	303.588
1020.5	148.078
1023.39	86.5357
1026.28	59.2771
1029.17	46.6252
1032.07	47.3894
1034.96	51.905
1037.85	64.2888
1040.74	83.2003
1043.64	106.319
1046.53	130.273
1049.42	114.022
1052.32	72.6219
1055.21	41.3773
1058.1	24.6794
1060.99	14.311
1063.89	10.7137
1066.78	6.15495
1069.67	3.18887
1072.56	2.74792
1075.46	1.65227
1078.35	0.07962
1081.24	0.469238
1084.13	0.062675
1087.03	0.376083
1089.92	0.329712
1092.81	0.024887
1095.7	0.532585
1098.6	0.22094
1101.49	0.377777
1104.38	0.538826
1107.28	0.674026
1110.17	1.80144
1113.06	0.88678
1115.95	1.01374
1118.85	2.27184
1121.74	1.96912
1124.63	1.84925
1127.53	2.74379
1130.42	1.77473
1133.31	3.18677
1136.2	1.7126
1139.1	2.06683
1141.99	2.32425
1144.88	1.89948
1147.77	0.89122
1150.67	1.97816
1153.56	1.06402
1156.45	1.13128
1159.35	0.298775
1162.24	0.131851
1165.13	0.313416
1168.02	1.43204
1170.92	0.143402
1173.81	1.0976
1176.7	0.462791
1179.59	0.620079
1182.49	0.395973
1185.38	0.642883
1188.27	0.545715
1191.16	0.862427
1194.06	1.4239
1196.95	1.86047
1199.84	1.40581
1202.73	1.64103
1205.63	1.30496
1208.52	2.14607
1211.41	1.14488
1214.31	1.77098
1217.2	1.0491
1220.09	0.902489
1222.98	1.03742
1225.88	1.47143
1228.77	1.09048
1231.66	0.50235
1234.56	0.832962
1237.45	0.681259
1240.34	1.18485
1243.23	0.917549
1246.13	0.697197
1249.02	0.252884
1251.91	2.08806
1254.8	1.07452
1257.7	1.93549
1260.59	1.03947
1263.48	1.29057
1266.38	0.822525
1269.27	0.600159
1272.16	1.71979
1275.05	2.69249
1277.95	1.35478
1280.84	1.17365
1283.73	1.75238
1286.62	0.579147
1289.52	1.49766
1292.41	0.6464
1295.3	1.5603
1298.19	1.59061
1301.09	0.009895
