Measurement: Raman, 780 nm, unoriented, Raman Data Processed
Mineral: Augite
Rruff sample: R110063
Ideal chemistry: (Ca,Mg,Fe)_2_(Si,Al)_2_O_6_
Locality: Betroka, Madagascar
Source: Marcus Origlieri
Description: Dark green, almost black, single euhedral crystal
Raman shift (cm-1)	intensity
165.85	0
168.742	0.676331
171.635	3.43396
174.528	4.30508
177.42	8.56986
180.313	11.2869
183.206	9.31976
186.098	5.94663
188.991	7.39102
191.884	5.69766
194.776	7.99728
197.669	4.70184
200.562	1.63525
203.455	2.67749
206.347	2.52829
209.24	0.118713
212.133	0.274017
215.025	3.76681
217.918	4.76901
220.811	10.2243
223.703	9.67526
226.596	14.3945
229.489	14.2387
232.382	14.719
235.274	11.7534
238.167	10.057
241.06	6.55893
243.952	6.76526
246.845	7.64493
249.738	8.73831
252.631	12.4663
255.523	11.197
258.416	3.84839
261.309	1.99115
264.201	0.781403
267.094	2.32437
269.987	0.791962
272.879	4.09784
275.772	0.584503
278.665	0.70752
281.558	0.502167
284.45	1.23496
287.343	0.3638
290.236	4.68823
293.128	5.57428
296.021	14.0153
298.914	21.7419
301.806	32.226
304.699	53.0006
307.592	81.0038
310.485	109.349
313.377	132.667
316.27	158.27
319.163	206.89
322.055	265.075
324.948	258.677
327.841	171.201
330.733	103.227
333.626	63.7246
336.519	51.4896
339.411	52.0052
342.304	59.1185
345.197	73.8014
348.09	96.0337
350.982	132.368
353.875	182.934
356.768	244.251
359.66	258.964
362.553	202.855
365.446	147.852
368.339	124.019
371.231	131.983
374.124	155.972
377.017	186.371
379.909	245.537
382.802	346.956
385.695	494.105
388.587	655.732
391.48	590.875
394.373	329.516
397.265	160.095
400.158	83.3429
403.051	45.6551
405.944	24.8986
408.836	11.6831
411.729	7.31729
414.622	5.77353
417.514	0.415985
420.407	0.69635
423.3	1.08203
426.192	0.095825
429.085	1.20947
431.978	0.297363
434.871	0.164093
437.763	0.211304
440.656	0.29248
443.549	0.883514
446.441	1.01138
449.334	2.17194
452.227	1.34241
455.12	2.75058
458.012	1.90775
460.905	5.10712
463.798	4.49396
466.69	4.39502
469.583	3.25378
472.476	4.99893
475.368	2.06047
478.261	3.13265
481.154	3.01218
484.046	2.64938
486.939	1.6223
489.832	2.93011
492.725	3.53189
495.617	4.84232
498.51	7.43515
501.403	11.9686
504.295	21.6367
507.188	25.4403
510.081	19.4982
512.973	14.6222
515.866	12.88
518.759	11.3829
521.652	11.1191
524.544	14.9556
527.437	18.2107
530.33	19.9685
533.222	17.17
536.115	18.9231
539.008	17.3902
541.9	17.4017
544.793	15.0305
547.686	17.3207
550.579	17.7825
553.471	17.3991
556.364	20.1594
559.257	19.8668
562.149	20.2695
565.042	14.9619
567.935	12.2841
570.827	11.7687
573.72	10.1887
576.613	6.70314
579.506	4.90375
582.398	3.55882
585.291	4.40208
588.184	2.32016
591.076	0.940582
593.969	1.00024
596.862	2.03076
599.755	0.48233
602.647	2.32573
605.54	1.29779
608.433	2.91508
611.325	3.1536
614.218	4.9661
617.111	7.80891
620.003	10.1529
622.896	13.6932
625.789	17.0618
628.682	22.0933
631.574	28.8136
634.467	37.6386
637.36	47.7311
640.252	65.0587
643.145	85.4162
646.038	126.85
648.93	189.477
651.823	283.094
654.716	404.422
657.609	578.775
660.501	839.74
663.394	1162.73
666.287	1270.77
669.179	956.678
672.072	555.701
674.965	317.242
677.857	196.266
680.75	125.988
683.643	83.5718
686.535	60.5742
689.428	42.9099
692.321	32.9442
695.214	24.2516
698.106	19.4423
700.999	13.7109
703.892	13.2409
706.784	10.1647
709.677	7.98418
712.57	6.5414
715.462	2.99338
718.355	4.43417
721.248	1.60152
724.141	3.73126
727.033	1.22124
729.926	0.571198
732.819	0.317154
735.711	0.235321
738.604	1.46143
741.497	1.40996
744.389	1.19988
747.282	0.357361
750.175	1.09746
753.068	0.253708
755.96	0.341049
758.853	1.46574
761.746	0.33522
764.638	0.393143
767.531	2.22978
770.424	0.44191
773.317	0.942352
776.209	3.52988
779.102	2.62793
781.995	0.614258
784.887	0.333359
787.78	1.1333
790.673	2.71129
793.565	3.46655
796.458	3.69722
799.351	0.935349
802.244	3.8076
805.136	0.24942
808.029	2.75555
810.922	1.70006
813.814	1.58968
816.707	1.70102
819.6	3.05926
822.492	4.5882
825.385	2.54793
828.278	3.27947
831.17	4.80048
834.063	5.80905
836.956	12.6729
839.849	22.3842
842.741	39.2775
845.634	61.8507
848.527	97.6059
851.419	161.462
854.312	209.553
857.205	166.037
860.097	96.9487
862.99	57.3879
865.883	35.9992
868.776	23.085
871.668	17.4422
874.561	11.618
877.454	10.315
880.346	5.55248
883.239	6.95155
886.132	6.56476
889.024	2.62097
891.917	3.42967
894.81	1.33148
897.703	4.16159
900.595	3.23422
903.488	3.26656
906.381	2.69223
909.273	4.05412
912.166	4.73753
915.059	2.90938
917.952	2.63486
920.844	1.60606
923.737	0.28508
926.63	1.47359
929.522	3.03868
932.415	3.60371
935.308	0.597382
938.2	1.39427
941.093	0.547989
943.986	1.23152
946.879	1.59952
949.771	0.032684
952.664	1.187
955.557	1.02118
958.449	1.42433
961.342	2.16208
964.235	2.58336
967.127	5.63045
970.02	6.14356
972.913	5.60233
975.806	6.00028
978.698	8.66547
981.591	14.1695
984.484	16.523
987.376	23.3276
990.269	32.4489
993.162	51.8882
996.054	80.1518
998.947	130.218
1001.84	213.797
1004.73	328.382
1007.62	508.668
1010.52	784.447
1013.41	906.183
1016.3	569.03
1019.2	273.049
1022.09	149.828
1024.98	102.193
1027.87	79.1664
1030.77	72.8104
1033.66	74.2301
1036.55	92.7703
1039.44	114.966
1042.34	153.063
1045.23	191.353
1048.12	188.012
1051.02	122.676
1053.91	67.0758
1056.8	41.5369
1059.69	26.7749
1062.59	16.6404
1065.48	8.21846
1068.37	5.14123
1071.27	0.165878
1074.16	0.468277
1077.05	0.106522
1079.94	1.17523
1082.84	0.37532
1085.73	0.16272
1088.62	1.36777
1091.51	1.04138
1094.41	2.58659
1097.3	2.43085
1100.19	3.04732
1103.08	5.00404
1105.98	7.27078
1108.87	9.68333
1111.76	9.09624
1114.65	8.53778
1117.55	7.30708
1120.44	6.96512
1123.33	5.94278
1126.23	5.20203
1129.12	5.60048
1132.01	1.96016
1134.9	1.34563
1137.8	1.07854
1140.69	1.93436
1143.58	1.07312
1146.47	1.98996
1149.37	0.065018
1152.26	2.56094
1155.15	2.05985
1158.05	3.3981
1160.94	4.82274
1163.83	9.60571
1166.72	11.1449
1169.62	14.8185
1172.51	19.0898
1175.4	19.3655
1178.3	18.3985
1181.19	16.1196
1184.08	14.4635
1186.97	11.8379
1189.87	10.7116
1192.76	8.10439
1195.65	5.99635
1198.54	4.10765
1201.44	5.57913
1204.33	4.36116
1207.22	1.77646
1210.11	0.497498
1213.01	1.02074
1215.9	0.016815
1218.79	0.96608
1221.68	1.42494
1224.58	0.119629
1227.47	0.92218
1230.36	0.40947
1233.26	2.09642
1236.15	2.17442
1239.04	1.85701
1241.93	0.896347
1244.83	3.17924
1247.72	2.65938
1250.61	0.007889
1253.51	2.30745
1256.4	0.555359
1259.29	2.00992
1262.18	2.70306
1265.08	4.29489
1267.97	3.02293
1270.86	2.24261
1273.75	1.46274
1276.65	1.28449
1279.54	1.42088
1282.43	1.07622
1285.32	0
