Measurement: Raman, 532 nm, unoriented, Raman Data Processed
Mineral: Aurichalcite
Rruff sample: R050297
Ideal chemistry: Zn_5_(CO_3_)_2_(OH)_6_
Locality: 79 mine, 4th level, Hayden, Gila County, Arizona, USA
Source: George Godas, John Callahan
Description: Sprays of greenish blue lathlike crystals
Measured chemistry: (Zn_0.68_Cu_0.32_)_5_(CO_3_)_2_(OH)_6_
Raman shift (cm-1)	intensity
114.531	0
117.906	1.65552
121.281	11.9798
124.655	18.5106
128.03	24.5451
131.405	31.0893
134.78	48.6431
138.155	67.197
141.529	63.491
144.904	35.2361
148.279	18.7366
151.654	17.3161
155.029	20.4317
158.404	28.6068
161.778	43.0882
165.153	59.6115
168.528	64.4067
171.903	53.8335
175.278	49.4311
178.652	42.351
182.027	18.4729
185.402	6.73645
188.777	3.5929
192.152	5.53585
195.526	7.24444
198.901	14.3949
202.276	20.8956
205.651	25.9819
209.026	26.208
212.401	21.143
215.775	14.1802
219.15	10.9311
222.525	8.45606
225.9	9.74227
229.275	8.67896
232.649	5.10675
236.024	5.30509
239.399	2.36604
242.774	1.11934
246.149	1.05338
249.524	0.822403
252.898	2.30244
256.273	0.980244
259.648	0.461666
263.023	0.516426
266.398	3.01343
269.772	4.87291
273.147	7.49489
276.522	8.70205
279.897	10.3986
283.272	10.5339
286.647	10.1358
290.021	9.291
293.396	7.03567
296.771	6.46599
300.146	6.22076
303.521	5.36073
306.895	5.92961
310.27	5.11196
313.645	4.91688
317.02	4.35416
320.395	3.4979
323.769	3.94478
327.144	4.79567
330.519	4.83011
333.894	1.20084
337.269	0.632854
340.644	0.017441
344.018	0.505512
347.393	1.41982
350.768	3.02187
354.143	3.22773
357.518	2.48783
360.892	0.683258
364.267	1.69554
367.642	3.25864
371.017	6.26126
374.392	11.1266
377.767	15.4148
381.141	21.299
384.516	27.0437
387.891	34.3886
391.266	36.6848
394.641	30.4063
398.015	19.7449
401.39	9.88615
404.765	4.28361
408.14	2.02134
411.515	0.021885
414.89	0.746426
418.264	0.557262
421.639	1.36092
425.014	3.44872
428.389	6.27274
431.764	6.22167
435.139	6.17619
438.513	5.79418
441.888	5.35152
445.263	7.82647
448.638	10.7122
452.012	15.7854
455.387	22.4993
458.762	26.0598
462.137	27.5633
465.512	21.8334
468.887	17.2351
472.261	10.6872
475.636	6.9241
479.011	6.20039
482.386	5.75609
485.761	6.48384
489.135	7.68293
492.51	10.5532
495.885	12.1539
499.26	12.1545
502.635	10.6262
506.01	9.90848
509.384	9.06685
512.759	7.60997
516.134	7.60778
519.509	5.77996
522.884	3.9142
526.259	2.97981
529.633	1.80326
533.008	1.42282
536.383	0.772861
539.758	1.05906
543.133	0.867107
546.507	0.161888
549.882	0.386818
553.257	0.136536
556.632	0.442905
560.007	0.510242
563.381	0.126499
566.756	0.06152
570.131	0.261539
573.506	0.135094
576.881	0.552967
580.256	0.708759
583.63	0.745739
587.005	0.566288
590.38	0.369194
593.755	1.62219
597.13	1.19382
600.505	1.54592
603.879	2.2017
607.254	1.70309
610.629	1.72446
614.004	1.47699
617.379	1.74992
620.753	1.47575
624.128	1.33164
627.503	1.46853
630.878	0.589119
634.253	0.403648
637.627	0.648937
641.002	0.506001
644.377	0.632282
647.752	0.4049
651.127	0.851612
654.501	0.595196
657.876	0.641312
661.251	0.073368
664.626	0.580139
668.001	1.24258
671.376	0.114304
674.75	0.88142
678.125	0.15913
681.5	0.332546
684.875	0.32613
688.25	1.80046
691.625	3.13531
694.999	4.55512
698.374	7.80147
701.749	12.1578
705.124	13.4846
708.499	12.8996
711.873	11.6032
715.248	7.06302
718.623	7.69104
721.998	10.1946
725.373	11.8799
728.747	15.7846
732.122	17.7525
735.497	17.6506
738.872	17.1622
742.247	14.4952
745.622	11.7044
748.996	11.7392
752.371	10.9722
755.746	7.38847
759.121	4.40506
762.496	3.07212
765.87	2.25217
769.245	0.908569
772.62	1.20229
775.995	0.619808
779.37	0.409508
782.745	0.136269
786.119	0.083519
789.494	0.195873
792.869	0.006908
796.244	0.408802
799.619	0.071465
802.994	0.581287
806.368	0.098827
809.743	0.432232
813.118	0.213562
816.493	0.792816
819.868	1.00822
823.242	1.71815
826.617	1.55698
829.992	0.899918
833.367	1.49005
836.742	2.74588
840.116	3.39124
843.491	3.54868
846.866	3.71356
850.241	3.22996
853.616	3.5014
856.99	2.63992
860.365	3.20068
863.74	2.95917
867.115	2.44778
870.49	2.48182
873.865	1.70424
877.239	1.65266
880.614	1.14462
883.989	1.2321
887.364	0.786156
890.739	0.540062
894.114	0.384407
897.488	0.669044
900.863	0.705894
904.238	0.112572
907.613	0.122589
910.988	0.063419
914.362	0.125107
917.737	0.037357
921.112	0.417446
924.487	0.139938
927.862	0.386154
931.236	0.024906
934.611	0.419941
937.986	0.160236
941.361	0.060123
944.736	0.096466
948.111	0.156021
951.485	0.339191
954.86	0.486946
958.235	1.08112
961.61	0.810936
964.985	1.39859
968.36	1.30641
971.734	1.74251
975.109	3.52955
978.484	3.02259
981.859	3.59382
985.234	4.20725
988.608	3.80233
991.983	2.59159
995.358	3.18401
998.733	1.65761
1002.11	2.06489
1005.48	1.24084
1008.86	0.899715
1012.23	1.37186
1015.61	1.83708
1018.98	1.351
1022.36	1.44372
1025.73	0.648937
1029.11	1.40372
1032.48	1.0322
1035.86	2.00036
1039.23	2.6093
1042.61	4.34019
1045.98	8.14581
1049.36	10.8068
1052.73	16.8198
1056.11	25.6902
1059.48	40.2389
1062.85	52.5448
1066.23	65.4028
1069.6	91.8434
1072.98	101.997
1076.35	44.5558
1079.73	15.0822
1083.1	6.9717
1086.48	4.18885
1089.85	1.57609
1093.23	1.09765
1096.6	1.24869
1099.98	0.808121
1103.35	1.03977
1106.73	0.164623
1110.1	0.001202
1113.48	0.345726
1116.85	0.002705
1120.23	0.293121
1123.6	0.244015
1126.98	0.101814
1130.35	0.126663
1133.72	0.155571
1137.1	0.7579
1140.47	0.091755
1143.85	0.842281
1147.22	1.03257
1150.6	1.93951
1153.97	1.36179
1157.35	1.60895
1160.72	2.23204
1164.1	2.94308
1167.47	3.23643
1170.85	2.93704
1174.22	2.91748
1177.6	2.87432
1180.97	3.27025
1184.35	2.63497
1187.72	2.77298
1191.1	2.30407
1194.47	1.87397
1197.85	1.44587
1201.22	2.00888
1204.6	0.634434
1207.97	1.1493
1211.35	1.39956
1214.72	0.843815
1218.1	0.4384
1221.47	0.03257
1224.85	0.245415
1228.22	0.734818
1231.6	0.39114
1234.97	0.246269
1238.35	0.023272
1241.72	0.12739
1245.09	0.928444
1248.47	0.032526
1251.84	1.20765
1255.22	1.21586
1258.59	0.953373
1261.97	0.408524
1265.34	0.715879
1268.72	0.188454
1272.09	0.490765
1275.47	0.901108
1278.84	0.527931
1282.22	0.885504
1285.59	0.692762
1288.97	0.026766
1292.34	0.373932
1295.72	0.129248
1299.09	0.029362
1302.47	0.814686
