Measurement: Raman, 532 nm, unoriented, Raman Data Processed
Mineral: Aurichalcite
Rruff sample: R060426
Ideal chemistry: Zn_5_(CO_3_)_2_(OH)_6_
Locality: Bisbee, Cochise County, Arizona, USA
Source: Michael Scott
Description: Divergent sprays of light blue lathlike crystals
Measured chemistry: (Zn_3.61_Cu_1.33_Fe^2+^_0.06_)_Î£=5_(CO_3_)_2_(OH)_6_
Raman shift (cm-1)	intensity
177.816	0
180.709	19.9267
183.602	18.06
186.494	1.77777
189.387	5.37347
192.28	15.9904
195.173	10.2386
198.065	14.3505
200.958	37.3435
203.851	67.9876
206.743	101.763
209.636	126.859
212.529	122.857
215.421	99.0328
218.314	81.8119
221.207	75.3513
224.1	85.0825
226.992	98.3652
229.885	103.487
232.778	81.9252
235.67	67.7649
238.563	54.1713
241.456	52.2172
244.348	34.2445
247.241	20.5199
250.134	11.9884
253.026	0.556824
255.919	2.09552
258.812	8.06146
261.705	1.02646
264.597	6.28281
267.49	0.679535
270.383	10.8622
273.276	20.4571
276.168	32.7898
279.061	41.7089
281.954	53.1074
284.846	52.4418
287.739	46.241
290.632	41.5539
293.524	44.0159
296.417	41.1214
299.31	32.5116
302.202	40.2723
305.095	42.9694
307.988	46.7962
310.881	49.0204
313.773	58.1657
316.666	58.5922
319.559	63.9135
322.451	72.5497
325.344	81.0657
328.237	93.527
331.13	87.7465
334.022	74.903
336.915	49.7941
339.808	31.6579
342.7	25.0573
345.593	23.2582
348.486	39.1582
351.378	52.5468
354.271	63.1373
357.164	53.6912
360.057	36.6468
362.949	11.6072
365.842	7.01126
368.735	8.24927
371.627	11.2672
374.52	28.2328
377.413	47.4503
380.305	75.1516
383.198	113.885
386.091	153.014
388.984	203.489
391.876	242.969
394.769	242.665
397.662	187.661
400.554	113.255
403.447	55.3626
406.34	28.2392
409.233	9.01196
412.125	0.868042
415.018	9.99036
417.911	6.27356
420.803	2.10687
423.696	13.4571
426.589	21.5391
429.481	35.765
432.374	45.4562
435.267	47.598
438.159	41.5832
441.052	24.253
443.945	24.2804
446.838	28.2237
449.73	38.8605
452.623	58.2148
455.516	94.2984
458.409	129.077
461.301	163.595
464.194	169.096
467.087	145.132
469.979	99.1979
472.872	70.2281
475.765	45.49
478.657	32.6481
481.55	17.2401
484.443	13.9418
487.336	21.9052
490.228	28.1812
493.121	33.9552
496.014	51.0873
498.906	57.2494
501.799	60.2423
504.692	51.0776
507.584	44.2611
510.477	39.8549
513.37	37.6445
516.263	29.3731
519.155	25.6028
522.048	21.1183
524.941	12.7872
527.833	11.2646
530.726	2.48404
533.619	8.82223
536.511	9.82282
539.404	9.55679
542.297	13.0416
545.19	12.056
548.082	6.66757
550.975	2.93417
553.868	2.694
556.76	4.53012
559.653	0.985718
562.546	3.00406
565.438	0.404846
568.331	2.63351
571.224	0.271973
574.117	1.01318
577.009	2.48584
579.902	2.87009
582.795	2.94937
585.687	4.33878
588.58	6.29166
591.473	0.035126
594.365	6.625
597.258	8.03577
600.151	3.83575
603.044	11.3662
605.936	5.4375
608.829	11.9588
611.722	3.38092
614.614	8.01782
617.507	14.4409
620.4	10.5074
623.293	7.88486
626.185	8.30856
629.078	7.16089
631.971	3.32098
634.863	1.27582
637.756	4.9491
640.649	10.4225
643.542	8.54691
646.434	3.1091
649.327	7.02557
652.22	3.86078
655.112	3.03098
658.005	0.694885
660.898	1.72888
663.79	0.47699
666.683	0.082794
669.576	1.36679
672.468	1.34628
675.361	0.204407
678.254	3.93042
681.147	0.951538
684.039	5.02728
686.932	7.104
689.825	1.49786
692.717	15.1578
695.61	23.235
698.503	46.732
701.396	76.9605
704.288	111.27
707.181	147.923
710.074	162.232
712.966	148.231
715.859	98.8049
718.752	70.0996
721.644	74.0405
724.537	96.8249
727.43	130.607
730.323	172.703
733.215	215.248
736.108	238.583
739.001	238.392
741.893	211.132
744.786	173.403
747.679	138.717
750.572	121.983
753.464	114.365
756.357	82.546
759.25	47.1239
762.142	28.5327
765.035	19.3827
767.928	14.0386
770.82	9.77292
773.713	5.52985
776.606	8.21124
779.499	4.78693
782.391	3.44116
785.284	5.30814
788.177	1.21631
791.069	1.4931
793.962	1.3017
796.855	3.28693
799.747	1.48972
802.64	0.467804
805.533	1.54968
808.426	0.268158
811.318	2.69888
814.211	4.42603
817.104	3.12256
819.996	8.08737
822.889	6.05414
825.782	6.34482
828.674	5.10602
831.567	9.81772
834.46	11.8622
837.353	13.0213
840.245	21.2351
843.138	24.8555
846.031	24.6302
848.923	21.4213
851.816	21.7904
854.709	23.7007
857.601	27.3853
860.494	31.6463
863.387	27.3609
866.28	25.8106
869.172	22.4067
872.065	26.4734
874.958	19.9229
877.851	14.3686
880.743	13.232
883.636	7.36832
886.529	9.09644
889.421	7.18454
892.314	0.162781
895.207	6.58884
898.099	1.00137
900.992	5.92972
903.885	2.58295
906.778	1.3801
909.67	3.6084
912.563	1.69003
915.456	0.217072
918.348	0.02063
921.241	1.03409
924.134	1.21307
927.026	3.37204
929.919	0.903687
932.812	3.28812
935.705	1.40454
938.597	0.625702
941.49	0.327667
944.383	1.45621
947.275	0.803162
950.168	2.85498
953.061	1.02048
955.953	3.16592
958.846	1.71143
961.739	4.94235
964.631	7.55011
967.524	9.20923
970.417	9.39685
973.31	19.0932
976.202	17.3176
979.095	22.3554
981.988	25.827
984.88	28.848
987.773	35.0005
990.666	34.1297
993.559	30.3294
996.451	30.9316
999.344	26.3089
1002.24	30.985
1005.13	29.8271
1008.02	27.7477
1010.91	32.2237
1013.81	41.2985
1016.7	43.7707
1019.59	44.6285
1022.49	39.183
1025.38	32.2531
1028.27	26.1123
1031.16	21.0205
1034.06	17.6446
1036.95	16.5292
1039.84	17.6153
1042.73	20.9795
1045.63	34.2572
1048.52	50.7556
1051.41	83.8
1054.31	129.421
1057.2	193.117
1060.09	298.036
1062.98	421.892
1065.88	534.713
1068.77	737.826
1071.66	1047.29
1074.55	1057.91
1077.45	453.089
1080.34	167.679
1083.23	78.6833
1086.12	42.9382
1089.02	21.6459
1091.91	14.6741
1094.8	8.77167
1097.7	4.76938
1100.59	2.02222
1103.48	2.92627
1106.37	4.46014
1109.27	3.84909
1112.16	2.405
1115.05	0.591003
1117.94	1.25015
1120.84	1.43375
1123.73	2.96667
1126.62	0.639801
1129.52	3.78278
1132.41	1.10742
1135.3	6.24618
1138.19	0.378937
1141.09	5.67566
1143.98	6.30377
1146.87	6.25656
1149.77	9.64282
1152.66	16.355
1155.55	12.3741
1158.44	9.76056
1161.34	15.2696
1164.23	20.0123
1167.12	19.4229
1170.01	16.9544
1172.91	23.1144
1175.8	23.6942
1178.69	25.0587
1181.58	18.7166
1184.48	24.4328
1187.37	19.3046
1190.26	19.3806
1193.15	18.3046
1196.05	16.4578
1198.94	18.2565
1201.83	16.9633
1204.73	15.7519
1207.62	7.2214
1210.51	9.33972
1213.4	8.48154
1216.3	7.15976
1219.19	7.2189
1222.08	4.62613
1224.97	7.60547
1227.87	0.19278
1230.76	2.05167
1233.65	5.92105
1236.55	0.744934
1239.44	0.001617
1242.33	3.74237
1245.22	1.25842
1248.12	0.815002
1251.01	3.98026
1253.9	3.33405
1256.8	2.41058
1259.69	2.44727
1262.58	4.90863
1265.47	5.59204
1268.37	5.8638
1271.26	3.9353
1274.15	7.58722
1277.04	7.6149
1279.94	6.1629
1282.83	6.16568
1285.72	3.54279
1288.61	6.91238
1291.51	3.87924
1294.4	2.00326
1297.29	0.327759
1300.18	3.80865
