Measurement: Raman, 514 nm, unoriented, Raman Data Processed
Mineral: Aurichalcite
Rruff sample: R050297
Ideal chemistry: Zn_5_(CO_3_)_2_(OH)_6_
Locality: 79 mine, 4th level, Hayden, Gila County, Arizona, USA
Source: George Godas, John Callahan
Description: Sprays of greenish blue lathlike crystals
Measured chemistry: (Zn_0.68_Cu_0.32_)_5_(CO_3_)_2_(OH)_6_
Raman shift (cm-1)	intensity
52.866	0
57.065	59.491
61.262	25.351
65.458	90.448
69.651	595.164
73.842	2068.67
78.031	3787.46
82.218	4169.33
86.404	2415.27
90.587	3021.42
94.768	3384.33
98.947	3165.98
103.124	3772.51
107.3	6668.7
111.473	6475.93
115.644	6158.56
119.813	5026.57
123.981	4848.88
128.146	5354.43
132.309	5658.11
136.47	8462.72
140.63	10054.9
144.787	7828.57
148.942	3944.39
153.096	3061.74
157.247	3298.45
161.396	4802.43
165.544	7086.99
169.689	8473.56
173.833	9085.27
177.974	9014.1
182.114	6446.16
186.251	4018.94
190.387	3182.83
194.52	2925.6
198.652	3486.23
202.782	4959.59
206.909	6499.66
211.035	6014.41
215.159	4246.78
219.281	3113.87
223.4	3086.65
227.518	2654.88
231.634	2320.34
235.748	2083.81
239.86	1680.39
243.97	1028.72
248.079	422.495
252.185	95.898
256.289	98.555
260.391	284.75
264.492	271.52
268.59	107.82
272.687	43.345
276.781	300.978
280.874	456.022
284.964	482.462
289.053	397.166
293.14	337.115
297.225	314.228
301.308	290.452
305.389	251.757
309.468	307.145
313.545	273.613
317.62	301.114
321.693	416.409
325.765	517.918
329.834	547.121
333.902	380.274
337.967	214.345
342.031	30.288
346.093	203.075
350.153	634.687
354.21	862.077
358.267	657.193
362.321	353.99
366.373	228.443
370.423	436.52
374.471	696.196
378.518	1179.44
382.563	2112.29
386.605	3518.05
390.646	5112.73
394.685	4908.25
398.722	3126.54
402.757	1756.78
406.79	971.525
410.821	592.994
414.851	441.999
418.878	756.639
422.904	630.412
426.927	932.251
430.949	1419.25
434.969	1413.46
438.987	1232.87
443.003	961.176
447.018	1033.63
451.03	1309
455.041	2117.5
459.049	3309.53
463.056	3861.22
467.061	3326.6
471.064	2362.01
475.065	1684.21
479.064	1365.54
483.062	1109.11
487.057	1164.94
491.051	1327.51
495.043	1854.56
499.032	1987.5
503.02	1867.23
507.007	1556.99
510.991	1297.88
514.973	1142.99
518.954	983.098
522.933	723.152
526.91	551.597
530.885	565.931
534.858	517.068
538.829	515.072
542.799	601.927
546.766	475.616
550.732	350.45
554.696	210.012
558.658	75.493
562.618	16.215
566.576	42.439
570.533	18.774
574.488	7.458
578.44	16.987
582.391	30.87
586.341	38.107
590.288	38.907
594.233	77.384
598.177	12.661
602.119	44.713
606.059	12.194
609.997	9.126
613.933	8.617
617.868	64.682
621.801	26.096
625.731	52.15
629.66	28.931
633.588	53.331
637.513	35.119
641.437	90.143
645.358	102.581
649.278	97.435
653.196	119.764
657.113	128.36
661.027	152.469
664.94	184.997
668.851	122.955
672.76	202.363
676.667	247.285
680.572	265.735
684.476	264.718
688.378	302.24
692.278	409.304
696.176	615.914
700.072	1334.07
703.967	2329.78
707.86	2885.03
711.751	2636.84
715.64	1639.2
719.527	1327.27
723.413	1609.87
727.297	2286.41
731.179	3442.22
735.059	4002.78
738.937	4046.83
742.814	3348.17
746.689	2562.41
750.562	2748.61
754.433	2643.96
758.303	1523.7
762.17	857.198
766.036	651.662
769.901	509.69
773.763	412.024
777.624	300.803
781.482	331.431
785.339	239.951
789.195	218.592
793.048	186.298
796.9	101.09
800.75	154.555
804.598	196.379
808.445	131.386
812.289	153.02
816.132	177.023
819.973	131.998
823.813	260.901
827.65	152.224
831.486	305.281
835.32	291.979
839.152	467.055
842.983	591.131
846.812	449.207
850.639	412.249
854.464	454.266
858.288	491.267
862.11	491.263
865.93	348.264
869.748	574.277
873.564	227.415
877.379	165.699
881.192	173.112
885.004	73.725
888.813	102.634
892.621	25.299
896.427	49.972
900.232	65.391
904.034	46.541
907.835	18.536
911.634	50.071
915.432	52.414
919.227	56.549
923.021	100.553
926.813	48.919
930.604	95.551
934.393	68.443
938.18	75.072
941.965	10.139
945.749	116.958
949.53	103.109
953.311	142.238
957.089	197.331
960.866	334.424
964.641	404.891
968.414	443.772
972.185	544.983
975.955	715.493
979.723	800.321
983.49	942.411
987.254	1074.73
991.017	1099.29
994.779	1088.08
998.538	955.099
1002.3	989.364
1006.05	959.887
1009.81	1061.66
1013.56	1208.68
1017.31	1335.95
1021.06	1220.45
1024.81	1151.18
1028.55	1091.14
1032.3	1031.32
1036.04	1135.71
1039.78	1282.24
1043.52	1519.87
1047.26	1865.44
1050.99	2533.28
1054.73	3854.38
1058.46	6120.23
1062.19	8192.63
1065.92	10941
1069.65	21153.8
1073.37	32030
1077.1	13325.4
1080.82	4786.04
1084.54	2311.17
1088.26	1325.37
1091.97	904.139
1095.69	725.358
1099.4	504.148
1103.12	379.411
1106.83	369.13
1110.54	345.667
1114.24	314.238
1117.95	266.546
1121.65	244.279
1125.35	334.768
1129.06	199.959
1132.75	166.281
1136.45	265.241
1140.15	236.834
1143.84	279.593
1147.53	366.623
1151.22	391.861
1154.91	494.057
1158.6	540.752
1162.28	683.135
1165.97	786.089
1169.65	907.237
1173.33	993.521
1177.01	1035.48
1180.69	1340.03
1184.36	1335.38
1188.04	1561.8
1191.71	823.987
1195.38	786.02
1199.05	700.867
1202.71	680.501
1206.38	563.909
1210.04	335.04
1213.71	286.879
1217.37	166.42
1221.03	173.621
1224.68	81.443
1228.34	57.873
1231.99	33.892
1235.65	22.472
1239.3	15.396
1242.95	23.534
1246.59	26.044
1250.24	20.971
1253.88	3.34
1257.53	51.899
1261.17	48.491
1264.81	5.662
1268.45	14.596
1272.08	25.784
1275.72	30.925
1279.35	70.232
1282.98	55.454
1286.61	80.521
1290.24	110.553
1293.87	128.54
1297.49	121.219
1301.11	187.962
1304.73	268.6
1308.36	256.228
1311.97	292.876
1315.59	328.125
1319.2	315.648
1322.82	419.759
1326.43	519.309
1330.04	598.915
1333.65	742.11
1337.26	828.087
1340.86	963.647
1344.47	829.812
1348.07	774.215
1351.67	704.502
1355.27	576.871
1358.87	470.812
1362.46	561.138
1366.06	483.152
1369.65	629.039
1373.24	763.022
1376.83	947.489
1380.42	861.426
1384	690
1387.59	381.221
1391.17	262.244
1394.75	155.271
1398.33	162.216
1401.91	89.142
1405.49	83.584
1409.06	44.793
1412.64	71.951
1416.21	5.358
1419.78	39.179
1423.35	30.332
1426.91	116.942
1430.48	94.219
1434.05	74.951
1437.61	35.797
1441.17	5.479
1444.73	48.312
1448.29	8.917
1451.84	179.642
1455.4	259.545
1458.95	342.988
1462.5	367.43
1466.05	425.865
1469.6	635.294
1473.15	921.388
1476.69	1282.8
1480.24	1689.4
1483.78	1861.2
1487.32	1622
1490.86	1281.98
1494.39	1126.94
1497.93	1265.48
1501.46	1770.72
1505	1931.08
1508.53	1939.81
1512.06	1446.65
1515.59	828.165
1519.11	350.43
1522.64	93.189
