Measurement: Raman, 785 nm, unoriented, Raman Data Processed
Mineral: Aurostibite
Rruff sample: R060923
Ideal chemistry: AuSb_2_
Locality: Krásná Hora, Czech Republic
Source: Michael Scott
Description: Gray massive crystals tarnished to gold color
Measured chemistry: Au_0.99_Sb_2.00_
Raman shift (cm-1)	intensity
92.6011	298.308
95.9759	305.387
99.3507	248.59
102.725	251.635
106.1	236.183
109.475	291.801
112.85	311.496
116.225	395.056
119.6	346.567
122.974	480.853
126.349	814.779
129.724	1252.83
133.099	1597.98
136.474	1528.4
139.849	1820.82
143.223	2882.12
146.598	4419.5
149.973	5746.73
153.348	5473.38
156.723	3808.06
160.097	2889
163.472	2465.46
166.847	2356.48
170.222	2382.86
173.597	2422.55
176.971	2203.99
180.346	2157.84
183.721	2150.06
187.096	2203.28
190.471	2179.1
193.845	1900.55
197.22	1607.39
200.595	1493.39
203.97	1432.34
207.345	1354.49
210.72	1270.92
214.094	1263.65
217.469	1199.55
220.844	1188.93
224.219	1192.31
227.594	1143.8
230.969	1146.21
234.343	1132.11
237.718	1159.57
241.093	1134.38
244.468	1064.71
247.843	1160.6
251.217	1156.86
254.592	1257.01
257.967	1239.13
261.342	1284.64
264.717	1291.63
268.091	1306.81
271.466	1320.97
274.841	1320.9
278.216	1304.89
281.591	1294.56
284.966	1253.63
288.34	1178.02
291.715	1190.7
295.09	1174.54
298.465	1185.89
301.84	1165.21
305.214	1166.29
308.589	1152.44
311.964	1130.62
315.339	1139.66
318.714	1121.1
322.089	1080.73
325.463	1139.86
328.838	1100.79
332.213	1100.96
335.588	1096.98
338.963	1082.73
342.337	1100.12
345.712	1073.15
349.087	1084.38
352.462	1071.39
355.837	1064.78
359.212	1069.88
362.586	1056.14
365.961	1051.17
369.336	1059.24
372.711	1086.84
376.086	1053.09
379.46	1040.7
382.835	1071.02
386.21	1059.7
389.585	1028.04
392.96	1054.47
396.334	1078.07
399.709	1079.52
403.084	1046.77
406.459	1083.3
409.834	1063.94
413.209	1051.99
416.583	1082.73
419.958	1071.25
423.333	1056.82
426.708	1057.27
430.083	1042.73
433.457	1089.73
436.832	1064.94
440.207	1072.91
443.582	1083.94
446.957	1063.29
450.332	1047.34
453.706	1056.23
457.081	1077.94
460.456	1070.46
463.831	1067.24
467.206	1059.37
470.58	1056.66
473.955	1040.91
477.33	1044.04
480.705	1066.45
484.08	1069.6
487.454	1070.25
490.829	1080.07
494.204	1069.65
497.579	1078.64
500.954	1051.4
504.329	1075.19
507.703	1077.21
511.078	1068.59
514.453	1072.13
517.828	1072.1
521.203	1076.3
524.577	1075.01
527.952	1079.6
531.327	1097.83
534.702	1019.12
538.077	1088.12
541.452	1086.05
544.826	1082.04
548.201	1070.82
551.576	1073.2
554.951	1083.51
558.326	1064.23
561.7	1068.22
565.075	1046.38
568.45	1018.38
571.825	1053.12
575.2	1065.15
578.574	1034.02
581.949	1058.46
585.324	1086.77
588.699	1080.93
592.074	1060.43
595.449	1085.79
598.823	1079.18
602.198	1094.84
605.573	1102.01
608.948	1091.86
612.323	1066.77
615.697	1082.65
619.072	1062.88
622.447	1082.7
625.822	1104.89
629.197	1077.86
632.572	1088.27
635.946	1082.73
639.321	1068.65
642.696	1069.38
646.071	1019.05
649.446	1054.22
652.821	1071.51
656.195	1042.29
659.57	1085.14
662.945	1045.38
666.32	1060.9
669.694	1044.48
673.069	1051.38
676.444	1046.49
679.819	1034.12
683.194	1019.95
686.569	1203.18
689.943	1062.88
693.318	1022.02
696.693	1035.34
700.068	1009.08
703.443	1022.68
706.817	1040.01
710.192	1053.68
713.567	1000.73
716.942	1013.95
720.317	1049.59
723.692	1007.49
727.066	1025.91
730.441	1021.81
733.816	1011.16
737.191	1023.63
740.566	1013.41
743.941	1032.91
747.315	1000.41
750.69	1015.71
754.065	1000.96
757.44	1029.57
760.815	1010.83
764.189	997.167
767.564	978.252
770.939	979.127
774.314	1039.61
777.689	989
781.063	1014.84
784.438	992.997
787.813	1000.9
791.188	1025.4
794.563	1149.14
797.938	968.194
801.312	959.482
804.687	995.197
808.062	1054.7
811.437	997.286
814.812	1019.22
818.187	995.958
821.561	960.248
824.936	1021.66
828.311	955.995
831.686	974.349
835.061	999.755
838.435	989.745
841.81	971.158
845.185	987.551
848.56	953.808
851.935	968.637
855.309	954.434
858.684	971.413
862.059	965.323
865.434	963.062
868.809	986.135
872.183	973.128
875.558	968.332
878.933	960.319
882.308	978.061
885.683	933.216
889.058	964.986
892.432	941.875
895.807	957.958
899.182	970.383
902.557	961.494
905.932	961.831
909.307	935.863
912.681	951.595
916.056	976.547
919.431	941.159
922.806	910.293
926.181	955.314
929.555	939.483
932.93	960.683
936.305	974.042
939.68	943.263
943.055	950.861
946.429	962.252
949.804	974.031
953.179	950.288
956.554	937.31
959.929	943.971
963.303	958.15
966.678	953.68
970.053	935.913
973.428	930.985
976.803	963.763
980.178	928.196
983.552	966.216
986.927	938.461
990.302	923.316
993.677	867.382
997.052	944.294
1000.43	952.027
1003.8	915.324
1007.18	944.126
1010.55	957.532
1013.93	936.236
1017.3	954.103
1020.67	934.909
1024.05	905.56
1027.42	907.111
1030.8	952.361
1034.17	943.249
1037.55	906.786
1040.92	937.713
1044.3	954.557
1047.67	965.489
1051.05	945.046
1054.42	944.39
1057.8	940.462
1061.17	949.337
1064.55	943.097
1067.92	937.951
1071.3	908.182
1074.67	931.327
1078.05	939.286
1081.42	902.381
1084.8	934.523
1088.17	922.099
1091.55	931.44
1094.92	944.371
1098.3	949.788
1101.67	899.701
1105.05	921.652
1108.42	940.748
1111.8	910.837
1115.17	943.012
1118.55	900.669
1121.92	929.763
1125.3	912.28
1128.67	939.74
1132.04	908.179
1135.42	889.197
1138.79	898.225
1142.17	905.086
1145.54	912.866
1148.92	906.625
1152.29	918.805
1155.67	905.911
1159.04	881.795
1162.42	900.231
1165.79	897.338
1169.17	919.63
1172.54	914.441
1175.92	902.247
1179.29	877.938
1182.67	927.76
1186.04	898.261
1189.42	910.973
1192.79	885.046
1196.17	910.896
1199.54	909.176
1202.91	853.267
1206.29	840.177
1209.66	897.01
1213.04	883.935
1216.41	905.739
1219.79	886.014
1223.16	888.851
1226.54	903.701
1229.91	905.373
1233.29	897.489
1236.66	862.25
1240.04	818.55
1243.41	908.456
1246.79	910.766
1250.16	891.125
1253.54	907.474
1256.91	904.808
1260.29	901.587
1263.66	895.931
1267.04	908.507
