Measurement: Raman, 532 nm, unoriented, Raman Data Processed
Mineral: Aurostibite
Rruff sample: R060923
Ideal chemistry: AuSb_2_
Locality: Krásná Hora, Czech Republic
Source: Michael Scott
Description: Gray massive crystals tarnished to gold color
Measured chemistry: Au_0.99_Sb_2.00_
Raman shift (cm-1)	intensity
99.8278	0
103.203	40.9551
106.577	8.12346
109.952	2.61928
113.327	119.338
116.702	366.192
120.077	554.021
123.451	741.644
126.826	886.496
130.201	949.392
133.576	1019.57
136.951	1203.53
140.326	1622.86
143.7	2292.51
147.075	3080.82
150.45	3940.16
153.825	3771.84
157.2	2374.71
160.574	1589.62
163.949	1245.35
167.324	1067.9
170.699	1010.75
174.074	1018.26
177.448	929.616
180.823	990.158
184.198	1106.49
187.573	1236.6
190.948	1271.59
194.323	817.24
197.697	486.079
201.072	331.625
204.447	233.104
207.822	199.914
211.197	135.546
214.571	120.939
217.946	81.9165
221.321	54.7712
224.696	35.8015
228.071	22.7227
231.446	17.2677
234.82	5.92627
238.195	1.76648
241.57	50.5261
244.945	9.64697
248.32	23.1228
251.694	21.8903
255.069	18.8704
258.444	26.2979
261.819	22.4188
265.194	59.2777
268.568	51.7206
271.943	56.5436
275.318	62.1014
278.693	65.7206
282.068	72.8431
285.442	48.4246
288.817	48.3779
292.192	46.3632
295.567	30.9465
298.942	33.7632
302.317	17.0378
305.691	6.60559
309.066	18.4894
312.441	14.568
315.816	18.3086
319.191	14.2578
322.565	27.9972
325.94	35.8633
329.315	10.0854
332.69	28.4308
336.065	25.6467
339.44	22.9121
342.814	4.73608
346.189	1.33545
349.564	28.1864
352.939	29.499
356.314	28.1483
359.688	14.7604
363.063	29.627
366.438	7.979
369.813	18.1798
373.188	41.2561
376.562	58.27
379.937	5.07422
383.312	0.721436
386.687	48.9395
390.062	38.7289
393.437	35.0911
396.811	41.9954
400.186	41.1086
403.561	22.7421
406.936	11.7123
410.311	26.3352
413.685	22.4852
417.06	42.0449
420.435	34.0719
423.81	22.4084
427.185	16.7581
430.56	27.1113
433.934	27.4392
437.309	32.8046
440.684	29.2681
444.059	18.9168
447.434	23.4432
450.808	25.5587
454.183	18.5491
457.558	29.1272
460.933	34.9645
464.308	15.9526
467.683	36.869
471.057	11.321
474.432	50.5094
477.807	39.1938
481.182	10.0952
484.557	44.5743
487.931	25.2244
491.306	43.1148
494.681	0.850708
498.056	11.2642
501.431	42.3042
504.805	16.3833
508.18	5.3219
511.555	8.31201
514.93	42.9761
518.305	20.6717
521.679	15.6003
525.054	47.069
528.429	9.81433
531.804	36.523
535.179	29.3782
538.554	2.73767
541.928	17.7444
545.303	13.324
548.678	11.2156
552.053	28.0898
555.428	15.8396
558.802	7.05054
562.177	7.66602
565.552	2.67029
568.927	14.3262
572.302	28.566
575.677	0.033447
579.051	18.9515
582.426	38.8142
585.801	17.9449
589.176	0.433594
592.551	17.0729
595.925	16.8801
599.3	52.5869
602.675	27.8533
606.05	40.6329
609.425	49.6744
612.799	67.433
616.174	40.9696
619.549	68.3881
622.924	66.3936
626.299	60.3708
629.673	28.2461
633.048	12.1361
636.423	34.1103
639.798	28.5464
643.173	6.01538
646.548	40.8562
649.922	15.6864
653.297	36.9387
656.672	44.45
660.047	32.0425
663.422	2.90698
666.797	6.66907
670.171	21.7492
673.546	2.56824
676.921	5.4801
680.296	4.89343
683.67	17.1117
687.045	10.1158
690.42	6.63086
693.795	23.6846
697.17	33.2305
700.545	58.9374
703.919	46.4529
707.294	5.16736
710.669	23.8294
714.044	7.5592
717.419	2.98071
720.793	69.1968
724.168	17.084
727.543	35.0326
730.918	10.2122
734.293	39.6832
737.668	29.0216
741.042	18.3972
744.417	12.2297
747.792	39.6791
751.167	37.4491
754.542	28.0077
757.916	23.7428
761.291	55.6538
764.666	47.521
768.041	39.723
771.416	24.4678
774.79	34.8932
778.165	22.681
781.54	68.0073
784.915	36.5747
788.29	44.6162
791.665	40.3777
795.039	73.6552
798.414	49.7537
801.789	42.3588
805.164	59.0859
808.539	46.7095
811.913	55.1326
815.288	70.1718
818.663	75.9438
822.038	40.7853
825.413	75.9778
828.788	79.1362
832.162	88.4446
835.537	73.0635
838.912	62.0876
842.287	37.221
845.662	25.3091
849.036	30.0304
852.411	9.86389
855.786	42.4861
859.161	20.2087
862.536	36.1728
865.91	19.2812
869.285	4.47681
872.66	1.07629
876.035	10.2498
879.41	4.21008
882.784	18.3461
886.159	7.81396
889.534	57.9939
892.909	40.3292
896.284	80.4424
899.659	28.3877
903.033	22.8313
906.408	1.46728
909.783	33.3935
913.158	8.10596
916.533	11.3313
919.908	14.1775
923.282	32.6143
926.657	74.5271
930.032	45.449
933.407	32.3792
936.782	7.76782
940.156	30.9062
943.531	3.44995
946.906	40.5193
950.281	65.5654
953.656	36.0271
957.03	11.0005
960.405	22.5576
963.78	32.8584
967.155	4.46289
970.53	21.0469
973.904	28.1326
977.279	25.8718
980.654	21.46
984.029	7.08472
987.404	24.9368
990.779	22.8296
994.153	8.18335
997.528	12.3374
1000.9	24.803
1004.28	12.5366
1007.65	19.7002
1011.03	23.1182
1014.4	29.6372
1017.78	21.8728
1021.15	9.49341
1024.53	40.0359
1027.9	35.7717
1031.28	26.7214
1034.65	16.8013
1038.03	29.5698
1041.4	39.0564
1044.78	27.0146
1048.15	39.7473
1051.53	24.9885
1054.9	39.4495
1058.28	40.4404
1061.65	36.9578
1065.03	32.4082
1068.4	32.1909
1071.77	0.136963
1075.15	33.4856
1078.52	36.6597
1081.9	2.54956
1085.27	29.3745
1088.65	48.4495
1092.02	26.0735
1095.4	2.99902
1098.77	40.0083
1102.15	21.5852
1105.52	4.06079
1108.9	17.3779
1112.27	0.447021
1115.65	11.0581
1119.02	26.4324
1122.4	7.44971
1125.77	21.8425
1129.15	36.5745
1132.52	20.8481
1135.9	13.6704
1139.27	62.5181
1142.64	12.7769
1146.02	11.6773
1149.39	51.0486
1152.77	36.9873
1156.14	44.9736
1159.52	37.4102
1162.89	12.5906
1166.27	15.0727
1169.64	9.73462
1173.02	25.186
1176.39	17.0535
1179.77	33.7937
1183.14	53.8372
1186.52	32.2449
1189.89	20.3557
1193.27	41.6619
1196.64	11.8135
1200.02	51.72
1203.39	28.5046
1206.77	32.3611
1210.14	7.48047
1213.52	33.5769
1216.89	65.0532
1220.27	21.1916
1223.64	27.729
1227.02	32.719
1230.39	26.0044
1233.77	20.5373
1237.14	40.2766
1240.52	76.3242
1243.89	56.53
1247.26	50.8743
1250.64	45.6255
1254.01	33.5054
1257.39	42.824
1260.76	6.99316
1264.14	1.56103
1267.51	20.9338
1270.89	34.9124
1274.26	55.2293
1277.64	33.9529
1281.01	22.4334
1284.39	20.9334
1287.76	11.1399
