Measurement: Raman, 532 nm, unoriented, Raman Data Processed
Mineral: Austinite
Rruff sample: R060703
Ideal chemistry: CaZn^2+^As^5+^O_4_(OH)
Locality: Gold Hill mine, Tooele County, Utah, USA
Source: Bob Jenkins
Description: Radial sprays of colorless bladed crystals, associated with adamite
Measured chemistry: Ca_1.00_Zn_1.00_(As_1.00_O_4_)(OH) ; = darker phase. The lighter phase is Zn_2.00_(As_1.00_O_4_)(OH)
Raman shift (cm-1)	intensity
83.435	0
86.809	315.607
90.184	262.404
93.559	205.095
96.934	157.079
100.309	105.354
103.683	30.059
107.058	43.966
110.433	100.821
113.808	208.335
117.183	243.139
120.558	386.916
123.932	560.956
127.307	603.566
130.682	541.786
134.057	596.408
137.432	869.101
140.806	1213.9
144.181	1292
147.556	1516.45
150.931	1018.91
154.306	828.138
157.68	1016.46
161.055	1350.27
164.43	1682.53
167.805	1441.93
171.18	1266.82
174.555	1278.94
177.929	1338.93
181.304	1609.73
184.679	2041.85
188.054	2357.65
191.429	1876.54
194.803	1605.99
198.178	1947.64
201.553	2934.16
204.928	4791.1
208.303	7148
211.678	8209.82
215.052	6117.51
218.427	3512.95
221.802	2493.15
225.177	2076.21
228.552	1587.2
231.926	817.024
235.301	379.848
238.676	129.652
242.051	50.254
245.426	33.858
248.801	5.17
252.176	50.256
255.55	81.957
258.925	50.378
262.3	46.376
265.675	111.021
269.05	274.768
272.424	568.312
275.799	893.496
279.174	1494.07
282.549	2028.7
285.924	2282.33
289.298	1820.49
292.673	1065.24
296.048	649.805
299.423	487.587
302.798	433.289
306.173	591.204
309.547	827.461
312.922	1184.55
316.297	1905.26
319.672	3068.1
323.047	4789.61
326.422	7072.69
329.796	8791.71
333.171	9082.47
336.546	10578.1
339.921	12507.6
343.296	13311
346.67	11393
350.045	8782.86
353.42	7662.2
356.795	7424.42
360.17	5956.29
363.544	3637.51
366.919	2450.71
370.294	2040.48
373.669	2231.25
377.044	2713.3
380.419	3313.94
383.793	3933.64
387.168	4434.01
390.543	4462.11
393.918	4151.22
397.293	3250.18
400.668	2482.36
404.042	2040.24
407.417	1611.54
410.792	1418.08
414.167	1744.59
417.542	2799.71
420.916	4184.78
424.291	6050.84
427.666	8537.88
431.041	11471.6
434.416	9962.31
437.79	4095.11
441.165	1829.49
444.54	1270.98
447.915	1330.02
451.29	1993.27
454.665	3414.5
458.039	5617.6
461.414	9135.66
464.789	14437
468.164	13262.8
471.539	6844.2
474.914	4262.35
478.288	3369.48
481.663	2554.35
485.038	1853.43
488.413	1484.99
491.788	1267.32
495.162	897.012
498.537	578.576
501.912	365.954
505.287	134.599
508.662	116.881
512.036	126.987
515.411	305.698
518.786	560.998
522.161	560.74
525.536	246.059
528.911	20.315
532.286	107.299
535.66	173.902
539.035	162.391
542.41	175.807
545.785	121.315
549.159	161.848
552.534	143.287
555.909	129.83
559.284	80.049
562.659	93.908
566.034	86.414
569.408	95.354
572.783	4.728
576.158	40.925
579.533	53.466
582.908	31.83
586.282	31.967
589.657	8.247
593.032	2.533
596.407	21.315
599.782	31.478
603.157	37.326
606.531	25.799
609.906	2.76
613.281	2.909
616.656	32.617
620.031	13.67
623.406	12.049
626.78	28.352
630.155	53.693
633.53	8.974
636.905	32.423
640.28	1.634
643.654	16.111
647.029	31.207
650.404	20.472
653.779	7.651
657.154	38.33
660.529	8.211
663.903	43.532
667.278	47.466
670.653	100.085
674.028	86.151
677.403	66.942
680.778	85.35
684.152	77.928
687.527	56.874
690.902	135.448
694.277	87.8
697.652	55.052
701.026	145.914
704.401	42.686
707.776	108.464
711.151	107.422
714.526	53
717.901	28.629
721.275	2.039
724.65	8.928
728.025	80.103
731.4	89.162
734.775	153.884
738.149	181.602
741.524	295.21
744.899	386.774
748.274	537.97
751.649	749.785
755.023	997.76
758.398	1550.31
761.773	2339.4
765.148	3451.9
768.523	5174.67
771.898	7707.13
775.272	11040.4
778.647	14720.1
782.022	15507.4
785.397	13155.9
788.772	11977.3
792.146	13875.5
795.521	18053.5
798.896	20246.7
802.271	22888.2
805.646	23563.2
809.021	26228
812.395	38856
815.77	51984.2
819.145	49926.9
822.52	69632
825.895	122700
829.269	177105
832.644	54543.3
836.019	19515.2
839.394	10172.1
842.769	6286.93
846.144	4309.7
849.518	3164.85
852.893	2652.81
856.268	2465.55
859.643	2511.77
863.018	2798.95
866.393	3276.1
869.767	3292.04
873.142	1895.1
876.517	1217.49
879.892	890.351
883.267	680.176
886.641	573.777
890.016	584.221
893.391	604.742
896.766	637.523
900.141	785.598
903.516	843.907
906.89	551.197
910.265	332.936
913.64	252.624
917.015	313.904
920.39	406.996
923.765	426.823
927.139	177.459
930.514	22.764
933.889	153.422
937.264	159.126
940.638	136.225
944.013	90.789
947.388	105.927
950.763	65.606
954.138	54.162
957.513	9.242
960.888	56.85
964.262	102.232
967.637	318.226
971.012	549.759
974.387	915.697
977.761	912.984
981.136	577.708
984.511	326.631
987.886	162.48
991.261	7.652
994.636	32.049
998.01	7.705
1001.38	5.767
1004.76	65.587
1008.13	17.407
1011.51	38.319
1014.88	6.033
1018.26	43.897
1021.63	2.685
1025.01	46.746
1028.38	52.717
1031.76	24.408
1035.13	8.116
1038.51	1.884
1041.88	25.811
1045.26	21.981
1048.63	7.633
1052.01	36.053
1055.38	79.616
1058.76	6.479
1062.13	8.512
1065.51	7.747
1068.88	4.167
1072.26	4.689
1075.63	1.834
1079.01	5.192
1082.38	2.7
1085.76	9.303
1089.13	28.875
1092.51	1.948
1095.88	7.008
1099.26	6.94
1102.63	39.115
1106.01	6.691
1109.38	5.092
1112.75	18.73
1116.13	39.951
1119.5	36.063
1122.88	8.712
1126.25	5.157
1129.63	10.243
1133	18.773
1136.38	20.671
1139.75	7.55
1143.13	24.73
1146.5	3.503
1149.88	19.221
1153.25	19.269
1156.63	41.937
1160	23.869
1163.38	32.241
1166.75	16.834
1170.13	48.629
1173.5	94.71
1176.88	6.808
1180.25	65.033
1183.62	36.902
1187	43.65
1190.38	73.708
1193.75	58.354
1197.12	38.693
1200.5	69.747
1203.87	27.13
1207.25	14.832
1210.62	47.651
1214	45.061
1217.37	31.372
1220.75	3.797
1224.12	49.107
1227.5	86.607
1230.87	35.374
1234.25	47.648
1237.62	31.906
1241	21.866
1244.37	58.944
1247.75	85.977
1251.12	37.286
1254.5	53.065
1257.87	53.02
1261.25	53.055
1264.62	44.87
1268	38.623
1271.37	75.343
1274.75	7.62
1278.12	65.907
1281.49	89.037
1284.87	18.275
1288.24	14.717
1291.62	50.005
1294.99	12.541
1298.37	61.378
