Measurement: Raman, 785 nm, unoriented, Raman Data Processed
Mineral: Austinite
Rruff sample: R060703
Ideal chemistry: CaZn^2+^As^5+^O_4_(OH)
Locality: Gold Hill mine, Tooele County, Utah, USA
Source: Bob Jenkins
Description: Radial sprays of colorless bladed crystals, associated with adamite
Measured chemistry: Ca_1.00_Zn_1.00_(As_1.00_O_4_)(OH) ; = darker phase. The lighter phase is Zn_2.00_(As_1.00_O_4_)(OH)
Raman shift (cm-1)	intensity
99.8328	0
103.208	15.8963
106.582	29.8432
109.957	17.4823
113.332	19.3456
116.707	61.5868
120.082	12.4115
123.457	24.8724
126.831	132.3
130.206	233.557
133.581	303.002
136.956	175.163
140.331	128.214
143.705	204.152
147.08	323.166
150.455	245.672
153.83	185.166
157.205	162.736
160.579	188.347
163.954	198.603
167.329	172.374
170.704	184.485
174.079	167.595
177.454	195.986
180.828	237.115
184.203	309.109
187.578	367.799
190.953	253.253
194.328	229.762
197.702	283.882
201.077	435.866
204.452	712.664
207.827	1140.73
211.202	1291.87
214.577	967.872
217.951	547.896
221.326	399.669
224.701	334.947
228.076	259.673
231.451	124.86
234.825	71.8897
238.2	33.2944
241.575	8.37257
244.95	6.51022
248.325	4.85182
251.7	1.26787
255.074	5.67569
258.449	17.67
261.824	10.1868
265.199	22.2219
268.574	31.0935
271.948	52.7116
275.323	95.8045
278.698	150.035
282.073	242.02
285.448	251.939
288.822	168.687
292.197	63.4543
295.572	21.4738
298.947	6.31201
302.322	10.7364
305.697	6.78516
309.071	15.1108
312.446	54.714
315.821	123.695
319.196	284.447
322.571	548.762
325.945	866.295
329.32	1043.54
332.695	1041.94
336.07	1242.9
339.445	1489.87
342.82	1540.1
346.194	1277.12
349.569	980.744
352.944	933.68
356.319	967.018
359.694	722.434
363.068	326.678
366.443	128.179
369.818	55.3346
373.193	68.5668
376.568	111.208
379.942	221.339
383.317	303.969
386.692	405.25
390.067	427.111
393.442	394.784
396.817	230.365
400.191	115.356
403.566	51.8918
406.941	13.4048
410.316	43.4951
413.691	32.2935
417.065	147.643
420.44	338.602
423.815	686.439
427.19	1301.83
430.565	2052.92
433.94	1715.69
437.314	615.532
440.689	162.725
444.064	67.3777
447.439	63.3612
450.814	129.569
454.188	281.858
457.563	649.921
460.938	1342.47
464.313	2201.94
467.688	1890.65
471.063	902.515
474.437	489.664
477.812	335.264
481.187	221.764
484.562	136.945
487.937	110.812
491.312	99.0104
494.686	54.9712
498.061	23.5096
501.436	1.16281
504.811	15.6313
508.186	8.28981
511.56	18.2467
514.935	30.1365
518.31	63.8145
521.685	84.2072
525.06	36.9611
528.434	15.2851
531.809	4.93422
535.184	12.276
538.559	1.97994
541.934	5.74609
545.309	14.7559
548.683	9.75412
552.058	17.9787
555.433	32.5409
558.808	33.2126
562.183	39.5946
565.558	28.9289
568.932	12.4522
572.307	19.2731
575.682	33.7945
579.057	20.705
582.432	29.3233
585.806	40.9748
589.181	40.1617
592.556	20.0911
595.931	21.4087
599.306	19.5077
602.68	26.9024
606.055	23.7494
609.43	26.2926
612.805	18.1086
616.18	14.727
619.554	18.8643
622.929	14.6805
626.304	23.8368
629.679	25.0048
633.054	23.5723
636.429	33.4504
639.803	28.2679
643.178	29.5956
646.553	36.7296
649.928	35.7811
653.303	27.4595
656.678	25.4513
660.052	16.685
663.427	14.8742
666.802	21.7431
670.177	27.1587
673.552	23.0135
676.926	33.7089
680.301	12.9814
683.676	30.9478
687.051	31.8346
690.426	15.584
693.801	13.3971
697.175	27.4786
700.55	15.8881
703.925	12.2464
707.3	23.4228
710.675	5.43617
714.049	4.55911
717.424	1.80469
720.799	1.83878
724.174	5.06596
727.549	2.33034
730.923	9.75
734.298	7.83205
737.673	4.53357
741.048	10.0681
744.423	11.3261
747.798	2.0551
751.172	21.711
754.547	52.1065
757.922	88.5884
761.297	180.803
764.672	305.284
768.046	495.016
771.421	863.894
774.796	1351.96
778.171	1757.07
781.546	1822.45
784.92	1382.25
788.295	1210.43
791.67	1410.89
795.045	1892.63
798.42	2152.88
801.795	2333.11
805.169	2434.59
808.544	2988.23
811.919	4552.44
815.294	5315.2
818.669	4528.53
822.043	8053.39
825.418	16218
828.793	21480.7
832.168	6867.22
835.543	2276.24
838.918	1098.03
842.292	589.564
845.667	335.615
849.042	208.096
852.417	122.215
855.792	106.214
859.167	92.6347
862.541	126.381
865.916	164.73
869.291	163.687
872.666	56.9974
876.041	9.78055
879.415	5.01523
882.79	13.4327
886.165	13.4056
889.54	20.2933
892.915	3.10593
896.289	0.325714
899.664	39.6632
903.039	54.4212
906.414	14.8998
909.789	17.0523
913.164	10.6111
916.538	26.0027
919.913	54.2526
923.288	60.0132
926.663	24.7315
930.038	13.3008
933.413	8.31456
936.787	10.2701
940.162	0.994408
943.537	12.6761
946.912	13.958
950.287	3.07938
953.661	13.8804
957.036	24.8713
960.411	14.3593
963.786	43.427
967.161	47.267
970.535	69.232
973.91	36.1264
977.285	109.428
980.66	78.985
984.035	54.8643
987.409	52.2187
990.784	29.4746
994.159	20.1838
997.534	21.1597
1000.91	26.4449
1004.28	22.6511
1007.66	21.3311
1011.03	10.1176
1014.41	19.5362
1017.78	11.3416
1021.16	2.73489
1024.53	6.09031
1027.91	8.79315
1031.28	21.954
1034.66	17.1385
1038.03	13.9395
1041.41	16.5328
1044.78	5.51212
1048.16	6.08617
1051.53	4.90639
1054.91	13.0658
1058.28	4.11028
1061.66	7.89937
1065.03	15.7832
1068.4	18.2808
1071.78	16.2466
1075.15	17.8145
1078.53	6.53008
1081.9	4.63432
1085.28	15.5794
1088.65	3.78656
1092.03	4.90874
1095.4	7.12635
1098.78	4.28321
1102.15	10.9079
1105.53	6.07034
1108.9	19.3462
1112.28	19.5231
1115.65	5.17914
1119.03	3.31619
1122.4	9.15992
1125.78	10.6275
1129.15	15.178
1132.53	19.0667
1135.9	0.913544
1139.28	29.0145
1142.65	12.73
1146.03	2.85399
1149.4	25.3626
1152.78	13.5247
1156.15	12.0851
1159.53	21.1359
1162.9	22.5075
1166.28	17.0456
1169.65	28.0395
1173.02	10.7366
1176.4	19.3415
1179.77	13.1645
1183.15	10.9202
1186.52	20.3136
1189.9	12.2262
1193.27	19.6296
1196.65	16.9622
1200.02	12.3932
1203.4	10.6164
1206.77	13.5137
1210.15	6.20352
1213.52	25.0539
1216.9	18.5371
1220.27	19.8804
1223.65	20.6375
1227.02	14.8433
1230.4	5.07689
1233.77	11.3223
1237.15	18.3472
1240.52	8.38031
1243.9	11.7819
1247.27	3.43139
1250.64	15.2558
1254.02	19.7461
1257.39	0.539684
1260.77	8.60555
1264.14	10.608
