Measurement: Raman, 532 nm, unoriented, Raman Data Processed
Mineral: Avdoninite
Rruff sample: R070080
Ideal chemistry: K_2_Cu_5_Cl_8_(OH)_4_H_2_O
Locality: main fracture, N breakthrough, Tolbachik Volcano, Kamchtka Peninsula, Russia
Source: Michael Scott
Description: Bright apple-green crust, co-type material, associated with pale bluish green eriochalcite
Raman shift (cm-1)	intensity
152.11	0
155.003	503.818
157.895	438.701
160.788	5.27832
163.681	111.737
166.573	502.255
169.466	1233.39
172.359	2474.99
175.252	3657.99
178.144	4335.85
181.037	4148.05
183.93	4149.33
186.822	4106.02
189.715	4570.49
192.608	4730.28
195.5	4864.16
198.393	5419.44
201.286	6023.94
204.179	6188.94
207.071	5631.89
209.964	4511.59
212.857	3539.9
215.749	2319.9
218.642	1208.98
221.535	317.592
224.428	172.026
227.32	386.389
230.213	124.123
233.106	269.302
235.998	1237.92
238.891	2287.03
241.784	3774.61
244.676	4886.42
247.569	5087.48
250.462	4172.05
253.355	3089.74
256.247	2461.99
259.14	2506.82
262.033	2753.6
264.925	2776.37
267.818	2334.23
270.711	1829.83
273.603	1790.12
276.496	1912.68
279.389	2566.83
282.281	2922.71
285.174	2641.84
288.067	1856.28
290.959	1008.41
293.852	460.612
296.745	194.502
299.638	260.599
302.53	566.698
305.423	1220.87
308.316	2166.81
311.208	3608.28
314.101	5957.43
316.994	8723.41
319.887	11963.8
322.779	15413
325.672	18596.8
328.565	20254.7
331.457	18267
334.35	13653.9
337.243	9908.79
340.135	7770.64
343.028	6501.33
345.921	5342.79
348.813	4194.17
351.706	3141.7
354.599	2469.17
357.492	1886.63
360.384	1736.93
363.277	1405.4
366.17	1250.93
369.062	903.926
371.955	407.81
374.848	16.6699
377.74	157.94
380.633	178.269
383.526	107.726
386.418	121.247
389.311	74.5264
392.204	82.5537
395.097	272.93
397.989	649.819
400.882	1416.19
403.775	1995.62
406.667	3285.54
409.56	4602.31
412.453	5780.78
415.346	6589.5
418.238	6399.76
421.131	5409.08
424.024	4057.59
426.916	2940.7
429.809	2153.9
432.702	1760.16
435.594	1478.77
438.487	1184.03
441.38	923.825
444.272	711.49
447.165	534.53
450.058	448.448
452.951	266.365
455.843	61.1128
458.736	9.11035
461.629	0.725586
464.521	4.59668
467.414	8.20117
470.307	52.085
473.2	95.1182
476.092	266.016
478.985	454.007
481.878	728.914
484.77	990.967
487.663	1284.99
490.556	1697.65
493.448	2249.17
496.341	2739.3
499.234	3213.14
502.127	3726.09
505.019	3823.76
507.912	3875.42
510.805	3523.34
513.697	3148.84
516.59	2554.6
519.483	2021.73
522.375	1581.03
525.268	1127.71
528.161	770.773
531.053	572.804
533.946	404.262
536.839	234.337
539.731	175.909
542.624	46.7437
545.517	27.2222
548.41	20.0962
551.302	14.8894
554.195	56.843
557.088	22.0181
559.98	4.01294
562.873	9.02832
565.766	3.09888
568.659	53.3125
571.551	5.35815
574.444	108.398
577.337	74.8618
580.229	130.726
583.122	136.202
586.015	80.1487
588.907	197.838
591.8	161.19
594.693	194.198
597.585	152.767
600.478	134.907
603.371	161.613
606.264	27.6755
609.156	110.859
612.049	61.1018
614.942	32.2871
617.834	110.437
620.727	93.1008
623.62	85.481
626.513	101.8
629.405	87.845
632.298	22.9817
635.191	73.6531
638.083	108.523
640.976	69.6646
643.869	113.515
646.761	50.3989
649.654	53.2476
652.547	97.5498
655.439	46.8171
658.332	109.393
661.225	183.886
664.117	73.8428
667.01	81.6081
669.903	76.7815
672.796	43.9849
675.688	2.13159
678.581	56.3833
681.474	61.4353
684.366	39.2371
687.259	92.3694
690.152	57.5281
693.044	4.9751
695.937	103.925
698.83	28.2817
701.723	86.6409
704.615	70.6318
707.508	69.5288
710.401	61.1641
713.293	143.51
716.186	122.803
719.079	293.988
721.971	411.337
724.864	613.723
727.757	805.15
730.649	1295.68
733.542	1846.78
736.435	2382.01
739.328	2956.89
742.22	3313.34
745.113	3124.2
748.006	2590.6
750.898	1857.96
753.791	1526.41
756.684	823.267
759.577	515.114
762.469	355.964
765.362	200.692
768.255	42.0017
771.147	3.99829
774.04	17.6123
776.933	51.2507
779.825	23.8652
782.718	114.425
785.611	138.893
788.504	196.805
791.396	371.289
794.289	621.718
797.182	758.052
800.074	1091.16
802.967	1522.27
805.86	2004.43
808.752	2586.43
811.645	3360.07
814.538	3946.72
817.431	4375.89
820.323	4350.83
823.216	4031.32
826.109	3387.08
829.001	2708.86
831.894	2008.82
834.787	1412.05
837.679	1053.39
840.572	837.512
843.465	637.996
846.357	516.987
849.25	335.609
852.143	208.19
855.036	95.011
857.928	103.025
860.821	86.9228
863.714	42.9275
866.606	36.3552
869.499	27.3181
872.392	1.05689
875.284	52.5999
878.177	17.0164
881.07	130.47
883.962	77.7871
886.855	233.904
889.748	310.367
892.641	439.675
895.533	684.127
898.426	850.556
901.319	1186.9
904.211	1433.43
907.104	1779.15
909.997	1988.43
912.889	2065.4
915.782	2085.49
918.675	1965.35
921.568	2364.24
924.46	2678.66
927.353	2958.12
930.246	3170.85
933.138	3217.63
936.031	2963.46
938.924	2321.96
941.817	1983.05
944.709	1432.84
947.602	1099.76
950.495	779.467
953.387	714.654
956.28	559.162
959.173	436.311
962.065	467.421
964.958	545.154
967.851	470.536
970.744	543.465
973.636	509.298
976.529	476.315
979.422	310.123
982.314	236.52
985.207	149.703
988.1	67.189
990.992	17.1375
993.885	56.5832
996.778	54.3423
999.67	7.40137
1002.56	37.491
1005.46	44.4917
1008.35	48.8125
1011.24	7.60107
1014.13	5.44458
1017.03	37.0503
1019.92	69.2781
1022.81	8.302
1025.7	64.9849
1028.6	27.3015
1031.49	46.0664
1034.38	34.3105
1037.28	19.6841
1040.17	58.4124
1043.06	102.212
1045.95	51.8159
1048.85	22.0795
1051.74	61.9728
1054.63	2.09522
1057.52	26.2948
1060.42	5.62952
1063.31	49.4938
1066.2	92.4291
1069.1	143.465
1071.99	47.7987
1074.88	73.3152
1077.77	56.8648
1080.67	80.7438
1083.56	73.0889
1086.45	68.9565
1089.34	116.098
1092.24	69.5533
1095.13	63.848
1098.02	128.107
1100.91	64.9933
1103.81	109.55
1106.7	79.1473
1109.59	32.4343
1112.49	42.4025
1115.38	33.3589
1118.27	37.7415
1121.16	54.9924
1124.06	47.7909
1126.95	74.0657
1129.84	62.1143
1132.73	81.5839
1135.63	112.435
1138.52	76.6852
1141.41	52.3469
1144.31	104.33
1147.2	66.0819
1150.09	28.5609
1152.98	50.2313
1155.88	106.181
1158.77	88.7153
1161.66	68.4344
1164.55	70.7416
1167.45	88.146
1170.34	68.2071
1173.23	58.7913
1176.12	11.6449
1179.02	63.7837
1181.91	62.7887
1184.8	65.9049
1187.7	1.9917
1190.59	60.7858
1193.48	12.5891
1196.37	63.4255
1199.27	40.8035
1202.16	64.4894
1205.05	67.5497
1207.94	63.0181
1210.84	15.3599
1213.73	101.252
1216.62	85.6299
1219.52	73.0986
1222.41	96.5104
1225.3	1.50977
1228.19	127.261
1231.09	56.3025
1233.98	28.1178
1236.87	77.6813
1239.76	57.5279
1242.66	7.38599
1245.55	76.7917
1248.44	109.242
1251.34	85.3639
1254.23	40.3273
1257.12	118.911
1260.01	37.2651
1262.91	89.6482
1265.8	7.9425
1268.69	57.7728
1271.58	47.6386
1274.48	14.083
1277.37	60.567
1280.26	10.9116
1283.15	154.019
1286.05	99.3197
1288.94	33.3693
1291.83	30.906
1294.73	24.2217
1297.62	28.9009
1300.51	34.9673
