Measurement: Raman, 532 nm, unoriented, Raman Data Processed
Mineral: Avdoninite
Rruff sample: R061024
Ideal chemistry: K_2_Cu_5_Cl_8_(OH)_4_H_2_O
Locality: Blyava Cu mine, Sakmara, Orenburgskaya, Ural Mountains, Russia
Source: Michael Scott
Description: Green fine-grained crust
Raman shift (cm-1)	intensity
112.362	0
115.737	398.884
119.112	1330.36
122.486	2648.76
125.861	3942.47
129.236	4810.15
132.611	4900.9
135.986	4765.56
139.36	5680.64
142.735	7025.35
146.11	4699.1
149.485	2665.48
152.86	1670.07
156.234	711.575
159.609	74.6211
162.984	12.2651
166.359	352.115
169.734	1214.5
173.109	2323.73
176.483	3213.75
179.858	3168.88
183.233	2517.67
186.608	2340.31
189.983	2535.86
193.357	2426.43
196.732	2415.12
200.107	2649.22
203.482	2880.92
206.857	2602.98
210.232	1987.14
213.606	1199.84
216.981	548.203
220.356	121.552
223.731	140.477
227.106	234.964
230.481	111.062
233.855	310.175
237.23	1151.4
240.605	2155.87
243.98	2875.28
247.355	2529.47
250.729	1741.14
254.104	1149.02
257.479	1068.31
260.854	1165.82
264.229	1142.36
267.603	913.007
270.978	834.541
274.353	1083.19
277.728	1585.65
281.103	1860.23
284.478	1482.13
287.852	722.249
291.227	256.131
294.602	18.7793
297.977	6.09668
301.352	255.67
304.726	794.667
308.101	1537.22
311.476	2652.39
314.851	4396.37
318.226	6663.75
321.601	9510.17
324.975	12000.1
328.35	12552.6
331.725	9458.73
335.1	6209.47
338.474	4266.15
341.849	3148.58
345.224	2349.45
348.599	1668.79
351.974	1145.13
355.349	845.082
358.723	662.164
362.098	625.535
365.473	468.897
368.848	312.229
372.223	83.8911
375.598	1.50317
378.972	8.08301
382.347	84.3227
385.722	40.8752
389.097	47.4417
392.472	92.0962
395.846	214.752
399.221	515.258
402.596	740.728
405.971	1326.18
409.346	1974.29
412.721	2667.4
416.095	3036.44
419.47	2841.31
422.845	2220.93
426.22	1670.72
429.594	1200.94
432.969	870.991
436.344	625.574
439.719	473.331
443.094	354.565
446.469	185.255
449.843	101.881
453.218	66.2212
456.593	11.2034
459.968	49.8726
463.343	13.6716
466.717	8.20508
470.092	78.0876
473.467	46.4582
476.842	72.7835
480.217	206.371
483.592	298.024
486.966	368.679
490.341	521.062
493.716	628.971
497.091	716.417
500.466	780.05
503.841	856.246
507.215	770.735
510.59	737.074
513.965	554.359
517.34	341.697
520.715	296.22
524.089	244.695
527.464	163.66
530.839	106.26
534.214	74.8273
537.589	56.1372
540.963	71.0579
544.338	93.0785
547.713	49.5581
551.088	20.923
554.463	48.4248
557.837	62.2147
561.212	30.6622
564.587	25.2941
567.962	41.2653
571.337	49.5667
574.712	31.8971
578.086	53.5372
581.461	29.4395
584.836	67.321
588.211	29.9291
591.586	67.0366
594.96	85.558
598.335	54.673
601.71	84.9862
605.085	69.0364
608.46	121.966
611.835	138.234
615.209	139.16
618.584	98.9585
621.959	151.32
625.334	138.987
628.709	102.617
632.083	107.699
635.458	100.476
638.833	128.338
642.208	95.3964
645.583	112.592
648.957	69.4894
652.332	64.6479
655.707	87.9031
659.082	44.4609
662.457	1.62537
665.832	13.3463
669.206	13.9906
672.581	1.67908
675.956	16.9092
679.331	13.5267
682.706	38.8113
686.081	45.7036
689.455	39.3655
692.83	29.1486
696.205	3.29468
699.58	35.7903
702.955	6.68445
706.329	6.92651
709.704	70.6093
713.079	103.619
716.454	64.4536
719.829	161.399
723.203	259.065
726.578	329.857
729.953	523.627
733.328	732.415
736.703	945.814
740.077	1137.24
743.452	1275.56
746.827	1235.97
750.202	968.897
753.577	570.733
756.952	493.679
760.326	276.341
763.701	160.573
767.076	105.084
770.451	78.3481
773.826	19.6582
777.201	53.5367
780.575	23.374
783.95	60.273
787.325	73.7245
790.7	160.936
794.075	171.672
797.449	249.893
800.824	454.998
804.199	601.361
807.574	745.488
810.949	925.25
814.323	1141.08
817.698	1195.63
821.073	1228.57
824.448	1067.02
827.823	910.072
831.197	638.801
834.572	515.233
837.947	334.428
841.322	268.514
844.697	190.537
848.072	124.676
851.446	54.3706
854.821	76.8109
858.196	43.8556
861.571	16.9386
864.946	54.8192
868.321	28.4831
871.695	33.1361
875.07	34.1658
878.445	41.807
881.82	15.3583
885.195	18.1544
888.569	54.776
891.944	109.177
895.319	94.178
898.694	145.235
902.069	162.397
905.443	239.718
908.818	343.488
912.193	406.314
915.568	500.559
918.943	617.139
922.317	738.407
925.692	969.84
929.067	1085.56
932.442	1123.69
935.817	1038.91
939.192	856.693
942.566	733.791
945.941	527.364
949.316	367.318
952.691	302.726
956.066	205.486
959.441	136.438
962.815	93.2007
966.19	37.7288
969.565	5.64282
972.94	6.45544
976.315	7.05969
979.689	18.0386
983.064	10.7042
986.439	18.098
989.814	17.9471
993.189	22.3385
996.563	57.7577
999.938	38.5984
1003.31	68.4143
1006.69	26.9448
1010.06	3.50958
1013.44	20.7786
1016.81	36.131
1020.19	27.2801
1023.56	50.9247
1026.94	67.0715
1030.31	42.144
1033.69	40.3981
1037.06	37.1461
1040.44	13.2812
1043.81	0.029541
1047.19	11.0894
1050.56	63.8571
1053.93	19.9188
1057.31	64.2679
1060.68	24.0932
1064.06	71.2538
1067.43	11.5273
1070.81	15.7028
1074.18	38.9271
1077.56	27.0755
1080.93	24.3558
1084.31	79.9872
1087.68	49.2797
1091.06	49.6459
1094.43	22.933
1097.81	49.5597
1101.18	9.52289
1104.56	7.50293
1107.93	21.8867
1111.31	16.6736
1114.68	17.2565
1118.06	15.9283
1121.43	31.6435
1124.81	17.0654
1128.18	44.9103
1131.56	67.5654
1134.93	42.6251
1138.31	43.3745
1141.68	20.1842
1145.06	56.3285
1148.43	61.0967
1151.81	17.7634
1155.18	16.7273
1158.56	3.34418
1161.93	71.8046
1165.3	57.5359
1168.68	47.1773
1172.05	90.4083
1175.43	60.1924
1178.8	59.4227
1182.18	90.118
1185.55	86.9479
1188.93	33.6651
1192.3	66.7428
1195.68	47.526
1199.05	50.0438
1202.43	87.4269
1205.8	17.071
1209.18	28.1317
1212.55	14.5176
1215.93	63.9242
1219.3	48.9554
1222.68	51.5625
1226.05	83.9338
1229.43	65.3899
1232.8	4.2279
1236.17	41.3671
1239.55	34.7237
1242.92	37.1885
1246.3	2.87915
1249.67	104.174
1253.05	37.1211
1256.42	47.7244
1259.8	34.3834
1263.17	3.14325
1266.55	48.8856
1269.92	79.2702
1273.3	27.3106
1276.67	34.5501
1280.05	0.073486
