Measurement: Raman, 785 nm, unoriented, Raman Data Processed
Mineral: Avicennite
Rruff sample: R070262
Ideal chemistry: Tl_2_O_3_
Locality: Thallium Prospect, Little Valley, Tooele County, Utah, USA
Source: Michael Scott
Description: Grayish black polished crystals on microprobe sample mount.
Raman shift (cm-1)	intensity
153.803	0
156.696	241.477
159.589	739.787
162.481	1619.5
165.374	2141.84
168.267	2642.32
171.16	2147.12
174.052	1107.74
176.945	314.648
179.838	156.999
182.73	470.92
185.623	446.688
188.516	322.197
191.408	67.8467
194.301	847.768
197.194	2005.27
200.087	3440
202.979	5205.03
205.872	7241.82
208.765	9676.31
211.657	12579.5
214.55	15946.5
217.443	19460.8
220.335	22838
223.228	25487.5
226.121	27220.5
229.013	27445.2
231.906	26627.3
234.799	25072.3
237.692	23400.7
240.584	21932.9
243.477	20542.9
246.37	18656.1
249.262	16583.9
252.155	14370.4
255.048	12447.7
257.941	10066.4
260.833	8172.68
263.726	7144.79
266.619	7298.08
269.511	8160.52
272.404	10161.3
275.297	12461.1
278.19	13734.7
281.082	14769.7
283.975	15820.6
286.868	17533.1
289.76	19931.6
292.653	21654.9
295.546	21720
298.438	22206.5
301.331	26081.6
304.224	32896.7
307.116	41336.5
310.009	47948.1
312.902	45171.1
315.795	33375
318.687	28918.3
321.58	31206.2
324.473	30755.9
327.365	26353.6
330.258	22850
333.151	20694.2
336.043	17387.5
338.936	11022.9
341.829	5698.88
344.721	3528.28
347.614	2425.06
350.507	1145.41
353.4	130.195
356.292	765.242
359.185	855.255
362.078	743.359
364.97	559.671
367.863	299.932
370.756	119.269
373.649	10.7634
376.541	181.293
379.434	301.886
382.327	412.753
385.219	532.478
388.112	716.912
391.005	883.032
393.897	1047.17
396.79	1213.31
399.683	1396.18
402.575	1508.03
405.468	1672.46
408.361	1790.28
411.254	1891.29
414.146	1884.09
417.039	1775.7
419.932	1620.46
422.824	1473.33
425.717	1339.36
428.61	1274.36
431.502	1219.28
434.395	1175.85
437.288	1145.32
440.181	1080.45
443.073	1038.61
445.966	998.218
448.859	968.893
451.751	904.365
454.644	867.571
457.537	839.058
460.43	790.614
463.322	735.747
466.215	676.05
469.108	603.865
472	553.99
474.893	502.225
477.786	462.932
480.678	407.628
483.571	374.422
486.464	321.214
489.356	294.324
492.249	248.132
495.142	249.172
498.035	199.795
500.927	187.221
503.82	154.937
506.713	140.049
509.605	115.671
512.498	109.699
515.391	77.072
518.284	39.962
521.176	32.191
524.069	23.8887
526.962	23.653
529.854	4.18695
532.747	2.79053
535.64	7.39386
538.533	10.7652
541.425	32.5189
544.318	3.61926
547.211	19.8659
550.103	3.50854
552.996	9.8811
555.889	0.432983
558.781	0.120667
561.674	3.86902
564.567	5.93957
567.46	1.0954
570.352	15.7403
573.245	25.8627
576.138	6.13342
579.03	16.0175
581.923	17.482
584.816	4.12061
587.708	6.7995
590.601	14.4974
593.494	4.15741
596.386	15.1558
599.279	3.63452
602.172	8.37952
605.064	25.014
607.957	16.887
610.85	11.6862
613.743	34.3294
616.635	33.4727
619.528	21.611
622.421	26.5916
625.313	30.6368
628.206	27.3758
631.099	36.1015
633.991	41.1289
636.884	56.4657
639.777	39.3775
642.67	46.8454
645.562	36.2547
648.455	22.2976
651.348	12.0224
654.24	17.2065
657.133	25.157
660.026	26.865
662.918	19.5654
665.811	33.5785
668.704	46.0438
671.597	27.812
674.489	27.1935
677.382	31.1283
680.275	20.1383
683.167	33.6013
686.06	30.3884
688.953	25.6298
691.846	35.9939
694.738	33.5613
697.631	42.9619
700.524	36.7078
703.416	22.206
706.309	17.9826
709.202	0.05101
712.094	1.39708
714.987	3.72974
717.88	2.09689
720.773	0.87323
723.665	4.44522
726.558	16.5331
729.451	15.4401
732.343	12.4993
735.236	16.8662
738.129	18.1742
741.021	25.1622
743.914	26.282
746.807	26.9237
749.699	33.9374
752.592	29.55
755.485	35.1569
758.378	32.5479
761.27	41.1237
764.163	38.0349
767.056	43.2083
769.948	37.1815
772.841	36.5559
775.734	37.5962
778.626	27.2714
781.519	26.9349
784.412	25.3526
787.305	26.7845
790.197	26.1557
793.09	23.2508
795.983	13.5045
798.875	20.5487
801.768	16.4464
804.661	18.8917
807.553	16.7054
810.446	20.1825
813.339	15.9422
816.232	16.5113
819.124	10.0845
822.017	15.4068
824.91	11.7919
827.802	16.5799
830.695	10.7584
833.588	11.037
836.481	10.6172
839.373	8.50869
842.266	10.0808
845.159	9.73212
848.051	4.68053
850.944	6.81022
853.837	5.6233
856.729	8.09292
859.622	6.71289
862.515	5.6388
865.408	9.10621
868.3	4.18184
871.193	4.54002
874.086	3.93976
876.978	6.32814
879.871	5.23758
882.764	6.34428
885.656	0.075336
888.549	3.0624
891.442	0.133617
894.335	4.25028
897.227	2.77641
900.12	2.29989
903.013	4.71731
905.905	4.40379
908.798	4.7999
911.691	1.52216
914.583	9.74683
917.476	1.69851
920.369	3.78693
923.261	3.06565
926.154	2.65329
929.047	0.003849
931.94	6.54198
934.832	4.13635
937.725	0.776115
940.618	1.02837
943.51	5.32592
946.403	6.48376
949.296	3.25528
952.188	4.92864
955.081	0.691841
957.974	2.39256
960.867	7.68629
963.759	1.97644
966.652	7.03261
969.545	0.959633
972.437	3.17787
975.33	6.49948
978.223	6.69393
981.115	4.52166
984.008	6.85848
986.901	3.19946
989.794	5.49813
992.686	3.77481
995.579	1.32898
998.472	5.29345
1001.36	5.70297
1004.26	3.95083
1007.15	6.52873
1010.04	2.60148
1012.93	9.35144
1015.83	3.18342
1018.72	0.272095
1021.61	5.1822
1024.51	3.30393
1027.4	4.16863
1030.29	4.54844
1033.18	4.92052
1036.08	4.53627
1038.97	6.48709
1041.86	0.185097
1044.76	8.95397
1047.65	3.91688
1050.54	8.60508
1053.43	0.084251
1056.33	5.44015
1059.22	4.17546
1062.11	5.48254
1065	6.26479
1067.9	3.02701
1070.79	9.12365
1073.68	3.64508
1076.58	0.661095
1079.47	8.4862
1082.36	1.27448
1085.25	1.18409
1088.14	3.68951
1091.04	0.896828
1093.93	4.22081
1096.82	2.45504
1099.72	3.35158
1102.61	0.907246
1105.5	5.15318
1108.39	8.21891
1111.29	2.66346
1114.18	7.48705
1117.07	5.9224
1119.96	4.71112
1122.86	0.016918
1125.75	6.40602
1128.64	14.9725
1131.54	1.18487
1134.43	6.45243
1137.32	10.5287
1140.21	12.0184
1143.11	8.7722
1146	9.9207
1148.89	13.6278
1151.79	17.2379
1154.68	15.5952
1157.57	11.1537
1160.46	14.0319
1163.36	17.4836
1166.25	15.3712
1169.14	20.7422
1172.03	11.4627
1174.93	14.6648
1177.82	19.6959
1180.71	22.9252
1183.6	21.6012
1186.5	23.5152
1189.39	26.8772
1192.28	27.8427
1195.17	27.2014
1198.07	26.3192
1200.96	27.9404
1203.85	30.2924
1206.75	30.6121
1209.64	31.4341
1212.53	36.4903
1215.42	39.4076
1218.32	40.7837
1221.21	43.3497
1224.1	42.0664
1226.99	45.9238
1229.89	47.1491
1232.78	46.5311
1235.67	44.6311
1238.57	49.9337
1241.46	49.8844
1244.35	3.33064
1247.24	2.00932
1250.14	0.753531
1253.03	0.481242
1255.92	1.70481
1258.82	2.91653
1261.71	4.11916
1264.6	5.32967
1267.49	6.56275
1270.38	7.83997
1273.28	8.68373
1276.17	5.22797
1279.06	4.07743
1281.96	3.67442
1284.85	3.20028
1287.74	2.25134
1290.63	1.54445
1293.53	0.962326
1296.42	0.443006
1299.31	0.104637
