Measurement: Raman, 532 nm, unoriented, Raman Data Processed
Mineral: Avogadrite
Rruff sample: R110062
Ideal chemistry: KBF_4_
Locality: Mount Vesuvius, near Naples, Campania, Italy
Source: James Shigley
Description: Colorless consolidated granular. Some of the material consists of transparent gemmy crystals. The unidentified associated yellow material is a thin coating, something like a bubble surface, that turns white under acetone.
Raman shift (cm-1)	intensity
178.237	0
181.13	4.45184
184.023	7.80502
186.916	3.18106
189.808	1.93231
192.701	7.00382
195.594	11.4905
198.486	12.7561
201.379	10.5493
204.272	5.15549
207.164	9.49207
210.057	11.3598
212.95	12.7767
215.843	5.53961
218.735	7.95843
221.628	5.78293
224.521	1.70679
227.413	8.06986
230.306	2.40707
233.199	7.87616
236.091	4.11383
238.984	8.56638
241.877	4.23868
244.769	5.91675
247.662	2.18005
250.555	0.057343
253.448	2.41843
256.34	3.95367
259.233	6.73508
262.126	5.87692
265.018	3.94473
267.911	6.07968
270.804	7.16666
273.697	7.47418
276.589	9.15524
279.482	13.2995
282.375	8.55957
285.267	6.379
288.16	7.76611
291.053	3.85232
293.945	7.22131
296.838	8.29352
299.731	4.20044
302.623	5.74454
305.516	6.453
308.409	3.38379
311.302	7.04346
314.194	5.11435
317.087	1.19965
319.98	1.66196
322.872	0.23291
325.765	2.79013
328.658	6.60327
331.55	4.83078
334.443	9.76627
337.336	5.60855
340.229	22.3219
343.121	54.8446
346.014	82.36
348.907	106.38
351.799	164.414
354.692	292.582
357.585	448.967
360.478	326.937
363.37	80.0358
366.263	29.1018
369.156	10.8055
372.048	12.3236
374.941	4.02609
377.834	4.42511
380.726	3.12274
383.619	3.27866
386.512	1.89621
389.404	0.789795
392.297	0.349213
395.19	5.08685
398.083	5.83627
400.975	1.36456
403.868	2.96899
406.761	6.4245
409.653	6.68503
412.546	5.91653
415.439	5.38702
418.332	2.95862
421.224	1.96976
424.117	3.88257
427.01	3.25781
429.902	4.14121
432.795	3.33881
435.688	4.18933
438.58	3.70233
441.473	6.77576
444.366	5.52905
447.259	6.80624
450.151	2.51685
453.044	5.77643
455.937	3.90231
458.829	3.61954
461.722	5.87732
464.615	3.50299
467.507	1.04868
470.4	1.03195
473.293	4.44467
476.185	2.89847
479.078	2.77087
481.971	3.24499
484.864	3.13135
487.756	3.6629
490.649	2.10886
493.542	4.60623
496.434	3.25604
499.327	2.3356
502.22	3.76053
505.113	1.02325
508.005	1.04434
510.898	4.41211
513.791	20.0152
516.683	37.6004
519.576	63.4551
522.469	135.412
525.361	201.884
528.254	302.762
531.147	337.012
534.04	413.439
536.932	294.034
539.825	60.6965
542.718	14.683
545.61	8.65076
548.503	3.88535
551.396	4.66281
554.288	5.99478
557.181	6.34058
560.074	2.50674
562.967	3.17572
565.859	3.91696
568.752	3.63135
571.645	4.47916
574.537	0.917816
577.43	3.62085
580.323	5.90353
583.216	1.1376
586.108	7.35202
589.001	3.11633
591.894	8.91333
594.786	0.453461
597.679	5.23264
600.572	4.00073
603.464	1.34717
606.357	1.47113
609.25	2.75854
612.142	3.71033
615.035	2.0921
617.928	9.11688
620.821	4.49719
623.713	0.37146
626.606	2.43567
629.499	4.01325
632.391	1.84662
635.284	3.24634
638.177	3.46576
641.069	3.43182
643.962	5.97192
646.855	3.02356
649.747	3.21002
652.64	0.464172
655.533	2.2096
658.426	4.09644
661.318	3.28308
664.211	0.416565
667.104	1.63318
669.996	2.47601
672.889	1.40582
675.782	2.24921
678.674	3.23956
681.567	1.2431
684.46	1.15753
687.353	2.29102
690.245	3.24939
693.138	5.40662
696.031	0.377319
698.923	3.2757
701.816	2.53619
704.709	1.46521
707.601	10.3987
710.494	9.81909
713.387	10.9719
716.28	7.5907
719.172	2.45117
722.065	5.93701
724.958	11.728
727.85	6.89343
730.743	10.6613
733.636	16.954
736.529	14.0876
739.421	14.351
742.314	1.17175
745.207	3.07611
748.099	3.73163
750.992	3.45087
753.885	9.3111
756.777	15.8958
759.67	60.9231
762.563	345.641
765.456	452.042
768.348	858.301
771.241	1543.68
774.134	3125.89
777.026	456.869
779.919	46.9844
782.812	18.0663
785.704	9.68622
788.597	9.11047
791.49	7.66864
794.383	0.834167
797.275	0.570374
800.168	0.916687
803.061	0.365479
805.953	4.04309
808.846	6.19415
811.739	2.448
814.631	6.53992
817.524	5.56653
820.417	8.32398
823.309	9.05524
826.202	2.5188
829.095	4.04553
831.988	4.8302
834.88	5.55603
837.773	4.37567
840.666	4.7215
843.558	4.23669
846.451	3.8335
849.344	1.72125
852.236	3.92902
855.129	3.52954
858.022	5.62976
860.915	6.87799
863.807	2.06152
866.7	2.15399
869.593	1.60754
872.485	5.22498
875.378	4.41876
878.271	0.414124
881.163	3.19061
884.056	2.24994
886.949	4.39343
889.842	4.8114
892.734	5.05121
895.627	0.601685
898.52	6.6546
901.412	4.58875
904.305	5.27814
907.198	7.20898
910.091	4.43982
912.983	5.16638
915.876	0.609009
918.769	5.88477
921.661	6.27673
924.554	6.15888
927.447	2.13275
930.339	6.11359
933.232	2.12872
936.125	4.65338
939.018	4.99371
941.91	7.73315
944.803	5.27173
947.696	4.97687
950.588	4.59656
953.481	7.58643
956.374	0.182373
959.266	2.69354
962.159	4.82935
965.052	4.25836
967.944	0.263306
970.837	3.77405
973.73	1.39813
976.623	0.984802
979.515	1.37091
982.408	3.42084
985.301	0.458069
988.193	6.3476
991.086	0.605469
993.979	5.151
996.871	1.94507
999.764	1.02814
1002.66	0.82373
1005.55	0.21405
1008.44	0.139099
1011.34	1.05804
1014.23	5.36725
1017.12	3.32831
1020.01	3.11322
1022.91	5.95819
1025.8	2.43256
1028.69	6.89368
1031.58	7.62811
1034.48	10.7843
1037.37	12.8312
1040.26	4.80383
1043.15	6.85773
1046.05	4.83954
1048.94	6.74707
1051.83	7.4754
1054.73	7.34119
1057.62	13.324
1060.51	12.3073
1063.4	15.606
1066.3	18.3224
1069.19	21.5787
1072.08	20.8555
1074.97	24.9026
1077.87	26.0452
1080.76	24.6461
1083.65	18.0601
1086.55	25.9794
1089.44	24.3956
1092.33	26.0862
1095.22	26.249
1098.12	27.2963
1101.01	21.0422
1103.9	21.032
1106.79	8.8183
1109.69	13.1904
1112.58	12.0698
1115.47	6.93323
1118.37	4.9325
1121.26	10.33
1124.15	6.90375
1127.04	6.12628
1129.94	4.87732
1132.83	3.86999
1135.72	1.51184
1138.61	0.532593
1141.51	3.28552
1144.4	1.98694
1147.29	5.45367
1150.18	0.553406
1153.08	2.50177
1155.97	0.730225
1158.86	2.79852
1161.76	2.3753
1164.65	1.9773
1167.54	4.59619
1170.43	3.82068
1173.33	2.92487
1176.22	0.767212
1179.11	2.60559
1182	5.41602
1184.9	1.67169
1187.79	6.07959
1190.68	0.606262
1193.58	7.66724
1196.47	5.70892
1199.36	0.02002
1202.25	6.38794
1205.15	6.69684
1208.04	4.24652
1210.93	8.46729
1213.82	8.14209
1216.72	6.12927
1219.61	2.63287
1222.5	3.72479
1225.39	3.37585
1228.29	12.4813
1231.18	9.54865
1234.07	0.386047
1236.97	1.01074
1239.86	1.7727
1242.75	1.26556
1245.64	2.68231
1248.54	1.16248
1251.43	2.21149
1254.32	0.396362
1257.21	4.97968
1260.11	5.39142
1263	2.73657
1265.89	0.780334
1268.79	3.70776
1271.68	2.63245
1274.57	1.82111
1277.46	5.37933
1280.36	3.66223
1283.25	1.97565
1286.14	3.58966
1289.03	1.84149
1291.93	2.98279
1294.82	8.23157
1297.71	5.00604
1300.61	5.7395
