Measurement: Raman, 780 nm, unoriented, Raman Data Processed
Mineral: Axinite-(Mn)
Rruff sample: R050299
Ideal chemistry: Ca_2_Mn^2+^Al_2_BSi_4_O_15_(OH)
Locality: Dalnegorsk, Russia
Source: Eugene Schlepp
Description: Brown axe-head-shaped crystal
Measured chemistry: Ca_2.00_(Mn_0.64_Fe^2+^_0.34_Mg_0.02_)Al_2.00_B_1.00_Si_4.00_O_15_(OH)
Raman shift (cm-1)	intensity
118.558	0
121.933	0.7952
125.307	3.7286
128.682	14.3363
132.057	10.3196
135.432	0.825069
138.807	4.72032
142.181	5.20913
145.556	7.01948
148.931	14.4329
152.306	18.7609
155.681	16.0246
159.055	16.1475
162.43	10.0784
165.805	14.1753
169.18	24.7446
172.555	32.0652
175.93	17.6194
179.304	8.99174
182.679	1.38903
186.054	1.30714
189.429	1.6988
192.804	5.70658
196.179	7.63269
199.553	12.3817
202.928	25.4519
206.303	39.7677
209.678	34.1116
213.053	21.3091
216.427	9.8846
219.802	5.39926
223.177	1.46659
226.552	0.929562
229.927	1.88333
233.302	0.464115
236.676	1.96144
240.051	5.98712
243.426	10.9012
246.801	11.261
250.176	7.00141
253.55	9.1525
256.925	8.9358
260.3	2.62248
263.675	3.56447
267.05	4.42977
270.425	7.30477
273.799	14.5999
277.174	17.8314
280.549	10.7345
283.924	8.27214
287.298	10.6222
290.673	10.6655
294.048	15.8339
297.423	24.0148
300.798	30.2676
304.173	38.8545
307.547	37.4449
310.922	17.323
314.297	8.86258
317.672	8.34639
321.047	8.30847
324.421	5.57992
327.796	4.28432
331.171	2.9307
334.546	3.78208
337.921	8.12135
341.296	14.0635
344.67	19.6593
348.045	23.1766
351.42	28.5863
354.795	18.8304
358.17	4.78859
361.545	0.995583
364.919	2.15322
368.294	1.14364
371.669	1.98961
375.044	2.80465
378.419	5.03152
381.793	9.4664
385.168	18.0146
388.543	26.3485
391.918	23.3945
395.293	18.2899
398.668	13.8674
402.042	9.50227
405.417	8.10883
408.792	10.8547
412.167	19.1176
415.541	31.2638
418.916	26.7417
422.291	20.101
425.666	17.1521
429.041	15.638
432.416	10.6176
435.79	7.45702
439.165	9.3187
442.54	15.3125
445.915	15.3358
449.29	5.3725
452.664	2.93924
456.039	3.15037
459.414	0.147324
462.789	0.083195
466.164	1.93828
469.539	4.75347
472.913	5.58116
476.288	7.59255
479.663	12.8504
483.038	18.3522
486.413	12.5118
489.788	3.85442
493.162	0.604343
496.537	0.175098
499.912	3.1445
503.287	4.13364
506.662	4.96837
510.036	5.10067
513.411	4.69365
516.786	1.43729
520.161	0.205824
523.536	0.98023
526.91	0.31315
530.285	1.02702
533.66	2.21167
537.035	2.21692
540.41	2.92398
543.784	4.46539
547.159	5.33057
550.534	5.63535
553.909	7.05172
557.284	10.0804
560.659	12.422
564.033	11.9831
567.408	13.7387
570.783	16.9686
574.158	17.6441
577.533	16.3885
580.908	17.4675
584.282	21.6488
587.657	25.3762
591.032	19.7063
594.407	12.8141
597.782	9.10241
601.156	8.54886
604.531	9.63926
607.906	11.8052
611.281	10.1702
614.656	8.56389
618.03	7.77642
621.405	5.71046
624.78	2.91915
628.155	0.559782
631.53	0.431059
634.905	0.174047
638.279	0.200779
641.654	0.538094
645.029	0.471596
648.404	0.307293
651.779	0.492023
655.154	0.532986
658.528	1.31149
661.903	3.027
665.278	5.3369
668.653	8.33882
672.028	12.9956
675.402	20.0012
678.777	22.0201
682.152	16.0441
685.527	9.20278
688.902	6.69295
692.277	7.99884
695.651	11.906
699.026	18.6334
702.401	28.0425
705.776	40.7379
709.15	58.3723
712.525	76.9613
715.9	75.2103
719.275	46.2662
722.65	23.2953
726.025	12.4579
729.399	6.46919
732.774	3.79578
736.149	1.86821
739.524	1.13374
742.899	0.845026
746.274	0.388262
749.648	0.735081
753.023	0.923014
756.398	1.66924
759.773	3.22847
763.148	4.94906
766.522	5.6686
769.897	4.23276
773.272	3.4175
776.647	2.10832
780.022	0.906998
783.396	0.420084
786.771	0.463812
790.146	0.089516
793.521	0.03644
796.896	0.656548
800.271	0.05974
803.645	0.517567
807.02	0.722084
810.395	0.851368
813.77	1.27337
817.145	0.238255
820.519	0.170462
823.894	0.614498
827.269	0.435795
830.644	0.370636
834.019	0.007526
837.394	0.893232
840.768	1.11196
844.143	1.10852
847.518	1.84139
850.893	2.10405
854.268	1.87798
857.643	2.48326
861.017	2.28867
864.392	2.33077
867.767	2.72379
871.142	2.80383
874.516	3.22539
877.891	3.83481
881.266	4.84197
884.641	7.42595
888.016	11.3937
891.391	17.854
894.765	24.2719
898.14	30.4082
901.515	33.2605
904.89	26.3256
908.265	15.8724
911.639	8.90744
915.014	4.82081
918.389	1.9668
921.764	0.713774
925.139	0.547909
928.514	0.207331
931.888	0.073357
935.263	0.290943
938.638	0.644615
942.013	0.658133
945.388	2.66843
948.763	7.29986
952.137	11.0678
955.512	15.0556
958.887	23.2919
962.262	30.8566
965.636	30.0933
969.011	26.3981
972.386	29.333
975.761	37.521
979.136	37.9238
982.511	33.437
985.885	30.0268
989.26	30.1299
992.635	30.2177
996.01	32.1027
999.385	33.5197
1002.76	30.6652
1006.13	23.0036
1009.51	13.7941
1012.88	7.84769
1016.26	3.99267
1019.63	1.9712
1023.01	1.33741
1026.38	0.454626
1029.76	0.059999
1033.13	0.499352
1036.51	0.093576
1039.88	0.583435
1043.26	2.57473
1046.63	4.00028
1050.01	6.73146
1053.38	7.96735
1056.76	8.28144
1060.13	5.54063
1063.51	2.61991
1066.88	0.906178
1070.26	1.40244
1073.63	1.45462
1077.01	3.11854
1080.38	3.9688
1083.76	4.02271
1087.13	2.12257
1090.51	0.83696
1093.88	0.829998
1097.25	0.794685
1100.63	0.958994
1104	1.11593
1107.38	0.911316
1110.75	0.247168
1114.13	0.306097
1117.5	0.385323
1120.88	0.068775
1124.25	0.298936
1127.63	0.191329
1131	0.019588
1134.38	0.373134
1137.75	0.014736
1141.13	0.602058
1144.5	0.290217
1147.88	0.829254
1151.25	0.683785
1154.63	0.108424
1158	0.743008
1161.38	0.753544
1164.75	0.733672
1168.12	0.797618
1171.5	0.954259
1174.88	0.835532
1178.25	0.885218
1181.62	0.676759
1185	0.92832
1188.37	0.905814
1191.75	0.425884
1195.12	0.279718
1198.5	0.506828
1201.87	0.762818
1205.25	0.060209
1208.62	0.319743
1212	0.472065
1215.37	0.117552
1218.75	0.583497
1222.12	0.089537
1225.5	0.22972
1228.87	0.424626
1232.25	0.079151
1235.62	0.112012
1239	0.373796
1242.37	0.339072
1245.75	0.199372
1249.12	0.438993
1252.5	0.460716
1255.87	0.486397
1259.25	0.554674
1262.62	0.201192
1265.99	0.234416
1269.37	0.326476
1272.74	0.055117
