Measurement: Raman, 532 nm, unoriented, Raman Data Processed
Mineral: Axinite-(Fe)
Rruff sample: R050061
Ideal chemistry: Ca_4_Fe^2+^_2_Al_4_[B_2_Si_8_O_30_](OH)_2_
Locality: Jamestown, California, USA
Source: Rock Currier
Description: Brown colored axe-head-shaped single crystals
Measured chemistry: Ca_2.00_(Fe^2+^_0.73_Mg_0.20_Mn_0.07_)Al_2.00_BSi_4_O_15_(OH)
Raman shift (cm-1)	intensity
136.163	0
139.537	123.018
142.912	10.2631
146.287	17.7422
149.662	200.762
153.037	230.138
156.411	250.276
159.786	356.836
163.161	559.805
166.536	1005.92
169.911	1670.54
173.286	1321.34
176.66	596.282
180.035	132.228
183.41	40.2315
186.785	215.144
190.16	500.715
193.535	981.768
196.909	924.047
200.284	1244.82
203.659	1934.86
207.034	2441.8
210.409	2175.59
213.783	1455.49
217.158	856.982
220.533	456.957
223.908	148.266
227.283	8.18048
230.657	13.0072
234.032	17.6859
237.407	34.7363
240.782	212.423
244.157	350.375
247.532	505.788
250.906	646.239
254.281	919.144
257.656	921.299
261.031	927.486
264.406	1264.43
267.781	1862.13
271.155	2492.18
274.53	2670.96
277.905	2030.37
281.28	1372.3
284.655	1024.38
288.029	1072.14
291.404	1321.66
294.779	1710.11
298.154	2066.07
301.529	2433.19
304.904	2830.02
308.278	2580.2
311.653	1837.89
315.028	1774.54
318.403	1974.52
321.778	1445.08
325.152	796.837
328.527	682.871
331.902	564.21
335.277	639.106
338.652	1155.67
342.026	2028.04
345.401	2468.35
348.776	2040.59
352.151	1843.97
355.526	945.919
358.901	269.716
362.275	-5.88546
365.65	-2.33537
369.025	2.50115
372.4	9.8582
375.775	41.26
379.149	294.676
382.524	658.278
385.899	1243.07
389.274	1740.39
392.649	1352.71
396.024	760.972
399.398	451.144
402.773	464.472
406.148	652.403
409.523	1189.08
412.898	2032.12
416.272	3436.74
419.647	3211.3
423.022	2484.71
426.397	2610.36
429.772	2571.4
433.147	1724.45
436.521	1026.44
439.896	850.565
443.271	1029.06
446.646	820.17
450.021	271.773
453.396	61.6826
456.77	8.10431
460.145	8.86371
463.52	9.4592
466.895	46.3457
470.27	192.328
473.644	484.791
477.019	818.346
480.394	1363.06
483.769	1864.77
487.144	1350.95
490.519	517.635
493.893	282.052
497.268	271.597
500.643	390.623
504.018	536.917
507.393	605.203
510.767	591.866
514.142	376.557
517.517	155.664
520.892	13.5254
524.267	11.8305
527.641	21.6879
531.016	82.5317
534.391	137.03
537.766	226.616
541.141	337.671
544.516	436.979
547.89	417.405
551.265	307.739
554.64	282.429
558.015	438.351
561.39	599.521
564.764	594.845
568.139	685.839
571.514	923.616
574.889	922.975
578.264	883.193
581.639	939.282
585.013	1191.08
588.388	1380.75
591.763	1042.23
595.138	514.301
598.513	254.977
601.888	168.817
605.262	120.776
608.637	146.779
612.012	206.897
615.387	237.975
618.762	187.215
622.136	115.299
625.511	19.6899
628.886	33.1787
632.261	5.21655
635.636	69.708
639.01	172.56
642.385	254.789
645.76	258.829
649.135	77.7114
652.51	42.1855
655.885	53.2043
659.259	35.1421
662.634	69.1626
666.009	221.041
669.384	473.522
672.759	801.476
676.134	1088.93
679.508	853.922
682.883	435.385
686.258	217.643
689.633	222.133
693.008	315.735
696.382	567.946
699.757	1161.52
703.132	2217.26
706.507	3728.45
709.882	5560.79
713.256	6691.18
716.631	4933.19
720.006	2725.75
723.381	1436.77
726.756	813.392
730.131	433.685
733.505	270.541
736.88	131.777
740.255	57.0981
743.63	16.1294
747.005	51.2817
750.38	108.387
753.754	225.632
757.129	411.904
760.504	664.113
763.879	884.82
767.254	950.943
770.628	797.168
774.003	525.437
777.378	319.2
780.753	230.394
784.128	137.151
787.503	76.6111
790.877	28.4653
794.252	47.5474
797.627	42.9956
801.002	61.405
804.377	143.298
807.751	188.679
811.126	209.313
814.501	136.885
817.876	88.3272
821.251	36.501
824.625	21.97
828	29.7266
831.375	21.1729
834.75	26.0579
838.125	2.56641
841.5	10.9648
844.874	97.1733
848.249	103.902
851.624	134.131
854.999	78.802
858.374	85.8723
861.749	90.6853
865.123	40.8403
868.498	68.2771
871.873	51.5061
875.248	85.2012
878.623	94.7161
881.997	117.43
885.372	244.861
888.747	394.265
892.122	671.275
895.497	1004.67
898.871	1185.95
902.246	1280.42
905.621	1277.97
908.996	1218.41
912.371	876.708
915.746	461.568
919.12	149.999
922.495	60.3428
925.87	25.6167
929.245	52.7375
932.62	10.0986
935.995	42.5764
939.369	38.3752
942.744	107.266
946.119	351.94
949.494	727.753
952.869	1179.47
956.243	1854.03
959.618	2642.91
962.993	3244.97
966.368	2924.64
969.743	2355.4
973.117	2457.38
976.492	2930.82
979.867	3148.56
983.242	2603.89
986.617	2256.31
989.992	2278.65
993.366	2427.03
996.741	2541.38
1000.12	2756.5
1003.49	2688.27
1006.87	2152.5
1010.24	1262.2
1013.62	582.324
1016.99	310.77
1020.37	174.369
1023.74	191.221
1027.12	220.535
1030.49	83.6279
1033.86	8.96606
1037.24	20.6248
1040.61	15.4343
1043.99	24.3198
1047.36	96.4394
1050.74	216.79
1054.11	279.693
1057.49	258.824
1060.86	154.655
1064.24	5.98193
1067.61	45.6243
1070.99	50.3943
1074.36	151.033
1077.74	402.21
1081.11	637.673
1084.49	641.096
1087.86	391.558
1091.24	237.858
1094.61	144.361
1097.99	177.237
1101.36	153.095
1104.73	196.692
1108.11	173.454
1111.48	117.532
1114.86	40.7346
1118.23	73.6951
1121.61	34.2444
1124.98	19.0627
1128.36	10.4443
1131.73	32.614
1135.11	5.104
1138.48	27.9307
1141.86	14.4409
1145.23	4.4939
1148.61	9.2644
1151.98	13.2554
1155.36	1.76807
1158.73	29.1912
1162.11	47.873
1165.48	4.88428
1168.86	32.748
1172.23	60.1404
1175.61	49.7351
1178.98	48.2722
1182.36	54.2827
1185.73	58.8811
1189.11	15.2136
1192.48	28.3726
1195.86	73.0315
1199.23	50.9526
1202.61	43.5881
1205.98	18.2947
1209.36	72.592
1212.73	39.5374
1216.1	12.0457
1219.48	30.9531
1222.85	25.8814
1226.23	50.3613
1229.6	13.9863
1232.98	1.02002
1236.35	31.4775
1239.73	21.5249
1243.1	46.2341
1246.48	5.8606
1249.85	34.7725
1253.23	30.833
1256.6	12.3396
1259.98	41.6121
1263.35	27.5935
1266.73	28.3921
1270.1	40.3415
1273.48	27.9463
1276.85	50.7454
1280.23	37.3418
1283.6	56.2678
1286.98	29.1419
1290.35	44.104
1293.72	21.8831
1297.1	16.8325
1300.47	47.0557
