Measurement: Raman, 532 nm, unoriented, Raman Data Processed
Mineral: Axinite-(Mn)
Rruff sample: R050299
Ideal chemistry: Ca_2_Mn^2+^Al_2_BSi_4_O_15_(OH)
Locality: Dalnegorsk, Russia
Source: Eugene Schlepp
Description: Brown axe-head-shaped crystal
Measured chemistry: Ca_2.00_(Mn_0.64_Fe^2+^_0.34_Mg_0.02_)Al_2.00_B_1.00_Si_4.00_O_15_(OH)
Raman shift (cm-1)	intensity
111.638	0
115.013	0.798424
118.388	0.433117
121.763	5.37861
125.138	14.6045
128.512	40.2352
131.887	40.4407
135.262	23.7206
138.637	42.1486
142.012	35.2535
145.386	36.3276
148.761	58.8653
152.136	61.8456
155.511	65.6429
158.886	62.4608
162.26	33.1356
165.635	42.4172
169.01	87.9614
172.385	126.613
175.76	82.4196
179.135	51.9192
182.509	17.8597
185.884	8.3975
189.259	12.0833
192.634	26.1052
196.009	28.9517
199.383	42.4226
202.758	80.6248
206.133	130.446
209.508	127.04
212.883	82.0364
216.257	36.2981
219.632	16.7136
223.007	0.464024
226.382	6.07553
229.757	4.92035
233.132	2.13762
236.506	7.64507
239.881	24.6566
243.256	50.6116
246.631	51.1942
250.006	34.5164
253.381	43.1205
256.755	38.0518
260.13	19.7202
263.505	22.3176
266.88	34.3866
270.255	51.7806
273.629	83.0302
277.004	91.8019
280.379	53.9388
283.754	34.1281
287.129	35.6916
290.503	42.5333
293.878	59.4123
297.253	89.2561
300.628	116.586
304.003	164.5
307.378	157.771
310.752	65.0827
314.127	31.4875
317.502	30.0801
320.877	34.1129
324.252	24.8046
327.627	24.3617
331.001	17.0566
334.376	15.4719
337.751	29.2261
341.126	52.0493
344.5	76.9749
347.875	96.364
351.25	122.604
354.625	78.1402
358	18.9093
361.375	0.320541
364.749	5.3529
368.124	5.42479
371.499	0.925674
374.874	7.35826
378.249	13.2235
381.623	30.802
384.998	64.1323
388.373	95.6712
391.748	86.5083
395.123	63.217
398.498	46.4152
401.872	35.5686
405.247	34.3293
408.622	46.9524
411.997	81.9685
415.372	132.472
418.747	115.688
422.121	85.4812
425.496	72.6746
428.871	60.27
432.246	42.2327
435.621	28.2446
438.995	33.4338
442.37	55.5677
445.745	48.3343
449.12	15.9154
452.495	7.2266
455.87	8.006
459.244	0.397934
462.619	0.946991
465.994	5.82153
469.369	19.5882
472.744	24.4202
476.118	33.9593
479.493	57.6906
482.868	79.9023
486.243	53.3416
489.618	13.8422
492.993	1.58382
496.367	0.204479
499.742	6.2209
503.117	12.1317
506.492	16.1795
509.866	17.6039
513.241	15.5726
516.616	5.3093
519.991	1.29856
523.366	2.56595
526.741	1.35611
530.115	1.58124
533.49	4.53035
536.865	7.04824
540.24	7.95959
543.615	10.7271
546.99	14.8375
550.364	14.4509
553.739	21.3969
557.114	34.8603
560.489	45.8606
563.864	44.6629
567.239	54.4309
570.613	67.0098
573.988	69.1517
577.363	67.9197
580.738	71.6308
584.112	87.5525
587.487	97.9547
590.862	73.8141
594.237	41.5839
597.612	30.5637
600.987	29.1388
604.361	34.1666
607.736	40.4024
611.111	39.1068
614.486	34.4223
617.861	29.5832
621.236	23.5878
624.61	11.3979
627.985	2.60619
631.36	0.496765
634.735	0.300903
638.11	2.28315
641.484	3.37617
644.859	1.74191
648.234	1.45662
651.609	2.20857
654.984	2.31689
658.359	1.72737
661.733	9.03211
665.108	19.3486
668.483	33.2055
671.858	55.7072
675.232	83.5572
678.607	94.4753
681.982	64.7686
685.357	36.406
688.732	25.0842
692.107	27.9849
695.481	40.6017
698.856	67.3303
702.231	111.504
705.606	173.063
708.981	264.838
712.356	356.006
715.73	335.345
719.105	203.557
722.48	105.316
725.855	53.6783
729.23	30.5487
732.604	17.4165
735.979	10.407
739.354	6.35403
742.729	4.03238
746.104	2.29964
749.479	2.73268
752.853	4.45503
756.228	7.29557
759.603	13.2317
762.978	19.9082
766.353	24.566
769.727	21.8154
773.102	14.0794
776.477	8.33466
779.852	5.24941
783.227	2.49651
786.601	0.090805
789.976	0.124382
793.351	0.117722
796.726	0.091141
800.101	0.769012
803.476	1.67165
806.85	5.11886
810.225	8.08521
813.6	7.15935
816.975	2.63147
820.35	0.37072
823.725	0.035774
827.099	0.577644
830.474	0.525597
833.849	0.835075
837.224	0.240807
840.599	1.46986
843.973	3.19125
847.348	4.57293
850.723	5.11804
854.098	5.02745
857.473	4.30442
860.847	6.07752
864.222	6.96378
867.597	7.08498
870.972	8.22559
874.347	9.71879
877.722	13.4357
881.096	18.2681
884.471	26.1861
887.846	40.9483
891.221	67.2754
894.596	98.5178
897.971	133.957
901.345	144.471
904.72	114.066
908.095	71.3879
911.47	42.8334
914.845	22.6129
918.219	10.8136
921.594	6.23512
924.969	5.00132
928.344	3.77277
931.719	0.176903
935.093	2.95051
938.468	0.236969
941.843	3.33847
945.218	14.4881
948.593	30.1363
951.967	48.5872
955.342	69.3108
958.717	105.537
962.092	137.983
965.467	130.232
968.842	115.29
972.216	129.25
975.591	163.174
978.966	168.076
982.341	142.978
985.716	130.78
989.091	131.531
992.465	133.691
995.84	145.501
999.215	151.355
1002.59	145.652
1005.97	111.659
1009.34	69.4935
1012.71	39.5974
1016.09	20.9687
1019.46	10.9067
1022.84	6.25917
1026.21	1.76402
1029.59	0.5457
1032.96	2.45323
1036.34	0.236893
1039.71	1.77977
1043.09	5.60175
1046.46	9.69678
1049.84	19.8177
1053.21	30.6824
1056.59	32.4699
1059.96	18.7114
1063.34	6.84029
1066.71	0.923279
1070.09	1.67929
1073.46	5.20371
1076.84	10.193
1080.21	16.2105
1083.59	16.0864
1086.96	8.67505
1090.34	5.09521
1093.71	5.45715
1097.09	7.19061
1100.46	9.01726
1103.83	8.88066
1107.21	9.55955
1110.58	4.35483
1113.96	2.51662
1117.33	2.32768
1120.71	1.02373
1124.08	0.149719
1127.46	1.45357
1130.83	0.148392
1134.21	1.24002
1137.58	0.414429
1140.96	0.368851
1144.33	1.00597
1147.71	1.07723
1151.08	0.264938
1154.46	0.689819
1157.83	2.00944
1161.21	0.728989
1164.58	1.98737
1167.96	1.82944
1171.33	2.8849
1174.7	2.69986
1178.08	1.71872
1181.45	1.45003
1184.83	2.95984
1188.2	1.21774
1191.58	3.59128
1194.95	1.46483
1198.33	1.30107
1201.7	2.25909
1205.08	3.51524
1208.45	2.24785
1211.83	2.21649
1215.2	0.855942
1218.58	1.69258
1221.95	0.130722
1225.33	1.76103
1228.7	1.12518
1232.08	1.80888
1235.45	0.765518
1238.83	1.3441
1242.2	0.411194
1245.58	0.720474
1248.95	1.37775
1252.33	1.57259
1255.7	1.1758
1259.08	2.85178
1262.45	0.079926
1265.83	1.30991
1269.2	0.485565
1272.58	4.13573
1275.95	1.40323
1279.33	1.43135
1282.7	3.21124
1286.07	1.31485
1289.45	2.0009
1292.82	0.006256
1296.2	1.52225
1299.57	0.068542
1302.95	0.893661
