Measurement: Raman, 532 nm, unoriented, Raman Data Processed
Mineral: Axinite-(Fe)
Rruff sample: R060183
Ideal chemistry: Ca_4_Fe^2+^_2_Al_4_[B_2_Si_8_O_30_](OH)_2_
Locality: Skagit Bluffs, near Manning Park, British Columbia, Canada
Source: Lloyd Twaites
Description: Light-pink transparent axe-head-shaped single crystal
Measured chemistry: Ca_2.00_(Fe^2+^_0.58_Mn_0.23_Mg_0.19_)Al_2.00_B_1.00_Si_4.00_O_15_(OH)
Raman shift (cm-1)	intensity
142.332	0
145.707	16.2784
149.082	68.0298
152.457	130.462
155.832	133.178
159.207	82.4856
162.581	58.5165
165.956	95.7219
169.331	165.492
172.706	152.978
176.081	59.3877
179.455	3.01065
182.83	11.0784
186.205	30.5358
189.58	98.506
192.955	185.272
196.329	173.336
199.704	186.562
203.079	259.592
206.454	326.453
209.829	309.158
213.204	239.29
216.578	166.836
219.953	96.8688
223.328	28.4951
226.703	10.565
230.078	14.2713
233.452	8.73462
236.827	9.3562
240.202	37.6149
243.577	64.3016
246.952	80.3755
250.327	108.323
253.701	141.026
257.076	147.97
260.451	147.697
263.826	166.942
267.201	189.118
270.576	189.55
273.95	171.022
277.325	122.899
280.7	92.4875
284.075	93.9377
287.45	126.456
290.825	185.477
294.199	246.732
297.574	308.416
300.949	355.251
304.324	385.28
307.699	346.184
311.073	206.401
314.448	139.65
317.823	139.056
321.198	113.103
324.573	75.2549
327.947	88.6041
331.322	125.354
334.697	176.333
338.072	265.013
341.447	350.892
344.822	368.761
348.196	313.814
351.571	278.449
354.946	155.743
358.321	41.1268
361.696	6.99434
365.071	20.1885
368.445	12.6465
371.82	5.91992
375.195	28.0281
378.57	57.8201
381.945	101.554
385.32	159.608
388.694	204.994
392.069	197.061
395.444	137.123
398.819	88.0701
402.194	92.2458
405.568	113.734
408.943	164.891
412.318	262.667
415.693	383.198
419.068	429.456
422.442	400.443
425.817	385.183
429.192	329.924
432.567	212.782
435.942	128.153
439.317	107.922
442.691	130.349
446.066	103.338
449.441	27.6969
452.816	2.78102
456.191	3.60898
459.566	3.08148
462.94	7.17433
466.315	33.5741
469.69	75.2083
473.065	92.5274
476.44	114.072
479.815	159.089
483.189	204.604
486.564	172.758
489.939	74.2721
493.314	42.7984
496.689	52.255
500.063	65.7035
503.438	77.2837
506.813	85.2204
510.188	78.8293
513.563	53.7855
516.938	21.6422
520.312	1.78406
523.687	9.01453
527.062	5.13979
530.437	1.21158
533.812	17.3559
537.187	28.3432
540.561	42.5581
543.936	54.9046
547.311	55.1104
550.686	40.2026
554.061	35.9665
557.435	46.1956
560.81	60.9839
564.185	62.7561
567.56	78.4778
570.935	103.526
574.309	130.09
577.684	144.898
581.059	163.589
584.434	190.149
587.809	203.333
591.184	164.7
594.558	96.0192
597.933	63.0926
601.308	61.5795
604.683	73.935
608.058	91.8852
611.433	100.349
614.807	91.0798
618.182	73.4986
621.557	48.6082
624.932	18.605
628.307	2.17545
631.682	2.83652
635.056	1.43921
638.431	5.10461
641.806	7.35185
645.181	6.76822
648.556	3.90452
651.93	6.96629
655.305	4.19585
658.68	6.97157
662.055	31.9445
665.43	64.4623
668.804	105.463
672.179	150.973
675.554	189.385
678.929	161.337
682.304	95.497
685.679	56.2933
689.053	48.3894
692.428	63.2109
695.803	110.584
699.178	203.187
702.553	336.388
705.928	496.477
709.302	666.268
712.677	779.441
716.052	670.962
719.427	392.36
722.802	205.461
726.177	109.615
729.551	59.9479
732.926	32.3602
736.301	16.053
739.676	9.87988
743.051	5.40397
746.425	7.04295
749.8	18.1668
753.175	33.7414
756.55	59.7312
759.925	86.3832
763.299	118.182
766.674	123.045
770.049	103.617
773.424	71.219
776.799	41.4587
780.174	26.1756
783.548	16.1131
786.923	5.804
790.298	3.70509
793.673	1.92611
797.048	0.378464
800.423	3.11951
803.797	5.67561
807.172	7.82941
810.547	10.5093
813.922	7.20689
817.297	4.46846
820.671	0.403564
824.046	4.14149
827.421	2.65146
830.796	5.14311
834.171	1.7962
837.545	0.451347
840.92	1.47002
844.295	6.47207
847.67	10.8976
851.045	11.3774
854.42	14.5142
857.794	13.3371
861.169	15.3632
864.544	16.0421
867.919	14.6942
871.294	17.0659
874.669	21.0523
878.043	25.0103
881.418	33.2163
884.793	50.966
888.168	77.9839
891.543	132.127
894.918	190.755
898.292	252.595
901.667	281.487
905.042	265.707
908.417	199.284
911.792	125.508
915.166	68.5576
918.541	29.9569
921.916	9.50503
925.291	0.75737
928.666	6.26605
932.04	1.83057
935.415	5.84096
938.79	21.7584
942.165	44.9921
945.54	89.714
948.915	148.703
952.289	227.995
955.664	317.575
959.039	417.45
962.414	508.551
965.789	496.615
969.164	431.294
972.538	431.545
975.913	493.611
979.288	515.274
982.663	448.856
986.038	388.851
989.413	372.013
992.787	388.912
996.162	407.976
999.537	428.153
1002.91	401.59
1006.29	317.982
1009.66	206.77
1013.04	120.364
1016.41	74.4851
1019.79	53.2511
1023.16	52.1379
1026.54	49.2723
1029.91	33.1818
1033.29	13.3718
1036.66	3.92796
1040.04	0.219422
1043.41	1.03277
1046.78	-0.465502
1050.16	4.67143
1053.53	8.60053
1056.91	7.42313
1060.28	7.50211
1063.66	1.58248
1067.03	2.10438
1070.41	7.6878
1073.78	21.4321
1077.16	38.2807
1080.53	57.2451
1083.91	55.9213
1087.28	40.8267
1090.66	26.013
1094.03	20.1855
1097.41	18.0078
1100.78	16.4084
1104.16	15.7383
1107.53	15.6436
1110.91	11.9759
1114.28	8.58612
1117.66	8.23217
1121.03	3.72378
1124.4	1.34969
1127.78	0.784561
1131.15	1.95115
1134.53	0.093567
1137.9	1.88934
1141.28	0.286209
1144.65	0.517815
1148.03	0.242905
1151.4	0.482567
1154.78	2.00081
1158.15	1.78864
1161.53	2.83554
1164.9	1.31049
1168.28	4.4798
1171.65	4.29411
1175.03	3.1044
1178.4	2.04521
1181.78	4.93739
1185.15	4.16188
1188.53	5.87307
1191.9	3.86735
1195.28	4.4576
1198.65	2.22138
1202.03	3.53094
1205.4	3.24841
1208.78	2.06354
1212.15	2.05464
1215.53	1.31088
1218.9	2.8004
1222.28	2.82975
1225.65	2.5183
1229.03	1.63877
1232.4	1.76513
1235.77	0.593956
1239.15	2.89225
1242.52	2.38259
1245.9	3.23536
1249.27	1.90191
1252.65	1.06358
1256.02	2.96198
1259.4	3.40855
1262.77	4.53049
1266.15	2.91538
1269.52	3.5979
1272.9	3.47053
1276.27	1.14661
1279.65	0.449524
1283.02	1.86798
1286.4	0.928329
1289.77	0.13327
1293.15	1.8158
1296.52	1.38377
1299.9	0.525558
