Measurement: Raman, 780 nm, unoriented, Raman Data Processed
Mineral: Axinite-(Fe)
Rruff sample: R060183
Ideal chemistry: Ca_4_Fe^2+^_2_Al_4_[B_2_Si_8_O_30_](OH)_2_
Locality: Skagit Bluffs, near Manning Park, British Columbia, Canada
Source: Lloyd Twaites
Description: Light-pink transparent axe-head-shaped single crystal
Measured chemistry: Ca_2.00_(Fe^2+^_0.58_Mn_0.23_Mg_0.19_)Al_2.00_B_1.00_Si_4.00_O_15_(OH)
Raman shift (cm-1)	intensity
142.648	0
145.54	4.52848
148.433	29.6882
151.326	56.8003
154.218	45.1777
157.111	25.2116
160.004	8.45531
162.897	6.8613
165.789	27.3666
168.682	53.5927
171.575	88.4626
174.467	78.0111
177.36	43.8181
180.253	17.54
183.145	0.081123
186.038	5.16212
188.931	1.32671
191.823	20.7431
194.716	38.4241
197.609	29.6145
200.502	35.2489
203.394	65.361
206.287	103.329
209.18	124.018
212.072	128.778
214.965	129.081
217.858	128.173
220.75	106.216
223.643	49.914
226.536	16.0204
229.429	2.01729
232.321	1.75206
235.214	3.28538
238.107	1.778
240.999	7.08289
243.892	7.85878
246.785	5.85078
249.677	15.341
252.57	36.9778
255.463	56.037
258.356	54.9036
261.248	44.9718
264.141	59.3064
267.034	68.9319
269.926	74.6732
272.819	70.3839
275.712	61.8713
278.604	46.1249
281.497	34.3205
284.39	31.8843
287.283	32.8082
290.175	30.7613
293.068	27.1742
295.961	23.4715
298.853	20.9482
301.746	20.3183
304.639	29.5597
307.531	43
310.424	52.9266
313.317	71.1845
316.209	110.802
319.102	157.225
321.995	152.039
324.888	104.079
327.78	78.932
330.673	75.0375
333.566	84.8754
336.458	106.186
339.351	141.665
342.244	177.33
345.137	167.967
348.029	101.841
350.922	58.0657
353.815	32.6443
356.707	10.8158
359.6	0.64827
362.493	5.97553
365.385	4.98287
368.278	3.02574
371.171	3.58327
374.063	7.83423
376.956	10.7088
379.849	13.5039
382.741	24.4914
385.634	46.0275
388.527	61.9373
391.42	59.6498
394.312	42.297
397.205	30.0222
400.098	26.7072
402.99	25.449
405.883	24.2989
408.776	29.8511
411.668	43.8008
414.561	67.5064
417.454	101.419
420.347	132.877
423.239	157.017
426.132	159.585
429.025	134.114
431.917	93.4959
434.81	52.5289
437.703	34.4658
440.596	32.8639
443.488	44.0906
446.381	42.7745
449.274	20.2615
452.166	4.43881
455.059	0.425873
457.952	0.605633
460.844	0.030643
463.737	2.528
466.63	11.5352
469.522	22.488
472.415	29.6332
475.308	33.5257
478.201	45.993
481.093	70.0545
483.986	103.759
486.879	99.2941
489.771	51.5368
492.664	24.9472
495.557	17.035
498.45	17.0823
501.342	16.1266
504.235	13.919
507.128	12.456
510.02	11.0752
512.913	8.4166
515.806	4.14356
518.698	1.21484
521.591	1.06949
524.484	0.761106
527.376	1.4608
530.269	2.07072
533.162	0.649485
536.055	1.88644
538.947	4.99369
541.84	6.91919
544.733	8.21947
547.625	8.0972
550.518	9.7514
553.411	11.1985
556.303	15.1792
559.196	24.0675
562.089	29.0881
564.981	29.1105
567.874	32.9922
570.767	37.4617
573.66	41.2461
576.552	35.647
579.445	24.0289
582.338	16.834
585.23	13.2718
588.123	12.5358
591.016	9.7669
593.909	5.14715
596.801	1.2098
599.694	2.62886
602.587	6.86971
605.479	11.3021
608.372	19.5791
611.265	29.578
614.157	39.9565
617.05	46.4508
619.943	47.1207
622.836	34.2631
625.728	14.8342
628.621	5.88663
631.514	1.31826
634.406	1.87931
637.299	3.25366
640.192	5.67589
643.084	9.16859
645.977	8.09257
648.87	4.97293
651.763	0.550552
654.655	2.10887
657.548	1.4092
660.441	0.109489
663.333	2.6591
666.226	7.52803
669.119	15.0439
672.011	25.5775
674.904	40.3149
677.797	46.5134
680.689	36.4409
683.582	20.8272
686.475	12.869
689.368	9.10884
692.26	8.682
695.153	14.9947
698.046	23.7791
700.938	37.0612
703.831	58.2686
706.724	87.1555
709.616	130.849
712.509	175.643
715.402	188.327
718.294	141.76
721.187	85.6295
724.08	46.2996
726.973	27.5059
729.865	16.2912
732.758	8.40959
735.651	4.79837
738.543	3.47808
741.436	1.28716
744.329	1.61547
747.221	1.39554
750.114	2.43038
753.007	2.19907
755.9	3.09929
758.792	4.04138
761.685	5.74061
764.578	9.7592
767.47	12.2418
770.363	11.2576
773.256	8.17115
776.149	5.78116
779.041	2.83241
781.934	3.51485
784.827	0.308523
787.719	0.172831
790.612	0.353096
793.505	0.531633
796.397	0.906261
799.29	0.41711
802.183	0.951303
805.075	0.189362
807.968	2.05711
810.861	2.9598
813.754	4.59426
816.646	2.34983
819.539	0.187222
822.432	0.080961
825.324	0.108751
828.217	0.436607
831.11	0.290339
834.002	0.055563
836.895	0.776512
839.788	1.31581
842.681	3.06019
845.573	4.89329
848.466	6.58673
851.359	6.5458
854.251	6.97642
857.144	6.66143
860.037	5.70165
862.929	6.25665
865.822	5.18836
868.715	4.18757
871.607	3.93099
874.5	3.63579
877.393	3.37865
880.286	2.92519
883.178	4.31901
886.071	8.01126
888.964	12.6069
891.856	20.7085
894.749	33.8478
897.642	47.8741
900.534	65.0453
903.427	78.2514
906.32	75.1621
909.213	59.2412
912.105	42.5574
914.998	26.6711
917.891	14.6283
920.783	5.94917
923.676	1.21387
926.569	0.965427
929.462	1.40834
932.354	1.29346
935.247	1.51519
938.14	4.99168
941.032	12.2875
943.925	20.84
946.818	34.328
949.71	50.6252
952.603	68.8244
955.496	83.5143
958.388	101.349
961.281	130.047
964.174	145.562
967.067	130.219
969.959	105.505
972.852	91.2866
975.745	95.1491
978.637	104.146
981.53	101.98
984.423	88.2594
987.315	78.6253
990.208	73.6803
993.101	68.9851
995.994	65.4407
998.886	63.0223
1001.78	59.9815
1004.67	51.3372
1007.56	38.3013
1010.46	28.3732
1013.35	15.9899
1016.24	8.2958
1019.13	3.2656
1022.03	1.81412
1024.92	2.38372
1027.81	3.55745
1030.71	1.79977
1033.6	0.753258
1036.49	1.23212
1039.38	1.23138
1042.28	0.454248
1045.17	0.183954
1048.06	1.85571
1050.95	3.91068
1053.85	4.82663
1056.74	7.0147
1059.63	7.09411
1062.53	5.96448
1065.42	3.06584
1068.31	3.47498
1071.2	2.82472
1074.1	4.395
1076.99	6.9509
1079.88	8.52728
1082.77	10.4592
1085.67	9.4474
1088.56	7.89562
1091.45	5.49724
1094.35	3.59217
1097.24	1.76726
1100.13	2.00907
1103.02	2.27192
1105.92	4.23783
1108.81	2.96787
1111.7	1.76032
1114.59	1.66317
1117.49	1.27745
1120.38	0.683165
1123.27	0.762793
1126.16	0.344376
1129.06	0.024133
1131.95	1.01445
1134.84	0.865546
1137.74	0.774728
1140.63	0.675418
1143.52	0.32188
1146.41	0.352416
1149.31	1.03377
1152.2	0.22649
1155.09	0.934181
1157.98	0.421346
1160.88	1.02467
1163.77	0.161114
1166.66	0.621083
1169.56	0.658465
1172.45	0.798727
1175.34	1.64733
1178.23	2.08274
1181.13	0.999319
1184.02	1.90325
1186.91	2.69199
1189.8	1.4642
1192.7	1.26516
1195.59	1.78342
1198.48	1.15617
1201.38	1.98297
1204.27	0.247555
1207.16	0.430539
1210.05	0.09995
1212.95	0.377948
1215.84	0.744903
1218.73	0.418777
1221.62	0.471347
1224.52	1.52826
1227.41	0.91803
1230.3	0.662762
1233.19	1.06257
1236.09	0.989079
1238.98	1.23411
1241.87	0.571204
1244.77	1.61228
1247.66	0.764337
1250.55	0.160734
1253.44	0.597481
1256.34	0.780502
1259.23	0.591328
1262.12	0.910618
1265.01	0.839208
1267.91	0.086864
1270.8	1.57784
1273.69	1.13208
1276.59	1.09967
1279.48	0.471505
1282.37	0.608355
1285.26	0.40755
