Measurement: Raman, 514 nm, unoriented, Raman Data Processed
Mineral: Axinite-(Mn)
Rruff sample: R050299
Ideal chemistry: Ca_2_Mn^2+^Al_2_BSi_4_O_15_(OH)
Locality: Dalnegorsk, Russia
Source: Eugene Schlepp
Description: Brown axe-head-shaped crystal
Measured chemistry: Ca_2.00_(Mn_0.64_Fe^2+^_0.34_Mg_0.02_)Al_2.00_B_1.00_Si_4.00_O_15_(OH)
Raman shift (cm-1)	intensity
114.254	0
118.424	363.01
122.592	29.0615
126.758	199.742
130.922	1620.65
135.083	5996.92
139.243	9571.25
143.401	7157.15
147.557	5971.89
151.711	2153.93
155.863	429.464
160.013	165.434
164.161	994.577
168.308	3429.7
172.452	3989.63
176.594	1477.49
180.734	25.5767
184.872	205.116
189.008	673.465
193.143	1052.17
197.275	1129.01
201.405	3279.99
205.534	9175.19
209.66	12705.4
213.784	8403.82
217.907	4898.7
222.027	1451.41
226.146	193.106
230.263	116.047
234.377	686.583
238.49	370.959
242.601	650.815
246.709	1892.22
250.816	6935.35
254.921	8774.6
259.024	4697.92
263.125	4477.43
267.224	7050.14
271.321	10733
275.416	12523.2
279.51	8604.42
283.601	8250.03
287.69	8463.02
291.778	6915.38
295.863	6104.49
299.947	5111.34
304.029	5147.18
308.108	5681.72
312.186	9015.86
316.262	17580.9
320.336	21143.6
324.408	13636.9
328.478	8730.76
332.546	8159.28
336.612	12576.9
340.677	14327.7
344.739	8824.73
348.799	4022
352.858	1862.69
356.915	681.408
360.969	210.083
365.022	49.145
369.073	119.162
373.122	302.139
377.169	594.833
381.215	2188.68
385.258	4171.68
389.299	3103.37
393.339	1759.65
397.376	1186.34
401.412	1025.54
405.446	1643.62
409.478	3947.27
413.508	8402
417.536	8089.82
421.562	7351.72
425.586	7135.7
429.609	7808.75
433.629	6331.87
437.648	4811.06
441.665	7474.24
445.68	5313.16
449.693	2056.19
453.704	906.368
457.713	245.603
461.721	29.5005
465.726	69.042
469.73	23.8359
473.731	221.707
477.731	633.906
481.729	1315.59
485.725	910.896
489.72	82.8833
493.712	196.815
497.703	190.232
501.691	11.8193
505.678	552.692
509.663	1437.84
513.646	1096.6
517.627	193.626
521.607	165.898
525.584	101.085
529.56	36.6826
533.534	431.709
537.506	1084.09
541.476	1885.46
545.444	2115.81
549.41	1906.14
553.375	2878.5
557.337	4418.85
561.298	3052.17
565.257	1764.45
569.214	1557.69
573.17	1356.89
577.123	1246.04
581.075	1759.13
585.024	2220.17
588.972	1707.14
592.918	1214.06
596.863	585.903
600.805	400.683
604.746	544.393
608.685	951.034
612.621	1049.6
616.557	1580.09
620.49	1523.06
624.421	743.296
628.351	582.775
632.279	885.341
636.205	2102.65
640.129	3611
644.051	3721.42
647.972	1576.22
651.89	632.515
655.807	316.102
659.722	154.441
663.636	355.829
667.547	1003.51
671.457	2323.8
675.365	4587.38
679.271	4623.81
683.175	2611.41
687.077	1616.1
690.978	1368.95
694.877	1947.64
698.774	3209.17
702.669	6084.53
706.562	12782.7
710.454	24615.8
714.344	29965.6
718.232	18443.3
722.118	9098.88
726.002	4582.26
729.885	2675.47
733.766	1647.53
737.645	1155.43
741.522	840.287
745.397	597.757
749.271	610.187
753.143	700.462
757.013	1053.58
760.881	1303.55
764.748	1641.36
768.613	1440.03
772.476	913.539
776.337	518.916
780.196	214.256
784.054	4.54688
787.91	90.519
791.764	150.398
795.616	157.264
799.467	212.258
803.316	71.4946
807.163	179.775
811.008	332.341
814.851	95.5015
818.693	68.8374
822.533	107.68
826.371	13.1655
830.208	29.8506
834.042	122.544
837.875	317.996
841.706	504.432
845.536	734.812
849.363	937.104
853.189	1201.33
857.013	1484.52
860.836	1803.7
864.656	1853.84
868.475	1826
872.292	1723.15
876.108	1603.38
879.922	1500.61
883.733	1428.92
887.544	1391.04
891.352	1753.72
895.159	2292.11
898.964	2972.45
902.767	2783.77
906.568	1979.04
910.368	1492.33
914.166	1143.59
917.962	1136.83
921.757	1442.04
925.55	1837.25
929.341	1919.43
933.13	1901.55
936.918	2070.32
940.703	2687.76
944.488	3818.69
948.27	5424.01
952.051	7074.14
955.83	10201.9
959.607	15619.8
963.383	17200.9
967.156	14491.6
970.928	14677.7
974.699	17932.9
978.468	16512.7
982.234	11125.7
986	8167.6
989.763	6822.62
993.525	7092.48
997.285	7803.33
1001.04	7182.54
1004.8	5429.6
1008.55	3705.64
1012.31	2477.82
1016.06	1666.77
1019.81	1253.48
1023.56	1131.21
1027.31	983.749
1031.05	816.825
1034.79	890.06
1038.53	892.791
1042.27	899.947
1046.01	1255.09
1049.75	1835.13
1053.48	2572.85
1057.22	2678.4
1060.95	1741.65
1064.68	1355.1
1068.4	1374.89
1072.13	1718.24
1075.86	2743.47
1079.58	4079.29
1083.3	3800.11
1087.02	2779.34
1090.74	1482.1
1094.45	1028.74
1098.17	835.37
1101.88	710.439
1105.59	600.833
1109.3	454.564
1113.01	389.072
1116.71	259.807
1120.42	262.409
1124.12	413.723
1127.82	261.482
1131.52	144.278
1135.22	28.1831
1138.91	84.1577
1142.61	12.1245
1146.3	34.7383
1149.99	14.8906
1153.68	4.35352
1157.37	59.4717
1161.06	11.1016
1164.74	86.8115
1168.42	2.93164
1172.1	62.7383
1175.78	51.5591
1179.46	0.755371
1183.14	40.7808
1186.81	45.9946
1190.48	7.57031
1194.15	46.3237
1197.83	27.4673
1201.49	26.3975
1205.16	140.839
1208.82	15.0869
1212.49	16.5933
1216.15	4.56348
1219.81	41.8364
1223.46	95.2422
1227.12	53.023
1230.78	90.5205
1234.43	75.4688
1238.08	136.958
1241.73	160.532
1245.38	47.2168
1249.03	24.833
1252.67	52.7534
1256.31	70.1343
1259.95	93.2827
1263.6	101.557
1267.23	87.3838
1270.87	42.2353
1274.51	123.295
1278.14	53.2988
1281.77	83.1211
1285.4	143.835
1289.03	37.6152
1292.66	17.606
1296.28	72.5361
1299.91	70.0884
1303.53	31.3018
1307.15	4.39893
1310.77	393.275
1314.38	542.488
1318	465.889
1321.61	89.624
1325.23	81.7012
1328.84	22.0605
1332.45	34.4868
1336.06	22.146
1339.66	60.1294
1343.27	59.4663
1346.87	11.3696
1350.47	144.593
1354.07	57.1235
1357.67	200.564
1361.26	202.487
1364.86	185.241
1368.45	204.754
1372.04	144.691
1375.63	53.5723
1379.22	42.3589
1382.81	21.6245
1386.39	102.298
1389.98	111.481
1393.56	59.2568
1397.14	27.2539
1400.72	42.4219
1404.3	117.163
1407.87	74.1963
1411.45	72.9893
1415.02	194.748
1418.59	148.812
1422.16	220.011
1425.73	233.726
1429.29	164.835
1432.86	228.501
1436.42	308.323
1439.98	193.506
1443.54	212.79
1447.1	151.881
1450.66	164.482
1454.21	212.397
1457.77	240.519
1461.32	214.435
1464.87	171.797
1468.42	44.333
1471.96	167.85
1475.51	265.769
1479.06	223.087
1482.6	121.244
1486.14	147.32
1489.68	124.99
1493.22	238.452
1496.75	171.529
1500.29	90.6748
1503.82	93.6455
1507.35	75.0361
1510.88	120.165
1514.41	75.4531
1517.94	64.0664
