Measurement: Raman, 780 nm, unoriented, Raman Data Processed
Mineral: Axinite-(Fe)
Rruff sample: R060194
Ideal chemistry: Ca_4_Fe^2+^_2_Al_4_[B_2_Si_8_O_30_](OH)_2_
Locality: near Dalbandi, Baluchistan Province, Pakistan
Source: Herbert Obodda
Description: Brown transparent wedge-shaped single crystal
Measured chemistry: Ca_2.00_(Fe^2+^_0.66_Mg_0.30_Mn_0.04_)Al_2.00_BSi_4.00_O_15_(OH)
Raman shift (cm-1)	intensity
134.736	0
137.628	13.8432
140.521	74.7136
143.414	68.6845
146.306	79.8939
149.199	250.179
152.092	509.078
154.984	542.316
157.877	602.334
160.77	501.396
163.662	537.498
166.555	835.781
169.448	1434.82
172.341	1261.82
175.233	651.753
178.126	272.58
181.019	85.1598
183.911	24.6643
186.804	35.2843
189.697	10.6353
192.589	164.318
195.482	266.286
198.375	182.814
201.268	263.678
204.16	444.517
207.053	717.727
209.946	938.784
212.838	945.404
215.731	741.823
218.624	503.495
221.517	313.714
224.409	148.572
227.302	57.3252
230.195	5.31354
233.087	28.1155
235.98	26.6014
238.873	2.72925
241.765	50.168
244.658	141.416
247.551	204.224
250.444	241.88
253.336	291.482
256.229	293.048
259.122	256.286
262.014	299.051
264.907	427.115
267.8	611.749
270.692	798.906
273.585	880.467
276.478	789.936
279.37	588.03
282.263	378.545
285.156	275.749
288.049	276.051
290.941	397.337
293.834	607.642
296.727	845
299.619	1039.02
302.512	1085.92
305.405	1114.43
308.298	1022.6
311.19	771.754
314.083	636.481
316.976	748.513
319.868	829.246
322.761	510.496
325.654	233.009
328.546	126.983
331.439	112.719
334.332	110.554
337.224	172.73
340.117	320.531
343.01	577.231
345.903	792.6
348.795	772.195
351.688	887.286
354.581	816.059
357.473	423.878
360.366	168.287
363.259	42.5487
366.151	36.2366
369.044	25.0594
371.937	31.373
374.83	17.4528
377.722	7.58295
380.615	52.7332
383.508	157.991
386.4	369.35
389.293	627.509
392.186	769.611
395.079	784.429
397.971	538.03
400.864	333.898
403.757	236.254
406.649	180.081
409.542	181.76
412.435	220.773
415.327	321.048
418.22	491.812
421.113	545.943
424.005	675.626
426.898	960.011
429.791	1237.75
432.684	1153.49
435.576	710.342
438.469	380.651
441.362	285.068
444.254	322.943
447.147	283.818
450.04	126.186
452.933	36.1713
455.825	7.58606
458.718	1.18283
461.611	7.55264
464.503	5.99036
467.396	33.4095
470.289	68.9138
473.181	90.6523
476.074	57.8518
478.967	74.0895
481.86	169.104
484.752	287.653
487.645	265.349
490.538	101.503
493.43	19.7034
496.323	3.01077
499.216	12.4441
502.108	34.2576
505.001	56.4248
507.894	115.319
510.786	164.911
513.679	199.134
516.572	153.992
519.465	96.8143
522.357	44.0456
525.25	24.9759
528.143	8.58939
531.035	17.5665
533.928	4.12674
536.821	29.0716
539.713	74.9745
542.606	155.98
545.499	214.718
548.392	205.739
551.284	139.528
554.177	109.784
557.07	127.982
559.962	212.294
562.855	237.764
565.748	174.233
568.64	159.15
571.533	178.668
574.426	229.953
577.319	239.565
580.211	244.847
583.104	279.951
585.997	384.613
588.889	510.065
591.782	474.184
594.675	289.845
597.567	162.906
600.46	94.501
603.353	66.6817
606.246	96.1915
609.138	129.667
612.031	145.917
614.924	162.902
617.816	141.663
620.709	129.4
623.602	78.5842
626.495	32.4815
629.387	15.8625
632.28	11.3213
635.173	12.5634
638.065	14.1457
640.958	26.6267
643.851	59.1982
646.743	60.1173
649.636	28.7222
652.529	2.78864
655.422	2.77588
658.314	6.74399
661.207	16.4782
664.1	41.3469
666.992	107.248
669.885	192.157
672.778	342.449
675.67	516.174
678.563	542.445
681.456	365.864
684.348	202.034
687.241	116.632
690.134	93.0206
693.027	110.543
695.919	148.178
698.812	245.286
701.705	402.853
704.597	647.036
707.49	1074.46
710.383	1699.2
713.275	2280.3
716.168	2129.13
719.061	1384.98
721.954	787.207
724.846	452.252
727.739	265.33
730.632	168.844
733.524	107.37
736.417	60.0058
739.31	37.8804
742.202	14.9347
745.095	14.5839
747.988	9.87878
750.881	23.993
753.773	23.1566
756.666	51.0602
759.559	86.7938
762.451	143.446
765.344	208.883
768.237	233.082
771.13	196.359
774.022	141.129
776.915	90.9573
779.808	55.3921
782.7	33.7709
785.593	29.7388
788.486	7.34479
791.378	9.18556
794.271	14.9017
797.164	0.278152
800.057	14.2266
802.949	6.06572
805.842	20.8669
808.735	14.6847
811.627	30.458
814.52	33.1183
817.413	11.9045
820.305	3.42607
823.198	4.63843
826.091	3.55704
828.984	5.16484
831.876	0.043198
834.769	2.14377
837.662	15.4633
840.554	8.92258
843.447	1.80223
846.34	4.98506
849.232	14.6086
852.125	15.6626
855.018	18.7573
857.91	20.5033
860.803	32.5624
863.696	37.8639
866.589	47.3924
869.481	53.7927
872.374	43.4175
875.267	32.7746
878.159	22.7542
881.052	46.6868
883.945	34.507
886.837	52.5758
889.73	68.0607
892.623	88.9535
895.516	132.397
898.408	185.006
901.301	215.283
904.194	257.055
907.086	239.321
909.979	169.676
912.872	99.0868
915.764	44.8787
918.657	4.58534
921.55	11.6947
924.443	0.978073
927.335	0.765579
930.228	2.11558
933.121	4.14612
936.013	3.12308
938.906	1.5045
941.799	6.80368
944.692	13.0321
947.584	40.0494
950.477	90.259
953.37	140.796
956.262	248.397
959.155	392.486
962.048	584.981
964.94	702.849
967.833	650.775
970.726	540.508
973.619	525.601
976.511	636.894
979.404	744.682
982.297	728.485
985.189	598.971
988.082	472.95
990.975	429.715
993.867	416.326
996.76	454.009
999.653	484.12
1002.54	492.977
1005.44	437.01
1008.33	336.238
1011.22	195.513
1014.12	105.227
1017.01	34.9441
1019.9	9.71692
1022.79	6.06564
1025.69	0.916351
1028.58	0.654755
1031.47	26.7506
1034.37	9.95012
1037.26	26.7099
1040.15	44.5277
1043.04	44.9764
1045.94	48.8706
1048.83	68.086
1051.72	111.527
1054.61	118.841
1057.51	143.246
1060.4	111.67
1063.29	79.6236
1066.18	46.7653
1069.08	27.1468
1071.97	14.1037
1074.86	47.6026
1077.76	85.0951
1080.65	165.252
1083.54	231.804
1086.43	226.253
1089.33	130.916
1092.22	81.8144
1095.11	50.2216
1098.01	37.3971
1100.9	29.3371
1103.79	20.8105
1106.68	33.9946
1109.58	18.8365
1112.47	6.82318
1115.36	4.60947
1118.25	5.50676
1121.15	0.784637
1124.04	2.81509
1126.93	7.77538
1129.82	2.46399
1132.72	2.11471
1135.61	9.77946
1138.5	1.27433
1141.39	6.95287
1144.29	0.896744
1147.18	9.67376
1150.07	18.37
1152.97	7.62821
1155.86	12.4157
1158.75	11.8597
1161.64	6.84197
1164.54	10.8514
1167.43	22.7093
1170.32	23.1375
1173.21	25.4072
1176.11	19.1345
1179	15.1828
1181.89	21.5264
1184.79	22.5556
1187.68	32.8152
1190.57	29.5427
1193.46	22.3297
1196.36	15.8997
1199.25	21.9448
1202.14	26.9197
1205.03	25.4614
1207.93	13.0531
1210.82	21.5058
1213.71	18.456
1216.61	20.6034
1219.5	23.3337
1222.39	24.8299
1225.28	14.1715
1228.18	16.3335
1231.07	33.0055
1233.96	5.1186
1236.85	10.1278
1239.75	17.2332
1242.64	14.1759
1245.53	10.5327
1248.42	22.8702
1251.32	9.57679
1254.21	15.4342
1257.1	27.3698
1260	29.5164
1262.89	19.072
1265.78	22.2335
1268.67	9.3536
1271.57	5.50246
1274.46	1.87011
1277.35	6.78284
1280.24	1.26292
1283.14	5.35504
