Measurement: Raman, 532 nm, unoriented, Raman Data Processed
Mineral: Axinite-(Fe)
Rruff sample: R040074
Ideal chemistry: Ca_4_Fe^2+^_2_Al_4_[B_2_Si_8_O_30_](OH)_2_
Locality: Luning, Nevada, USA
Source: University of Arizona Mineral Museum
Description: Pale brown wedge-shaped crystal
Measured chemistry: (Ca_0.98_Mn_0.01_)_2_(Fe_0.41_Mg_0.39_Mn_0.20_)Al_1.95_B_1.20_Si_3.90_O_15_(OH)
Raman shift (cm-1)	intensity
123.011	0
126.386	45.5273
129.761	110.67
133.135	326.179
136.51	848.366
139.885	1558.38
143.26	1885.37
146.635	1580.19
150.009	1382.37
153.384	891.639
156.759	534.576
160.134	543.154
163.509	665.912
166.883	1031.31
170.258	1518.08
173.633	1162.16
177.008	489.307
180.383	123.935
183.757	14.2048
187.132	221.993
190.507	677.632
193.882	1092.07
197.257	774.621
200.632	983.758
204.006	1488.07
207.381	1757.87
210.756	1536.05
214.131	1332.99
217.506	905.639
220.881	468.76
224.255	119.201
227.63	50.9258
231.005	22.6725
234.38	36.0496
237.755	64.3008
241.129	154.544
244.504	294.994
247.879	563.992
251.254	843.124
254.629	1053.86
258.003	1210.06
261.378	1520.18
264.753	2120.85
268.128	2758.26
271.503	2999.87
274.877	2778.78
278.252	2108.21
281.627	1490.82
285.002	1285.98
288.377	1362.5
291.752	1524.63
295.126	1865.4
298.501	2266.63
301.876	2410.23
305.251	2420.32
308.626	2203.92
312	1781.27
315.375	1700.99
318.75	1783.91
322.125	1460.31
325.5	920.724
328.875	714.308
332.249	681.261
335.624	759.47
338.999	1157.12
342.374	1867.28
345.749	2145.16
349.123	1856.32
352.498	1917.64
355.873	1197.12
359.248	332.829
362.623	80.8519
365.998	30.4185
369.372	18.2286
372.747	32.3748
376.122	50.2186
379.497	133.166
382.872	440.952
386.246	930.349
389.621	1430.89
392.996	1299.41
396.371	691.677
399.746	434.844
403.12	535.06
406.495	776.9
409.87	1302.33
413.245	2138.93
416.62	3370.96
419.995	2737.37
423.369	2209.67
426.744	2336.24
430.119	2305.94
433.494	1744.08
436.869	1073.31
440.243	825.763
443.618	891
446.993	654.97
450.368	229.692
453.743	47.7151
457.118	30.2734
460.492	29.1536
463.867	36.1369
467.242	71.634
470.617	178.454
473.992	429.205
477.366	761.497
480.741	1275.66
484.116	1935.68
487.491	1549.8
490.866	600.048
494.24	398.526
497.615	526.765
500.99	812.849
504.365	1131.84
507.74	1437.7
511.115	1321.99
514.489	885.28
517.864	389.778
521.239	124.334
524.614	29.6613
527.989	7.57157
531.364	27.8098
534.738	92.2402
538.113	148.302
541.488	276.135
544.863	369.415
548.237	285.411
551.612	275.683
554.987	336.222
558.362	529.915
561.737	599.059
565.112	563.013
568.486	715.093
571.861	965.675
575.236	1076.25
578.611	1000.78
581.986	991.2
585.361	1164.08
588.735	1262.51
592.11	867.072
595.485	394.895
598.86	182.924
602.235	90.0234
605.609	128.955
608.984	160.256
612.359	168.696
615.734	227.084
619.109	206.38
622.484	120.671
625.858	4.21509
629.233	0.242676
632.608	6
635.983	86.8354
639.357	150.556
642.732	276.728
646.107	201
649.482	42.9236
652.857	3.88678
656.232	3.17833
659.606	14.8765
662.981	86.6711
666.356	246.247
669.731	493.335
673.106	768.677
676.481	966.322
679.855	767.043
683.23	429.008
686.605	288.523
689.98	271.965
693.355	415.788
696.729	722.927
700.104	1252.69
703.479	2116.62
706.854	3502.81
710.229	5030.16
713.604	6345.04
716.978	5127.47
720.353	2810.06
723.728	1463.54
727.103	809.713
730.478	467.071
733.852	275.373
737.227	181
740.602	136.066
743.977	148.393
747.352	158.794
750.726	222.662
754.101	325.651
757.476	475.447
760.851	692.227
764.226	896.648
767.601	1058.6
770.975	857.79
774.35	496.431
777.725	308.937
781.1	160.84
784.475	71.5352
787.849	7.66675
791.224	6.26465
794.599	13.719
797.974	24.9089
801.349	7.56836
804.723	21.0794
808.098	147.841
811.473	210.139
814.848	123.12
818.223	52.3445
821.598	5.07983
824.972	6.35938
828.347	6.91528
831.722	46.6206
835.097	27.4854
838.472	77.9763
841.846	108.392
845.221	149.742
848.596	191.445
851.971	214.227
855.346	172.636
858.721	141.358
862.095	92.2629
865.47	102.857
868.845	37.0796
872.22	28.5056
875.595	43.3503
878.97	14.3227
882.344	48.667
885.719	205.945
889.094	406.882
892.469	779.377
895.843	1201.81
899.218	1485.49
902.593	1410.28
905.968	1149.31
909.343	830.753
912.718	438.299
916.092	169.069
919.467	24.7676
922.842	28.5679
926.217	38.9092
929.592	186.205
932.966	105.454
936.341	18.4145
939.716	32.0166
943.091	135.554
946.466	400.863
949.841	793.003
953.215	1091.29
956.59	1472.76
959.965	1962.14
963.34	2486.54
966.715	2414.06
970.09	2099.82
973.464	2393.19
976.839	2941.34
980.214	3022.36
983.589	2422.77
986.964	2088.68
990.338	1979.39
993.713	2080.43
997.088	2160.44
1000.46	2550.2
1003.84	2802.12
1007.21	2341.9
1010.59	1486.58
1013.96	789.837
1017.34	300.751
1020.71	276.075
1024.09	281.178
1027.46	339.887
1030.84	203.54
1034.21	83.3809
1037.59	33.5337
1040.96	51.916
1044.34	26.3686
1047.71	26.6025
1051.09	43.4595
1054.46	52.627
1057.84	116.176
1061.21	91.5147
1064.58	1.34228
1067.96	22.5591
1071.33	48.8911
1074.71	154.81
1078.08	293.257
1081.46	496.84
1084.83	478.853
1088.21	303.811
1091.58	152.756
1094.96	118.165
1098.33	163.141
1101.71	168.499
1105.08	241.088
1108.46	203.43
1111.83	174.099
1115.21	133.467
1118.58	109.053
1121.96	42.6582
1125.33	26.396
1128.71	5.43799
1132.08	18.7334
1135.45	74.8135
1138.83	64.7217
1142.2	63.4683
1145.58	44.3447
1148.95	1.4917
1152.33	4.97754
1155.7	66.3564
1159.08	48.7012
1162.45	40.1562
1165.83	81.3281
1169.2	9.95459
1172.58	28.6616
1175.95	98.2915
1179.33	62.5654
1182.7	57.4326
1186.08	38.9141
1189.45	82.3794
1192.83	60.1992
1196.2	37.5332
1199.58	36.6714
1202.95	21.8452
1206.33	10.7398
1209.7	60.3594
1213.08	79.1543
1216.45	60.5977
1219.83	72.1362
1223.2	92.9941
1226.58	89.5054
1229.95	74.438
1233.33	54.5981
1236.7	78.9961
1240.08	71.3013
1243.45	24.895
1246.82	134.281
1250.2	157.17
1253.57	148.306
1256.95	90.6562
1260.32	70.7481
1263.7	52.8257
1267.07	0.420898
1270.45	48.2637
1273.82	136.596
1277.2	40.4434
1280.57	17.793
1283.95	17.9609
