Measurement: Raman, 532 nm, unoriented, Raman Data Processed
Mineral: Axinite-(Mn)
Rruff sample: R061121
Ideal chemistry: Ca_2_Mn^2+^Al_2_BSi_4_O_15_(OH)
Locality: Franklin, Sussex County, New Jersey, USA
Source: Michael Scott
Description: Honey-yellow massive associated with pink rhodonite
Measured chemistry: (Ca_1.93_Mn_0.07_)_Σ=2_(Mn^2+^_0.87_Zn_0.08_Fe^2+^_0.05_)_Σ=1_(Al_1.95_Fe^3+^_0.05_)_Σ=2_BSi_4.00_O_15_(OH); OH and B assumed by stoichiometry
Raman shift (cm-1)	intensity
122.047	0
124.94	363.681
127.832	1293.66
130.725	847.547
133.618	71.1045
136.51	30.9595
139.403	243.531
142.296	383.621
145.189	844.135
148.081	967.486
150.974	890.278
153.867	329.464
156.759	473.117
159.652	317.339
162.545	446.154
165.437	1045.19
168.33	1925.15
171.223	2184.88
174.115	1828.29
177.008	1403.39
179.901	1068.59
182.794	621.276
185.686	685.091
188.579	1092.69
191.472	1961.78
194.364	1114.77
197.257	1067.49
200.15	1789.19
203.042	2960.24
205.935	3403.79
208.828	3219.14
211.721	2522.36
214.613	1418.11
217.506	714.995
220.399	210.81
223.291	81.1704
226.184	49.9764
229.077	44.298
231.969	62.9696
234.862	101.576
237.755	269.262
240.648	581.351
243.54	807.103
246.433	740.83
249.326	745.8
252.218	1095.24
255.111	1085.17
258.004	735.219
260.896	793.921
263.789	1066.61
266.682	1062.8
269.575	1108.26
272.467	1249.47
275.36	1279.33
278.253	824.194
281.145	619.54
284.038	589.571
286.931	610.502
289.823	608.973
292.716	862.084
295.609	1445.84
298.502	2173.05
301.394	2408.9
304.287	2731.55
307.18	2043.87
310.072	1130.82
312.965	941.968
315.858	1092.04
318.75	1561.86
321.643	1609.73
324.536	1141.56
327.428	907.744
330.321	1031.91
333.214	1457.16
336.107	2134.32
338.999	2678.9
341.892	2325.65
344.785	1926.03
347.677	1783.44
350.57	1844.69
353.463	1091.99
356.355	302.572
359.248	94.013
362.141	23.6048
365.034	-4.58506
367.926	-12.145
370.819	20.4364
373.712	115.54
376.604	250.279
379.497	543.873
382.39	1103.53
385.282	1746.73
388.175	1983.61
391.068	1563.89
393.961	1100.21
396.853	831.859
399.746	702.456
402.639	753.786
405.531	1114.54
408.424	1847.94
411.317	2895.11
414.209	3902.05
417.102	4053.66
419.995	3801.89
422.887	3081.71
425.78	2482.26
428.673	1528.08
431.566	888.222
434.458	483.159
437.351	433.101
440.244	599.879
443.136	582.616
446.029	291.62
448.922	85.048
451.815	1.65204
454.707	-6.3994
457.6	-1.49333
460.493	35.5945
463.385	115.887
466.278	332.023
469.171	604.556
472.063	835.64
474.956	1345.28
477.849	2045.44
480.741	2703.58
483.634	2534.57
486.527	1111.43
489.42	529.683
492.312	452.2
495.205	498.719
498.098	719.461
500.99	868.935
503.883	894.771
506.776	755.815
509.668	530.094
512.561	324.198
515.454	113.66
518.347	51.6455
521.239	14.4478
524.132	8.92024
527.025	46.1391
529.917	87.5606
532.81	215.179
535.703	258.311
538.595	327.381
541.488	419.819
544.381	491.575
547.274	583.52
550.166	711.637
553.059	906.054
555.952	1145.86
558.844	1270.21
561.737	1259.64
564.63	1314.67
567.522	1496.39
570.415	1579.72
573.308	1508.82
576.201	1569.75
579.093	1649.7
581.986	1780.54
584.879	1985.59
587.771	1722.61
590.664	1221.96
593.557	1030.38
596.449	949.73
599.342	964.253
602.235	1082.95
605.128	1172.72
608.02	1187.79
610.913	1209.47
613.806	1251.32
616.698	1219.65
619.591	1031.79
622.484	735.202
625.376	448.455
628.269	248.901
631.162	155.652
634.054	5.17481
636.947	18.7354
639.84	24.7935
642.732	48.563
645.625	22.2715
648.518	17.6245
651.411	84.9912
654.303	11.4146
657.196	16.582
660.089	128.905
662.981	347.195
665.874	563.26
668.767	797.677
671.659	1247.37
674.552	1754.74
677.445	2010.56
680.338	1617.55
683.23	1069.55
686.123	699.519
689.016	540.882
691.908	655.086
694.801	751.244
697.694	1107.15
700.587	1787.1
703.479	2643.94
706.372	3981.78
709.265	5720.5
712.157	7531.53
715.05	7092.4
717.943	4794.48
720.835	2650.3
723.728	1440.35
726.621	793.145
729.514	575.288
732.406	363.153
735.299	255.219
738.192	161.66
741.084	172.199
743.977	156.394
746.87	185.07
749.762	256.656
752.655	364.49
755.548	515.113
758.441	630.302
761.333	832.845
764.226	1017.38
767.119	1038.23
770.011	913.281
772.904	695.195
775.797	499.194
778.689	297.568
781.582	189.826
784.475	122.649
787.367	101.987
790.26	83.2347
793.153	41.3202
796.045	34.7207
798.938	24.8047
801.831	54.0185
804.724	17.7334
807.616	32.2432
810.509	13.7744
813.402	19.0342
816.294	78.8603
819.187	26.5146
822.08	274.462
824.972	221.394
827.865	236.856
830.758	296.175
833.651	363.789
836.543	428.833
839.436	399.312
842.329	409.938
845.221	443.47
848.114	640.937
851.007	688.533
853.899	579.717
856.792	487.889
859.685	561.052
862.578	582.048
865.47	540.376
868.363	518.667
871.256	434.8
874.148	485.836
877.041	563.625
879.934	671.954
882.827	868.831
885.719	1344.55
888.612	2117.72
891.505	3045.94
894.397	3808.4
897.29	4414.67
900.183	4279.43
903.075	3517.79
905.968	2740.71
908.861	1996.16
911.754	1220.96
914.646	610.354
917.539	288.621
920.432	115.695
923.324	27.6641
926.217	4.70117
929.11	59.1523
932.002	101.902
934.895	66.8203
937.788	335.674
940.681	692.326
943.573	1237.21
946.466	1655.77
949.359	2305.01
952.251	2742.49
955.144	3709.05
958.037	4913.11
960.929	5322.81
963.822	4632.69
966.715	3976.93
969.607	3769.4
972.5	3887.5
975.393	4017.92
978.285	3557.06
981.178	3324.29
984.071	3363.62
986.964	3406.16
989.856	3660.74
992.749	3892.46
995.642	4422.57
998.534	4652.57
1001.43	4272.9
1004.32	3274.91
1007.21	2189.81
1010.11	1224.58
1013	786.936
1015.89	483.672
1018.78	429.596
1021.68	428.09
1024.57	303.879
1027.46	165.178
1030.35	73.4941
1033.25	73.1269
1036.14	24.3516
1039.03	7.46289
1041.92	166.033
1044.82	155.182
1047.71	426.914
1050.6	754.518
1053.5	729.119
1056.39	606.693
1059.28	313.533
1062.17	32.7637
1065.07	48.9102
1067.96	14.8398
1070.85	228.043
1073.74	348.283
1076.64	525.117
1079.53	458.467
1082.42	408.834
1085.32	266.887
1088.21	128.258
1091.1	126.654
1093.99	108.127
1096.89	55.3398
1099.78	253.231
1102.67	302.603
1105.56	255.758
1108.46	255.512
1111.35	166.094
1114.24	163.408
1117.13	158.227
1120.03	233.512
1122.92	67.1973
1125.81	84.2246
1128.71	21.8281
1131.6	59.5547
1134.49	169.57
1137.38	77.2305
1140.28	205.127
1143.17	55.0938
1146.06	79.6641
1148.95	90.8359
1151.85	77.4492
1154.74	76.6211
1157.63	13.5938
1160.53	48.7051
1163.42	33.9277
1166.31	135.535
1169.2	31.1973
1172.1	11.9238
1174.99	11.3203
1177.88	89.3828
1180.77	239.703
1183.67	218.443
1186.56	124.26
1189.45	167.547
1192.35	59.6797
1195.24	56.3359
1198.13	81.4766
1201.02	140.223
1203.92	94.0859
1206.81	52.0469
1209.7	140.863
1212.59	249.891
1215.49	79.1172
1218.38	36.9453
1221.27	155.66
1224.16	228.356
1227.06	346.129
1229.95	102.793
1232.84	86.6875
1235.74	159.234
1238.63	264.707
1241.52	168.309
1244.41	180.481
1247.31	225.566
1250.2	199.316
1253.09	22.4414
1255.98	59.3438
1258.88	33.6797
1261.77	88.5742
