Measurement: Raman, 514 nm, unoriented, Raman Data Processed
Mineral: Axinite-(Fe)
Rruff sample: R050026
Ideal chemistry: Ca_4_Fe^2+^_2_Al_4_[B_2_Si_8_O_30_](OH)_2_
Locality: Pouyva mine, Polar Urals, Western Siberian Region, Russia
Source: Rock Currier
Description: Brown transparent flat crystal
Measured chemistry: Ca_2.00_(Fe^2+^_0.61_Mn_0.26_Mg_0.13_)Al_2.00_BSi_4_O_15_(OH)
Raman shift (cm-1)	intensity
72.445	0
76.635	365.591
80.823	93.458
85.009	57.62
89.193	776.41
93.375	2075.91
97.554	4290.4
101.732	9007.88
105.908	22532.2
110.082	32505.4
114.254	17864.8
118.424	10220.7
122.592	7843.19
126.758	6652.09
130.922	6811.9
135.083	11601.2
139.243	16351.9
143.401	11182.6
147.557	7069.57
151.711	4082.55
155.863	2165.03
160.013	1713.45
164.161	3410.47
168.308	6968.66
172.452	8428.12
176.594	5016.8
180.734	1386.64
184.872	438.377
189.008	683.566
193.143	15.469
197.275	711.363
201.405	3138.67
205.534	8383.72
209.66	13224
213.784	12728.3
217.907	10422
222.027	5469.15
226.146	1775.82
230.263	463.023
234.377	603.068
238.49	915.635
242.601	660.381
246.709	1896.5
250.816	7628.86
254.921	16117.8
259.024	14210.9
263.125	14884.9
267.224	20794.5
271.321	28315.1
275.416	32042.5
279.51	26291
283.601	18929.7
287.69	17722.1
291.778	18029.6
295.863	16289.9
299.947	11727.2
304.029	7797.89
308.108	6259.19
312.186	8227.61
316.262	16091.4
320.336	19926.2
324.408	14762
328.478	13059.8
332.546	12910.4
336.612	16252.5
340.677	24545.2
344.739	23684.5
348.799	14006.8
352.858	7689.85
356.915	3328.15
360.969	1091.46
365.022	276.456
369.073	15.016
373.122	6.8
377.169	568.647
381.215	2363.14
385.258	6059.32
389.299	7333.92
393.339	4033.95
397.376	2400.73
401.412	2625.06
405.446	3202.12
409.478	5492.95
413.508	12313.5
417.536	20505.7
421.562	22978.5
425.586	20890.8
429.609	14493.7
433.629	9763.05
437.648	9345.93
441.665	19031.2
445.68	23637.8
449.693	10717.6
453.704	4675.2
457.713	2037.22
461.721	563.655
465.726	280.517
469.73	478.148
473.731	199.784
477.731	931.663
481.729	3186.17
485.725	3346.69
489.72	808.048
493.712	207.045
497.703	134.436
501.691	344.959
505.678	1774.59
509.663	4539.54
513.646	5561.84
517.627	3220.4
521.607	967.433
525.584	14.341
529.56	15.04
533.534	304.598
537.506	374.014
541.476	58.538
545.444	39.099
549.41	37.5
553.375	239.565
557.337	1834.61
561.298	2685.69
565.257	1532.81
569.214	1159.94
573.17	1239.07
577.123	981.188
581.075	1456.28
585.024	2696.33
588.972	3904.33
592.918	2211.27
596.863	469.136
600.805	162.159
604.746	214.604
608.685	394.766
612.621	1429.96
616.557	2295.03
620.49	2197.98
624.421	1103.13
628.351	819.64
632.279	1629.81
636.205	3567.66
640.129	7013.45
644.051	8613.67
647.972	6192.54
651.89	3220.61
655.807	1658.33
659.722	1208.38
663.636	1413.19
667.547	2306.77
671.457	4867.71
675.365	8886.28
679.271	8829.39
683.175	5215.23
687.077	2945.8
690.978	2569.52
694.877	3319.91
698.774	5296.54
702.669	10097.4
706.562	20703.6
710.454	40144.3
714.344	52434.1
718.232	36382.5
722.118	19089.6
726.002	9856.43
729.885	5810.92
733.766	3410.1
737.645	2271.97
741.522	1406.53
745.397	1061.79
749.271	638.748
753.143	516.407
757.013	425.297
760.881	474.146
764.748	503.49
768.613	676.083
772.476	420.438
776.337	176.562
780.196	20.482
784.054	198.451
787.91	237.779
791.764	248.39
795.616	194.724
799.467	174.558
803.316	14.513
807.163	478.093
811.008	1039.88
814.851	840.605
818.693	206.177
822.533	88.45
826.371	154.641
830.208	17.346
834.042	80.902
837.875	392.34
841.706	821.75
845.536	1572.12
849.363	2620.43
853.189	3490.74
857.013	3786.07
860.836	3590.56
864.656	3750.18
868.475	3829.76
872.292	4095.41
876.108	4420.22
879.922	4899.19
883.733	5146.3
887.544	5633.52
891.352	7465.81
895.159	10458.2
898.964	13429.6
902.767	14182.2
906.568	12128.8
910.368	8974.6
914.166	6331.14
917.962	4764.14
921.757	4334.29
925.55	4812.64
929.341	5792.81
933.13	5559.85
936.918	4933.15
940.703	5321.94
944.488	6428.65
948.27	8981.59
952.051	12120.1
955.83	15570.7
959.607	21974.1
963.383	29953.9
967.156	28795.1
970.928	26040.5
974.699	31974.4
978.468	41908.9
982.234	38281.2
986	27903.6
989.763	22926.9
993.525	21056.7
997.285	20556.7
1001.04	18743.7
1004.8	15379.6
1008.55	10815.3
1012.31	7197.36
1016.06	4763.29
1019.81	3512.49
1023.56	2890.9
1027.31	2565.17
1031.05	2061.09
1034.79	1583.34
1038.53	1228.1
1042.27	1038.66
1046.01	1021.48
1049.75	1102.52
1053.48	1139.8
1057.22	1213.1
1060.95	1008.93
1064.68	760.274
1068.4	619.312
1072.13	701.036
1075.86	978.28
1079.58	1618.14
1083.3	2132.55
1087.02	1800.05
1090.74	1167.62
1094.45	827.489
1098.17	769.036
1101.88	835.341
1105.59	1008.08
1109.3	870.998
1113.01	667.628
1116.71	480.772
1120.42	378.085
1124.12	484.828
1127.82	84.131
1131.52	32.776
1135.22	12.335
1138.91	46.403
1142.61	49.882
1146.3	5.629
1149.99	74.113
1153.68	0.539
1157.37	48.146
1161.06	70.388
1164.74	60.981
1168.42	57.007
1172.1	52.777
1175.78	9.23
1179.46	24.269
1183.14	97.033
1186.81	61.783
1190.48	114.631
1194.15	145.871
1197.83	146.174
1201.49	213.932
1205.16	306.92
1208.82	187.599
1212.49	181.105
1216.15	129.944
1219.81	115.401
1223.46	80.38
1227.12	53.712
1230.78	68.911
1234.43	59.22
1238.08	66
1241.73	129.223
1245.38	159.9
1249.03	167.305
1252.67	215.292
1256.31	116.768
1259.95	150.756
1263.6	135.293
1267.23	86.398
1270.87	127.064
1274.51	111.28
1278.14	199.666
1281.77	134.859
1285.4	190.226
1289.03	131.587
1292.66	135.613
1296.28	84.425
1299.91	107.376
1303.53	12.289
1307.15	39.917
1310.77	4.696
1314.38	68.42
1318	143.929
1321.61	43.211
1325.23	75.882
1328.84	3.607
1332.45	47.542
1336.06	44.491
1339.66	81.394
1343.27	49.52
1346.87	23.548
1350.47	33.424
1354.07	19.19
1357.67	69.001
1361.26	53.454
1364.86	12.678
1368.45	40.834
1372.04	38.507
1375.63	69.841
1379.22	43.724
1382.81	27.633
1386.39	107.15
1389.98	38.401
1393.56	37.028
1397.14	69.351
1400.72	66.876
1404.3	63.142
1407.87	93.906
1411.45	125.507
1415.02	195.166
1418.59	166.317
1422.16	200.378
1425.73	187.52
1429.29	133.03
1432.86	53.765
1436.42	25.508
1439.98	52.106
1443.54	55.624
1447.1	39.329
1450.66	144.164
1454.21	126.64
1457.77	165.663
1461.32	24.009
1464.87	47.699
1468.42	23
1471.96	3.042
1475.51	13.293
1479.06	29.9
1482.6	104.147
1486.14	173.688
1489.68	250.522
1493.22	280.604
1496.75	314.066
1500.29	444.077
1503.82	536.435
1507.35	779.7
1510.88	999.751
1514.41	1436.09
1517.94	1820.68
1521.46	2407.12
1524.99	3449.09
1528.51	0
