Measurement: Raman, 785 nm, unoriented, Raman Data Processed
Mineral: Axinite-(Mn)
Rruff sample: R061121
Ideal chemistry: Ca_2_Mn^2+^Al_2_BSi_4_O_15_(OH)
Locality: Franklin, Sussex County, New Jersey, USA
Source: Michael Scott
Description: Honey-yellow massive associated with pink rhodonite
Measured chemistry: (Ca_1.93_Mn_0.07_)_Σ=2_(Mn^2+^_0.87_Zn_0.08_Fe^2+^_0.05_)_Σ=1_(Al_1.95_Fe^3+^_0.05_)_Σ=2_BSi_4.00_O_15_(OH); OH and B assumed by stoichiometry
Raman shift (cm-1)	intensity
127.415	0
130.308	427.752
133.2	491.212
136.093	139.368
138.986	11.9092
141.878	204.638
144.771	1025.23
147.664	1352.67
150.556	1218.84
153.449	782.574
156.342	873.86
159.234	618.138
162.127	382.175
165.02	724.741
167.913	1521.86
170.805	2124.69
173.698	2115.47
176.591	1132.81
179.483	861.891
182.376	420.474
185.269	400.657
188.161	651.158
191.054	1216.26
193.947	917.188
196.84	648.848
199.732	1070.82
202.625	2031.65
205.518	2589.43
208.41	2487.72
211.303	2049.25
214.196	1101.39
217.088	637.183
219.981	210.769
222.874	60.0196
225.767	2.08272
228.659	-4.86211
231.552	13.2742
234.445	64.4761
237.337	247.275
240.23	520.629
243.123	716.652
246.015	615.36
248.908	584.245
251.801	745.624
254.694	701.944
257.586	423.11
260.479	341.529
263.372	439.471
266.264	487.194
269.157	540.636
272.05	772.02
274.942	925.625
277.835	628.148
280.728	369.127
283.62	291.095
286.513	294.195
289.406	385.756
292.299	658.747
295.191	1224.48
298.084	2012.86
300.977	2375.9
303.869	2722.47
306.762	2210.49
309.655	1080.75
312.548	649.849
315.44	598.773
318.333	677.205
321.226	667.548
324.118	550.03
327.011	404.088
329.904	448.25
332.796	654.44
335.689	1055.54
338.582	1436.28
341.474	1496.64
344.367	1459.62
347.26	1569.62
350.153	1810.88
353.045	1328.5
355.938	538.813
358.831	175.456
361.723	45.555
364.616	8.4507
367.509	-3.84674
370.401	-0.303451
373.294	27.1842
376.187	87.9113
379.08	211.226
381.972	571.522
384.865	1013.66
387.758	1243.26
390.65	1120.7
393.543	782.924
396.436	473.95
399.329	308.356
402.221	257.324
405.114	425.259
408.007	766.283
410.899	1384.39
413.792	2166.88
416.685	2294.79
419.577	2086.62
422.47	1911.96
425.363	1631.09
428.255	1105.88
431.148	678.116
434.041	445.145
436.934	436.948
439.826	547.716
442.719	609.558
445.612	432.432
448.504	157.64
451.397	92.844
454.29	73.5422
457.183	3.24219
460.075	20.093
462.968	0.50354
465.861	111.4
468.753	242.096
471.646	353.189
474.539	614.196
477.431	1091.28
480.324	1578.26
483.217	1436.3
486.109	762.069
489.002	322.777
491.895	215.161
494.788	236.925
497.68	304.799
500.573	503.951
503.466	640.027
506.358	620.561
509.251	620.607
512.144	427.302
515.036	177.792
517.929	20.301
520.822	6.88937
523.715	6.29942
526.607	14.7657
529.5	33.2733
532.393	62.8135
535.285	147.338
538.178	153.297
541.071	216.363
543.963	235.848
546.856	235.758
549.749	272.012
552.641	362.359
555.534	473.503
558.427	531.451
561.32	494.755
564.212	517.029
567.105	618.158
569.998	744.957
572.89	740.31
575.783	795.22
578.676	943.526
581.568	1187.69
584.461	1400.81
587.354	1305.61
590.247	889.217
593.139	591.758
596.032	484.45
598.925	487.208
601.817	545.123
604.71	606.235
607.603	586.943
610.495	578.797
613.388	550.817
616.281	531.37
619.174	442.919
622.066	278.34
624.959	126.172
627.852	54.2236
630.744	10.0139
633.637	11.1001
636.53	29.2817
639.423	52.8055
642.315	37.6404
645.208	39.9118
648.101	10.3725
650.993	39.5555
653.886	33.6413
656.779	25.2221
659.671	20.5387
662.564	68.9641
665.457	155.483
668.35	344.062
671.242	605.484
674.135	959.928
677.028	1217.12
679.92	1065.64
682.813	679.676
685.706	420.731
688.598	283.201
691.491	242.254
694.384	314.679
697.277	393.95
700.169	646.157
703.062	1051.92
705.955	1864.72
708.847	3056.14
711.74	4359.08
714.633	4642.64
717.525	3262.47
720.418	1787.6
723.311	972.031
726.203	567.132
729.096	319.061
731.989	195.143
734.881	137.308
737.774	108.597
740.667	87.8647
743.56	68.4302
746.452	65.5043
749.345	91.9448
752.238	133.545
755.13	171.912
758.023	217.207
760.916	343.453
763.808	476.753
766.701	523.182
769.594	496.246
772.487	356.563
775.379	219.531
778.272	144.649
781.165	106.508
784.057	63.4637
786.95	18.4433
789.843	22.0185
792.736	6.71478
795.628	9.11377
798.521	4.14905
801.414	13.368
804.306	51.4881
807.199	110.848
810.092	139.273
812.984	79.3781
815.877	25.3444
818.77	16.9484
821.663	3.66956
824.555	12.8
827.448	0.121155
830.341	8.36658
833.233	9.37793
836.126	28.4142
839.019	49.0511
841.911	62.4333
844.804	125.701
847.697	146.311
850.59	142.763
853.482	147.268
856.375	131.29
859.268	137.233
862.16	144.679
865.053	143.212
867.946	133.093
870.838	135.385
873.731	142.494
876.624	154.427
879.516	165.986
882.409	226.46
885.302	321.749
888.195	560.599
891.087	888.665
893.98	1261.04
896.873	1576.72
899.765	1683.27
902.658	1463.46
905.551	1083.95
908.443	755.957
911.336	490.153
914.229	254.619
917.122	113.996
920.014	22.744
922.907	4.59045
925.8	23.108
928.692	35.8077
931.585	8.85956
934.478	39.5283
937.37	99.1852
940.263	224.441
943.156	404.913
946.049	604.232
948.941	794.144
951.834	1010.38
954.727	1395.54
957.619	1920.52
960.512	2251.08
963.405	2037.79
966.298	1719.84
969.19	1674.14
972.083	1870.58
974.976	1971.49
977.868	1757.85
980.761	1424.37
983.654	1310.61
986.546	1254.92
989.439	1270.63
992.332	1489.34
995.225	1838.13
998.117	2105.39
1001.01	2129.39
1003.9	1858.22
1006.79	1357.13
1009.69	814.59
1012.58	498.103
1015.47	322.719
1018.37	231.488
1021.26	231.845
1024.15	175.488
1027.04	99.23
1029.94	53.8743
1032.83	2.10931
1035.72	24.5809
1038.62	41.8555
1041.51	7.46191
1044.4	21.0785
1047.29	66.5815
1050.19	184.47
1053.08	227.205
1055.97	216.991
1058.86	105.135
1061.76	11.7941
1064.65	7.19806
1067.54	10.9924
1070.43	16.4863
1073.33	58.9878
1076.22	156.078
1079.11	177.336
1082.01	161.924
1084.9	105.872
1087.79	76.5129
1090.68	59.6354
1093.58	28.587
1096.47	62.4246
1099.36	82.2927
1102.25	92.0595
1105.15	103.151
1108.04	86.6143
1110.93	68.9501
1113.83	63.8446
1116.72	34.9896
1119.61	53.5506
1122.5	35.4259
1125.4	35.15
1128.29	18.9535
1131.18	31.7249
1134.07	41.1998
1136.97	36.781
1139.86	21.5344
1142.75	22.4469
1145.64	8.59894
1148.54	32.7468
1151.43	23.2661
1154.32	20.2891
1157.22	6.33835
1160.11	22.9349
1163	15.7084
1165.89	28.7568
1168.79	26.4712
1171.68	7.90964
1174.57	14.5781
1177.46	38.6789
1180.36	29.9488
1183.25	29.4689
1186.14	2.7735
1189.04	39.0935
1191.93	42.7264
1194.82	31.8939
1197.71	15.7056
1200.61	17.1665
1203.5	13.8383
1206.39	15.6428
1209.28	38.2073
1212.18	1.86069
1215.07	14.4318
1217.96	3.66858
1220.86	17.4209
1223.75	16.2535
1226.64	4.57153
1229.53	37.4883
1232.43	18.5154
1235.32	0.899963
1238.21	9.47144
1241.1	17.7826
1244	4.96429
1246.89	7.79163
1249.78	5.14111
1252.67	19.1732
1255.57	13.3393
1258.46	0.035828
1261.35	7.52884
