Measurement: Raman, 514 nm, unoriented, Raman Data Processed
Mineral: Axinite-(Fe)
Rruff sample: R050061
Ideal chemistry: Ca_4_Fe^2+^_2_Al_4_[B_2_Si_8_O_30_](OH)_2_
Locality: Jamestown, California, USA
Source: Rock Currier
Description: Brown colored axe-head-shaped single crystals
Measured chemistry: Ca_2.00_(Fe^2+^_0.73_Mg_0.20_Mn_0.07_)Al_2.00_BSi_4_O_15_(OH)
Raman shift (cm-1)	intensity
52.866	0
57.065	117.693
61.262	129.28
65.458	30.244
69.651	11.614
73.842	238.128
78.031	398.642
82.218	692.571
86.404	961.347
90.587	1944.77
94.768	3723.79
98.947	7674.86
103.124	16041.3
107.3	26931.9
111.473	20430.5
115.644	8411.08
119.813	3471.52
123.981	2307.83
128.146	1761.86
132.309	2336.55
136.47	4761.94
140.63	6221.54
144.787	4608.32
148.942	3418.63
153.096	3555
157.247	3981.56
161.396	4034.41
165.544	6127.55
169.689	9530.98
173.833	8866.67
177.974	4715.64
182.114	1922.8
186.251	842.217
190.387	1211.71
194.52	2182.25
198.652	4093.8
202.782	8362.31
206.909	10933
211.035	8649.66
215.159	4966.87
219.281	2188.19
223.4	646.767
227.518	119.196
231.634	455.354
235.748	139.25
239.86	985.278
243.97	2382.48
248.079	3392.09
252.185	5197.89
256.289	6487.71
260.391	6788.43
264.492	9661.91
268.59	15233
272.687	19484.6
276.781	17423.6
280.874	11899.1
284.964	7379.92
289.053	6706.07
293.14	8190.49
297.225	10969.1
301.308	14363.6
305.389	17291.7
309.468	13788.2
313.545	6647.45
317.62	2951.53
321.693	2106.9
325.765	2981.35
329.834	4071.86
333.902	2877.4
337.967	3248.96
342.031	6753.62
346.093	11795.3
350.153	16786.9
354.21	14913.6
358.267	6949.27
362.321	2558.05
366.373	892.331
370.423	280.672
374.471	145.877
378.518	685.697
382.563	2267.15
386.605	6199.5
390.646	8969.4
394.685	5567.53
398.722	2893.15
402.757	2257.6
406.79	2935.26
410.821	7134.6
414.851	19595.6
418.878	25216.2
422.904	16321.4
426.927	13830.2
430.949	10205.5
434.969	5364.33
438.987	4783.62
443.003	8547.37
447.018	7919.55
451.03	2727.13
455.041	737.102
459.049	144.433
463.056	245.969
467.061	68.913
471.064	631.691
475.065	2248.69
479.064	6732.77
483.062	14128
487.057	12783.7
491.051	4445.74
495.043	1239.96
499.032	335.068
503.02	286.065
507.007	138.897
510.991	153.308
514.973	63.098
518.954	161.499
522.933	198.792
526.91	36.765
530.885	667.923
534.858	1052.18
538.829	862.967
542.799	424.824
546.766	45.55
550.732	233.267
554.696	116.333
558.658	210.732
562.618	754.502
566.576	1621.06
570.533	3257.38
574.488	4397.46
578.44	3952.28
582.391	4804.83
586.341	8483.11
590.288	10748.1
594.233	6842.77
598.177	3248.14
602.119	1472.19
606.059	964.905
609.997	974.284
613.933	1100.32
617.868	970.994
621.801	382.547
625.731	41.565
629.66	212.065
633.588	85.197
637.513	380.322
641.437	1323.94
645.358	1241.48
649.278	1051.59
653.196	382.854
657.113	137.594
661.027	291.595
664.94	806.067
668.851	1997.79
672.76	4674.08
676.667	7201.42
680.572	5594.97
684.476	3102.88
688.378	1922.89
692.278	2048.52
696.176	2878.78
700.072	5030.66
703.967	9605.08
707.86	20775.5
711.751	36895.3
715.64	39091.7
719.527	24026.9
723.413	12157.9
727.297	6556.58
731.179	3783
735.059	2295.16
738.937	1488.08
742.814	946.761
746.689	705.212
750.562	582.442
754.433	934.459
758.303	1382.27
762.17	2305.31
766.036	3376.33
769.901	3578.59
773.763	2341.68
777.624	1423.73
781.482	748.808
785.339	292.781
789.195	51.243
793.048	92.749
796.9	136.525
800.75	92.953
804.598	316.22
808.445	899.151
812.289	1593.18
816.132	1058.93
819.973	286.202
823.813	187.492
827.65	269.761
831.486	47.456
835.32	490.929
839.152	182.025
842.983	385.304
846.812	985.756
850.639	1573.38
854.464	1537.21
858.288	1224.29
862.11	994.997
865.93	811.665
869.748	1022.02
873.564	1263.8
877.379	1771.98
881.192	2463.5
885.004	3596.36
888.813	5614.59
892.621	8734.1
896.427	12891.9
900.232	14827
904.034	13404.4
907.835	13187.2
911.634	12327.2
915.432	9235.49
919.227	6095.1
923.021	4733.04
926.813	4515.27
930.604	4853.82
934.393	4278.82
938.18	3615.84
941.965	3641.6
945.749	4392.11
949.53	6076.85
953.311	7736.77
957.089	9174.58
960.866	11836.8
964.641	14714.6
968.414	13644.8
972.185	13337.4
975.955	18017.6
979.723	23465.2
983.49	22338
987.254	19478
991.017	20424.3
994.779	21760
998.538	22212.3
1002.3	23185
1006.05	22457.2
1009.81	16283.8
1013.56	10073.6
1017.31	6221.29
1021.06	4292.65
1024.81	3470.31
1028.55	3098.21
1032.3	2285.41
1036.04	1733.41
1039.78	1394.75
1043.52	1295.56
1047.26	1315.93
1050.99	1536.57
1054.73	1753.92
1058.46	1837.78
1062.19	1614.79
1065.92	1024.4
1069.65	660.674
1073.37	449.369
1077.1	409.379
1080.82	481.125
1084.54	637.86
1088.26	525.779
1091.97	514.896
1095.69	483.751
1099.4	786.821
1103.12	1276.1
1106.83	1524.38
1110.54	1425.67
1114.24	1135.25
1117.95	687.249
1121.65	599.306
1125.35	388.731
1129.06	170.555
1132.75	98.993
1136.45	48.293
1140.15	5.585
1143.84	6.624
1147.53	4.15
1151.22	86.342
1154.91	76.466
1158.6	11.55
1162.28	65.46
1165.97	74.771
1169.65	53.279
1173.33	70.692
1177.01	25.969
1180.69	86.39
1184.36	23.919
1188.04	7.616
1191.71	6.622
1195.38	13.054
1199.05	48.072
1202.71	39.419
1206.38	58.83
1210.04	32.741
1213.71	14.47
1217.37	40.334
1221.03	47.035
1224.68	47.896
1228.34	16.302
1231.99	26.215
1235.65	56.726
1239.3	27.597
1242.95	86.058
1246.59	123.437
1250.24	74.299
1253.88	146.473
1257.53	22.16
1261.17	81.451
1264.81	56.309
1268.45	179.642
1272.08	123.04
1275.72	84.336
1279.35	204.785
1282.98	136.79
1286.61	123.698
1290.24	119.309
1293.87	175.832
1297.49	95.123
1301.11	50.904
1304.73	34.031
1308.36	158.412
1311.97	89.924
1315.59	60.495
1319.2	74.14
1322.82	112.667
1326.43	126.178
1330.04	93.792
1333.65	102.869
1337.26	85.228
1340.86	115.188
1344.47	67.559
1348.07	219.125
1351.67	217.829
1355.27	161.719
1358.87	206.273
1362.46	99.416
1366.06	215.286
1369.65	241.538
1373.24	198.519
1376.83	176.448
1380.42	185.154
1384	168.881
1387.59	104.985
1391.17	132.813
1394.75	196.774
1398.33	147.819
1401.91	113.165
1405.49	49.681
1409.06	102.133
1412.64	128.912
1416.21	137.844
1419.78	207.661
1423.35	96.12
1426.91	102.65
1430.48	147.205
1434.05	146.829
1437.61	156.537
1441.17	153.677
1444.73	120.879
1448.29	69.793
1451.84	198.396
1455.4	162.707
1458.95	154.067
1462.5	140.021
1466.05	58.1
1469.6	80.042
1473.15	130.375
1476.69	116.395
1480.24	157.191
1483.78	202.096
1487.32	264.133
1490.86	76.571
1494.39	197.89
1497.93	72.024
1501.46	97.041
1505	123.779
1508.53	76.653
1512.06	78.194
1515.59	11.832
1519.11	79.775
1522.64	23.539
