Measurement: Raman, 785 nm, unoriented, Raman Data Processed
Mineral: Axinite-(Fe)
Rruff sample: R050061
Ideal chemistry: Ca_4_Fe^2+^_2_Al_4_[B_2_Si_8_O_30_](OH)_2_
Locality: Jamestown, California, USA
Source: Rock Currier
Description: Brown colored axe-head-shaped single crystals
Measured chemistry: Ca_2.00_(Fe^2+^_0.73_Mg_0.20_Mn_0.07_)Al_2.00_BSi_4_O_15_(OH)
Raman shift (cm-1)	intensity
142.715	7.27721
145.607	35.5528
148.5	121.131
151.393	182.233
154.286	121.26
157.178	95.3098
160.071	98.7192
162.964	121.171
165.856	187.929
168.749	274
171.642	358.339
174.534	284.12
177.427	155.834
180.32	92.8562
183.212	56.2683
186.105	66.1903
188.998	74.0514
191.891	164.166
194.783	237.846
197.676	234.561
200.569	289.87
203.461	440.45
206.354	560.302
209.247	454.674
212.139	304.977
215.032	160.13
217.925	90.2852
220.818	39.4083
223.71	1.93628
226.603	1.66615
229.496	2.34907
232.388	3.75666
235.281	5.46025
238.174	18.7113
241.066	64.565
243.959	129.183
246.852	130.823
249.745	148.985
252.637	163.661
255.53	206.254
258.423	209.475
261.315	212.456
264.208	279.674
267.101	376.179
269.993	511.401
272.886	616.274
275.779	596.267
278.672	463.707
281.564	313.697
284.457	249.497
287.35	218.407
290.242	206.424
293.135	224.079
296.028	316.962
298.921	399.332
301.813	507.507
304.706	664.84
307.599	703.735
310.491	486.719
313.384	233.561
316.277	144.874
319.169	114.534
322.062	83.7076
324.955	71.0197
327.847	100.08
330.74	98.1904
333.633	70.4083
336.526	58.9953
339.418	117.047
342.311	214.395
345.204	343.004
348.096	447.051
350.989	528.202
353.882	501.478
356.774	240.961
359.667	95.0762
362.56	21.7551
365.452	5.00028
368.345	4.02251
371.238	2.25422
374.131	1.86616
377.023	13.0785
379.916	40.8528
382.809	105.622
385.701	203.854
388.594	358.703
391.487	408.865
394.38	283.93
397.272	134.426
400.165	88.5804
403.058	95.9353
405.95	147.84
408.843	215.728
411.736	349.99
414.628	612.918
417.521	934.402
420.414	798.329
423.307	509.976
426.199	477.869
429.092	434.118
431.985	318.709
434.877	181.688
437.77	112.77
440.663	118.392
443.555	167.257
446.448	146.28
449.341	72.7987
452.234	20.6944
455.126	6.40549
458.019	11.062
460.912	7.58575
463.804	3.31898
466.697	0.394394
469.59	43.9347
472.483	85.3426
475.375	157.526
478.268	241.609
481.161	420.099
484.053	579.617
486.946	487.257
489.839	235.982
492.731	102.013
495.624	71.0812
498.517	79.1448
501.409	97.4082
504.302	115.692
507.195	134.704
510.088	152.631
512.98	123.641
515.873	86.8234
518.766	41.9298
521.658	12.2671
524.551	1.42928
527.444	0.321503
530.337	17.6641
533.229	34.6956
536.122	23.7444
539.015	11.5514
541.907	6.40149
544.8	9.44617
547.693	3.5621
550.585	0.249374
553.478	12.6481
556.371	9.50858
559.263	40.1679
562.156	58.3849
565.049	91.3393
567.942	122.254
570.834	176.182
573.727	218.374
576.62	202.257
579.512	182.74
582.405	210.111
585.298	271.738
588.19	346.65
591.083	314.406
593.976	225.357
596.869	119.378
599.761	77.0894
602.654	39.0994
605.547	47.9378
608.439	38.0818
611.332	41.2365
614.225	43.5329
617.117	46.1068
620.01	32.0658
622.903	26.0616
625.795	10.9782
628.688	3.74382
631.581	3.45441
634.474	2.32138
637.366	11.8777
640.259	13.4865
643.152	18.6715
646.044	13.1638
648.937	18.1602
651.83	3.83984
654.722	2.57269
657.615	1.62544
660.508	1.5865
663.401	12.9597
666.293	33.0326
669.186	69.9603
672.079	110.637
674.971	174.705
677.864	181.403
680.757	139.939
683.649	88.2047
686.542	54.7314
689.435	54.7784
692.328	48.602
695.22	79.036
698.113	130.075
701.006	221.396
703.898	370.612
706.791	591.974
709.684	863.136
712.577	1080.64
715.469	1034.9
718.362	717.629
721.255	414.522
724.147	239.987
727.04	151.991
729.933	92.0245
732.825	54.9345
735.718	21.3155
738.611	12.1035
741.504	9.36488
744.396	10.3158
747.289	5.9684
750.182	2.5475
753.074	26.5826
755.967	42.8807
758.86	66.8563
761.752	103.522
764.645	140.295
767.538	157.003
770.431	139.247
773.323	99.7736
776.216	64.3685
779.109	41.564
782.001	32.2265
784.894	13.4772
787.787	13.5211
790.679	7.29285
793.572	5.80501
796.465	7.84537
799.357	4.31161
802.25	11.7508
805.143	25.0669
808.036	34.418
810.928	40.737
813.821	52.8364
816.714	30.2614
819.606	9.51076
822.499	2.1391
825.392	1.06222
828.284	3.11258
831.177	8.54222
834.07	0.454376
836.963	4.14879
839.855	1.86896
842.748	15.1477
845.641	13.1724
848.533	24.5513
851.426	29.8237
854.319	25.849
857.212	17.2291
860.104	13.3424
862.997	7.90019
865.89	8.28529
868.782	4.07965
871.675	3.3656
874.568	1.16423
877.46	1.79619
880.353	26.6227
883.246	39.1552
886.139	72.346
889.031	92.0502
891.924	163.98
894.817	224.277
897.709	297.081
900.602	322.227
903.495	313.938
906.388	332.055
909.28	324.926
912.173	275.485
915.066	177.936
917.958	97.2322
920.851	47.5351
923.744	26.7572
926.636	32.489
929.529	35.0195
932.422	36.9972
935.314	6.7514
938.207	8.09303
941.1	2.19701
943.993	12.2269
946.885	44.5291
949.778	102.816
952.671	127.943
955.563	151.786
958.456	229.778
961.349	282.745
964.241	306.224
967.134	279.356
970.027	222.05
972.92	252.368
975.812	311.361
978.705	360.956
981.598	394.775
984.49	364.245
987.383	380.669
990.276	414.183
993.168	447.036
996.061	470.864
998.954	498.278
1001.85	531.827
1004.74	505.917
1007.63	403.005
1010.52	260.27
1013.42	157.21
1016.31	90.0358
1019.2	59.9605
1022.1	49.3523
1024.99	44.2472
1027.88	47.6848
1030.77	41.0024
1033.67	11.3473
1036.56	1.24919
1039.45	1.46878
1042.34	5.7663
1045.24	4.14648
1048.13	0.181366
1051.02	12.3915
1053.91	4.22391
1056.81	4.28784
1059.7	0.70578
1062.59	5.05972
1065.49	1.51502
1068.38	2.8007
1071.27	1.15436
1074.16	4.02653
1077.06	2.1805
1079.95	19.193
1082.84	14.8832
1085.73	21.8939
1088.63	21.5549
1091.52	16.902
1094.41	21.0274
1097.31	22.7641
1100.2	43.7615
1103.09	46.5815
1105.98	49.501
1108.88	50.7078
1111.77	47.0498
1114.66	35.6397
1117.56	20.6527
1120.45	22.1814
1123.34	19.7831
1126.23	7.98837
1129.12	1.60215
1132.02	9.40898
1134.91	4.17014
1137.8	2.79893
1140.7	6.29866
1143.59	0.278694
1146.48	4.69527
1149.37	8.50907
1152.27	2.5859
1155.16	4.43446
1158.05	5.55355
1160.94	5.24611
1163.84	4.72708
1166.73	7.91672
1169.62	3.72752
1172.52	4.10082
1175.41	2.98212
1178.3	4.22797
1181.19	8.76582
1184.09	14.9064
1186.98	10.212
1189.87	2.91373
1192.77	15.6778
1195.66	5.56115
1198.55	8.14072
1201.44	12.5868
1204.34	1.85864
1207.23	9.71015
1210.12	6.4488
1213.01	13.4729
1215.91	9.16089
1218.8	13.7258
1221.69	12.0863
1224.58	12.3763
1227.48	10.2801
1230.37	8.21712
1233.26	3.50311
