Measurement: Raman, 532 nm, unoriented, Raman Data Processed
Mineral: Axinite-(Fe)
Rruff sample: R050026
Ideal chemistry: Ca_4_Fe^2+^_2_Al_4_[B_2_Si_8_O_30_](OH)_2_
Locality: Pouyva mine, Polar Urals, Western Siberian Region, Russia
Source: Rock Currier
Description: Brown transparent flat crystal
Measured chemistry: Ca_2.00_(Fe^2+^_0.61_Mn_0.26_Mg_0.13_)Al_2.00_BSi_4_O_15_(OH)
Raman shift (cm-1)	intensity
147.733	0
151.108	245.727
154.483	122.986
157.858	92.812
161.233	17.5112
164.607	269.101
167.982	623.514
171.357	1230.14
174.732	799.152
178.107	393.815
181.482	122.693
184.856	39.7183
188.231	185.891
191.606	709.178
194.981	899.944
198.356	798.29
201.731	1196.65
205.105	1955.88
208.48	2009.18
211.855	1608.08
215.23	1216.77
218.605	1116.25
221.979	470.681
225.354	56.8115
228.729	92.0527
232.104	126.403
235.479	13.3506
238.853	150.121
242.228	359.683
245.603	372.832
248.978	272.997
252.353	468.853
255.727	810.253
259.102	608.957
262.477	563.039
265.852	880.782
269.227	1280.19
272.602	1550.9
275.976	1551.58
279.351	1150.82
282.726	610.422
286.101	530.506
289.476	577.71
292.851	550.81
296.225	671.731
299.6	939.802
302.975	1348.72
306.35	2029.93
309.725	1723.73
313.099	1569.55
316.474	2015.18
319.849	2406.98
323.224	1698.23
326.599	1188.95
329.974	1208.38
333.348	1273.5
336.723	1917.85
340.098	2626.7
343.473	2954.72
346.848	2141.12
350.223	1633.73
353.597	1244.13
356.972	419
360.347	5.60156
363.722	75.0781
367.097	83.8545
370.471	41.7568
373.846	93.1953
377.221	237.638
380.596	455.022
383.971	1034.64
387.346	1554.01
390.72	1665
394.095	1106.46
397.47	612.295
400.845	349.975
404.219	420.786
407.594	674.03
410.969	1260.92
414.344	2161.33
417.719	3257.65
421.094	2518.69
424.469	2125.27
427.843	1839.15
431.218	1224.51
434.593	625.252
437.968	540.689
441.343	750.753
444.717	965.257
448.092	441.837
451.467	17.0693
454.842	11.331
458.217	0.84375
461.591	6.03711
464.966	57.0918
468.341	370.133
471.716	472.551
475.091	627.157
478.466	1001.62
481.84	1686.81
485.215	1975.1
488.59	949.932
491.965	362.011
495.34	256.526
498.714	326.62
502.089	466.935
505.464	608.764
508.839	566.762
512.214	406.348
515.589	278.488
518.963	35.2861
522.338	24.8623
525.713	55.9668
529.088	55.1904
532.463	10.1816
535.837	52.666
539.212	28.1064
542.587	25.3447
545.962	77.9219
549.337	121.281
552.712	131.029
556.086	284.958
559.461	532.368
562.836	687.564
566.211	808.419
569.586	1084.08
572.96	1249.46
576.335	896.702
579.71	750.18
583.085	652.275
586.46	743.657
589.835	874.77
593.209	548.322
596.584	215.984
599.959	147.19
603.334	136.185
606.709	221.236
610.083	373.737
613.458	591.974
616.833	672.895
620.208	503.631
623.583	286.402
626.958	163.134
630.332	10.9082
633.707	17.9834
637.082	223.461
640.457	232.315
643.832	210.487
647.207	214.319
650.581	40.8574
653.956	28.1562
657.331	32.4522
660.706	18.0967
664.081	43.1435
667.455	148.018
670.83	351.254
674.205	588.486
677.58	679.176
680.955	469.298
684.33	198.186
687.704	101.348
691.079	59.9482
694.454	283.496
697.829	505.004
701.204	989.671
704.578	1720.76
707.953	2910.82
711.328	4213.04
714.703	4480.34
718.078	2815.94
721.452	1475.9
724.827	805.666
728.202	404.195
731.577	238.152
734.952	214.107
738.327	103.443
741.701	69.4961
745.076	121.822
748.451	135.248
751.826	41.0156
755.201	200.408
758.576	306.168
761.95	492.746
765.325	749.301
768.7	695.059
772.075	499.902
775.45	349.223
778.824	214.99
782.199	163.441
785.574	120.467
788.949	136.879
792.324	76.9766
795.698	39.8164
799.073	74.3398
802.448	2.44727
805.823	111.361
809.198	230.934
812.573	174.098
815.947	195.168
819.322	6.96875
822.697	7.8457
826.072	16.3711
829.447	4.83398
832.822	9.30469
836.196	74.5449
839.571	33.0254
842.946	85.9648
846.321	132.289
849.696	201.422
853.07	184.32
856.445	173.894
859.82	98.832
863.195	57.8105
866.57	156.943
869.944	77.2676
873.319	122.719
876.694	142.775
880.069	204.783
883.444	234.877
886.819	323.256
890.193	706.082
893.568	1126.71
896.943	1471.98
900.318	2003.81
903.693	2197.69
907.067	2057.51
910.442	1664.95
913.817	1101.09
917.192	511.197
920.567	176.984
923.942	40.1855
927.316	58.6094
930.691	63.7559
934.066	56.166
937.441	76.6348
940.816	303.617
944.191	643.773
947.565	1088.82
950.94	1661.92
954.315	2340.75
957.69	3110.93
961.065	3931.92
964.439	3953.93
967.814	3051.55
971.189	2502.53
974.564	2626.11
977.939	2939.84
981.313	2863.14
984.688	2721.45
988.063	2866.88
991.438	2806.63
994.813	2548.28
998.188	2471.58
1001.56	2484.37
1004.94	2247.64
1008.31	1525.36
1011.69	811.178
1015.06	459.141
1018.44	165.822
1021.81	211.371
1025.19	181.945
1028.56	136.373
1031.94	174.883
1035.31	51.2207
1038.68	32.0137
1042.06	51.9258
1045.43	166.275
1048.81	241.986
1052.18	288.01
1055.56	406.565
1058.93	273.182
1062.31	261.318
1065.68	50.3203
1069.06	20.2715
1072.43	156.41
1075.81	244.07
1079.18	363.846
1082.56	419.889
1085.93	318.018
1089.31	284.379
1092.68	141.846
1096.06	155.422
1099.43	152.613
1102.81	125.828
1106.18	194.147
1109.56	117.219
1112.93	116.756
1116.31	50.8477
1119.68	113.143
1123.06	93.7598
1126.43	37.0566
1129.81	13.3574
1133.18	55.5039
1136.56	117.6
1139.93	77.9551
1143.31	130.435
1146.68	73.2207
1150.05	142.635
1153.43	36.4473
1156.8	48.1445
1160.18	63.8262
1163.55	109.643
1166.93	53.6152
1170.3	152.295
1173.68	90.7598
1177.05	92.2383
1180.43	60.8984
1183.8	74.2207
1187.18	140.512
1190.55	148.486
1193.93	111.926
1197.3	112.205
1200.68	47.3203
1204.05	131.481
1207.43	23.0801
1210.8	49.7148
1214.18	133.842
1217.55	56.2344
1220.93	120.844
1224.3	30.9844
1227.67	52.6191
1231.05	58.3516
1234.42	113.084
1237.8	159.867
1241.17	74.5137
1244.55	9.625
1247.92	172.41
1251.3	145.139
1254.67	14.3535
1258.05	88.3027
1261.42	135.014
1264.8	160.094
1268.17	27.8398
1271.55	114.832
1274.92	195.078
1278.3	50.1133
1281.67	63.1719
1285.05	149.935
1288.42	42.3984
1291.8	39.5625
1295.17	87.0742
1298.55	132.772
1301.92	94.3809
1305.3	52.0117
1308.67	9.74805
