Measurement: Raman, 785 nm, unoriented, Raman Data Processed
Mineral: Axinite-(Fe)
Rruff sample: R040074
Ideal chemistry: Ca_4_Fe^2+^_2_Al_4_[B_2_Si_8_O_30_](OH)_2_
Locality: Luning, Nevada, USA
Source: University of Arizona Mineral Museum
Description: Pale brown wedge-shaped crystal
Measured chemistry: (Ca_0.98_Mn_0.01_)_2_(Fe_0.41_Mg_0.39_Mn_0.20_)Al_1.95_B_1.20_Si_3.90_O_15_(OH)
Raman shift (cm-1)	intensity
122.112	0
125.004	40.1926
127.897	133.453
130.79	398.307
133.682	513.621
136.575	439.91
139.468	808.524
142.36	1557.61
145.253	2216.99
148.146	2384.38
151.038	2319.58
153.931	1607.5
156.824	999.841
159.717	884.714
162.609	870.483
165.502	1103.74
168.395	1679.59
171.287	2076.98
174.18	1567.9
177.073	864.364
179.965	338.997
182.858	69.8096
185.751	136.419
188.644	445.333
191.536	1030.78
194.429	1351.49
197.322	864.13
200.214	991.281
203.107	1482.31
206	1917.64
208.893	2113.75
211.785	2044.7
214.678	1848.56
217.571	1458.69
220.463	843.706
223.356	424.661
226.249	105.732
229.141	-0.0586023
232.034	-16.7876
234.927	-10.2682
237.82	7.16425
240.712	88.4441
243.605	195.266
246.498	385.215
249.39	698.778
252.283	949.981
255.176	1100.65
258.068	1084.01
260.961	1326.37
263.854	1793.3
266.747	2401.73
269.639	2899.63
272.532	3097.71
275.425	2840.76
278.317	2277.75
281.21	1521.8
284.103	1133.32
286.995	1113.65
289.888	1341.83
292.781	1715.45
295.673	2145.51
298.566	2576.07
301.459	2696.61
304.352	2616.91
307.244	2487.33
310.137	2050.57
313.03	1860.24
315.922	2102.72
318.815	2404.39
321.708	2130.81
324.601	1325.53
327.493	849.076
330.386	676.537
333.279	603.885
336.171	782.699
339.064	1331.03
341.957	2160.04
344.849	2595.21
347.742	2313.09
350.635	2073.89
353.527	1871.13
356.42	1103.9
359.313	423.594
362.206	78.3336
365.098	21.5602
367.991	2.64089
370.884	-1.64529
373.776	8.19947
376.669	30.2728
379.562	83.3027
382.454	364.847
385.347	807.703
388.24	1327.1
391.133	1612.54
394.025	1186.35
396.918	691.214
399.811	478.631
402.703	446.617
405.596	489.091
408.489	768.108
411.382	1398.84
414.274	2302.87
417.167	3208.08
420.06	2586.45
422.952	2172.79
425.845	2378.97
428.738	2651.12
431.63	2469.3
434.523	1791.28
437.416	1102.72
440.308	968.936
443.201	1085.94
446.094	1055.55
448.987	556.017
451.879	192.211
454.772	76.3281
457.665	15.1312
460.557	-15.56
463.45	-22.5972
466.343	-3.43759
469.236	49.4521
472.128	144.865
475.021	313.566
477.914	621.996
480.806	1082.32
483.699	1685.77
486.592	1668.7
489.484	777.532
492.377	358.273
495.27	252.114
498.163	303.896
501.055	472.883
503.948	691.525
506.841	875.136
509.733	948.837
512.626	784.169
515.519	497.088
518.411	213.636
521.304	54.1614
524.197	18.2277
527.09	9.89456
529.982	14.8759
532.875	41.8705
535.768	131.077
538.66	269.536
541.553	370.862
544.446	488.933
547.338	459.83
550.231	353.231
553.124	293.635
556.016	421.225
558.909	568.7
561.802	580.73
564.695	517.668
567.587	526.323
570.48	706.924
573.373	872.612
576.265	886.858
579.158	782.277
582.051	886.796
584.943	1106.49
587.836	1314.57
590.729	1176.53
593.621	704.037
596.514	334.272
599.407	174.824
602.3	113.236
605.192	117.57
608.085	133.457
610.978	162.129
613.87	248.028
616.763	233.355
619.656	262.216
622.548	170.679
625.441	75.1157
628.334	0.595244
631.227	-0.774916
634.119	39.5731
637.012	110.607
639.905	207.927
642.797	276.674
645.69	257.474
648.583	130.823
651.476	40.6869
654.368	10.8636
657.261	6.0678
660.154	12.0133
663.046	37.3989
665.939	155.837
668.832	304.287
671.724	630.275
674.617	925.431
677.51	1000.77
680.403	760.536
683.295	434.801
686.188	250.073
689.081	171.495
691.973	213.867
694.866	285.438
697.759	470.207
700.651	814.777
703.544	1391.46
706.437	2538.1
709.33	4104.47
712.222	5715.91
715.115	6040.31
718.008	4334.47
720.9	2481.69
723.793	1413.56
726.686	807.127
729.578	494.37
732.471	325.119
735.364	176.665
738.256	134.521
741.149	114.594
744.042	33.9049
746.935	76.2938
749.827	89.2296
752.72	124.032
755.613	199.597
758.505	323.625
761.398	495.219
764.291	723.356
767.183	830.859
770.076	762.77
772.969	574.618
775.862	363.144
778.754	226.261
781.647	133.44
784.54	93.0569
787.432	39.4528
790.325	17.7844
793.218	4.14142
796.111	1.74316
799.003	26.0883
801.896	16.4222
804.789	58.2629
807.681	163.879
810.574	246.819
813.467	268.452
816.359	164.948
819.252	57.157
822.145	4.38995
825.038	11.4053
827.93	11.7261
830.823	14.11
833.716	11.1127
836.608	9.95038
839.501	28.8221
842.394	48.5675
845.286	85.1172
848.179	118.575
851.072	124.538
853.965	115.587
856.857	121.139
859.75	71.5032
862.643	75.6188
865.535	67.1321
868.428	32.6865
871.321	3.99347
874.213	14.141
877.106	10.2719
879.999	20.0151
882.891	58.9676
885.784	121.837
888.677	222.356
891.57	413.337
894.462	659.188
897.355	927.592
900.248	1035.85
903.14	950.712
906.033	777.286
908.926	581.613
911.818	421.533
914.711	187.626
917.604	42.5375
920.497	13.7474
923.389	12.8048
926.282	30.9169
929.175	101.393
932.067	124.992
934.96	80.8938
937.853	22.217
940.745	9.36755
943.638	120.145
946.531	287.617
949.424	510.058
952.316	694.833
955.209	953.723
958.102	1275.9
960.994	1766.93
963.887	2054.79
966.78	1907.94
969.673	1596.14
972.565	1689.48
975.458	2122.43
978.351	2436.01
981.243	2275.41
984.136	1785.68
987.029	1445.72
989.921	1334.28
992.814	1247.13
995.707	1330.56
998.6	1544.87
1001.49	1782.61
1004.38	1893.33
1007.28	1634.39
1010.17	1082.27
1013.06	631.315
1015.96	314.346
1018.85	142.159
1021.74	87.0502
1024.63	122.408
1027.53	158.074
1030.42	107.275
1033.31	49.3676
1036.2	7.20148
1039.1	22.3122
1041.99	4.60327
1044.88	6.21295
1047.78	10.7748
1050.67	17.5437
1053.56	94.3475
1056.45	142.618
1059.35	140.885
1062.24	153.852
1065.13	96.2768
1068.02	30.7496
1070.92	25.7711
1073.81	77.7805
1076.7	187.534
1079.6	345.255
1082.49	488.887
1085.38	397.325
1088.27	298.244
1091.17	196.69
1094.06	132.162
1096.95	117.6
1099.84	107.65
1102.74	135.001
1105.63	146.496
1108.52	127.398
1111.41	79.5285
1114.31	66.0605
1117.2	63.0215
1120.09	38.6431
1122.99	38.8823
1125.88	30.8331
1128.77	9.50595
1131.66	17.7725
1134.56	6.73984
1137.45	11.586
1140.34	1.94253
1143.23	12.3083
1146.13	9.18021
1149.02	19.8285
1151.91	33.8323
1154.81	18.0985
1157.7	13.7357
1160.59	15.8168
1163.48	25.3637
1166.38	20.8694
1169.27	25.4747
1172.16	36.7767
1175.05	25.3187
1177.95	25.5217
1180.84	36.9294
1183.73	50.4442
1186.62	18.559
1189.52	67.9647
1192.41	48.2555
1195.3	39.1556
1198.2	52.1285
1201.09	27.7218
1203.98	10.5999
1206.87	14.1719
1209.77	31.9539
1212.66	24.0032
1215.55	47.6658
1218.44	24.8388
1221.34	36.0836
1224.23	33.1167
1227.12	33.3719
1230.02	46.6711
1232.91	34.0355
1235.8	9.75189
1238.69	0.356506
1241.59	46.5533
1244.48	13.6346
1247.37	42.0022
1250.26	45.2866
1253.16	18.3829
1256.05	7.79282
1258.94	25.4019
