Measurement: Raman, 785 nm, unoriented, Raman Data Processed
Mineral: Axinite-(Fe)
Rruff sample: R050026
Ideal chemistry: Ca_4_Fe^2+^_2_Al_4_[B_2_Si_8_O_30_](OH)_2_
Locality: Pouyva mine, Polar Urals, Western Siberian Region, Russia
Source: Rock Currier
Description: Brown transparent flat crystal
Measured chemistry: Ca_2.00_(Fe^2+^_0.61_Mn_0.26_Mg_0.13_)Al_2.00_BSi_4_O_15_(OH)
Raman shift (cm-1)	intensity
146.572	0
149.464	361.659
152.357	440.011
155.25	164.377
158.142	9.83484
161.035	18.5802
163.928	118.307
166.821	368.48
169.713	731.675
172.606	935.618
175.499	643.568
178.391	338.18
181.284	147.876
184.177	26.7545
187.069	79.4963
189.962	266.44
192.855	621.57
195.748	637.084
198.64	567.975
201.533	773.316
204.426	1231.66
207.318	1558.34
210.211	1437.06
213.104	1151.96
215.996	895.842
218.889	795.749
221.782	522.442
224.674	158.117
227.567	56.7473
230.46	22.6103
233.353	18.3151
236.245	43.0624
239.138	120.809
242.031	225.408
244.923	308.783
247.816	310.086
250.709	380.821
253.601	681.939
256.494	942.561
259.387	756.418
262.28	746.595
265.172	897.012
268.065	1170.33
270.958	1520.3
273.85	1785.66
276.743	1747.81
279.636	1439.3
282.529	1012.82
285.421	844.773
288.314	816.576
291.207	816
294.099	848.607
296.992	840.603
299.885	846.254
302.777	1035.6
305.67	1318.93
308.563	1330.37
311.455	1050.25
314.348	1043.28
317.241	1338.53
320.134	1575.33
323.026	1191.14
325.919	887.178
328.812	836.452
331.704	842.547
334.597	897.634
337.49	1158.52
340.382	1640.56
343.275	1986.35
346.168	1631.48
349.061	1223.15
351.953	1050.04
354.846	675.298
357.739	216.538
360.631	45.5239
363.524	12.1806
366.417	5.80357
369.31	3.65554
372.202	19.5811
375.095	61.9397
377.988	147.823
380.88	217.627
383.773	456.821
386.666	856.605
389.558	1147.88
392.451	960.117
395.344	576.332
398.236	337.699
401.129	262.147
404.022	302.599
406.915	363.493
409.807	561.427
412.7	1005.7
415.593	1769.46
418.485	2224.61
421.378	1839.64
424.271	1681.18
427.163	1433.26
430.056	1150.9
432.949	768.153
435.842	516.365
438.734	507.271
441.627	743.082
444.52	1028.28
447.412	689.929
450.305	257.936
453.198	93.4569
456.091	60.1212
458.983	11.3981
461.876	27.5633
464.769	27.7092
467.661	77.0203
470.554	185.048
473.447	267.227
476.339	380.564
479.232	637.874
482.125	1082.1
485.017	1352.79
487.91	858.699
490.803	331.368
493.696	202.869
496.588	178.791
499.481	238.533
502.374	301.498
505.266	336.076
508.159	429.228
511.052	399.911
513.944	351.702
516.837	186.996
519.73	54.7341
522.623	10.4575
525.515	0.38147
528.408	26.2108
531.301	23.608
534.193	44.6185
537.086	24.7319
539.979	38.1642
542.871	22.9137
545.764	11.348
548.657	15.453
551.55	13.7725
554.442	36.2972
557.335	122.784
560.228	233.75
563.12	283.166
566.013	327.846
568.906	435.498
571.798	587.033
574.691	537.871
577.584	431.459
580.477	393.678
583.369	408.889
586.262	508.204
589.155	542.998
592.047	442.247
594.94	228.549
597.833	110.365
600.726	84.0172
603.618	75.9048
606.511	126.844
609.404	184.506
612.296	239.142
615.189	322.309
618.082	340.141
620.974	279.638
623.867	152.888
626.76	53.7737
629.653	5.22778
632.545	6.0509
635.438	61.5767
638.331	105.904
641.223	217.232
644.116	190.979
647.009	146.076
649.901	72.848
652.794	7.79797
655.687	21.9959
658.58	17.5259
661.472	27.5835
664.365	11.5501
667.258	113.259
670.15	202.518
673.043	366.964
675.936	475.522
678.828	502.546
681.721	315.358
684.614	179.52
687.506	103.277
690.399	79.5372
693.292	142.92
696.185	244.065
699.077	425.461
701.97	713.873
704.863	1176.86
707.755	1860.05
710.648	2676.6
713.541	3171.64
716.433	2809.23
719.326	1798.36
722.219	1099.86
725.112	573.147
728.004	354.514
730.897	229.674
733.79	132.079
736.682	89.5149
739.575	66.9036
742.468	10.3873
745.361	28.0129
748.253	48.4904
751.146	55.3623
754.039	72.6741
756.931	124.508
759.824	191.785
762.717	256.623
765.609	359.991
768.502	380.274
771.395	315.623
774.288	193.019
777.18	156.738
780.073	93.5433
782.966	58.879
785.858	41.5859
788.751	47.939
791.644	34.0994
794.536	2.2417
797.429	26.0559
800.322	10.4071
803.215	28.9574
806.107	69.5499
809	94.827
811.893	122.895
814.785	116.962
817.678	40.3619
820.571	27.8717
823.463	18.5154
826.356	11.3295
829.249	11.4595
832.141	7.57178
835.034	18.3822
837.927	7.04211
840.82	11.0155
843.712	30.8806
846.605	57.6707
849.498	60.4995
852.39	101.527
855.283	58.9799
858.176	40.2765
861.068	16.4109
863.961	27.0614
866.854	0.4729
869.747	17.4596
872.639	16.6879
875.532	33.5892
878.425	41.6418
881.317	98.8308
884.21	77.4959
887.103	153.607
889.995	265.364
892.888	433.565
895.781	583.839
898.674	811.838
901.566	902.062
904.459	919.187
907.352	864.568
910.244	729.47
913.137	477.397
916.03	267.389
918.923	113.338
921.815	28.373
924.708	34.7733
927.601	6.25122
930.493	23.0697
933.386	0.006348
936.279	7.23767
939.171	53.7279
942.064	147.334
944.957	302.651
947.85	488.8
950.742	710.797
953.635	959.58
956.528	1204.03
959.42	1594.3
962.313	1956.31
965.206	1898.12
968.098	1546.79
970.991	1301.6
973.884	1310.38
976.777	1528.8
979.669	1552.95
982.562	1365.4
985.455	1230.3
988.347	1206.2
991.24	1219.04
994.133	1172.4
997.025	1172.01
999.918	1226.04
1002.81	1284.33
1005.7	1078.22
1008.6	750.126
1011.49	499.822
1014.38	318.132
1017.27	180.604
1020.17	118.841
1023.06	120.571
1025.95	127.909
1028.85	86.8151
1031.74	49.1086
1034.63	27.1433
1037.52	14.79
1040.42	9.77271
1043.31	17.6578
1046.2	11.5873
1049.09	28.839
1051.99	72.5789
1054.88	97.5315
1057.77	117.358
1060.66	82.8334
1063.56	27.9882
1066.45	11.5308
1069.34	8.02441
1072.24	45.0366
1075.13	86.1995
1078.02	114.619
1080.91	158.966
1083.81	156.486
1086.7	147.038
1089.59	85.9867
1092.48	37.6962
1095.38	75.6702
1098.27	82.4081
1101.16	90.1094
1104.06	106.073
1106.95	102.9
1109.84	97.8206
1112.73	30.6244
1115.63	56.2642
1118.52	46.7195
1121.41	27.5447
1124.3	25.5226
1127.2	37.6691
1130.09	14.7063
1132.98	5.23889
1135.88	1.33734
1138.77	12.9728
1141.66	17.9743
1144.55	10.697
1147.45	12.3844
1150.34	8.14117
1153.23	3.00501
1156.12	18.2789
1159.02	27.7188
1161.91	26.2488
1164.8	15.7218
1167.69	22.2572
1170.59	3.94781
1173.48	3.69342
1176.37	23.0067
1179.27	20.227
1182.16	13.7996
1185.05	1.05139
1187.94	16.6413
1190.84	13.8822
1193.73	11.9833
1196.62	14.2869
1199.51	20.7527
1202.41	40.8875
1205.3	26.5277
1208.19	28.9379
1211.09	33.7914
1213.98	7.83057
1216.87	39.0388
1219.76	14.077
1222.66	23.0677
1225.55	9.29608
