Measurement: Raman, 532 nm, unoriented, Raman Data Processed
Mineral: Axinite-(Fe)
Rruff sample: R060194
Ideal chemistry: Ca_4_Fe^2+^_2_Al_4_[B_2_Si_8_O_30_](OH)_2_
Locality: near Dalbandi, Baluchistan Province, Pakistan
Source: Herbert Obodda
Description: Brown transparent wedge-shaped single crystal
Measured chemistry: Ca_2.00_(Fe^2+^_0.66_Mg_0.30_Mn_0.04_)Al_2.00_BSi_4.00_O_15_(OH)
Raman shift (cm-1)	intensity
135.469	0
138.843	32.8028
142.218	72.3417
145.593	52.3149
148.968	74.4476
152.343	164.955
155.718	209.907
159.092	201.802
162.467	172.929
165.842	199.692
169.217	304.083
172.592	306.053
175.966	144.825
179.341	45.5404
182.716	7.90733
186.091	8.26962
189.466	0.620728
192.84	44.0997
196.215	80.7667
199.59	68.5841
202.965	109.548
206.34	175.006
209.715	238.414
213.089	245.931
216.464	187.671
219.839	115.97
223.214	58.9261
226.589	14.8095
229.964	6.96428
233.338	12.743
236.713	9.95096
240.088	8.62169
243.463	30.0945
246.838	59.4803
250.212	93.8625
253.587	147.946
256.962	193.246
260.337	200.677
263.712	245.383
267.086	323.655
270.461	412.025
273.836	459.987
277.211	421.553
280.586	319.07
283.961	224.192
287.335	204.73
290.71	225.347
294.085	269.786
297.46	323.03
300.835	346.185
304.209	335.423
307.584	313.096
310.959	245.926
314.334	196.414
317.709	218.724
321.084	203.051
324.458	113.308
327.833	78.1614
331.208	96.8688
334.583	104.135
337.958	135.336
341.332	212.664
344.707	304.739
348.082	306.982
351.457	290.31
354.832	244.612
358.207	111.1
361.581	29.0025
364.956	5.02245
368.331	12.4609
371.706	13.3516
375.08	4.27087
378.455	14.3262
381.83	41.5449
385.205	92.9562
388.58	165.988
391.955	200.035
395.329	174.04
398.704	111.382
402.079	84.4436
405.454	85.3993
408.829	100.784
412.204	145.539
415.578	228.993
418.953	322.16
422.328	324.236
425.703	359.961
429.078	392.094
432.452	355.092
435.827	235.801
439.202	167.725
442.577	200.711
445.952	242.92
449.327	129.127
452.701	39.2144
456.076	9.26133
459.451	0.25399
462.826	6.43896
466.201	1.54358
469.575	16.6755
472.95	37.2052
476.325	51.2957
479.7	81.6274
483.075	131.117
486.45	144.886
489.824	67.1292
493.199	9.79279
496.574	0.37738
499.949	5.40517
503.324	16.7741
506.698	35.4416
510.073	60.7006
513.448	74.1197
516.823	59.6283
520.198	31.6805
523.572	6.04021
526.947	1.92822
530.322	3.57159
533.697	5.81647
537.072	13.7749
540.447	25.0313
543.821	41.962
547.196	48.1243
550.571	34.5655
553.946	23.7158
557.321	30.7955
560.695	49.2254
564.07	46.3432
567.445	30.0348
570.82	35.6004
574.195	52.2079
577.569	65.1661
580.944	78.4623
584.319	109.588
587.694	149.52
591.069	159.08
594.443	93.8987
597.818	36.2129
601.193	17.7261
604.568	19.0339
607.943	26.8981
611.318	39.9791
614.692	42.393
618.067	40.8195
621.442	24.5149
624.817	8.10477
628.192	4.87725
631.567	1.02975
634.941	4.76601
638.316	18.1596
641.691	37.9215
645.066	43.7553
648.441	27.1006
651.815	8.47348
655.19	3.71642
658.565	0.517601
661.94	8.57542
665.315	33.6834
668.689	66.1517
672.064	118.53
675.439	177.721
678.814	176.823
682.189	106.514
685.564	51.306
688.938	31.8379
692.313	41.1557
695.688	75.0336
699.063	142.973
702.438	259.476
705.812	419.978
709.187	655.123
712.562	895.328
715.937	871.822
719.312	538.385
722.687	278.53
726.061	146.58
729.436	80.7939
732.811	44.499
736.186	23.8108
739.561	10.0678
742.936	1.05352
746.31	0.081757
749.685	0.148178
753.06	3.85358
756.435	14.1016
759.81	29.302
763.184	46.4161
766.559	64.1074
769.934	60.3282
773.309	43.3024
776.684	24.9581
780.058	14.8152
783.433	8.01788
786.808	4.30962
790.183	2.98
793.558	0.476707
796.933	0.738182
800.307	1.31165
803.682	4.11513
807.057	10.7153
810.432	17.2226
813.807	16.8683
817.181	8.39645
820.556	1.72131
823.931	2.34927
827.306	1.22471
830.681	3.26067
834.056	0.526413
837.43	1.03945
840.805	1.62431
844.18	10.3433
847.555	13.3756
850.93	20.1647
854.304	21.755
857.679	21.0389
861.054	21.7212
864.429	19.5176
867.804	23.1269
871.178	23.8779
874.553	24.4418
877.928	31.0505
881.303	35.9776
884.678	38.5703
888.053	55.6245
891.427	78.0565
894.802	108.708
898.177	134.516
901.552	139.449
904.927	120.841
908.302	88.0861
911.676	45.823
915.051	14.3813
918.426	1.08508
921.801	3.73429
925.176	0.811707
928.55	6.35907
931.925	11.8501
935.3	7.91075
938.675	0.311661
942.05	6.29059
945.424	22.7656
948.799	47.687
952.174	85.5921
955.549	134.083
958.924	208.006
962.298	295.704
965.673	350.581
969.048	324.923
972.423	325.564
975.798	395.553
979.173	480.002
982.547	454.484
985.922	354.362
989.297	292.202
992.672	271.861
996.047	281.805
999.421	293.064
1002.8	273.987
1006.17	222.951
1009.55	146.694
1012.92	77.5583
1016.3	33.9205
1019.67	10.1223
1023.04	1.65284
1026.42	2.0465
1029.8	0.282623
1033.17	1.10446
1036.54	1.07582
1039.92	6.27276
1043.29	12.0667
1046.67	13.2175
1050.04	21.6965
1053.42	38.3128
1056.79	43.7675
1060.17	36.0061
1063.54	22.411
1066.92	6.80995
1070.29	2.5546
1073.67	10.9227
1077.04	29.1329
1080.42	54.2079
1083.79	72.791
1087.17	64.6326
1090.54	34.6885
1093.92	17.8921
1097.29	11.2433
1100.67	11.3753
1104.04	13.1456
1107.42	13.7285
1110.79	11.3133
1114.16	6.03592
1117.54	0.910866
1120.91	0.688229
1124.29	0.43536
1127.66	0.403229
1131.04	0.45034
1134.41	1.17286
1137.79	0.329716
1141.16	1.9341
1144.54	2.3735
1147.91	0.796131
1151.29	2.90846
1154.66	3.69965
1158.04	6.44276
1161.41	3.8177
1164.79	4.11409
1168.16	3.54976
1171.54	5.31171
1174.91	5.78979
1178.29	4.76129
1181.66	5.62896
1185.04	5.83299
1188.41	5.66267
1191.79	4.89767
1195.16	3.99401
1198.54	2.77092
1201.91	4.29731
1205.29	4.17052
1208.66	3.20047
1212.04	3.22381
1215.41	1.75922
1218.79	3.38609
1222.16	2.0566
1225.53	3.2562
1228.91	2.75459
1232.28	2.49141
1235.66	2.29428
1239.03	3.78019
1242.41	2.13321
1245.78	2.75696
1249.16	3.87865
1252.53	2.59413
1255.91	1.87831
1259.28	1.94135
1262.66	1.43988
1266.03	4.11233
1269.41	2.84882
1272.78	1.34235
1276.16	2.39354
1279.53	2.89038
1282.91	3.14463
1286.28	1.94669
1289.66	0.95063
1293.03	0.021378
1296.4	2.45049
1299.78	0.74456
1303.15	0.003651
