Measurement: Raman, 532 nm, unoriented, Raman Data Processed
Mineral: Axinite-(Fe)
Rruff sample: R060558
Ideal chemistry: Ca_4_Fe^2+^_2_Al_4_[B_2_Si_8_O_30_](OH)_2_
Locality: unknown
Source: Gemological Institute of America
Description: Brown flattened crystal
Measured chemistry: Ca_2.00_(Fe^2+^_0.60_Mg_0.35_Mn_0.05_)_Î£=1_Al_2.00_BSi_4.00_O_15_(OH) ; B not measured
Raman shift (cm-1)	intensity
130.682	0
134.057	11.542
137.432	627.343
140.806	1779.3
144.181	1711.4
147.556	1297.52
150.931	1768.39
154.306	1601.99
157.68	1407.38
161.055	1550.5
164.43	2160.21
167.805	3809.39
171.18	5216.66
174.555	3331.16
177.929	1180.06
181.304	34.883
184.679	40.569
188.054	23.226
191.429	1093.19
194.803	2788.82
198.178	1434.48
201.553	2078.98
204.928	3318.6
208.303	4614.57
211.678	5237.46
215.052	4926.91
218.427	3771.24
221.802	2304.74
225.177	943.131
228.552	117.859
231.926	5.174
235.301	111.187
238.676	147.291
242.051	66.659
245.426	81.406
248.801	399.352
252.176	1231.7
255.55	1742.15
258.925	1714.29
262.3	2636.41
265.675	4468.04
269.05	6481.58
272.424	7290.54
275.799	6379.97
279.174	4631.01
282.549	2421.37
285.924	1738.2
289.298	2038.66
292.673	3333.36
296.048	4671.31
299.423	5833.08
302.798	5705.52
306.172	5038.4
309.547	4173.61
312.922	3518.34
316.297	4498.69
319.672	5653.3
323.047	3706.98
326.422	1564.27
329.796	954.809
333.171	834.396
336.546	1036.43
339.921	2299.78
343.296	5271.3
346.67	6413.1
350.045	4739.1
353.42	4422.56
356.795	2608.84
360.17	730.277
363.544	46.213
366.919	31.09
370.294	22.649
373.669	21.99
377.044	110.44
380.419	55.578
383.793	746.182
387.168	2246.99
390.543	3807.68
393.918	3254.09
397.293	1748.44
400.668	1144.79
404.042	1111.3
407.417	1313.72
410.792	1980.36
414.167	3908.68
417.542	8137.43
420.916	6454.12
424.291	5316.43
427.666	6819.98
431.041	8389.01
434.416	6297.91
437.79	3261.65
441.165	2512.54
444.54	3390.38
447.915	2515.39
451.29	919.591
454.665	264.37
458.039	1.223
461.414	43.42
464.789	15.245
468.164	27.596
471.539	87.429
474.914	351.581
478.288	826.048
481.663	1847.54
485.038	3485.27
488.413	2711.58
491.788	849.011
495.162	325.224
498.537	303.729
501.912	553.891
505.287	791.59
508.662	1202.33
512.036	1199.52
515.411	695.254
518.786	257.129
522.161	29.299
525.536	13.438
528.911	37.707
532.286	18.858
535.66	254.112
539.035	573.887
542.41	1165.95
545.785	1781.85
549.159	1465.2
552.534	957.752
555.909	914.963
559.284	1469.98
562.659	1770.06
566.034	1338.38
569.408	1371.49
572.783	1935.69
576.158	2185.22
579.533	1786.01
582.908	1671.81
586.282	2301.87
589.657	3140.25
593.032	2271.31
596.407	983.138
599.782	295.022
603.157	109.644
606.531	104.119
609.906	236.14
613.281	389.501
616.656	551.469
620.031	588.065
623.406	284.501
626.78	42.54
630.155	12.818
633.53	22.008
636.905	110.464
640.28	484.121
643.654	797.408
647.029	742.289
650.404	289.384
653.779	49.795
657.154	10.661
660.529	7.034
663.903	19.84
667.278	327.177
670.653	1021.13
674.028	2187.34
677.403	2867.57
680.778	1818.95
684.152	833.1
687.527	395.873
690.902	251.27
694.277	470.135
697.652	972.714
701.026	2040.95
704.401	4125.68
707.776	7748.2
711.151	13940.6
714.526	18223.3
717.901	12977.2
721.275	6738.18
724.65	3424.75
728.025	1769.52
731.4	962.298
734.775	434.388
738.149	217.591
741.524	30.547
744.899	28.506
748.274	25.18
751.649	60.297
755.023	296.755
758.398	711.641
761.773	1261.62
765.148	1960.74
768.523	2338.16
771.898	1868.37
775.272	1142.21
778.647	677.838
782.022	367.601
785.397	166.403
788.772	68.831
792.146	24.005
795.521	24.748
798.896	4.971
802.271	44.541
805.646	105.61
809.021	324.315
812.395	545.82
815.77	477.122
819.145	193.963
822.52	7.609
825.895	41.931
829.269	45.361
832.644	35.238
836.019	20.759
839.394	5.034
842.769	76.19
846.144	137.062
849.518	234.493
852.893	257.671
856.268	196.279
859.643	147.036
863.018	126.324
866.393	127.539
869.767	87.282
873.142	62.175
876.517	72.689
879.892	104.994
883.267	133.535
886.641	258.516
890.016	472.395
893.391	886.293
896.766	1505.05
900.141	1870.14
903.516	1996.1
906.89	1946.5
910.265	1721.7
913.64	1210.89
917.015	467.678
920.39	6.113
923.764	2.166
927.139	15.432
930.514	172.414
933.889	194.489
937.264	38.353
940.638	55.881
944.013	141.456
947.388	617.706
950.763	1316.21
954.138	2299.97
957.513	3321.69
960.888	5242.16
964.262	7131.66
967.637	6573.64
971.012	5204.9
974.387	5578.99
977.761	7438.7
981.136	8101.06
984.511	6260.71
987.886	4639.79
991.261	4213.97
994.636	4110.95
998.01	4340.93
1001.38	4927.21
1004.76	5113.02
1008.13	4363.56
1011.51	2518.16
1014.88	1026.6
1018.26	323.343
1021.63	1.033
1025.01	5.185
1028.38	122.31
1031.76	103.867
1035.13	8.816
1038.51	56.174
1041.88	30.61
1045.26	5.393
1048.63	35.619
1052.01	271.978
1055.38	561.112
1058.76	643.687
1062.13	641.04
1065.51	376.804
1068.88	136.653
1072.26	157.163
1075.63	459.024
1079.01	1120.64
1082.38	2133.15
1085.76	2355.99
1089.13	1538.86
1092.51	840.472
1095.88	477.12
1099.26	389.63
1102.63	357.446
1106.01	373.495
1109.38	336.501
1112.75	197.553
1116.13	109.231
1119.5	28.213
1122.88	35.502
1126.25	3.214
1129.63	4.49
1133	0.018
1136.38	2.09
1139.75	9.806
1143.13	2.237
1146.5	3.934
1149.88	26.938
1153.25	35.496
1156.63	41.537
1160	31.738
1163.38	58.15
1166.75	75.606
1170.13	70.671
1173.5	39.547
1176.88	84.005
1180.25	66.435
1183.62	107.76
1187	99.051
1190.38	99.792
1193.75	106.742
1197.12	77.623
1200.5	48.063
1203.87	80.217
1207.25	55.674
1210.62	92.355
1214	47.83
1217.37	40.355
1220.75	24.747
1224.12	29.055
1227.5	6.626
1230.87	47.965
1234.25	46.205
1237.62	54.743
1241	57.655
1244.37	15.552
1247.75	18.202
1251.12	17.202
1254.5	30.805
1257.87	58.604
1261.25	14.964
1264.62	28.933
1268	22.868
1271.37	63.193
1274.75	45.856
1278.12	30.036
1281.49	71.495
1284.87	0.066
1288.24	10.472
1291.62	0
