Measurement: Raman, 785 nm, unoriented, Raman Data Processed
Mineral: Axinite-(Mg)
Rruff sample: R070133
Ideal chemistry: Ca_4_Mg_2_Al_4_[B_2_Si_8_O_30_](OH)_2_
Locality: Merelani, Tanzania
Source: Michael Gray
Description: Pale brown cut gem stone
Measured chemistry: Ca_4.00_(Mg_1.86_Al_0.08_Mn_0.06_)_Σ=2_Al_4.00_[B_2_(Si_7.92_Al_0.08_)_Σ=8_O_30_](OH)_2_; B and OH not measured but assumed by stoichiometry
Raman shift (cm-1)	intensity
147.826	0
150.719	128.772
153.612	183.041
156.505	55.562
159.397	110.516
162.29	231.17
165.183	338.09
168.075	154.357
170.968	69.4363
173.861	33.6592
176.753	34.9415
179.646	21.065
182.539	10.2755
185.431	8.97311
188.324	49.536
191.217	75.6768
194.11	116.041
197.002	191.337
199.895	111.623
202.788	28.1794
205.68	15.2093
208.573	49.1791
211.466	100.262
214.358	218.848
217.251	212.373
220.144	144.708
223.037	165.069
225.929	175.293
228.822	125.514
231.715	84.2638
234.607	34.3591
237.5	7.59816
240.393	20.357
243.286	1.83135
246.178	6.0192
249.071	20.0901
251.964	85.5955
254.856	169.382
257.749	225.498
260.642	321.983
263.534	487.673
266.427	743.713
269.32	1057.24
272.212	1139.71
275.105	784.963
277.998	522.645
280.891	238.521
283.783	119.686
286.676	91.6565
289.569	137.554
292.461	197.886
295.354	251.101
298.247	394.938
301.139	555.799
304.032	565.12
306.925	294.306
309.818	143.138
312.71	106.542
315.603	119.109
318.496	184.038
321.388	246.039
324.281	164.615
327.174	97.4282
330.067	41.0967
332.959	20.0577
335.852	37.1754
338.745	67.3624
341.637	106.289
344.53	160.745
347.423	297.002
350.315	418.147
353.208	452.629
356.101	469.659
358.993	471.486
361.886	240.041
364.779	65.9454
367.672	3.01385
370.564	22.9631
373.457	13.4188
376.35	1.10858
379.242	12.2819
382.135	30.6162
385.028	38.2338
387.921	96.0183
390.813	157.899
393.706	234.212
396.599	289.163
399.491	180.699
402.384	133.986
405.277	197.507
408.169	266.94
411.062	274.253
413.955	320.839
416.848	446.729
419.74	612.026
422.633	469.586
425.526	285.108
428.418	246.632
431.311	282.574
434.204	316.961
437.096	300.777
439.989	208.806
442.882	134.979
445.774	148.944
448.667	176.826
451.56	113.838
454.452	31.1725
457.345	2.75558
460.238	8.96593
463.131	0.237335
466.023	5.25859
468.916	8.27069
471.809	15.2714
474.701	28.0326
477.594	76.2039
480.487	123.094
483.38	193.394
486.272	301.658
489.165	449.672
492.058	449.483
494.95	232.353
497.843	135.803
500.736	110.178
503.628	119.523
506.521	140.494
509.414	160.243
512.307	145.024
515.199	115.406
518.092	54.4085
520.985	36.71
523.877	10.0799
526.77	4.09407
529.663	3.14433
532.555	7.94307
535.448	0.187515
538.341	18.5633
541.234	19.1296
544.126	15.044
547.019	13.0789
549.912	25.3931
552.804	8.79196
555.697	21.3901
558.59	15.2269
561.482	30.3025
564.375	41.8029
567.268	43.0748
570.16	43.402
573.053	70.878
575.946	94.6968
578.839	134.436
581.731	150.446
584.624	166.381
587.517	179.095
590.409	227.817
593.302	230.584
596.195	156.225
599.087	73.4119
601.98	37.6097
604.873	10.2055
607.766	23.3365
610.658	24.2224
613.551	21.4194
616.444	19.7467
619.336	22.9988
622.229	30.9231
625.122	15.2816
628.014	5.73537
630.907	0.701904
633.8	4.40076
636.693	2.20131
639.585	4.269
642.478	10.5968
645.371	23.471
648.263	19.9991
651.156	5.23053
654.049	0.835129
656.942	3.52571
659.834	2.72093
662.727	0.937286
665.62	41.0933
668.512	73.1774
671.405	102.981
674.298	134.497
677.19	125.457
680.083	92.3727
682.976	47.3957
685.869	20.743
688.761	16.2198
691.654	28.8299
694.547	35.4353
697.439	67.8309
700.332	118.624
703.225	196.549
706.117	337.476
709.01	513.655
711.903	725.54
714.795	880.001
717.688	827.745
720.581	541.16
723.474	310.332
726.366	179.394
729.259	90.6951
732.152	50.2475
735.044	34.4218
737.937	21.9445
740.83	9.1026
743.722	14.283
746.615	13.4956
749.508	6.24968
752.401	14.0992
755.293	19.2184
758.186	34.4388
761.079	48.2483
763.971	67.8839
766.864	95.8963
769.757	99.685
772.649	89.4896
775.542	57.3357
778.435	30.5308
781.328	11.4493
784.22	3.02301
787.113	9.36594
790.006	4.32916
792.898	4.65404
795.791	3.76473
798.684	1.50615
801.576	2.2191
804.469	14.4263
807.362	15.6955
810.255	36.19
813.147	54.779
816.04	71.3052
818.933	74.9275
821.825	46.5871
824.718	28.0413
827.611	0.672958
830.503	4.19199
833.396	8.0594
836.289	0.937149
839.182	10.3353
842.074	17.4364
844.967	27.2789
847.86	43.0635
850.752	39.135
853.645	19.0658
856.538	11.6789
859.43	9.11588
862.323	7.88707
865.216	1.11681
868.109	4.60834
871.001	0.227997
873.894	0.651031
876.787	10.2859
879.679	20.6992
882.572	66.6762
885.465	65.6778
888.357	96.0952
891.25	128.308
894.143	172.806
897.035	243.484
899.928	319.512
902.821	329.865
905.714	291.645
908.606	267.005
911.499	226.293
914.392	185.098
917.284	93.0184
920.177	35.4719
923.07	2.31599
925.962	0.647675
928.855	16.8449
931.748	28.4432
934.641	57.2243
937.533	59.8658
940.426	74.4957
943.319	31.4387
946.211	34.7378
949.104	52.1255
951.997	109.245
954.889	150.258
957.782	175.823
960.675	149.87
963.568	152.542
966.46	159.13
969.353	188.866
972.246	199.248
975.138	246.672
978.031	322.919
980.924	433.716
983.817	497.889
986.709	436.309
989.602	330.903
992.495	300.833
995.387	290.397
998.28	306.422
1001.17	362.693
1004.07	424.143
1006.96	510.274
1009.85	456.078
1012.74	330.701
1015.64	197.564
1018.53	130.276
1021.42	98.0905
1024.31	60.2244
1027.21	54.9294
1030.1	54.488
1032.99	28.4716
1035.88	45.6112
1038.78	31.0915
1041.67	1.79312
1044.56	13.8592
1047.46	14.392
1050.35	5.89888
1053.24	4.72339
1056.13	2.1544
1059.03	2.92932
1061.92	5.05855
1064.81	1.44154
1067.7	15.5068
1070.6	22.2016
1073.49	11.0752
1076.38	23.047
1079.28	24.3509
1082.17	25.0315
1085.06	27.9816
1087.95	21.9721
1090.85	36.2268
1093.74	35.7809
1096.63	34.4916
1099.52	34.4775
1102.42	41.8761
1105.31	39.8717
1108.2	30.7908
1111.1	46.1889
1113.99	33.8621
1116.88	38.4642
1119.77	34.8597
1122.67	19.455
1125.56	11.6782
1128.45	4.31471
1131.34	18.5892
1134.24	1.87926
1137.13	17.7187
1140.02	15.5896
1142.91	11.5924
1145.81	13.0836
1148.7	14.0043
1151.59	0.007813
1154.49	4.39035
1157.38	6.85461
1160.27	1.3139
1163.16	10.7489
1166.06	1.95966
1168.95	12.1756
1171.84	13.5068
1174.73	18.2715
1177.63	26.7014
1180.52	25.8249
1183.41	28.0347
1186.31	35.9318
1189.2	42.6242
1192.09	44.459
1194.98	45.3432
1197.88	35.3548
1200.77	27.5745
1203.66	35.6455
1206.55	21.1125
1209.45	27.9246
1212.34	13.8591
1215.23	27.0779
1218.12	25.7106
1221.02	18.2416
1223.91	13.3554
1226.8	1.19534
1229.7	16.8482
1232.59	5.7626
