Measurement: Raman, 532 nm, unoriented, Raman Data Processed
Mineral: Azurite
Rruff sample: R050497
Ideal chemistry: Cu_3_(CO_3_)_2_(OH)_2_
Locality: Tsumeb mine, Tsumeb, Otavi District, Oshikoto, Namibia
Source: Marcus Origlieri
Description: Blue prismatic single crystal
Measured chemistry: Cu_3.00_(CO_3_)_2_(OH)_2_
Raman shift (cm-1)	intensity
110.775	0
114.149	1.17522
117.524	2.57804
120.899	5.13378
124.274	17.9813
127.649	28.8446
131.024	74.6292
134.398	66.6046
137.773	53.6175
141.148	70.6714
144.523	28.244
147.898	16.3873
151.272	22.459
154.647	47.9783
158.022	31.9912
161.397	31.9887
164.772	46.0993
168.147	75.3532
171.521	121.888
174.896	67.2303
178.271	66.245
181.646	48.3684
185.021	8.09505
188.395	1.65265
191.77	0.082899
195.145	0.407505
198.52	0.181097
201.895	1.26274
205.269	0.498543
208.644	1.16333
212.019	1.01794
215.394	2.07374
218.769	1.28034
222.143	3.96562
225.518	8.26852
228.893	19.1737
232.268	49.6196
235.643	79.2027
239.018	102.27
242.392	130.798
245.767	223.084
249.142	314.618
252.517	107.025
255.892	40.6754
259.267	36.9468
262.641	48.7012
266.016	60.1964
269.391	47.3389
272.766	43.3162
276.141	57.9229
279.515	79.9283
282.89	82.2227
286.265	50.4112
289.64	26.5445
293.015	12.6558
296.389	5.29981
299.764	0.432787
303.139	0.640226
306.514	0.529263
309.889	2.34659
313.264	1.40865
316.638	0.62747
320.013	2.28191
323.388	5.51014
326.763	10.6588
330.138	16.8368
333.512	17.6023
336.887	10.5188
340.262	6.33943
343.637	6.2305
347.012	7.33058
350.387	10.9936
353.761	15.9861
357.136	22.8979
360.511	33.2793
363.886	47.757
367.261	61.4547
370.635	76.608
374.01	101.759
377.385	131.492
380.76	168.183
384.135	212.132
387.51	258.329
390.884	308.865
394.259	390.654
397.634	519.331
401.009	577.955
404.384	416.968
407.759	240.339
411.133	152.906
414.508	106.569
417.883	77.0863
421.258	54.2474
424.632	36.2105
428.007	25.7773
431.382	17.3972
434.757	11.7266
438.132	6.97347
441.507	4.27366
444.881	1.35689
448.256	0.015923
451.631	0.030237
455.006	0.392887
458.381	0.105947
461.755	0.264341
465.13	0.943628
468.505	0.523279
471.88	2.19075
475.255	0.654985
478.63	0.053223
482.004	0.390099
485.379	0.59288
488.754	0.261705
492.129	1.59296
495.504	1.5836
498.878	2.0795
502.253	0.314144
505.628	1.32492
509.003	2.65547
512.378	2.29407
515.753	2.92802
519.127	3.46026
522.502	5.00571
525.877	8.943
529.252	13.4629
532.627	21.248
536.001	30.1842
539.376	36.2949
542.751	34.1728
546.126	23.471
549.501	14.0998
552.876	9.44702
556.25	6.00514
559.625	4.33623
563	3.95113
566.375	2.19986
569.75	0.695097
573.125	0.074528
576.499	1.0535
579.874	1.51609
583.249	0.675941
586.624	0.818186
589.999	0.908218
593.373	0.544095
596.748	1.38865
600.123	0.768242
603.498	0.309834
606.873	0.926797
610.247	0.097349
613.622	0.765621
616.997	0.559117
620.372	0.4797
623.747	0.413087
627.121	1.99129
630.496	0.935884
633.871	1.57422
637.246	1.05884
640.621	0.727209
643.996	0.952097
647.37	1.54054
650.745	1.05147
654.12	1.90396
657.495	1.66788
660.87	1.28094
664.245	2.01395
667.619	1.24018
670.994	0.468309
674.369	0.106091
677.744	0.609834
681.119	0.793341
684.493	0.203458
687.868	0.499461
691.243	0.216893
694.618	0.05127
697.993	0.032578
701.367	0.400372
704.742	0.226457
708.117	0.154037
711.492	0.147943
714.867	0.725309
718.242	1.96052
721.616	3.93461
724.991	6.98837
728.366	11.5356
731.741	17.2804
735.116	23.7943
738.49	26.2027
741.865	24.8612
745.24	21.4316
748.615	22.8124
751.99	28.0147
755.365	38.8699
758.739	51.1629
762.114	58.2067
765.489	54.6238
768.864	38.9779
772.239	23.8679
775.614	14.7122
778.988	9.20517
782.363	5.2593
785.738	2.94677
789.113	1.21622
792.487	1.07079
795.862	0.975235
799.237	1.56502
802.612	2.95932
805.987	5.92853
809.362	9.66341
812.736	14.3883
816.111	18.3842
819.486	18.1647
822.861	23.2642
826.236	36.1993
829.611	54.6397
832.985	63.7166
836.36	66.5698
839.735	61.619
843.11	45.9946
846.485	30.2485
849.859	18.1113
853.234	9.41275
856.609	5.75837
859.984	3.79878
863.359	3.01471
866.734	0.483978
870.108	0.226017
873.483	0.993254
876.858	0.162601
880.233	0.390491
883.608	0.147952
886.982	0.27275
890.357	0.31662
893.732	0.130229
897.107	0.243685
900.482	0.685267
903.856	0.142212
907.231	0.656627
910.606	0.229898
913.981	0.804576
917.356	1.42578
920.731	2.11466
924.105	3.12642
927.48	4.63316
930.855	6.84135
934.23	9.30115
937.605	8.67378
940.98	7.65857
944.354	5.66269
947.729	4.2211
951.104	2.70043
954.479	2.0958
957.854	2.32352
961.228	1.22368
964.603	1.72141
967.978	1.2407
971.353	0.955914
974.728	1.91619
978.102	1.2395
981.477	1.32902
984.852	1.12549
988.227	0.711764
991.602	0.274088
994.977	0.509337
998.351	0.310133
1001.73	0.836183
1005.1	0.593791
1008.48	0.348916
1011.85	0.245129
1015.23	0.404191
1018.6	0.26921
1021.98	0.887815
1025.35	0.134614
1028.72	0.872197
1032.1	0.65788
1035.47	0.367043
1038.85	1.49555
1042.22	0.385361
1045.6	0.914367
1048.97	1.15087
1052.35	1.13741
1055.72	1.66378
1059.1	1.61019
1062.47	2.3352
1065.85	2.75621
1069.22	3.94
1072.6	4.67274
1075.97	6.53292
1079.35	9.39783
1082.72	16.8753
1086.1	32.0504
1089.47	56.3466
1092.85	96.951
1096.22	127.271
1099.6	73.2486
1102.97	31.0523
1106.35	15.7677
1109.72	10.0228
1113.1	6.38586
1116.47	4.45307
1119.85	3.40099
1123.22	1.81889
1126.59	1.7735
1129.97	1.87413
1133.34	0.781303
1136.72	1.42014
1140.09	0.287444
1143.47	1.69119
1146.84	0.342223
1150.22	0.904984
1153.59	0.263206
1156.97	0.040654
1160.34	0.735047
1163.72	0.71116
1167.09	0.287014
1170.47	0.257121
1173.84	0.645133
1177.22	0.405167
1180.59	0.420335
1183.97	0.925411
1187.34	1.69138
1190.72	0.561467
1194.09	1.88999
1197.47	1.10838
1200.84	0.81356
1204.21	1.01788
1207.59	1.20391
1210.96	0.599278
1214.34	1.04453
1217.71	1.04145
1221.09	0.989316
1224.46	1.6387
1227.84	1.04022
1231.21	0.486719
1234.59	0.641931
1237.96	1.21571
1241.34	1.16906
1244.71	0.876707
1248.09	1.21405
1251.46	1.96588
1254.84	0.091833
1258.21	0.494495
1261.59	0.288951
1264.96	0.895621
1268.34	2.17324
1271.71	1.00416
1275.09	0.464494
1278.46	1.08508
1281.84	0.798866
1285.21	1.22331
1288.59	0.023105
1291.96	1.32269
1295.34	0.002105
1298.71	1.58203
1302.09	0.459338
