Measurement: Raman, 532 nm, unoriented, Raman Data Processed
Mineral: Azurite
Rruff sample: R050638
Ideal chemistry: Cu_3_(CO_3_)_2_(OH)_2_
Locality: Zacatecas, Mexico
Source: University of Arizona Mineral Museum
Description: Blue bladed crystals
Measured chemistry: Cu_3.00_(CO_3_)_2_(OH)_2_
Raman shift (cm-1)	intensity
118.709	0
122.083	12.9304
125.458	28.3985
128.833	58.9335
132.208	151.881
135.583	151.127
138.958	312.489
142.332	162.133
145.707	55.201
149.082	40.6028
152.457	75.1963
155.832	85.2638
159.207	30.1023
162.581	55.0594
165.956	77.5155
169.331	126.652
172.706	151.483
176.081	168.941
179.455	268.765
182.83	95.0588
186.205	43.4016
189.58	51.7611
192.955	79.5424
196.329	63.802
199.704	17.5343
203.079	1.25438
206.454	2.50645
209.829	2.39484
213.204	2.24729
216.578	3.60184
219.953	1.33707
223.328	1.88471
226.703	14.9446
230.078	52.4291
233.452	112.246
236.827	154.498
240.202	198.779
243.577	307.307
246.952	543.564
250.327	419.522
253.701	89.1191
257.076	40.4283
260.451	39.684
263.826	58.5146
267.201	71.5325
270.575	74.9941
273.95	100.02
277.325	145.44
280.7	183.822
284.075	155
287.45	88.0254
290.825	50.3617
294.199	27.6746
297.574	9.50536
300.949	3.25315
304.324	0.530468
307.699	0.551872
311.073	3.34509
314.448	2.77952
317.823	1.62555
321.198	2.82624
324.573	6.40781
327.947	13.3463
331.322	19.2606
334.697	16.0744
338.072	11.149
341.447	10.3487
344.822	12.2709
348.196	17.1989
351.571	29.9898
354.946	42.5821
358.321	59.6474
361.696	82.3149
365.07	104.405
368.445	121.321
371.82	134.301
375.195	161.111
378.57	206.161
381.945	260.627
385.32	321.684
388.694	371.688
392.069	440.024
395.444	575.139
398.819	728.55
402.194	689.392
405.568	444.086
408.943	297.568
412.318	230.463
415.693	190.762
419.068	149.116
422.442	107.694
425.817	71.5071
429.192	47.0789
432.567	34.5108
435.942	22.2045
439.317	12.0221
442.691	4.73679
446.066	0.932343
449.441	0.256996
452.816	0.638718
456.191	1.00931
459.565	1.86626
462.94	0.718678
466.315	0.336494
469.69	0.964878
473.065	0.915703
476.44	1.06296
479.815	0.496983
483.189	1.72574
486.564	0.285011
489.939	0.700195
493.314	0.614418
496.688	0.940533
500.063	1.35403
503.438	1.2333
506.813	0.152252
510.188	4.60781
513.563	3.30262
516.938	1.95369
520.312	5.64516
523.687	12.6683
527.062	21.2517
530.437	33.1423
533.812	48.4109
537.186	64.8969
540.561	72.5501
543.936	58.8825
547.311	38.6143
550.686	24.3686
554.061	17.0185
557.435	12.0984
560.81	8.26175
564.185	5.97213
567.56	5.47328
570.935	2.83607
574.309	2.11159
577.684	3.50507
581.059	2.60992
584.434	1.89694
587.809	3.30473
591.183	3.15232
594.558	2.27388
597.933	2.57023
601.308	0.9293
604.683	0.692495
608.058	1.14071
611.433	1.08642
614.807	0.692284
618.182	1.27829
621.557	0.742838
624.932	3.08239
628.307	3.1088
631.681	1.97219
635.056	1.35136
638.431	1.6981
641.806	2.87911
645.181	3.06236
648.556	2.56685
651.93	1.56326
655.305	2.37806
658.68	2.41736
662.055	1.92853
665.43	1.16294
668.804	0.308357
672.179	1.71467
675.554	1.46553
678.929	0.592501
682.304	1.33845
685.678	0.185804
689.053	0.455282
692.428	0.306053
695.803	0.136263
699.178	0.122246
702.553	0.186777
705.927	0.377243
709.302	0.339798
712.677	1.12386
716.052	1.62651
719.427	0.456697
722.802	2.06136
726.176	1.98242
729.551	5.31647
732.926	7.37255
736.301	12.9356
739.676	18.2393
743.051	25.2682
746.425	31.4191
749.8	44.561
753.175	61.7077
756.55	82.7135
759.925	102.884
763.299	111.859
766.674	92.0168
770.049	60.346
773.424	35.978
776.799	22.0757
780.173	13.2987
783.548	8.56896
786.923	6.1293
790.298	4.37136
793.673	3.84912
797.048	5.6444
800.422	5.63086
803.797	9.14759
807.172	12.0588
810.547	22.9874
813.922	34.3146
817.297	51.1806
820.671	75.6585
824.046	107.314
827.421	149.294
830.796	185.444
834.171	176.61
837.545	140.191
840.92	97.0031
844.295	62.8043
847.67	37.6339
851.045	23.3658
854.42	14.4476
857.794	8.94221
861.169	3.48104
864.544	0.869179
867.919	0.340332
871.294	0.575104
874.668	0.871269
878.043	1.51442
881.418	1.40978
884.793	0.326584
888.168	0.284691
891.543	1.41307
894.917	2.7046
898.292	3.66328
901.667	3.70186
905.042	5.95905
908.417	8.91197
911.792	11.4705
915.166	17.4143
918.541	26.2338
921.916	40.6175
925.291	59.3787
928.666	84.1327
932.04	113.306
935.415	133.723
938.79	124.22
942.165	96.5745
945.54	64.7896
948.915	38.6067
952.289	27.4374
955.664	20.8376
959.039	16.4005
962.414	11.5246
965.789	8.10892
969.163	6.6821
972.538	6.29433
975.913	5.85837
979.288	3.30673
982.663	1.71117
986.038	2.61259
989.412	0.769627
992.787	1.00482
996.162	0.246376
999.537	0.726496
1002.91	0.892374
1006.29	0.341682
1009.66	0.617002
1013.04	0.616997
1016.41	1.85334
1019.79	1.18168
1023.16	0.138216
1026.54	1.51283
1029.91	2.2436
1033.29	1.4223
1036.66	1.3346
1040.04	0.761038
1043.41	0.973822
1046.78	3.16058
1050.16	2.79113
1053.53	2.07741
1056.91	2.24787
1060.28	3.31043
1063.66	1.56287
1067.03	5.30692
1070.41	5.14396
1073.78	8.34492
1077.16	13.4236
1080.53	20.6943
1083.91	38.9198
1087.28	71.5737
1090.66	120.105
1094.03	195.11
1097.41	181.206
1100.78	76.2663
1104.16	37.3757
1107.53	21.0148
1110.91	13.8354
1114.28	9.19405
1117.66	6.79226
1121.03	4.56529
1124.4	3.58903
1127.78	2.86404
1131.15	1.53799
1134.53	3.3519
1137.9	1.31033
1141.28	0.009634
1144.65	0.107708
1148.03	1.29944
1151.4	0.441482
1154.78	0.013108
1158.15	0.889008
1161.53	0.732795
1164.9	1.7686
1168.28	0.394106
1171.65	1.67002
1175.03	1.34825
1178.4	1.06722
1181.78	0.935698
1185.15	2.78195
1188.53	2.98854
1191.9	1.63071
1195.28	2.08301
1198.65	3.08304
1202.03	2.13424
1205.4	2.25858
1208.78	2.14131
1212.15	3.16675
1215.53	3.41145
1218.9	1.64835
1222.28	1.67955
1225.65	2.0148
1229.03	0.388353
1232.4	0.378846
1235.77	1.7757
1239.15	2.70361
1242.52	1.06298
1245.9	1.05229
1249.27	1.28941
1252.65	2.64977
1256.02	1.89589
1259.4	2.04606
1262.77	0.507233
1266.15	2.9877
1269.52	1.35757
1272.9	1.33549
1276.27	2.13403
1279.65	1.12364
1283.02	1.89565
1286.4	1.17711
1289.77	1.23498
1293.15	2.29213
1296.52	2.32645
1299.9	2.25631
