Measurement: Raman, 532 nm, unoriented, Raman Data Processed
Mineral: Babingtonite
Rruff sample: R060084
Ideal chemistry: Ca_2_Fe^2+^Fe^3+^Si_5_O_14_(OH)
Locality: Winchester Highlands, Massachusetts, USA
Source: University of Arizona Mineral Museum
Description: Black stubby prismatic crystals
Measured chemistry: Ca_2.00_(Fe^2+^_0.89_Mg_0.07_Mn_0.04_)(Fe^3+^_0.96_Al_0.04_)Si_5.00_O_14_(OH)
Raman shift (cm-1)	intensity
122.673	0
126.048	4.88403
129.423	5.29497
132.798	0.599594
136.172	0.295654
139.547	4.29432
142.922	13.231
146.297	9.44098
149.672	4.13698
153.046	3.54358
156.421	3.42518
159.796	5.94112
163.171	4.85876
166.546	4.88584
169.921	4.66026
173.295	4.8844
176.67	6.56577
180.045	2.022
183.42	0.484045
186.795	1.69869
190.169	6.29588
193.544	11.3574
196.919	7.13051
200.294	3.5126
203.669	4.58164
207.043	5.44081
210.418	5.97741
213.793	13.8683
217.168	11.6951
220.543	2.44675
223.918	0.639639
227.292	1.67551
230.667	4.57559
234.042	11.7652
237.417	11.3766
240.792	4.06089
244.167	0.258699
247.541	0.415407
250.916	0.886168
254.291	1.94982
257.666	1.70314
261.041	2.93168
264.415	6.5013
267.79	11.2444
271.165	8.19871
274.54	3.72602
277.915	3.72691
281.289	5.04102
284.664	5.99843
288.039	3.04643
291.414	0.137459
294.789	0.341469
298.163	0.214485
301.538	0.21859
304.913	1.40016
308.288	4.64977
311.663	8.71062
315.038	10.9835
318.412	13.0978
321.787	15.1919
325.162	13.5103
328.537	10.4539
331.912	9.79416
335.286	8.72823
338.661	6.44007
342.036	3.10251
345.411	0.331717
348.786	0.435804
352.161	0.26145
355.535	0.987341
358.91	1.07451
362.285	2.2322
365.66	4.12558
369.035	6.22857
372.409	7.14187
375.784	8.51611
379.159	9.66384
382.534	11.4977
385.909	15.9876
389.284	19.7668
392.658	22.7723
396.033	23.4101
399.408	25.4956
402.783	28.0464
406.158	22.2252
409.532	12.2104
412.907	7.00885
416.282	6.03217
419.657	6.04801
423.032	5.0165
426.406	4.6396
429.781	6.74219
433.156	9.20569
436.531	8.51346
439.906	3.80229
443.281	0.691566
446.655	0.272461
450.03	0.65823
453.405	0.494966
456.78	0.137318
460.155	0.083739
463.529	0.857665
466.904	1.72238
470.279	3.47408
473.654	5.36306
477.029	7.69431
480.404	7.44785
483.778	5.71363
487.153	3.85624
490.528	3.76745
493.903	4.74599
497.278	6.28851
500.652	7.06679
504.027	4.72066
507.402	2.29831
510.777	1.05618
514.152	0.974926
517.527	2.00777
520.901	4.18582
524.276	7.20072
527.651	11.3317
531.026	16.9879
534.401	22.4262
537.775	24.1895
541.15	18.5573
544.525	12.881
547.9	8.41865
551.275	5.0975
554.649	3.98595
558.024	3.71645
561.399	5.21666
564.774	7.98615
568.149	11.9285
571.524	17.7339
574.898	24.6035
578.273	29.454
581.648	25.3459
585.023	15.6415
588.398	8.7215
591.773	4.93554
595.147	3.01614
598.522	1.66024
601.897	0.600505
605.272	0.155154
608.647	0.080814
612.021	0.355044
615.396	0.229888
618.771	0.238877
622.146	0.054769
625.521	0.421995
628.895	0.343888
632.27	0.697466
635.645	1.45524
639.02	2.25068
642.395	3.57423
645.77	5.84051
649.144	9.71098
652.519	14.1323
655.894	20.3834
659.269	29.1403
662.644	39.6372
666.019	39.9472
669.393	28.2524
672.768	15.49
676.143	8.83828
679.518	5.59535
682.893	3.37254
686.267	1.93835
689.642	0.824251
693.017	0.403064
696.392	0.178708
699.767	0.120853
703.141	0.197551
706.516	0.077851
709.891	0.08261
713.266	0.319755
716.641	0.82573
720.015	1.31098
723.39	1.67278
726.765	2.69545
730.14	3.53465
733.515	2.58045
736.89	1.12878
740.264	0.73916
743.639	0.909079
747.014	1.01647
750.389	1.46659
753.764	2.35127
757.139	3.27821
760.513	3.81424
763.888	3.43597
767.263	2.94301
770.638	2.51405
774.013	1.85983
777.387	1.15747
780.762	1.04221
784.137	0.501351
787.512	0.412279
790.887	0.335566
794.261	0.052811
797.636	0.079103
801.011	0.086272
804.386	0.116973
807.761	0.103992
811.136	0.049854
814.51	0.054092
817.885	0.014142
821.26	0.053698
824.635	0.160377
828.01	0.197362
831.385	0.054129
834.759	0.338136
838.134	0.479267
841.509	0.447961
844.884	1.0157
848.259	1.48064
851.633	2.08324
855.008	3.50043
858.383	5.4639
861.758	7.80094
865.133	11.4424
868.507	15.0136
871.882	16.2965
875.257	14.9533
878.632	13.7518
882.007	12.0622
885.381	9.74444
888.756	6.54036
892.131	4.77189
895.506	4.30322
898.881	5.21629
902.256	6.66242
905.63	8.90826
909.005	10.4122
912.38	7.39271
915.755	3.47408
919.13	1.01567
922.505	0.21767
925.879	0.323009
929.254	0.335274
932.629	0.051125
936.004	0.246507
939.379	0.878505
942.753	1.69961
946.128	1.71134
949.503	1.13458
952.878	1.8115
956.253	2.58981
959.627	2.32427
963.002	2.73779
966.377	3.27424
969.752	4.47193
973.127	5.73859
976.501	6.19918
979.876	4.16811
983.251	2.71466
986.626	2.38193
990.001	3.34553
993.376	4.25553
996.75	6.00877
1000.12	8.67428
1003.5	11.5034
1006.88	12.6021
1010.25	12.4774
1013.62	12.2321
1017	14.1646
1020.37	14.3783
1023.75	9.42979
1027.12	5.37965
1030.5	3.70232
1033.87	3.91161
1037.25	4.49028
1040.62	4.66512
1044	3.12117
1047.37	1.83239
1050.75	0.897034
1054.12	1.43687
1057.5	2.15743
1060.87	1.60145
1064.25	0.453007
1067.62	0.080215
1071	0.398839
1074.37	0.0439
1077.75	0.03344
1081.12	0.09926
1084.5	0.813598
1087.87	1.51399
1091.24	0.131978
1094.62	0.399085
1097.99	0.34958
1101.37	0.835687
1104.74	1.56954
1108.12	2.51715
1111.49	3.2939
1114.87	2.57541
1118.24	1.29437
1121.62	0.511539
1124.99	0.350744
1128.37	0.375946
1131.74	0.127045
1135.12	0.122407
1138.49	0.024845
1141.87	0.161102
1145.24	0.003604
1148.62	0.147139
1151.99	0.123206
1155.37	0.111985
1158.74	0.151517
1162.12	0.047304
1165.49	0.111723
1168.87	0.155046
1172.24	0.172255
1175.62	0.095099
1178.99	0.311422
1182.37	0.179908
1185.74	0.388472
1189.12	0.462431
1192.49	0.220938
1195.87	0.187552
1199.24	0.2083
1202.61	0.380314
1205.99	0.273687
1209.36	0.533415
1212.74	0.239345
1216.11	0.194651
1219.49	0.244051
1222.86	0.432146
1226.24	0.193808
1229.61	0.193373
1232.99	0.186673
1236.36	0.05109
1239.74	0.10453
1243.11	0.046793
1246.49	0.250701
1249.86	0.211266
1253.24	0.190856
1256.61	0.514277
1259.99	0.450637
1263.36	0.205266
1266.74	0.3943
1270.11	0.172058
1273.48	0.285806
1276.86	0.016527
1280.23	0.253777
1283.61	0.494269
1286.98	0.092063
1290.36	0.03536
1293.73	0.149753
1297.11	0.235904
1300.48	0.279472
1303.86	0.119913
