Measurement: Raman, 532 nm, unoriented, Raman Data Processed
Mineral: Babingtonite
Rruff sample: R060093
Ideal chemistry: Ca_2_Fe^2+^Fe^3+^Si_5_O_14_(OH)
Locality: Iron Cap mine, Aravaipa District, Graham County, Arizona, USA
Source: University of Arizona Mineral Museum
Description: Dark prismatic striated crystals
Measured chemistry: Ca_2.00_(Fe^2+^_0.54_Mn_0.46_)(Fe^3+^_0.96_Al_0.04_)Si_5.00_O_14_(OH)
Raman shift (cm-1)	intensity
119.78	0
123.155	5.13932
126.53	13.9111
129.905	4.16833
133.28	0.220314
136.655	1.81874
140.029	11.5233
143.404	26.9998
146.779	11.2419
150.154	0.66431
153.529	0.595955
156.903	2.32284
160.278	9.6568
163.653	17.4601
167.028	23.9038
170.403	38.781
173.778	59.2554
177.152	71.1568
180.527	38.4585
183.902	13.9888
187.277	8.87468
190.651	11.7895
194.026	16.464
197.401	12.756
200.776	15.8029
204.151	23.6694
207.526	32.3449
210.9	50.1495
214.275	64.1546
217.65	35.1863
221.025	16.6179
224.4	10.4084
227.774	16.2415
231.149	20.7453
234.524	23.9063
237.899	9.01659
241.274	0.052189
244.649	1.60726
248.023	1.34101
251.398	0.686695
254.773	4.46837
258.148	7.87523
261.523	16.7698
264.897	30.2547
268.272	35.0277
271.647	22.3257
275.022	16.8913
278.397	20.265
281.772	23.7342
285.146	20.5795
288.521	9.51982
291.896	1.43961
295.271	0.919346
298.646	0.092731
302.02	2.23386
305.395	7.0902
308.77	15.4358
312.145	23.6759
315.52	27.3541
318.894	32.503
322.269	39.8163
325.644	46.6762
329.019	54.7326
332.394	54.7
335.769	43.7234
339.143	36.1908
342.518	29.8203
345.893	28.5612
349.268	37.1839
352.643	42.1033
356.017	31.0086
359.392	22.8641
362.767	23.9596
366.142	25.9494
369.517	25.2568
372.892	23.3351
376.266	19.745
379.641	17.9555
383.016	19.1774
386.391	20.1321
389.766	15.6517
393.14	11.3894
396.515	11.2707
399.89	12.4743
403.265	10.3722
406.64	3.35784
410.015	1.24499
413.389	2.58938
416.764	0.826641
420.139	3.40702
423.514	10.4938
426.889	18.7597
430.264	32.6722
433.638	45.2514
437.013	41.4909
440.388	21.1556
443.763	7.4584
447.137	2.63131
450.512	0.560963
453.887	0.166313
457.262	0.075058
460.637	0.156733
464.012	0.716928
467.386	3.43054
470.761	7.38155
474.136	12.2808
477.511	17.1307
480.886	17.5558
484.26	14.4305
487.635	12.3692
491.01	15.7835
494.385	24.4392
497.76	32.4466
501.135	28.4427
504.509	14.7348
507.884	5.53876
511.259	1.49746
514.634	0.049599
518.009	0.64496
521.384	3.47484
524.758	7.23304
528.133	11.1763
531.508	16.4435
534.883	21.0159
538.258	23.3301
541.632	21.3733
545.007	19.0351
548.382	13.8387
551.757	9.88052
555.132	8.89799
558.506	8.97584
561.881	11.4575
565.256	16.1516
568.631	23.6306
572.006	33.5548
575.381	42.5869
578.755	42.4829
582.13	31.2046
585.505	18.0358
588.88	9.38488
592.255	5.16332
595.63	2.59996
599.004	0.969358
602.379	0.049944
605.754	0.571846
609.129	0.728523
612.504	0.472294
615.878	0.096754
619.253	0.308182
622.628	0.372847
626.003	0.588148
629.378	0.974968
632.752	1.80086
636.127	3.07512
639.502	5.09293
642.877	8.17832
646.252	13.7826
649.626	21.1966
653.001	29.592
656.376	39.9879
659.751	52.7372
663.126	58.9808
666.501	47.4055
669.875	28.8942
673.25	17.5307
676.625	11.3439
680	7.14202
683.375	4.2699
686.75	2.20449
690.124	1.11825
693.499	0.560442
696.874	0.029213
700.249	0.009113
703.624	0.018061
706.998	0.283648
710.373	0.950403
713.748	2.32749
717.123	4.00582
720.498	6.56325
723.872	10.3824
727.247	14.0998
730.622	13.0151
733.997	7.23568
737.372	3.46208
740.746	1.89615
744.121	1.78836
747.496	2.34585
750.871	2.84154
754.246	3.70726
757.621	4.97234
760.995	5.39237
764.37	4.91331
767.745	3.67058
771.12	2.24945
774.495	1.60191
777.87	1.20973
781.244	0.763565
784.619	0.412632
787.994	0.497299
791.369	0.140705
794.744	0.06004
798.118	0.063021
801.493	0.238829
804.868	0.13563
808.243	0.188417
811.618	0.240511
814.992	0.041576
818.367	0.292641
821.742	0.34697
825.117	0.490984
828.492	0.944036
831.867	1.10004
835.241	1.72234
838.616	2.84849
841.991	4.3054
845.366	7.25805
848.741	11.2533
852.115	16.6402
855.49	25.0543
858.865	35.4419
862.24	46.482
865.615	56.8863
868.99	62.9333
872.364	58.6759
875.739	50.4607
879.114	43.6122
882.489	37.7704
885.864	30.5902
889.239	24.6981
892.613	23.2358
895.988	24.6516
899.363	24.3822
902.738	21.6568
906.112	17.3285
909.487	10.4617
912.862	4.34156
916.237	0.808813
919.612	0.835014
922.987	1.53627
926.361	1.1559
929.736	0.024576
933.111	2.91291
936.486	7.01057
939.861	10.675
943.236	11.4869
946.61	14.209
949.985	18.7192
953.36	19.7912
956.735	23.3162
960.11	20.1231
963.484	16.8733
966.859	18.6709
970.234	26.0402
973.609	28.6908
976.984	22.9177
980.359	14.3725
983.733	11.7785
987.108	13.6016
990.483	16.8618
993.858	21.9952
997.232	32.5492
1000.61	48.7105
1003.98	61.8305
1007.36	54.2521
1010.73	42.1004
1014.11	33.682
1017.48	25.8099
1020.86	20.4751
1024.23	17.5481
1027.61	14.3718
1030.98	13.0667
1034.36	14.3706
1037.73	17.1855
1041.11	17.8862
1044.48	11.5155
1047.86	6.82152
1051.23	5.15827
1054.6	5.8073
1057.98	4.3453
1061.35	1.81894
1064.73	0.649445
1068.1	0.258846
1071.48	0.396929
1074.85	0.421251
1078.23	0.629189
1081.6	0.522448
1084.98	0.141205
1088.35	0.065245
1091.73	0.798428
1095.1	1.57039
1098.48	3.2376
1101.85	6.04302
1105.23	9.82234
1108.6	15.2377
1111.98	20.864
1115.35	21.5371
1118.73	15.9802
1122.1	10.695
1125.48	6.57461
1128.85	4.46167
1132.22	2.97534
1135.6	2.15291
1138.97	1.00724
1142.35	0.760666
1145.72	0.185262
1149.1	0.367596
1152.47	0.210588
1155.85	0.152316
1159.22	0.193578
1162.6	0.248813
1165.97	0.035244
1169.35	0.452683
1172.72	0.232522
1176.1	0.219017
1179.47	0.383121
1182.85	0.351607
1186.22	0.22249
1189.6	0.539431
1192.97	0.397375
1196.35	0.1165
1199.72	0.598004
1203.1	0.502762
1206.47	0.349932
1209.85	0.43686
1213.22	0.159554
1216.6	0.462377
1219.97	0.240224
1223.35	0.260614
1226.72	0.278279
1230.1	0.213102
1233.47	0.10021
1236.84	0.190301
1240.22	0.224117
1243.59	0.240541
1246.97	0.225772
1250.34	0.264134
1253.72	0.44213
1257.09	0.264137
1260.47	0.344389
1263.84	0.316077
1267.22	0.547812
1270.59	0.298636
1273.97	0.299009
1277.34	0.33762
1280.72	0.009354
1284.09	0.227017
1287.47	0.185186
1290.84	0.300341
1294.22	0.320016
1297.59	0.021934
