Measurement: Raman, 780 nm, unoriented, Raman Data Processed
Mineral: Babingtonite
Rruff sample: R060093
Ideal chemistry: Ca_2_Fe^2+^Fe^3+^Si_5_O_14_(OH)
Locality: Iron Cap mine, Aravaipa District, Graham County, Arizona, USA
Source: University of Arizona Mineral Museum
Description: Dark prismatic striated crystals
Measured chemistry: Ca_2.00_(Fe^2+^_0.54_Mn_0.46_)(Fe^3+^_0.96_Al_0.04_)Si_5.00_O_14_(OH)
Raman shift (cm-1)	intensity
120.465	0
123.84	8.07953
127.215	5.93377
130.59	2.36528
133.965	0.199354
137.339	2.36551
140.714	8.54662
144.089	12.126
147.464	2.29648
150.839	1.07853
154.214	0.018393
157.588	0.060555
160.963	1.55817
164.338	2.97323
167.713	5.95797
171.088	10.4681
174.462	12.9247
177.837	10.8543
181.212	3.67305
184.587	1.44912
187.962	1.71508
191.337	2.57041
194.711	1.66108
198.086	0.778934
201.461	1.8624
204.836	3.71828
208.211	6.41411
211.585	12.9836
214.96	12.528
218.335	5.54163
221.71	3.3946
225.085	2.22806
228.459	3.37905
231.834	7.17825
235.209	5.55492
238.584	2.00842
241.959	0.240545
245.333	0.264479
248.708	0.407102
252.083	0.654717
255.458	0.071123
258.833	1.4548
262.208	4.31382
265.582	7.32917
268.957	5.99068
272.332	3.72919
275.707	3.90844
279.082	7.26977
282.457	8.97426
285.831	6.53223
289.206	3.02775
292.581	0.83564
295.956	0.221735
299.331	0.531094
302.705	0.756483
306.08	1.78941
309.455	2.73798
312.83	4.01612
316.205	5.28034
319.579	6.51186
322.954	8.1872
326.329	10.1089
329.704	12.1934
333.079	11.5587
336.454	9.71045
339.828	8.59681
343.203	6.33369
346.578	5.62221
349.953	7.96531
353.328	7.73049
356.702	5.22105
360.077	4.38921
363.452	5.84146
366.827	6.11173
370.202	6.51571
373.577	6.49408
376.951	6.95981
380.326	7.2337
383.701	8.07132
387.076	7.37439
390.451	4.60717
393.825	2.96306
397.2	2.92851
400.575	2.86571
403.95	1.43652
407.325	0.019744
410.7	0.497789
414.074	0.441034
417.449	0.412017
420.824	0.015819
424.199	1.12883
427.574	3.1798
430.948	5.8885
434.323	8.2533
437.698	5.87359
441.073	2.90931
444.448	1.21587
447.822	0.793969
451.197	0.974767
454.572	0.734036
457.947	0.85954
461.322	0.911299
464.697	0.933415
468.071	1.53455
471.446	3.11835
474.821	4.63318
478.196	5.3311
481.571	4.63524
484.945	2.88202
488.32	1.99078
491.695	2.66433
495.07	4.77388
498.445	6.42023
501.82	4.25442
505.194	1.92333
508.569	0.562697
511.944	0.178409
515.319	0.09793
518.694	0.047474
522.068	0.40629
525.443	1.00122
528.818	1.67397
532.193	2.68207
535.568	4.08992
538.943	4.29166
542.317	5.06827
545.692	4.78525
549.067	3.41248
552.442	2.55523
555.817	1.77575
559.192	1.69293
562.566	1.80626
565.941	2.799
569.316	4.05489
572.691	6.29424
576.066	7.77194
579.44	7.49038
582.815	4.86776
586.19	2.61787
589.565	1.32396
592.94	0.61435
596.314	0.259624
599.689	0.025941
603.064	0.07993
606.439	0.011009
609.814	0.115801
613.188	0.124674
616.563	0.117549
619.938	0.383896
623.313	0.410744
626.688	0.366568
630.063	0.671399
633.437	0.780797
636.812	1.31723
640.187	1.87821
643.562	2.81431
646.937	4.2234
650.312	6.19135
653.686	8.93495
657.061	13.4694
660.436	18.8984
663.811	20.5648
667.186	14.4608
670.56	8.08624
673.935	4.72761
677.31	2.78196
680.685	1.97177
684.06	1.03845
687.434	0.74491
690.809	0.387583
694.184	0.331619
697.559	0.022398
700.934	0.034836
704.308	0.058493
707.683	0.07243
711.058	0.317905
714.433	0.50933
717.808	1.00851
721.183	1.18294
724.557	2.42486
727.932	3.42212
731.307	2.33432
734.682	1.3067
738.057	0.472849
741.432	0.385592
744.806	0.51278
748.181	0.428496
751.556	0.581476
754.931	0.933438
758.306	1.48331
761.68	1.29666
765.055	1.01253
768.43	0.649958
771.805	0.436199
775.18	0.124537
778.554	0.010944
781.929	0.031182
785.304	0.095411
788.679	0.042101
792.054	0.02257
795.429	0.053429
798.803	0.046347
802.178	0.088907
805.553	0.020619
808.928	0.14931
812.303	0.23755
815.678	0.11209
819.052	0.250684
822.427	0.323071
825.802	0.329909
829.177	0.517432
832.552	0.706179
835.926	0.756741
839.301	1.2057
842.676	1.27655
846.051	1.76073
849.426	2.62904
852.801	3.67185
856.175	5.15474
859.55	7.49286
862.925	9.58937
866.3	11.6873
869.675	12.1536
873.049	11.2657
876.424	10.0467
879.799	9.21426
883.174	7.7981
886.549	6.08173
889.923	5.05395
893.298	5.35664
896.673	6.01949
900.048	5.49741
903.423	4.45448
906.798	3.00969
910.172	1.61347
913.547	0.487706
916.922	0.115499
920.297	0.43477
923.672	0.325962
927.046	0.208584
930.421	0.183372
933.796	0.472285
937.171	1.23053
940.546	2.11258
943.92	2.10645
947.295	2.69844
950.67	3.71155
954.045	5.67768
957.42	5.93987
960.795	4.7305
964.169	4.59237
967.544	6.29971
970.919	8.8014
974.294	8.63162
977.669	5.85683
981.043	4.09492
984.418	4.08172
987.793	5.21339
991.168	6.0184
994.543	8.0275
997.918	14.4777
1001.29	19.1277
1004.67	19.4309
1008.04	13.9456
1011.42	9.79203
1014.79	7.17441
1018.17	5.68636
1021.54	4.37062
1024.92	3.5533
1028.29	3.23515
1031.67	3.44528
1035.04	4.55722
1038.41	4.94819
1041.79	3.8715
1045.16	2.21235
1048.54	1.3792
1051.91	1.38365
1055.29	1.27538
1058.66	0.811081
1062.04	0.334576
1065.41	0.028807
1068.79	0.087424
1072.16	0.097214
1075.54	0.087233
1078.91	0.100045
1082.29	0.168322
1085.66	0.049034
1089.04	0.066146
1092.41	0.340328
1095.79	0.392578
1099.16	0.814486
1102.54	1.44201
1105.91	2.34223
1109.29	3.7543
1112.66	4.96769
1116.04	4.1018
1119.41	2.54302
1122.79	1.61802
1126.16	1.10963
1129.54	0.56636
1132.91	0.462077
1136.29	0.420501
1139.66	0.308102
1143.04	0.134962
1146.41	0.140719
1149.78	0.019679
1153.16	0.064085
1156.53	0.183055
1159.91	0.239106
1163.28	0.327446
1166.66	0.107537
1170.03	0.27297
1173.41	0.085513
1176.78	0.365695
1180.16	0.045888
1183.53	0.250332
1186.91	0.21123
1190.28	0.300179
1193.66	0.476494
1197.03	0.386649
1200.41	0.470175
1203.78	0.341067
1207.16	0.340274
1210.53	0.163784
1213.91	0.45264
1217.28	0.244158
1220.65	0.342763
1224.03	0.332349
1227.4	0.125111
1230.78	0.076451
1234.15	0.145455
1237.53	0.182476
1240.9	0.089779
1244.28	0.222799
1247.65	0.354684
1251.03	0.191283
1254.4	0.150856
1257.78	0.110763
1261.15	0.061072
1264.53	0.12779
1267.9	0.007307
1271.28	0.208546
1274.65	0.014985
1278.03	0.177277
1281.4	0.140965
1284.78	0.116364
