Measurement: Raman, 532 nm, unoriented, Raman Data Processed
Mineral: Babingtonite
Rruff sample: R060083
Ideal chemistry: Ca_2_Fe^2+^Fe^3+^Si_5_O_14_(OH)
Locality: Hampden Quarry, Springfield, Massachusetts, USA
Source: University of Arizona Mineral Museum
Description: Black stubby prismatic crystal associated with quartz
Measured chemistry: Ca_2.00_(Fe^2+^_0.73_Mg_0.21_Mn_0.06_)(Fe^3+^_0.93_Al_0.07_)Si_5.00_O_14_(OH)
Raman shift (cm-1)	intensity
110.62	0
113.995	1.59456
117.37	2.9785
120.745	4.13349
124.119	11.5384
127.494	26.8799
130.869	12.2744
134.244	3.98761
137.619	5.56094
140.994	12.6647
144.368	22.6677
147.743	8.39764
151.118	7.06067
154.493	7.63656
157.868	4.96563
161.242	4.86767
164.617	2.59139
167.992	2.54189
171.367	5.6735
174.742	4.97494
178.117	3.70792
181.491	0.030947
184.866	1.49285
188.241	0.199089
191.616	2.0042
194.991	2.78292
198.365	0.236153
201.74	0.241375
205.115	0.747322
208.49	1.14301
211.865	2.90943
215.239	5.5111
218.614	4.61935
221.989	2.61279
225.364	2.41407
228.739	4.88834
232.114	11.2518
235.488	16.2009
238.863	11.11
242.238	5.13216
245.613	1.91137
248.988	0.075439
252.362	0.165245
255.737	1.83567
259.112	4.40175
262.487	11.1871
265.862	20.3207
269.236	26.7434
272.611	18.3008
275.986	13.0008
279.361	14.5198
282.736	18.8244
286.111	18.5082
289.485	11.906
292.86	4.5193
296.235	0.770994
299.61	0.911995
302.985	0.762564
306.36	0.236191
309.734	3.33837
313.109	6.8259
316.484	10.7922
319.859	13.1036
323.234	14.5054
326.608	14.8081
329.983	16.7588
333.358	20.6509
336.733	26.3478
340.108	29.0031
343.483	22.3747
346.857	13.8189
350.232	8.06097
353.607	7.22523
356.982	7.54631
360.357	7.39205
363.731	9.05076
367.106	10.7202
370.481	12.5546
373.856	16.4028
377.231	21.228
380.606	22.0233
383.98	23.8645
387.355	25.8064
390.73	20.6992
394.105	15.0716
397.48	12.7572
400.854	12.5495
404.229	12.5395
407.604	8.69809
410.979	3.44407
414.354	0.463363
417.728	0.165505
421.103	0.164201
424.478	0.384736
427.853	2.2044
431.228	5.61533
434.603	8.2416
437.977	6.80123
441.352	2.4065
444.727	0.160695
448.102	0.819914
451.477	0.748558
454.851	0.240848
458.226	1.29951
461.601	2.57336
464.976	4.085
468.351	7.10851
471.726	11.6211
475.1	17.6461
478.475	21.2516
481.85	19.5157
485.225	14.4115
488.6	9.47669
491.974	6.90403
495.349	7.18199
498.724	8.32593
502.099	8.17979
505.474	5.60201
508.849	2.5444
512.223	0.772668
515.598	0.241632
518.973	0.957212
522.348	4.43252
525.722	5.66979
529.097	9.67611
532.472	15.0076
535.847	19.9222
539.222	21.0557
542.597	16.6964
545.971	12.3796
549.346	8.13537
552.721	5.54031
556.096	3.85296
559.471	3.12935
562.846	3.95097
566.22	5.75709
569.595	8.22119
572.97	12.688
576.345	17.9365
579.72	21.2851
583.094	17.2233
586.469	11.1269
589.844	6.35461
593.219	3.96992
596.594	2.13673
599.968	1.22253
603.343	0.316786
606.718	0.157277
610.093	0.206223
613.468	0.240381
616.843	0.342929
620.217	0.09453
623.592	0.040276
626.967	0.236289
630.342	0.308836
633.717	0.897739
637.091	1.29218
640.466	2.10655
643.841	3.07398
647.216	5.31557
650.591	8.0141
653.966	12.7038
657.34	18.845
660.715	28.3862
664.09	37.6562
667.465	36.4062
670.84	23.8542
674.215	13.2829
677.589	7.42555
680.964	4.47673
684.339	2.79209
687.714	1.61026
691.089	1.08546
694.463	0.091166
697.838	0.003371
701.213	0.002141
704.588	0.194089
707.963	0.075931
711.337	0.349953
714.712	0.518647
718.087	0.952507
721.462	1.81596
724.837	3.13001
728.212	4.98995
731.586	5.68223
734.961	3.38142
738.336	1.7116
741.711	1.25
745.086	1.15617
748.46	1.6792
751.835	2.50527
755.21	3.79615
758.585	5.00875
761.96	5.32772
765.335	4.07333
768.709	2.86112
772.084	2.00859
775.459	1.43804
778.834	1.16028
782.209	0.846545
785.583	0.38405
788.958	0.408568
792.333	0.283376
795.708	0.180908
799.083	0.167857
802.457	0.020396
805.832	0.04258
809.207	0.006044
812.582	0.024266
815.957	0.075025
819.332	0.021613
822.706	0.184248
826.081	0.027425
829.456	0.124376
832.831	0.163684
836.206	0.023057
839.58	0.03198
842.955	0.030395
846.33	0.069198
849.705	0.020201
853.08	0.234613
856.455	0.717972
859.829	1.31259
863.204	2.06063
866.579	2.89297
869.954	5.41368
873.329	6.59678
876.703	9.10532
880.078	12.7206
883.453	16.2231
886.828	16.948
890.203	17.197
893.577	20.004
896.952	25.7736
900.327	28.5653
903.702	22.714
907.077	14.8537
910.452	9.42899
913.826	4.95094
917.201	1.91507
920.576	0.421114
923.951	0.249197
927.326	0.874627
930.701	0.60412
934.075	0.185041
937.45	1.04453
940.825	3.07617
944.2	6.15116
947.575	10.263
950.949	16.1314
954.324	24.5469
957.699	28.796
961.074	25.1562
964.449	22.2487
967.823	22.9433
971.198	27.9031
974.573	34.3952
977.948	32.648
981.323	23.0827
984.697	14.1804
988.072	11.3205
991.447	12.4273
994.822	14.0073
998.197	17.2449
1001.57	22.8404
1004.95	24.8801
1008.32	21.1744
1011.7	16.1932
1015.07	12.6524
1018.45	10.5765
1021.82	8.50089
1025.19	6.91558
1028.57	6.18611
1031.94	6.87164
1035.32	8.77276
1038.69	11.1086
1042.07	11.8948
1045.44	9.36127
1048.82	5.88436
1052.19	3.83741
1055.57	2.79645
1058.94	2.44446
1062.32	1.20653
1065.69	0.773337
1069.07	0.211355
1072.44	0.284727
1075.82	0.41325
1079.19	0.084929
1082.57	0.294058
1085.94	0.067605
1089.32	0.068382
1092.69	0.275127
1096.07	0.503719
1099.44	0.476244
1102.82	0.868945
1106.19	0.993979
1109.57	2.14431
1112.94	2.37546
1116.32	1.7518
1119.69	1.15812
1123.07	0.925781
1126.44	0.735698
1129.82	0.712567
1133.19	0.568344
1136.56	0.422502
1139.94	0.336785
1143.31	0.185135
1146.69	0.059021
1150.06	0.171399
1153.44	0.050925
1156.81	0.080176
1160.19	0.21209
1163.56	0.286812
1166.94	0.273945
1170.31	0.088878
1173.69	0.148287
1177.06	0.113121
1180.44	0.238884
1183.81	0.096801
1187.19	0.17167
1190.56	0.187642
1193.94	0.077122
1197.31	0.251124
1200.69	0.140568
1204.06	0.123363
1207.43	0.004382
1210.81	0.050367
1214.18	0.055154
1217.56	0.038263
1220.93	0.046857
1224.31	0.013375
1227.68	0.07605
1231.06	0.034182
1234.43	0.018954
1237.81	0.091602
1241.18	0.090277
1244.56	0.047187
1247.93	0.057876
1251.31	0.087008
1254.68	0.198762
1258.06	0.242399
1261.43	0.135294
1264.81	0.180341
1268.18	0.154501
1271.56	0.080198
1274.93	0.142228
1278.31	0.046518
1281.68	0.216717
1285.06	0.011077
1288.43	0.152356
1291.81	0.204664
1295.18	0.119909
1298.56	0.031023
