Measurement: Raman, 780 nm, unoriented, Raman Data Processed
Mineral: Babingtonite
Rruff sample: R060084
Ideal chemistry: Ca_2_Fe^2+^Fe^3+^Si_5_O_14_(OH)
Locality: Winchester Highlands, Massachusetts, USA
Source: University of Arizona Mineral Museum
Description: Black stubby prismatic crystals
Measured chemistry: Ca_2.00_(Fe^2+^_0.89_Mg_0.07_Mn_0.04_)(Fe^3+^_0.96_Al_0.04_)Si_5.00_O_14_(OH)
Raman shift (cm-1)	intensity
120.465	0
123.84	0.492489
127.215	0.457556
130.59	0.013195
133.965	0.359495
137.339	1.28176
140.714	2.68849
144.089	3.43377
147.464	4.07455
150.839	6.42291
154.214	9.57636
157.588	12.5038
160.963	13.0316
164.338	13.8774
167.713	13.6624
171.088	12.3184
174.462	10.4369
177.837	5.91325
181.212	2.60711
184.587	1.74616
187.962	2.48425
191.337	3.93231
194.711	5.35001
198.086	5.48856
201.461	6.5495
204.836	7.55917
208.211	8.54775
211.585	9.21909
214.96	8.60267
218.335	5.53108
221.71	4.8627
225.085	4.56977
228.459	4.72281
231.834	4.51514
235.209	2.73877
238.584	0.670415
241.959	0.228175
245.333	0.233877
248.708	0.137472
252.083	0.049831
255.458	0.152505
258.833	0.453256
262.208	1.02407
265.582	1.28301
268.957	0.981148
272.332	0.583949
275.707	0.729641
279.082	0.919575
282.457	0.497911
285.831	0.274541
289.206	0.249194
292.581	0.661181
295.956	1.7438
299.331	2.28811
302.705	3.27876
306.08	4.71191
309.455	6.29262
312.83	8.06188
316.205	8.84437
319.579	9.10202
322.954	8.27258
326.329	7.54816
329.704	6.3973
333.079	4.96022
336.454	3.61481
339.828	3.38244
343.203	3.18799
346.578	3.69699
349.953	4.27603
353.328	4.16239
356.702	3.00003
360.077	2.24431
363.452	2.05082
366.827	1.64278
370.202	0.960597
373.577	0.52433
376.951	0.28076
380.326	0.489358
383.701	0.681831
387.076	0.800945
390.451	0.827686
393.825	0.841097
397.2	0.993035
400.575	0.486482
403.95	0.281243
407.325	0.179574
410.7	0.194604
414.074	0.538578
417.449	1.31574
420.824	1.82817
424.199	2.45176
427.574	2.86521
430.948	2.96474
434.323	1.8349
437.698	0.648052
441.073	0.211563
444.448	0.099601
447.822	0.144161
451.197	0.10043
454.572	0.018008
457.947	0.347561
461.322	0.33753
464.697	0.545844
468.071	0.62863
471.446	1.1092
474.821	1.31967
478.196	1.17761
481.571	1.0505
484.945	1.81434
488.32	1.78558
491.695	1.95645
495.07	2.2404
498.445	1.91537
501.82	1.02046
505.194	0.372869
508.569	0.276641
511.944	0.160803
515.319	0.450624
518.694	0.794161
522.068	1.21779
525.443	1.58568
528.818	1.89933
532.193	1.9709
535.568	1.78874
538.943	1.49269
542.317	1.45822
545.692	1.3697
549.067	0.818855
552.442	0.852404
555.817	1.18171
559.192	2.14797
562.566	2.67229
565.941	3.36964
569.316	4.21066
572.691	4.61355
576.066	4.43555
579.44	3.3388
582.815	2.06086
586.19	1.11967
589.565	0.773536
592.94	0.365667
596.314	0.090302
599.689	0.066975
603.064	0.001472
606.439	0.106742
609.814	0.073577
613.188	0.396669
616.563	0.124418
619.938	0.332699
623.313	0.340259
626.688	0.228396
630.063	0.530338
633.437	0.780263
636.812	1.13225
640.187	1.77719
643.562	2.60913
646.937	4.29396
650.312	5.98756
653.686	7.28314
657.061	8.36604
660.436	8.64534
663.811	7.49351
667.186	5.01481
670.56	2.84021
673.935	1.76862
677.31	0.987452
680.685	0.742949
684.06	0.410816
687.434	0.356724
690.809	0.075253
694.184	0.008941
697.559	0.02248
700.934	0.026204
704.308	0.03648
707.683	0.004775
711.058	0.113332
714.433	0.350222
717.808	0.60457
721.183	0.763543
724.557	0.570304
727.932	0.52164
731.307	0.49297
734.682	0.237288
738.057	0.185707
741.432	0.089429
744.806	0.099746
748.181	0.119518
751.556	0.004215
754.931	0.082065
758.306	0.049231
761.68	0.214665
765.055	0.12657
768.43	0.090298
771.805	0.069741
775.18	0.027464
778.554	0.04894
781.929	0.036957
785.304	0.093266
788.679	0.161281
792.054	0.307081
795.429	0.117021
798.803	0.075744
802.178	0.233282
805.553	0.320008
808.928	0.280315
812.303	0.28086
815.678	0.323175
819.052	0.310722
822.427	0.322813
825.802	0.609699
829.177	0.588047
832.552	0.626602
835.926	0.819887
839.301	0.801379
842.676	1.01124
846.051	1.57847
849.426	2.15306
852.801	2.78991
856.175	3.78807
859.55	4.44197
862.925	5.19452
866.3	5.74822
869.675	6.07296
873.049	5.84685
876.424	5.28678
879.799	4.47619
883.174	3.3388
886.549	2.01597
889.923	1.52859
893.298	1.27599
896.673	1.17188
900.048	0.97792
903.423	0.909895
906.798	0.581117
910.172	0.373457
913.547	0.025089
916.922	0.180737
920.297	0.120378
923.672	0.069833
927.046	0.131012
930.421	0.340497
933.796	0.459822
937.171	0.448916
940.546	0.436662
943.92	0.341494
947.295	0.112951
950.67	0.138713
954.045	0.083926
957.42	0.166739
960.795	0.355894
964.169	0.197459
967.544	0.428252
970.919	1.05426
974.294	1.7092
977.669	2.09254
981.043	2.86859
984.418	3.95283
987.793	4.66596
991.168	5.15515
994.543	5.58767
997.918	5.76793
1001.29	5.03178
1004.67	4.08369
1008.04	3.01349
1011.42	2.6411
1014.79	2.47279
1018.17	1.97329
1021.54	1.65553
1024.92	1.68406
1028.29	1.99561
1031.67	2.11878
1035.04	2.06713
1038.41	1.67864
1041.79	1.37126
1045.16	1.13866
1048.54	1.09967
1051.91	1.18514
1055.29	1.00227
1058.66	0.363498
1062.04	0.161797
1065.41	0.076121
1068.79	0.01844
1072.16	0.095613
1075.54	0.041796
1078.91	0.041502
1082.29	0.135714
1085.66	0.171443
1089.04	0.288371
1092.41	0.600111
1095.79	1.12073
1099.16	2.02852
1102.54	2.44389
1105.91	2.61708
1109.29	2.17278
1112.66	1.34347
1116.04	0.703265
1119.41	0.514059
1122.79	0.371375
1126.16	0.189542
1129.54	0.163337
1132.91	0.097697
1136.29	0.165458
1139.66	0.187388
1143.04	0.252988
1146.41	0.04543
1149.78	0.060305
1153.16	0.158498
1156.53	0.142112
1159.91	0.038194
1163.28	0.200877
1166.66	0.192354
1170.03	0.286643
1173.41	0.136133
1176.78	0.113935
1180.16	0.168354
1183.53	0.164499
1186.91	0.241648
1190.28	0.213635
1193.66	0.22578
1197.03	0.282218
1200.41	0.152956
1203.78	0.322192
1207.16	0.19356
1210.53	0.138003
1213.91	0.269936
1217.28	0.119735
1220.65	0.158968
1224.03	0.195235
1227.4	0.296526
1230.78	0.064582
1234.15	0.082211
1237.53	0.327568
1240.9	0.13483
1244.28	0.085263
1247.65	0.152521
1251.03	0.203745
1254.4	0.114089
1257.78	0.242112
1261.15	0.188845
1264.53	0.120929
1267.9	0.081802
1271.28	0.063184
1274.65	0.051373
1278.03	0.121642
