Measurement: Raman, 780 nm, unoriented, Raman Data Processed
Mineral: Baddeleyite
Rruff sample: R100171
Ideal chemistry: ZrO_2_
Locality: Palabora Mine, Phalaborwa, Transvaal, Republic of South Africa
Source: Mauricio Ibanez-Mejia
Description: Fragments of black prismatic crystals
Raman shift (cm-1)	intensity
137.371	0
140.263	2.04544
143.156	0.932037
146.049	2.6434
148.941	10.5708
151.834	24.4729
154.727	63.0996
157.62	135.289
160.512	169.583
163.405	192.299
166.298	239.632
169.19	309.252
172.083	399.59
174.976	527.202
177.869	612.627
180.761	367.677
183.654	238.639
186.547	243.122
189.439	305.802
192.332	205.331
195.225	60.3094
198.117	23.379
201.01	15.824
203.903	14.2942
206.796	13.3002
209.688	15.0356
212.581	19.4227
215.474	30.1806
218.366	47.0716
221.259	57.3549
224.152	27.9176
227.044	4.94485
229.937	6.44562
232.83	6.2587
235.722	3.1922
238.615	1.51535
241.508	0.58078
244.401	4.07654
247.293	7.10928
250.186	6.55612
253.079	8.11746
255.971	6.82657
258.864	7.00604
261.757	6.47919
264.649	9.05936
267.542	8.81061
270.435	10.0999
273.328	15.6714
276.22	19.5988
279.113	24.2203
282.006	31.4102
284.898	36.6214
287.791	44.8062
290.684	47.6657
293.576	52.0179
296.469	60.5903
299.362	71.685
302.255	78.6734
305.147	87.1133
308.04	89.8248
310.933	101.062
313.825	134.363
316.718	161.992
319.611	187.427
322.503	222.106
325.396	265.769
328.289	332.035
331.182	395.399
334.074	338.719
336.967	198.938
339.86	112.108
342.752	75.0223
345.645	57.7699
348.538	45.3533
351.43	31.2731
354.323	22.5829
357.216	24.2278
360.108	30.5847
363.001	40.5282
365.894	50.3285
368.787	58.1859
371.679	65.9363
374.572	77.968
377.465	85.722
380.357	82.1863
383.25	64.6845
386.143	44.2065
389.036	23.2626
391.928	11.6267
394.821	5.40951
397.714	2.40689
400.606	2.03323
403.499	1.75168
406.392	1.39526
409.284	1.09973
412.177	6.37341
415.07	1.27817
417.962	4.06146
420.855	0.008362
423.748	0.416046
426.641	3.00714
429.533	0.547028
432.426	8.15253
435.319	6.39499
438.211	11.4286
441.104	18.1965
443.997	21.9563
446.889	36.0571
449.782	55.5534
452.675	83.3422
455.567	128.967
458.46	184.738
461.353	234.523
464.246	285.22
467.138	339.093
470.031	398.732
472.924	451.332
475.816	440.016
478.709	325.187
481.602	213.314
484.495	149.026
487.387	117.478
490.28	101.715
493.173	100.648
496.065	109.835
498.958	122.57
501.851	121.964
504.743	83.4916
507.636	39.9629
510.529	17.9059
513.422	12.076
516.314	12.1156
519.207	24.7459
522.1	38.1427
524.992	48.1474
527.885	61.9586
530.778	82.4782
533.67	101.926
536.563	108.817
539.456	86.3598
542.348	54.9432
545.241	43.1334
548.134	38.8428
551.027	44.2456
553.919	45.458
556.812	43.1168
559.705	31.135
562.597	18.5733
565.49	8.15536
568.383	1.79642
571.275	3.34668
574.168	6.44537
577.061	6.34494
579.954	3.33752
582.846	2.61392
585.739	4.7157
588.632	18.6205
591.524	37.8252
594.417	62.6604
597.31	105.623
600.202	145.878
603.095	189.18
605.988	231.895
608.881	282.419
611.773	329.502
614.666	340.711
617.559	303.042
620.451	267.602
623.344	252.157
626.237	263.958
629.129	280.449
632.022	295.843
634.915	288.692
637.808	250.602
640.7	196.765
643.593	152.415
646.486	117
649.378	91.7977
652.271	72.0791
655.164	59.2965
658.056	46.0497
660.949	35.558
663.842	33.5951
666.735	29.686
669.627	29.1006
672.52	25.9694
675.413	26.944
678.305	29.2083
681.198	24.4294
684.091	24.0226
686.983	26.1031
689.876	26.2129
692.769	26.9554
695.662	24.5248
698.554	19.234
701.447	20.0635
704.34	15.3026
707.232	12.8395
710.125	8.18054
713.018	3.6022
715.91	1.46448
718.803	4.5358
721.696	2.44675
724.588	2.27612
727.481	3.12997
730.374	1.39783
733.266	5.29422
736.159	6.27338
739.052	10.397
741.945	12.5297
744.837	19.6894
747.73	20.8881
750.623	25.1391
753.515	22.7362
756.408	25.5594
759.301	23.9745
762.193	19.1664
765.086	15.2215
767.979	13.7765
770.872	14.3857
773.764	13.4459
776.657	10.591
779.55	9.71049
782.442	6.82094
785.335	3.99135
788.228	4.4203
791.12	3.41663
794.013	2.36847
796.906	2.75588
799.799	2.06575
802.691	1.93077
805.584	1.10724
808.477	0.569046
811.369	0.20369
814.262	0.74501
817.155	0.894485
820.048	0.083496
822.94	2.41156
825.833	2.21549
828.726	2.27029
831.618	1.04363
834.511	3.16583
837.404	1.12805
840.296	0.139938
843.189	0.695435
846.082	5.6239
848.975	6.83902
851.867	5.44678
854.76	5.97995
857.653	6.4372
860.545	5.89378
863.438	6.15524
866.331	3.49831
869.223	5.71713
872.116	5.54851
875.009	3.93378
877.901	1.44629
880.794	3.79922
883.687	6.30472
886.58	5.06625
889.472	3.21236
892.365	3.62215
895.258	2.02457
898.15	1.32718
901.043	1.63824
903.936	1.34827
906.828	0.13858
909.721	0.2798
912.614	0.631622
915.506	0.132538
918.399	1.75439
921.292	3.55914
924.185	4.28363
927.077	4.04275
929.97	2.81305
932.863	3.55158
935.755	2.31467
938.648	1.48451
941.541	3.42625
944.433	2.72682
947.326	3.17926
950.219	3.92545
953.112	0.584274
956.004	0.627304
958.897	0.965378
961.79	0.006104
964.682	0.537964
967.575	0.54747
970.468	0.417435
973.361	0.516998
976.253	0.557693
979.146	0.934937
982.039	1.27445
984.931	0.794937
987.824	0.639496
990.717	2.32158
993.609	2.23489
996.502	2.98467
999.395	3.67479
1002.29	1.06899
1005.18	1.2966
1008.07	2.09076
1010.97	3.24156
1013.86	2.56879
1016.75	0.246185
1019.64	3.04926
1022.54	2.92477
1025.43	1.8277
1028.32	0.319794
1031.21	3.38629
1034.11	2.3157
1037	2.28072
1039.89	2.71835
1042.79	4.24661
1045.68	4.42134
1048.57	4.39162
1051.46	3.36931
1054.36	1.04535
1057.25	3.31923
1060.14	0.727554
1063.03	3.51257
1065.93	4.49364
1068.82	3.54115
1071.71	2.21594
1074.61	1.99153
1077.5	2.80151
1080.39	1.40694
1083.28	1.73695
1086.18	1.48409
1089.07	0.018448
1091.96	2.91783
1094.85	2.30864
1097.75	2.42201
1100.64	0.43779
1103.53	0.392914
1106.42	1.44722
1109.32	2.70302
1112.21	0.945282
1115.1	1.01067
1117.99	2.4484
1120.89	1.07397
1123.78	2.57097
1126.67	2.87495
1129.57	0.609573
1132.46	1.18591
1135.35	2.83394
1138.24	1.95335
1141.14	2.01811
1144.03	3.47182
1146.92	4.08191
1149.82	2.91997
1152.71	1.40799
1155.6	1.42665
1158.49	4.06428
1161.39	2.70848
1164.28	1.02399
1167.17	3.2054
1170.06	5.015
1172.96	1.90993
1175.85	1.76665
1178.74	3.82248
1181.63	3.96959
1184.53	2.27553
1187.42	0.234756
1190.31	4.29161
1193.21	3.26555
1196.1	3.74338
1198.99	2.15227
1201.88	4.64597
1204.78	1.53748
1207.67	5.6317
1210.56	4.00661
1213.45	2.35706
1216.35	2.00992
1219.24	1.34377
1222.13	2.0986
1225.03	1.37756
1227.92	0.571991
1230.81	1.62218
1233.7	1.50825
1236.6	2.56998
1239.49	3.9053
1242.38	4.84842
1245.27	1.71289
1248.17	1.65508
1251.06	3.56917
1253.95	4.38754
1256.85	0.221848
1259.74	1.31265
1262.63	1.23512
1265.52	3.7058
1268.42	3.08992
1271.31	4.5562
1274.2	2.58522
1277.09	2.14105
1279.99	2.60452
1282.88	0.29155
