Measurement: Raman, 532 nm, unoriented, Raman Data Processed
Mineral: Baddeleyite
Rruff sample: R060016
Ideal chemistry: ZrO_2_
Locality: Wet Loo, Myanmar
Source: American Museum of Natural History
Description: Brown crystal fragment
Measured chemistry: (Zr_0.99_Ti_0.01_)_Î£=1_O_2_
Raman shift (cm-1)	intensity
141.136	0
144.511	2.65888
147.885	2.1619
151.26	5.46793
154.635	23.7024
158.01	81.7487
161.385	182.713
164.76	235.086
168.134	325.447
171.509	511.411
174.884	888.459
178.259	1364.86
181.634	673.169
185.008	571.003
188.383	980.336
191.758	1199.17
195.133	286.273
198.508	114.094
201.882	87.9987
205.257	77.9118
208.632	67.5518
212.007	72.0268
215.382	83.4432
218.757	129.512
222.131	180.404
225.506	57.5576
228.881	13.0813
232.256	0.764374
235.631	7.37009
239.006	8.32956
242.38	4.88141
245.755	0.501434
249.13	2.85742
252.505	2.50995
255.88	2.67862
259.254	2.45706
262.629	1.46695
266.004	2.44516
269.379	8.24484
272.754	11.6209
276.128	16.8601
279.503	28.6621
282.878	47.2685
286.253	72.8536
289.628	107.58
293.002	142.701
296.377	179.056
299.752	230.476
303.127	308.893
306.502	363.01
309.877	284.024
313.251	195.091
316.626	183.59
320.001	203.435
323.376	250.132
326.751	341.011
330.125	510.391
333.5	594.35
336.875	404.869
340.25	372.559
343.625	499.902
347	630.617
350.374	423.653
353.749	184.352
357.124	93.4485
360.499	85.2907
363.874	120.098
367.248	184.148
370.623	267.848
373.998	392.085
377.373	557.294
380.748	605.167
384.123	514.921
387.497	304.365
390.872	146.258
394.247	70.7772
397.622	35.811
400.997	13.253
404.371	5.54279
407.746	0.37262
411.121	7.06525
414.496	9.91254
417.871	7.59894
421.245	4.94598
424.62	0.54303
427.995	4.43924
431.37	8.56671
434.745	14.8852
438.12	21.4313
441.494	32.7246
444.869	45.0216
448.244	58.3021
451.619	90.5207
454.994	144.107
458.368	238.044
461.743	359.848
465.118	503.269
468.493	710.516
471.868	959.79
475.243	1008.63
478.617	610.243
481.992	289.998
485.367	165.512
488.742	119.03
492.117	107.637
495.491	120.641
498.866	149.571
502.241	142.862
505.616	71.337
508.991	26.6278
512.365	4.40585
515.74	6.09451
519.115	0.485443
522.49	13.0588
525.865	28.1773
529.24	56.5343
532.614	91.5942
535.989	138.171
539.364	137.242
542.739	110.287
546.114	108.422
549.489	141.714
552.863	196.541
556.238	236.431
559.613	196.362
562.988	105.756
566.363	47.0143
569.737	17.7601
573.112	2.72116
576.487	3.74487
579.862	3.46899
583.237	3.86548
586.611	2.91296
589.986	11.1859
593.361	29.0792
596.736	64.1993
600.111	122.793
603.486	198.754
606.86	288.06
610.235	388.974
613.61	461.988
616.985	433.774
620.36	343.717
623.735	307.745
627.109	339.416
630.484	415.31
633.859	497.715
637.234	490.139
640.609	352.609
643.983	207.84
647.358	112.268
650.733	63.6297
654.108	33.8131
657.483	20.4943
660.857	10.8184
664.232	4.47983
667.607	0.50293
670.982	2.02283
674.357	3.25211
677.732	2.22278
681.106	1.18826
684.481	6.12091
687.856	13.591
691.231	24.2171
694.606	34.5708
697.981	41.2099
701.355	54.0415
704.73	57.1808
708.105	57.9905
711.48	50.0579
714.855	39.5258
718.229	25.7589
721.604	13.7101
724.979	9.13168
728.354	3.82574
731.729	2.7901
735.103	3.64191
738.478	9.8049
741.853	15.099
745.228	19.7755
748.603	24.1101
751.977	27.1442
755.352	28.2192
758.727	21.5667
762.102	17.2766
765.477	14.7506
768.852	10.2715
772.226	6.80832
775.601	5.64044
778.976	3.44864
782.351	4.1066
785.726	3.922
789.101	0.07074
792.475	2.01486
795.85	0.050385
799.225	0.722717
802.6	0.572052
805.975	1.38007
809.349	1.41281
812.724	1.40707
816.099	2.42767
819.474	2.40698
822.849	1.49692
826.223	3.12659
829.598	3.91303
832.973	3.66962
836.348	5.34079
839.723	5.12555
843.097	8.05212
846.472	7.06693
849.847	7.01883
853.222	6.11685
856.597	6.96594
859.972	5.4798
863.346	8.65128
866.721	4.64874
870.096	5.02878
873.471	4.44843
876.846	2.74493
880.221	3.4787
883.595	0.847595
886.97	0.850586
890.345	0.554535
893.72	2.60406
897.095	1.15112
900.469	3.92279
903.844	4.5733
907.219	0.898254
910.594	4.9458
913.969	0.769958
917.343	2.74722
920.718	1.60071
924.093	2.32098
927.468	2.68164
930.843	1.89578
934.218	2.36475
937.592	0.054138
940.967	0.378448
944.342	0.035522
947.717	2.20004
951.092	6.91052
954.466	2.724
957.841	1.85352
961.216	0.650208
964.591	2.62515
967.966	1.09473
971.341	2.62375
974.715	0.144684
978.09	1.80002
981.465	4.41718
984.84	3.14331
988.215	4.36255
991.589	0.972809
994.964	2.80505
998.339	3.90433
1001.71	1.73498
1005.09	3.10733
1008.46	1.9484
1011.84	4.19986
1015.21	5.47555
1018.59	2.16577
1021.96	2.87134
1025.34	4.16626
1028.71	2.85815
1032.09	2.17889
1035.46	0.926331
1038.84	1.39078
1042.21	2.32837
1045.59	1.10834
1048.96	2.09656
1052.34	1.6521
1055.71	2.16922
1059.09	2.19757
1062.46	0.488525
1065.84	1.70215
1069.21	0.795868
1072.59	4.52774
1075.96	1.5679
1079.34	0.753479
1082.71	3.02008
1086.08	3.48319
1089.46	2.13144
1092.83	1.77078
1096.21	2.53226
1099.58	1.5798
1102.96	1.7865
1106.33	3.27841
1109.71	0.234589
1113.08	2.20621
1116.46	0.170197
1119.83	2.6691
1123.21	1.5802
1126.58	4.23889
1129.96	0.830383
1133.33	1.48947
1136.71	1.50552
1140.08	2.38364
1143.46	2.26834
1146.83	2.74005
1150.21	3.14334
1153.58	2.89972
1156.95	0.509949
1160.33	2.56113
1163.7	3.41977
1167.08	3.71814
1170.45	0.623505
1173.83	1.31616
1177.2	0.845123
1180.58	0.989532
1183.95	0.305878
1187.33	0.753113
1190.7	2.41418
1194.08	1.44162
1197.45	2.66281
1200.83	3.13446
1204.2	1.21014
1207.58	1.95276
1210.95	0.436523
1214.33	2.2456
1217.7	3.31131
1221.08	2.43121
1224.45	3.1264
1227.83	3.23425
1231.2	3.38446
1234.58	2.03366
1237.95	0.819
1241.33	3.30298
1244.7	1.8667
1248.08	2.63257
1251.45	4.17343
1254.83	2.95166
1258.2	3.07758
1261.58	2.52203
1264.95	3.08429
1268.32	2.17368
1271.7	5.29443
1275.07	1.93384
1278.45	2.02835
1281.82	2.21362
1285.2	1.65497
1288.57	1.23013
1291.95	1.94504
1295.32	3.31506
1298.7	0.161163
1302.07	3.4201
