Measurement: Raman, 532 nm, unoriented, Raman Data Processed
Mineral: Baddeleyite
Rruff sample: R060078
Ideal chemistry: ZrO_2_
Locality: Wetloo mine, Mogok, Burma
Source: Marcus Origlieri
Description: Dark brown fragment
Measured chemistry: (Zr_0.99_Hf_0.01_)_Î£=1_O_2_
Raman shift (cm-1)	intensity
94.7103	0
98.0851	0.071686
101.46	38.3141
104.835	165.114
108.21	41.2832
111.584	1.19667
114.959	9.98779
118.334	20.0347
121.709	25.1576
125.084	33.7251
128.458	48.194
131.833	70.4019
135.208	72.3792
138.583	76.2479
141.958	83.0503
145.333	87.4954
148.707	110.03
152.082	134.691
155.457	188.353
158.832	395.011
162.207	795.61
165.582	976.094
168.956	1311.36
172.331	1995.72
175.706	3556
179.081	5669.67
182.456	2412.82
185.83	1848.22
189.205	3152.43
192.58	3630.77
195.955	757.488
199.33	264.577
202.704	173.873
206.079	170.525
209.454	172.496
212.829	203.892
216.204	261.868
219.578	455.253
222.953	625.767
226.328	202.804
229.703	62.0809
233.078	28.1711
236.453	11.867
239.827	2.51233
243.202	0.463135
246.577	4.3941
249.952	7.08676
253.327	11.9937
256.702	5.17557
260.076	7.52539
263.451	8.18051
266.826	9.69022
270.201	6.68222
273.576	1.73462
276.95	12.6962
280.325	33.1156
283.7	66.0622
287.075	124.291
290.45	213.626
293.825	307.5
297.199	422.236
300.574	592.722
303.949	831.369
307.324	944.294
310.699	669.573
314.073	455.34
317.448	475.2
320.823	552.504
324.198	707.781
327.573	988.49
330.947	1547.95
334.322	1746.41
337.697	1142.99
341.072	1085.39
344.447	1474.79
347.822	1771.53
351.196	1114.36
354.571	501.454
357.946	294.529
361.321	285.224
364.696	386.737
368.07	585.225
371.445	847.092
374.82	1212.11
378.195	1740.96
381.57	2112.55
384.945	1931.34
388.319	1119.49
391.694	546.114
395.069	278.724
398.444	150.185
401.819	78.0628
405.193	42.3963
408.568	20.1766
411.943	1.91086
415.318	7.62201
418.693	18.4089
422.067	19.642
425.442	16.7631
428.817	9.71738
432.192	1.48062
435.567	20.942
438.942	47.8455
442.316	86.1497
445.691	143.841
449.066	236.473
452.441	397.279
455.816	672.013
459.19	1178.2
462.565	1844.41
465.94	2658.23
469.315	3882.4
472.69	5390
476.065	5644.82
479.439	3426.43
482.814	1631.92
486.189	931.184
489.564	657.631
492.939	569.082
496.313	615.9
499.688	722.295
503.063	660.558
506.438	338.392
509.813	136.266
513.188	40.7822
516.562	6.81522
519.937	5.61749
523.312	29.9955
526.687	73.0885
530.062	144.671
533.436	253.208
536.811	359.024
540.186	325.937
543.561	229.215
546.936	234.188
550.311	324.485
553.685	469.582
557.06	544.664
560.435	388.248
563.81	169.152
567.185	51.1418
570.559	2.48013
573.934	18.9654
577.309	17.5826
580.684	2.77371
584.059	28.6607
587.433	35.6133
590.808	64.1656
594.183	141.722
597.558	271.172
600.933	496.107
604.308	771.637
607.682	1131.58
611.057	1567.05
614.432	1814.07
617.807	1547.12
621.182	1008.57
624.556	679.958
627.931	573.106
631.306	586.559
634.681	636.547
638.056	581.173
641.431	394.996
644.805	226.435
648.18	123.615
651.555	69.8728
654.93	39.8665
658.305	24.0288
661.679	11.8553
665.054	5.86057
668.429	1.88443
671.804	3.89758
675.179	4.76367
678.553	0.756378
681.928	2.2756
685.303	2.00537
688.678	10.0343
692.053	16.8977
695.428	26.7994
698.802	37.8089
702.177	52.7504
705.552	66.0675
708.927	71.4284
712.302	69.2261
715.677	62.1722
719.051	45.5241
722.426	27.8916
725.801	15.575
729.176	12.4727
732.551	13.1232
735.925	23.1561
739.3	38.7284
742.675	59.0475
746.05	74.1485
749.425	93.651
752.799	105.3
756.174	101.944
759.549	86.165
762.924	63.4438
766.299	45.2605
769.673	30.9748
773.048	19.6481
776.423	12.1808
779.798	8.8399
783.173	4.07205
786.548	2.67627
789.922	1.1759
793.297	0.319824
796.672	0.08548
800.047	0.350037
803.422	1.2244
806.796	1.61841
810.171	1.20796
813.546	1.39438
816.921	2.55667
820.296	1.38425
823.67	2.53969
827.045	3.09669
830.42	4.17612
833.795	5.64874
837.17	7.66846
840.545	7.65273
843.919	8.57015
847.294	11.7816
850.669	12.8987
854.044	13.4033
857.419	12.3091
860.793	11.5424
864.168	12.1069
867.543	12.2983
870.918	9.12154
874.293	8.95853
877.668	7.31894
881.042	8.79944
884.417	6.45381
887.792	5.90449
891.167	6.46516
894.542	4.28488
897.917	5.1776
901.291	4.26334
904.666	5.30298
908.041	5.91437
911.416	4.57129
914.791	1.2722
918.165	1.47552
921.54	2.24374
924.915	2.3685
928.29	3.19534
931.665	1.40382
935.039	2.42006
938.414	0.18602
941.789	0.777191
945.164	1.23846
948.539	1.33232
951.914	4.8188
955.288	4.63802
958.663	3.50908
962.038	4.2646
965.413	4.2869
968.788	0.220779
972.163	0.981323
975.537	0.4487
978.912	0.308197
982.287	1.6543
985.662	2.10643
989.037	2.06656
992.411	3.09726
995.786	2.73822
999.161	3.29666
1002.54	4.86699
1005.91	4.20441
1009.28	7.04295
1012.66	10.3774
1016.03	8.25848
1019.41	6.65697
1022.78	5.7598
1026.16	5.1093
1029.53	3.57402
1032.91	3.26576
1036.28	2.00314
1039.66	1.55325
1043.03	1.60068
1046.41	0.13768
1049.78	4.02116
1053.16	2.96616
1056.53	1.31091
1059.91	4.17908
1063.28	1.29381
1066.66	4.93687
1070.03	1.46117
1073.41	2.54651
1076.78	1.73271
1080.16	1.19862
1083.53	1.35184
1086.91	1.78314
1090.28	1.43338
1093.66	2.07111
1097.03	0.90979
1100.4	1.36057
1103.78	2.12471
1107.15	3.81462
1110.53	1.89563
1113.9	2.80051
1117.28	1.2495
1120.65	1.16565
1124.03	1.50009
1127.4	1.11633
1130.78	1.23
1134.15	2.83977
1137.53	0.31163
1140.9	0.021835
1144.28	2.7919
1147.65	0.781204
1151.03	2.18527
1154.4	2.17992
1157.78	1.77212
1161.15	1.3429
1164.53	3.62962
1167.9	1.4135
1171.28	1.36934
1174.65	1.67213
1178.03	1.36592
1181.4	0.146194
1184.78	1.7057
1188.15	0.235931
1191.53	1.05176
1194.9	1.21385
1198.28	0.916
1201.65	2.20126
1205.03	1.84738
1208.4	1.22006
1211.77	1.72005
1215.15	3.32123
1218.52	0.907608
1221.9	2.3214
1225.27	2.96368
1228.65	4.05763
1232.02	5.37202
1235.4	4.12572
1238.77	3.84963
1242.15	4.35039
1245.52	3.18309
1248.9	3.43898
1252.27	3.79585
1255.65	3.72121
1259.02	3.67206
1262.4	3.61513
1265.77	2.85153
1269.15	2.94762
1272.52	2.34491
1275.9	0.214386
1279.27	1.86322
1282.65	2.86665
1286.02	0.324387
1289.39	1.09773
1292.77	1.67184
1296.14	0.13295
1299.52	0.957245
