Measurement: Raman, 780 nm, unoriented, Raman Data Processed
Mineral: Baddeleyite
Rruff sample: R060078
Ideal chemistry: ZrO_2_
Locality: Wetloo mine, Mogok, Burma
Source: Marcus Origlieri
Description: Dark brown fragment
Measured chemistry: (Zr_0.99_Hf_0.01_)_Î£=1_O_2_
Raman shift (cm-1)	intensity
93.9489	0
97.3237	651.792
100.698	2639.35
104.073	3732.56
107.448	795.939
110.823	150.183
114.198	40.3227
117.573	5.64764
120.947	13.1235
124.322	21.4688
127.697	20.4932
131.072	2.83655
134.447	18.8572
137.821	47.3445
141.196	77.55
144.571	115.75
147.946	163.612
151.321	258.545
154.696	574.218
158.07	1358.39
161.445	1607.53
164.82	2008.4
168.195	2869.38
171.57	4235.65
174.945	6264.09
178.319	8576.63
181.694	3637.47
185.069	3102.76
188.444	4896.04
191.819	4615.98
195.193	1038.02
198.568	440.02
201.943	376.14
205.318	334.671
208.693	346.152
212.067	403.603
215.442	498.307
218.817	708.937
222.192	762.437
225.567	250.78
228.942	105.359
232.316	59.8881
235.691	38.2938
239.066	23.7977
242.441	13.5108
245.816	1.60156
249.19	1.57819
252.565	6.39844
255.94	13.0226
259.315	12.3512
262.69	11.4864
266.065	15.3241
269.439	14.1869
272.814	1.23566
276.189	10.5793
279.564	38.3171
282.939	91.4573
286.313	182.833
289.688	282
293.063	401.389
296.438	559.592
299.813	826.311
303.188	1180.9
306.562	1347.71
309.937	979.12
313.312	777.484
316.687	775.587
320.062	856.097
323.436	1113.4
326.811	1480.38
330.186	2048.91
333.561	2004.97
336.936	1339.86
340.31	1362.63
343.685	1896.76
347.06	2293.16
350.435	1393
353.81	650.599
357.185	462.529
360.559	556.46
363.934	831.823
367.309	1180.96
370.684	1601.72
374.059	2282.14
377.433	3160.86
380.808	3245.67
384.183	2468.28
387.558	1316.91
390.933	642.447
394.308	334.274
397.682	175.204
401.057	90.5691
404.432	48.4418
407.807	13.0536
411.182	4.20453
414.557	12.6107
417.931	22.3125
421.306	26.0643
424.681	20.0649
428.056	10.5905
431.43	12.2997
434.805	43.1398
438.18	82.1642
441.555	146.296
444.93	250.356
448.305	421.562
451.679	730.543
455.054	1296.62
458.429	2107.89
461.804	2861.62
465.179	3888.32
468.553	5364.64
471.928	7107.19
475.303	7039.16
478.678	4025.3
482.053	1968.26
485.428	1182.77
488.802	855.269
492.177	753.477
495.552	791.455
498.927	877.246
502.302	688.839
505.676	296.683
509.051	91.9088
512.426	7.44311
515.801	18.8409
519.176	18.9656
522.551	71.6334
525.925	126.09
529.3	222.234
532.675	357.326
536.05	498.592
539.425	455.709
542.799	366.939
546.174	419.241
549.549	597.927
552.924	903.163
556.299	1125.78
559.674	824.17
563.048	386.959
566.423	146.408
569.798	44.9791
573.173	9.05322
576.548	24.7233
579.923	15.0892
583.297	13.0851
586.672	63.8461
590.047	156.272
593.422	318.626
596.797	567.329
600.171	897.088
603.546	1242.75
606.921	1673.48
610.296	2157.3
613.671	2394.17
617.045	2050.23
620.42	1599.14
623.795	1475.12
627.17	1704.31
630.545	2208.13
633.919	2797.38
637.294	2805.54
640.669	1985.6
644.044	1169.8
647.419	689.835
650.794	426.508
654.168	266.375
657.543	174.088
660.918	115.819
664.293	78.2568
667.668	49.7087
671.043	33.8465
674.417	18.9895
677.792	9.15021
681.167	2.62323
684.542	0.882263
687.917	2.18616
691.291	7.28986
694.666	4.16498
698.041	2.14368
701.416	2.78778
704.791	3.00989
708.165	2.88837
711.54	7.90918
714.915	4.39252
718.29	6.89093
721.665	9.76544
725.04	16.5366
728.414	24.113
731.789	35.9038
735.164	51.6593
738.539	70.7183
741.914	93.0693
745.288	111.503
748.663	127.053
752.038	135.281
755.413	122.323
758.788	99.4042
762.163	73.5305
765.537	50.4133
768.912	35.0497
772.287	25.1317
775.662	16.8422
779.037	13.1396
782.411	6.50897
785.786	5.83215
789.161	3.25421
792.536	4.02393
795.911	2.54932
799.285	2.22559
802.66	1.19092
806.035	1.55206
809.41	2.28894
812.785	3.14569
816.16	1.26721
819.534	1.77649
822.909	0.297363
826.284	2.18689
829.659	1.34796
833.034	4.31091
836.409	3.67676
839.783	4.72064
843.158	7.64642
846.533	8.17102
849.908	6.89136
853.283	6.40924
856.657	5.41339
860.032	5.61273
863.407	4.55279
866.782	6.42011
870.157	3.38562
873.532	6.10791
876.906	3.40369
880.281	2.13794
883.656	2.98962
887.031	3.32599
890.406	4.04205
893.78	3.02685
897.155	0.492004
900.53	2.03668
903.905	2.36133
907.28	0.463074
910.654	5.04675
914.029	2.99182
917.404	2.9234
920.779	4.35376
924.154	3.80072
927.529	2.88062
930.903	4.88147
934.278	3.20117
937.653	4.64593
941.028	0.889465
944.403	2.47784
947.777	2.06378
951.152	1.67889
954.527	2.10065
957.902	1.10431
961.277	1.08716
964.652	1.29413
968.026	2.09222
971.401	1.03961
974.776	0.71106
978.151	0.382019
981.526	1.83972
984.9	5.69006
988.275	2.93237
991.65	4.39356
995.025	10.1827
998.4	3.7619
1001.77	6.84674
1005.15	2.40991
1008.52	3.83319
1011.9	2.61176
1015.27	3.0705
1018.65	3.92902
1022.02	2.82831
1025.4	0.555908
1028.77	3.51135
1032.15	2.91046
1035.52	5.35931
1038.9	3.06152
1042.27	1.62061
1045.65	5.36304
1049.02	5.6203
1052.4	3.3562
1055.77	6.92938
1059.15	5.59979
1062.52	5.7912
1065.9	4.45721
1069.27	3.53003
1072.65	4.86908
1076.02	0.469971
1079.39	5.48694
1082.77	1.46167
1086.14	1.30756
1089.52	4.55731
1092.89	5.19653
1096.27	6.00299
1099.64	0.008118
1103.02	1.46179
1106.39	0.566833
1109.77	2.3338
1113.14	1.75568
1116.52	2.72467
1119.89	0.272156
1123.27	0.734863
1126.64	3.66449
1130.02	2.77081
1133.39	2.02759
1136.77	1.04871
1140.14	0.909302
1143.52	4.05579
1146.89	4.26636
1150.27	2.52991
1153.64	1.28919
1157.02	3.88666
1160.39	5.62347
1163.77	3.98065
1167.14	4.53864
1170.52	5.81952
1173.89	1.24188
1177.27	2.99933
1180.64	7.3067
1184.02	3.84387
1187.39	2.33118
1190.76	3.24646
1194.14	3.17761
1197.51	4.93573
1200.89	5.82446
1204.26	2.10211
1207.64	4.3208
1211.01	0.57196
1214.39	7.49072
1217.76	1.80609
1221.14	0.822144
1224.51	0.843628
1227.89	5.29504
1231.26	16.9486
1234.64	1.08838
1238.01	5.20612
1241.39	4.46362
1244.76	4.89819
1248.14	4.6825
1251.51	0.421021
1254.89	1.76959
1258.26	2.02582
1261.63	3.56476
1265.01	3.39136
1268.38	0.177185
1271.76	4.16956
1275.13	4.24817
1278.51	3.48566
1281.88	0.016663
