Measurement: Raman, 780 nm, unoriented, Raman Data Processed
Mineral: Baddeleyite
Rruff sample: R060016
Ideal chemistry: ZrO_2_
Locality: Wet Loo, Myanmar
Source: American Museum of Natural History
Description: Brown crystal fragment
Measured chemistry: (Zr_0.99_Ti_0.01_)_Î£=1_O_2_
Raman shift (cm-1)	intensity
131.151	0
134.526	0.20256
137.901	0.641541
141.275	1.67009
144.65	5.56699
148.025	9.68515
151.4	25.1305
154.775	55.1754
158.149	146.711
161.524	188.607
164.899	237.812
168.274	352.715
171.649	544.413
175.024	734.323
178.398	907.844
181.773	478.134
185.148	462.991
188.523	669.919
191.898	602.275
195.272	144.402
198.647	60.4887
202.022	47.6767
205.397	44.339
208.772	46.2009
212.147	55.5964
215.521	71.6363
218.896	97.4008
222.271	107.344
225.646	33.1476
229.021	9.38989
232.395	1.95726
235.77	0.250992
239.145	1.26704
242.52	1.55713
245.895	2.0477
249.269	1.38376
252.644	2.44363
256.019	1.97324
259.394	1.73119
262.769	0.460678
266.144	1.03281
269.518	3.11646
272.893	5.03101
276.268	6.43451
279.643	13.5613
283.018	22.5674
286.392	39.9663
289.767	59.7397
293.142	77.9591
296.517	104.376
299.892	136.248
303.267	170.285
306.641	186.598
310.016	134.049
313.391	100.362
316.766	103.394
320.141	120.144
323.515	159.799
326.89	223.672
330.265	310.762
333.64	320.391
337.015	242.751
340.39	243.149
343.764	301.627
347.139	335.326
350.514	213.676
353.889	106.178
357.264	73.7163
360.639	91.9146
364.013	128.084
367.388	178.429
370.763	237.281
374.138	320.019
377.512	402.9
380.887	393.147
384.262	304.626
387.637	173.789
391.012	84.5148
394.387	41.5071
397.761	21.1328
401.136	10.8227
404.511	5.0634
407.886	1.29607
411.261	1.53145
414.635	2.63486
418.01	2.21394
421.385	2.93951
424.76	2.85702
428.135	0.226089
431.51	0.291656
434.884	5.7473
438.259	10.4226
441.634	15.7429
445.009	26.534
448.384	42.4247
451.759	69.2368
455.133	122.819
458.508	198.922
461.883	273.057
465.258	362.198
468.633	476.966
472.007	582.25
475.382	545.091
478.757	317.707
482.132	155.379
485.507	93.1808
488.882	71.106
492.256	63.6982
495.631	68.6128
499.006	76.5092
502.381	61.3088
505.756	26.6697
509.13	6.06621
512.505	0.862366
515.88	0.932693
519.255	2.60886
522.63	11.3997
526.005	18.3498
529.379	33.7429
532.754	49.3803
536.129	70.8669
539.504	68.5246
542.879	59.4576
546.253	62.7505
549.628	79.8204
553.003	107.269
556.378	118.413
559.753	90.9038
563.127	44.1196
566.502	19.3972
569.877	5.87401
573.252	1.26019
576.627	1.73112
580.001	1.01085
583.376	0.278854
586.751	5.15791
590.126	12.1412
593.501	28.1547
596.876	48.3901
600.25	78.3364
603.625	114.413
607	156.32
610.375	201.665
613.75	228.366
617.125	214.552
620.499	184.864
623.874	177.505
627.249	200.231
630.624	238.594
633.999	267.824
637.373	251.86
640.748	173.565
644.123	103.34
647.498	60.2379
650.873	36.6717
654.247	22.55
657.622	15.6023
660.997	8.61813
664.372	5.41721
667.747	2.4352
671.122	1.97934
674.496	0.719238
677.871	0.822815
681.246	1.50072
684.621	0.366989
687.996	0.020576
691.37	0.810699
694.745	1.08549
698.12	0.413315
701.495	2.41052
704.87	1.83961
708.245	2.79382
711.619	2.33315
714.994	2.39741
718.369	0.327049
721.744	0.094826
725.119	0.564873
728.494	1.39861
731.868	1.83605
735.243	4.03579
738.618	7.10955
741.993	7.57507
745.368	10.4821
748.742	10.5423
752.117	13.0548
755.492	12.2138
758.867	10.9725
762.242	8.40214
765.616	5.56896
768.991	3.07302
772.366	3.41772
775.741	1.22474
779.116	0.916885
782.49	0.896889
785.865	1.18423
789.24	0.569954
792.615	0.159775
795.99	0.498787
799.365	0.87001
802.739	0.443054
806.114	0.701355
809.489	1.17873
812.864	0.002197
816.239	0.484512
819.614	0.545593
822.988	0.873863
826.363	1.15881
829.738	0.35833
833.113	1.29454
836.487	1.37087
839.862	1.89658
843.237	1.69149
846.612	2.35109
849.987	2.25963
853.362	1.79615
856.736	1.53179
860.111	2.7091
863.486	2.05397
866.861	1.75234
870.236	1.50936
873.611	1.1539
876.985	1.92023
880.36	0.04306
883.735	1.47661
887.11	0.535736
890.485	0.091301
893.859	1.13666
897.234	1.16836
900.609	1.36193
903.984	0.204674
907.359	0.470833
910.734	1.33205
914.108	0.585037
917.483	0.479301
920.858	1.80157
924.233	0.554764
927.608	1.8689
930.982	1.01704
934.357	1.02318
937.732	1.91809
941.107	1.80717
944.482	0.700027
947.856	1.00306
951.231	0.567711
954.606	1.8042
957.981	2.1172
961.356	0.724007
964.731	1.4993
968.105	1.35169
971.48	0.634003
974.855	1.17984
978.23	1.77322
981.605	0.719543
984.98	0.562141
988.354	1.2651
991.729	1.20782
995.104	0.979736
998.479	0.37281
1001.85	0.45192
1005.23	0.644966
1008.6	3.21023
1011.98	0.502426
1015.35	0.417374
1018.73	1.67949
1022.1	1.68079
1025.48	0.769203
1028.85	1.12751
1032.23	1.53468
1035.6	0.972343
1038.98	1.8698
1042.35	0.037758
1045.73	1.40437
1049.1	1.9828
1052.48	0.486694
1055.85	1.86426
1059.22	0.139053
1062.6	2.43928
1065.97	1.46636
1069.35	1.67382
1072.72	1.76799
1076.1	2.49075
1079.47	1.91478
1082.85	0.68364
1086.22	1.31663
1089.6	1.6928
1092.97	1.41269
1096.35	0.071709
1099.72	0.848274
1103.1	0.136406
1106.47	1.39861
1109.85	0.105911
1113.22	0.265434
1116.6	0.068428
1119.97	0.73542
1123.35	0.589859
1126.72	0.849724
1130.1	0.274353
1133.47	0.336273
1136.85	1.076
1140.22	1.62554
1143.6	0.85672
1146.97	0.577896
1150.35	1.71824
1153.72	1.09081
1157.1	0.821297
1160.47	1.11926
1163.85	0.844376
1167.22	1.04886
1170.59	1.13623
1173.97	1.9018
1177.34	1.50423
1180.72	0.94838
1184.09	1.2344
1187.47	0.791481
1190.84	1.5107
1194.22	1.1138
1197.59	1.40784
1200.97	1.1451
1204.34	0.942848
1207.72	2.42907
1211.09	0.903984
1214.47	0.784142
1217.84	2.37619
1221.22	1.55325
1224.59	0.54911
1227.97	0.638939
1231.34	1.51933
1234.72	2.40742
1238.09	1.05933
1241.47	2.46058
1244.84	1.83386
1248.21	1.59936
1251.59	1.60807
1254.96	1.24686
1258.34	1.66489
1261.71	1.2399
1265.09	1.43222
1268.46	1.20076
1271.84	0.044693
1275.21	3.18071
1278.59	0.187958
1281.96	1.29906
1285.34	0.614334
