Measurement: Raman, 532 nm, unoriented, Raman Data Processed
Mineral: Baddeleyite
Rruff sample: R100171
Ideal chemistry: ZrO_2_
Locality: Palabora Mine, Phalaborwa, Transvaal, Republic of South Africa
Source: Mauricio Ibanez-Mejia
Description: Fragments of black prismatic crystals
Raman shift (cm-1)	intensity
168.174	0
171.067	19.4379
173.959	53.6026
176.852	106.354
179.745	99.6248
182.637	40.8435
185.53	27.9801
188.423	71.5931
191.315	100.326
194.208	44.5812
197.101	2.68976
199.994	5.86557
202.886	16.7402
205.779	15.9976
208.672	10.6538
211.565	12.6001
214.457	10.0821
217.35	8.09491
220.243	10.2163
223.135	8.30335
226.028	3.97244
228.921	3.70816
231.813	7.65817
234.706	8.02573
237.599	7.6868
240.492	0.658875
243.384	10.1376
246.277	10.217
249.17	16.6452
252.062	17.6143
254.955	19.9888
257.848	28.5141
260.74	27.7933
263.633	26.8431
266.526	27.1858
269.418	25.8559
272.311	36.2642
275.204	39.8876
278.097	42.0793
280.989	51.4449
283.882	66.1903
286.775	76.4644
289.667	83.3962
292.56	89.4202
295.453	92.402
298.346	95.2633
301.238	98.3424
304.131	102.538
307.024	102.86
309.916	92.664
312.809	94.2483
315.702	92.9523
318.594	98.9447
321.487	100.042
324.38	103.68
327.273	113.324
330.165	117.825
333.058	116.25
335.951	93.9725
338.843	70.0161
341.736	71.6687
344.629	78.0793
347.522	81.2796
350.414	59.1563
353.307	30.9454
356.2	23.0637
359.092	17.9054
361.985	23.2955
364.878	26.1879
367.77	32.7029
370.663	42.4903
373.556	56.8429
376.449	68.2692
379.341	80.9513
382.234	77.511
385.127	64.918
388.019	41.0035
390.912	25.9042
393.805	16.7869
396.697	4.4204
399.59	6.36256
402.483	1.08231
405.376	1.3564
408.268	5.08083
411.161	3.72093
414.054	4.71278
416.946	2.86188
419.839	0.163651
422.732	0.348068
425.625	3.93852
428.517	9.27445
431.41	9.90707
434.303	14.0151
437.195	14.9606
440.088	18.4155
442.981	18.2058
445.873	19.8376
448.766	22.0412
451.659	29.2784
454.551	32.5143
457.444	44.0595
460.337	54.6894
463.23	67.1633
466.122	84.1822
469.015	95.1098
471.908	117.772
474.8	128.785
477.693	110.405
480.586	72.6027
483.479	41.0551
486.371	23.85
489.264	18.1319
492.157	16.8794
495.049	17.3545
497.942	23.8544
500.835	22.9082
503.728	24.1395
506.62	15.4137
509.513	8.15912
512.406	0.823181
515.298	0.011108
518.191	3.65399
521.084	0.176117
523.976	6.92441
526.869	8.36081
529.762	17.6333
532.654	21.7645
535.547	27.7742
538.44	29.0657
541.333	31.5718
544.225	31.403
547.118	33.2523
550.011	38.1247
552.903	46.498
555.796	43.0363
558.689	44.2994
561.582	31.6076
564.474	22.0562
567.367	17.5525
570.26	9.34286
573.152	4.97125
576.045	1.10492
578.938	0.429565
581.83	3.47412
584.723	1.24323
587.616	0.116455
590.509	3.40686
593.401	9.21668
596.294	21.9787
599.187	38.6433
602.079	55.7178
604.972	75.5153
607.865	92.9163
610.758	101.133
613.65	97.793
616.543	83.2259
619.436	60.2223
622.328	37.3071
625.221	30.4568
628.114	30.0773
631.006	33.8253
633.899	32.5599
636.792	30.0467
639.684	21.2205
642.577	13.9507
645.47	6.58978
648.363	1.74637
651.255	1.98032
654.148	0.563293
657.041	0.988556
659.933	1.91766
662.826	2.17337
665.719	4.30243
668.612	5.39548
671.504	8.26932
674.397	14.84
677.29	16.307
680.182	19.4185
683.075	26.4169
685.968	33.275
688.861	40.7598
691.753	47.0929
694.646	51.8228
697.539	64.536
700.431	69.5157
703.324	71.7615
706.217	75.5845
709.109	71.1977
712.002	60.8019
714.895	51.1718
717.788	37.7266
720.68	24.9442
723.573	16.0978
726.466	9.4301
729.358	3.73595
732.251	0.880768
735.144	0.145874
738.036	0.01886
740.929	1.87543
743.822	1.03966
746.715	2.98631
749.607	4.3972
752.5	4.81258
755.393	8.0845
758.285	5.91727
761.178	6.65884
764.071	6.8067
766.963	6.17685
769.856	6.69026
772.749	4.76541
775.642	4.16966
778.534	5.23654
781.427	3.66399
784.32	4.10698
787.212	0.716125
790.105	2.16272
792.998	3.91818
795.89	1.69014
798.783	0.395309
801.676	0.411942
804.569	0.471313
807.461	0.678345
810.354	1.13295
813.247	0.841217
816.139	0.673798
819.032	0.311798
821.925	4.02891
824.818	0.071991
827.71	4.93695
830.603	3.11369
833.496	2.7708
836.388	4.87943
839.281	2.9799
842.174	6.18022
845.067	4.87512
847.959	5.80136
850.852	4.69707
853.745	4.6929
856.637	7.96692
859.53	6.66725
862.423	6.37099
865.315	4.68762
868.208	5.9877
871.101	3.37801
873.994	4.39592
876.886	3.89966
879.779	4.04028
882.672	2.84886
885.564	2.57317
888.457	0.851593
891.35	4.34224
894.242	4.26292
897.135	4.21082
900.028	2.9321
902.92	4.78813
905.813	4.26833
908.706	3.73396
911.599	3.92667
914.491	2.73158
917.384	1.57001
920.277	1.1144
923.169	0.19931
926.062	3.07683
928.955	4.57246
931.847	4.50848
934.74	5.29959
937.633	2.6985
940.526	1.57742
943.418	0.523743
946.311	2.86603
949.204	1.45563
952.096	1.02974
954.989	1.6963
957.882	1.05626
960.775	0.348358
963.667	1.57634
966.56	0.474884
969.453	2.47852
972.345	2.86752
975.238	1.27792
978.131	3.7736
981.024	1.31279
983.916	1.65985
986.809	1.78551
989.702	3.44206
992.594	2.29892
995.487	1.96233
998.38	2.75426
1001.27	4.90077
1004.16	1.53839
1007.06	5.35489
1009.95	6.10938
1012.84	2.95869
1015.74	2.60957
1018.63	4.93716
1021.52	4.00887
1024.41	3.81831
1027.31	1.40523
1030.2	2.7395
1033.09	0.850021
1035.98	2.28087
1038.88	0.430817
1041.77	3.093
1044.66	1.89462
1047.56	0.56459
1050.45	2.21686
1053.34	2.75226
1056.23	1.22678
1059.13	2.46547
1062.02	1.25699
1064.91	0.654404
1067.81	3.42096
1070.7	0.470718
1073.59	2.493
1076.48	1.66061
1079.38	3.01389
1082.27	1.67258
1085.16	3.86346
1088.05	1.22176
1090.95	2.31753
1093.84	1.75496
1096.73	0.508011
1099.62	0.94136
1102.52	1.75923
1105.41	0.856003
1108.3	0.523804
1111.19	2.08113
1114.09	0.06839
1116.98	0.841599
1119.87	0.250977
1122.77	2.8382
1125.66	2.4631
1128.55	1.3277
1131.44	3.35422
1134.34	2.11258
1137.23	3.20818
1140.12	2.48579
1143.02	0.136658
1145.91	2.79515
1148.8	1.83479
1151.69	2.81915
1154.59	0.438583
1157.48	2.46407
1160.37	2.86421
1163.26	2.4487
1166.16	2.922
1169.05	1.20396
1171.94	3.95288
1174.84	3.96117
1177.73	3.00738
1180.62	3.01257
1183.51	2.27116
1186.4	1.83414
1189.3	2.83255
1192.19	4.15169
1195.08	1.26893
1197.98	3.27385
1200.87	3.23284
1203.76	2.66931
1206.65	3.04681
1209.55	1.28527
1212.44	2.63141
1215.33	0.550209
1218.22	2.45788
1221.12	1.06355
1224.01	4.97943
1226.9	2.44678
1229.8	0.549568
1232.69	2.80216
1235.58	3.36983
1238.47	1.42553
1241.37	2.94414
1244.26	1.60065
1247.15	0.295349
1250.05	1.72006
1252.94	3.03118
1255.83	4.2425
1258.72	2.41143
1261.62	1.50651
1264.51	0.249756
1267.4	2.71863
1270.29	3.52488
1273.19	2.59804
1276.08	0.597687
1278.97	3.72874
1281.87	0.817192
1284.76	3.14481
1287.65	2.13883
1290.54	0.953796
1293.43	1.02371
1296.33	0.06488
1299.22	0.595619
1302.11	0.089241
