Measurement: Raman, 780 nm, unoriented, Raman Data Processed
Mineral: Bahianite
Rruff sample: R050627
Ideal chemistry: Al_5_Sb^5+^_3_O_14_(OH)_2_
Locality: Paramirim Region, Bahia, Brazil
Source: Gemological Center
Description: Brown water worn pebble
Measured chemistry: Al_5.00_Sb^5+^_3.00_O_14_(OH)_2_
Raman shift (cm-1)	intensity
149.919	0
152.812	6.14691
155.705	24.5668
158.597	56.1993
161.49	99.7462
164.383	164.558
167.276	118.272
170.168	41.2735
173.061	17.3063
175.954	3.39932
178.846	2.91815
181.739	10.5219
184.632	16.1291
187.524	23.1459
190.417	32.4985
193.31	59.3226
196.203	105.959
199.095	133.075
201.988	103.344
204.881	49.1735
207.773	53.6704
210.666	74.506
213.559	112.61
216.451	153.881
219.344	184.707
222.237	161.459
225.13	64.2638
228.022	23.8876
230.915	15.4363
233.808	14.8331
236.7	29.6508
239.593	71.5864
242.486	93.2608
245.378	120.576
248.271	163.372
251.164	227.244
254.056	335.82
256.949	471.843
259.842	326.808
262.735	100.367
265.627	27.7193
268.52	2.8808
271.413	2.14481
274.305	8.03128
277.198	16.3441
280.091	25.5102
282.983	34.1513
285.876	52.627
288.769	74.2298
291.662	104.684
294.554	100.586
297.447	47.0425
300.34	18.1846
303.232	4.25284
306.125	5.31717
309.018	7.15979
311.911	20.801
314.803	35.4999
317.696	52.3761
320.589	60.7069
323.481	34.1746
326.374	2.36667
329.267	9.18152
332.159	6.29916
335.052	3.66696
337.945	15.7329
340.837	21.5866
343.73	34.7859
346.623	55.9575
349.516	81.3173
352.408	88.3092
355.301	56.5497
358.194	25.8032
361.086	15.0367
363.979	16.9966
366.872	31.3185
369.764	58.0414
372.657	98.5981
375.55	132.588
378.442	142.735
381.335	156.535
384.228	189.17
387.121	204.845
390.013	196.254
392.906	198.047
395.799	230.03
398.691	270.33
401.584	322.312
404.477	387.421
407.37	462.828
410.262	519.201
413.155	459.546
416.048	283.464
418.94	148.343
421.833	73.4833
424.726	35.6854
427.618	13.7795
430.511	2.01117
433.404	5.58362
436.296	4.14465
439.189	6.77158
442.082	11.4638
444.975	2.42587
447.867	4.3154
450.76	14.45
453.653	27.9039
456.545	56.3405
459.438	104.029
462.331	157.816
465.224	203.526
468.116	251.799
471.009	332.021
473.902	453.761
476.794	543.334
479.687	391.485
482.58	168.977
485.472	92.2393
488.365	80.2241
491.258	95.9992
494.151	121.167
497.043	141.582
499.936	132.232
502.829	112.596
505.721	94.4067
508.614	92.5864
511.507	98.5832
514.399	122.647
517.292	164.457
520.185	208.773
523.077	260.591
525.97	318.919
528.863	391.911
531.756	457.217
534.648	421.015
537.541	293.99
540.434	180.325
543.326	114.807
546.219	88.1871
549.112	79.6543
552.004	81.2664
554.897	82.6024
557.79	92.9026
560.683	104.806
563.575	112.679
566.468	114.519
569.361	95.7596
572.253	65.4289
575.146	44.9429
578.039	26.7723
580.931	12.0219
583.824	7.47919
586.717	6.38095
589.61	6.176
592.502	0.710419
595.395	5.04202
598.288	2.71304
601.18	5.16797
604.073	0.135986
606.966	4.55652
609.858	1.43094
612.751	1.1673
615.644	3.10959
618.537	7.1185
621.429	10.2459
624.322	18.3349
627.215	26.9128
630.107	35.2972
633	50.9469
635.893	71.0275
638.785	95.8908
641.678	74.6267
644.571	61.8953
647.463	59.0369
650.356	64.8705
653.249	69.7508
656.141	75.6104
659.034	83.0673
661.927	98.3119
664.82	123.591
667.712	143.347
670.605	163.439
673.498	174.271
676.39	186.007
679.283	200.142
682.176	195.335
685.068	172.267
687.961	138.944
690.854	102.134
693.747	82.2455
696.639	55.9748
699.532	40.6746
702.425	28.7219
705.317	18.3112
708.21	11.6377
711.103	9.25726
713.995	0.006775
716.888	3.23022
719.781	4.49838
722.674	8.14889
725.566	4.76776
728.459	2.76062
731.352	2.38516
734.244	3.15561
737.137	5.2294
740.03	0.030334
742.923	2.09137
745.815	12.6996
748.708	15.5048
751.601	25.5534
754.493	47.7451
757.386	68.9935
760.279	91.88
763.171	115.042
766.064	122.448
768.957	127.628
771.85	106.548
774.742	80.1595
777.635	59.3965
780.528	51.6583
783.42	51.8067
786.313	58.2551
789.206	85.6954
792.098	131.434
794.991	190.326
797.884	279.237
800.776	404.321
803.669	595.549
806.562	842.357
809.455	1112.78
812.347	1430.01
815.24	1696.68
818.133	1802.74
821.025	1593.01
823.918	1214.37
826.811	874.779
829.703	651.513
832.596	492.94
835.489	383.146
838.381	314.45
841.274	260.202
844.167	223.211
847.06	203.377
849.952	185.99
852.845	172.135
855.738	156.945
858.63	137.639
861.523	102.324
864.416	79.6363
867.308	62.3931
870.201	47.4731
873.094	41.9402
875.987	37.6708
878.879	32.1211
881.772	25.2857
884.665	22.7565
887.557	16.8896
890.45	8.75067
893.343	0.493774
896.236	4.07236
899.128	2.88281
902.021	5.3992
904.914	8.97015
907.806	2.57401
910.699	3.04102
913.592	1.8179
916.484	6.80756
919.377	7.89531
922.27	2.16905
925.163	4.59697
928.055	15.8171
930.948	17.9898
933.841	25.4527
936.733	26.4644
939.626	31.9497
942.519	33.4037
945.411	32.6424
948.304	38.1711
951.197	40.6745
954.09	41.7633
956.982	39.4614
959.875	37.0992
962.768	34.3306
965.66	31.5839
968.553	25.8215
971.446	29.8483
974.338	28.457
977.231	26.4257
980.124	25.6467
983.016	27.6917
985.909	26.7825
988.802	30.4899
991.694	38.1362
994.587	43.6317
997.48	43.4752
1000.37	39.281
1003.26	35.1618
1006.16	28.6208
1009.05	15.6491
1011.94	14.4496
1014.84	9.95558
1017.73	6.7146
1020.62	2.1122
1023.51	1.07916
1026.41	0.212601
1029.3	0.860611
1032.19	6.731
1035.09	7.72038
1037.98	16.1332
1040.87	17.517
1043.76	10.3407
1046.66	6.84544
1049.55	5.46292
1052.44	5.53949
1055.33	1.59605
1058.23	2.79861
1061.12	4.94624
1064.01	0.297913
1066.9	2.13875
1069.8	0.964828
1072.69	3.23442
1075.58	0.503723
1078.47	1.51177
1081.37	2.04309
1084.26	2.79521
1087.15	6.13808
1090.05	6.41446
1092.94	6.71553
1095.83	9.32581
1098.72	14.2675
1101.62	16.4513
1104.51	26.2083
1107.4	39.609
1110.3	56.9559
1113.19	62.1004
1116.08	47.3976
1118.97	32.7599
1121.87	14.2242
1124.76	13.5317
1127.65	12.23
1130.54	7.26762
1133.44	6.15874
1136.33	3.95494
1139.22	5.50621
1142.12	7.83133
1145.01	6.42262
1147.9	8.28232
1150.79	1.83989
1153.69	3.27406
1156.58	0.669952
1159.47	3.33598
1162.36	4.51611
1165.26	4.442
1168.15	5.33356
1171.04	5.95728
1173.93	6.0098
1176.83	13.981
1179.72	20.1697
1182.61	30.7847
1185.51	35.6405
1188.4	30.2699
1191.29	21.5621
1194.18	10.9126
1197.08	0.594543
1199.97	2.82068
1202.86	2.82745
1205.75	3.38324
1208.65	4.62024
1211.54	10.7791
1214.43	16.4625
1217.33	17.6383
1220.22	21.6198
1223.11	26.4372
1226	29.45
1228.9	29.0794
1231.79	27.6739
1234.68	25.4467
1237.57	22.4175
1240.47	20.8472
1243.36	16.6545
1246.25	15.4894
1249.14	19.1034
1252.04	14.7647
1254.93	15.2084
1257.82	14.1272
1260.71	10.4058
1263.61	6.23872
1266.5	4.63536
1269.39	2.69821
1272.29	0.845322
1275.18	3.04271
1278.07	2.62622
1280.96	2.30794
1283.86	5.7933
