Measurement: Raman, 532 nm, unoriented, Raman Data Processed
Mineral: Bahianite
Rruff sample: R050627
Ideal chemistry: Al_5_Sb^5+^_3_O_14_(OH)_2_
Locality: Paramirim Region, Bahia, Brazil
Source: Gemological Center
Description: Brown water worn pebble
Measured chemistry: Al_5.00_Sb^5+^_3.00_O_14_(OH)_2_
Raman shift (cm-1)	intensity
149.934	0
152.826	65.3391
155.719	100.001
158.612	177.815
161.504	262.878
164.397	488.312
167.29	511.269
170.183	195.609
173.075	43.2141
175.968	9.85303
178.861	6.89038
181.753	26.7029
184.646	76.6174
187.539	101.763
190.431	139.361
193.324	198.81
196.217	363.765
199.109	543.26
202.002	458.821
204.895	157.657
207.788	71.5491
210.68	83.5151
213.573	144.682
216.466	226.153
219.358	332.04
222.251	361.053
225.144	205.847
228.036	46.8118
230.929	7.48999
233.822	7.2395
236.715	15.5102
239.607	96.3726
242.5	276.233
245.393	411.129
248.286	523.005
251.178	692.936
254.071	1023.51
256.964	1600.23
259.856	1786.49
262.749	698.88
265.642	239.086
268.534	89.0606
271.427	32.8648
274.32	27.1074
277.212	66.5283
280.105	124.899
282.998	167.781
285.891	235.022
288.783	328.896
291.676	445.769
294.569	540.35
297.461	359.337
300.354	96.4673
303.247	32.9841
306.14	22.9145
309.032	36.251
311.925	69.7004
314.818	98.7263
317.71	180.642
320.603	218.21
323.496	171.087
326.389	49.2849
329.281	29.1148
332.174	25.2834
335.067	13.9058
337.959	14.1116
340.852	42.6118
343.745	89.7319
346.637	138.439
349.53	235.934
352.423	336.211
355.315	299.422
358.208	142.323
361.101	43.4246
363.994	38.8257
366.886	32.9951
369.779	86.5198
372.672	162.88
375.565	241.497
378.457	312.614
381.35	350.397
384.243	442.764
387.135	531.625
390.028	566.868
392.921	590.991
395.813	715.048
398.706	954.536
401.599	1213.85
404.491	1527.19
407.384	1889.82
410.277	2226.53
413.17	2272.32
416.062	1671.24
418.955	923.527
421.848	481.31
424.74	254.633
427.633	127.331
430.526	62.7632
433.418	17.2375
436.311	4.98315
439.204	22.5889
442.097	24.6958
444.989	25.1685
447.882	13.468
450.775	0.843262
453.667	30.3904
456.56	71.6348
459.453	105.174
462.346	200.602
465.238	358.924
468.131	470.022
471.024	679.826
473.916	1006.85
476.809	1382.58
479.702	1439.92
482.594	767.873
485.487	428.804
488.38	400.436
491.273	500.013
494.165	684.129
497.058	842.31
499.951	892.412
502.843	803.713
505.736	645.78
508.629	533.011
511.522	488.018
514.414	487.391
517.307	539.031
520.2	671.869
523.092	809.244
525.985	974.331
528.878	1195.85
531.77	1435.01
534.663	1483.97
537.556	1165.66
540.448	736.428
543.341	466.771
546.234	304.072
549.127	241.157
552.019	196.059
554.912	191.412
557.805	211.295
560.697	238.996
563.59	267.026
566.483	263.799
569.376	250.38
572.268	179.466
575.161	114.163
578.054	71.4136
580.946	28.8345
583.839	20.8264
586.732	20.7939
589.625	12.637
592.517	11.0591
595.41	10.4629
598.303	11.1885
601.195	5.23999
604.088	16.7251
606.981	6.39624
609.874	13.7629
612.766	5.8186
615.659	5.92847
618.552	12.7678
621.444	21.9416
624.337	35.2131
627.23	44.8381
630.122	48.7502
633.015	50.1587
635.908	68.2781
638.801	108.927
641.693	117.249
644.586	126.073
647.479	160.962
650.371	168.219
653.264	183.161
656.157	207.418
659.049	241.996
661.942	286.442
664.835	343.496
667.727	403.625
670.62	462.39
673.513	528.292
676.406	526.638
679.298	551.975
682.191	583.798
685.084	542.616
687.976	445.488
690.869	342.182
693.762	267.996
696.654	189.295
699.547	145.93
702.44	113.84
705.333	91.134
708.225	65.509
711.118	37.1853
714.011	15.2942
716.904	7.07764
719.796	6.85669
722.689	30.1392
725.582	26.2388
728.474	23.9297
731.367	18.4692
734.26	13.2729
737.152	33.4585
740.045	12.3032
742.938	21.7769
745.831	38.1182
748.723	83.4409
751.616	133.636
754.509	210.49
757.401	316.093
760.294	428.828
763.187	575.912
766.08	665.22
768.972	715.6
771.865	654.377
774.758	543.687
777.65	417.514
780.543	334.785
783.436	297.023
786.328	318.628
789.221	393.136
792.114	536.91
795.006	752.415
797.899	1074.96
800.792	1601.56
803.685	2364.08
806.577	3458.85
809.47	4879.22
812.363	6542.94
815.255	8319.73
818.148	9476.97
821.041	9071.68
823.933	7233.43
826.826	5250.19
829.719	3825.24
832.612	2819.2
835.504	2105.97
838.397	1564.95
841.29	1231.19
844.182	991.184
847.075	842.039
849.968	765.454
852.861	696.769
855.753	636.382
858.646	562.532
861.539	428.715
864.431	338.251
867.324	259.35
870.217	231.183
873.11	192.135
876.002	194.497
878.895	164.363
881.788	167.019
884.68	147.718
887.573	107.92
890.466	73.999
893.358	28.8887
896.251	22.4111
899.144	3.92822
902.037	16.3921
904.929	33.0386
907.822	44.165
910.715	28.458
913.607	16.7905
916.5	6.45312
919.393	5.4126
922.285	1.17871
925.178	13.0327
928.071	29.5879
930.964	56.6216
933.856	69.4009
936.749	113.397
939.642	143.143
942.534	158.32
945.427	179.203
948.32	193.364
951.212	217.65
954.105	258.315
956.998	263.325
959.891	263.897
962.783	259.812
965.676	248.918
968.569	244.523
971.461	223.781
974.354	217.608
977.247	208.606
980.139	207.315
983.032	197.602
985.925	173.711
988.818	195.12
991.71	213.011
994.603	223.182
997.496	245.741
1000.39	227.825
1003.28	193.649
1006.17	140.741
1009.07	114.329
1011.96	126.676
1014.85	62.666
1017.75	47.2417
1020.64	31.2895
1023.53	24.0771
1026.42	14.9644
1029.32	18.1191
1032.21	27.6602
1035.1	22.3516
1037.99	2.72559
1040.89	1.55762
1043.78	0.015625
1046.67	2.28125
1049.56	13.6572
1052.46	5.52588
1055.35	4.13769
1058.24	5.72168
1061.13	2.70264
1064.03	13.0981
1066.92	10.1406
1069.81	13.4429
1072.71	3.19092
1075.6	23.168
1078.49	27.9126
1081.38	19.3315
1084.28	26.6348
1087.17	3.46289
1090.06	31.2705
1092.95	21.6641
1095.85	2.35205
1098.74	30.2651
1101.63	45.2412
1104.53	24.0913
1107.42	21.3091
1110.31	35.7119
1113.2	50.0723
1116.1	40.1279
1118.99	37.9507
1121.88	36.7437
1124.78	29.6811
1127.67	21.8076
1130.56	14.7109
1133.45	9.35449
1136.35	19.3638
1139.24	24.6279
1142.13	20.0483
1145.02	5.00635
1147.92	17.5801
1150.81	9.36768
1153.7	4.18213
1156.59	2.12549
1159.49	0.783203
1162.38	1.55566
1165.27	3.13867
1168.16	5.56299
1171.06	12.1914
1173.95	8.19043
1176.84	15.9482
1179.74	28.0542
1182.63	17.6323
1185.52	16.8232
1188.41	16.9473
1191.31	26.4292
1194.2	17.4731
1197.09	5.57812
1199.98	5.13525
1202.88	4.38965
1205.77	7.26221
1208.66	8.19434
1211.56	1.61523
1214.45	18.5786
1217.34	23.1768
1220.23	22.209
1223.13	22.8735
1226.02	37.9326
1228.91	18.7871
1231.81	23.4849
1234.7	18.7222
1237.59	18.3686
1240.48	6.05566
1243.38	24.9912
1246.27	18.8511
1249.16	21.0356
1252.05	22.2329
1254.95	27.9536
1257.84	19.4956
1260.73	16.4497
1263.62	12.5239
1266.52	37.3926
1269.41	27.9624
1272.3	29.9922
1275.19	27.1484
1278.09	18.9067
1280.98	23.4258
1283.87	17.4878
1286.77	11.6514
1289.66	20.9932
1292.55	8.70459
1295.44	1.88525
1298.34	14.9663
1301.23	7.0166
