Measurement: Raman, 532 nm, unoriented, Raman Data Processed
Mineral: Bahianite
Rruff sample: R060433
Ideal chemistry: Al_5_Sb^5+^_3_O_14_(OH)_2_
Locality: Paramirim Region, Bahia, Brazil
Source: Michael Scott
Description: Tan colored water-worn polycrystalline pebble
Measured chemistry: lighter phase: (Al_4.89_Fe^3+^_0.10_[box]_0.01_)_Σ=5_(Sb^5+^_2.97_W_0.03_)_Σ=3_O_14_(OH)_2_ ; darker phase: (Al_4.91_Fe^3+^_0.09_)_Σ=5_Sb^5+^_3.00_O_14_(OH)_2_
Raman shift (cm-1)	intensity
140.211	0
143.586	0.025289
146.961	1.27773
150.336	3.95653
153.71	7.40511
157.085	19.7444
160.46	33.5417
163.835	54.6208
167.21	78.0614
170.584	38.6044
173.959	16.4007
177.334	8.48807
180.709	8.17585
184.084	11.3154
187.459	20.5189
190.833	28.1394
194.208	39.9976
197.583	68.8893
200.958	96.0521
204.333	66.6386
207.708	33.7907
211.082	41.7166
214.457	65.2055
217.832	104.598
221.207	128.71
224.582	98.4377
227.956	26.6303
231.331	7.94793
234.706	3.29826
238.081	5.17797
241.456	15.8818
244.831	37.4325
248.205	55.0463
251.58	81.5294
254.955	139.849
258.33	240.254
261.705	175.377
265.079	40.6738
268.454	11.4471
271.829	1.46984
275.204	2.12575
278.579	1.24051
281.954	8.60233
285.328	12.5773
288.703	21.9329
292.078	39.1813
295.453	49.6326
298.828	24.3615
302.202	3.76654
305.577	0.093071
308.952	3.44316
312.327	8.85635
315.702	17.0565
319.077	29.5151
322.451	37.2302
325.826	18.4187
329.201	2.28639
332.576	1.85597
335.951	1.46548
339.325	2.0643
342.7	6.62449
346.075	13.9047
349.45	24.7604
352.825	43.2712
356.2	41.471
359.574	13.9432
362.949	3.32521
366.324	5.07748
369.699	13.9026
373.074	26.2669
376.449	41.8854
379.823	45.2615
383.198	48.5687
386.573	60.0496
389.948	66.331
393.323	59.1622
396.697	73.8745
400.072	104.966
403.447	148.799
406.822	199.492
410.197	256.967
413.572	275.938
416.946	184.044
420.321	80.2366
423.696	33.3468
427.071	11.596
430.446	4.29251
433.82	0.927452
437.195	1.51751
440.57	4.41912
443.945	2.73958
447.32	0.760941
450.695	0.381844
454.069	2.32702
457.444	6.23688
460.819	13.0004
464.194	30.2195
467.569	54.0688
470.943	81.1491
474.318	132.532
477.693	199.967
481.068	182.183
484.443	57.9811
487.818	25.1769
491.192	28.3399
494.567	43.8316
497.942	58.8342
501.317	60.7948
504.692	44.2565
508.067	35.0511
511.441	32.1763
514.816	36.2998
518.191	46.4081
521.566	68.6466
524.941	99.2239
528.316	143.969
531.69	201.178
535.065	239.089
538.44	179.53
541.815	95.724
545.19	56.0568
548.564	36.5494
551.939	33.7084
555.314	39.0069
558.689	49.8712
562.064	69.7078
565.438	88.172
568.813	95.0114
572.188	72.4278
575.563	43.2903
578.938	26.1475
582.313	17.5324
585.687	14.7726
589.062	16.8796
592.437	12.8559
595.812	7.95345
599.187	1.30243
602.562	0.920837
605.936	3.31277
609.311	3.00668
612.686	1.6685
616.061	0.703247
619.436	1.65431
622.81	2.90275
626.185	2.29069
629.56	3.23223
632.935	4.32134
636.31	7.84213
639.684	9.93925
643.059	11.1771
646.434	15.8026
649.809	19.4493
653.184	23.6088
656.559	30.085
659.933	39.9488
663.308	48.8738
666.683	65.2034
670.058	81.3487
673.433	100.177
676.808	119.191
680.182	139.44
683.557	148.827
686.932	132.181
690.307	98.1982
693.682	69.5372
697.057	48.7192
700.431	35.1793
703.806	23.4047
707.181	16.7144
710.556	11.0269
713.931	7.39971
717.305	4.5721
720.68	2.01658
724.055	0.044899
727.43	1.13542
730.805	2.36449
734.179	3.47249
737.554	2.86095
740.929	1.49216
744.304	1.7149
747.679	2.11662
751.054	5.63426
754.428	12.2803
757.803	17.5499
761.178	28.1678
764.553	37.3749
767.928	52.4612
771.303	61.8497
774.677	61.1226
778.052	52.5327
781.427	45.7905
784.802	43.2188
788.177	50.7273
791.552	63.6708
794.926	84.9016
798.301	121.795
801.676	191.318
805.051	289.073
808.426	453.768
811.8	681.832
815.175	972.098
818.55	1200.3
821.925	1157.77
825.3	853.329
828.674	576.54
832.049	399.047
835.424	288.39
838.799	208.771
842.174	154.401
845.549	123.111
848.923	107.688
852.298	99.0306
855.673	90.4744
859.048	76.9794
862.423	57.2137
865.798	40.3469
869.172	26.8915
872.547	17.7925
875.922	13.2096
879.297	9.16322
882.672	6.49114
886.046	4.23531
889.421	3.16327
892.796	0.175362
896.171	1.15348
899.546	1.2281
902.92	2.43512
906.295	2.68011
909.67	1.5855
913.045	2.02632
916.42	0.858017
919.795	0.058617
923.169	1.14502
926.544	3.0021
929.919	6.40079
933.294	9.31358
936.669	11.823
940.044	15.792
943.418	21.1963
946.793	26.676
950.168	30.0039
953.543	35.6462
956.918	34.1478
960.293	34.5481
963.667	33.8637
967.042	32.9974
970.417	34.4412
973.792	33.9294
977.167	35.8761
980.541	36.5078
983.916	37.3566
987.291	40.222
990.666	46.5072
994.041	53.5213
997.415	61.4243
1000.79	60.2228
1004.16	48.8383
1007.54	34.9951
1010.91	25.1748
1014.29	17.6571
1017.66	12.5186
1021.04	8.87656
1024.41	7.55521
1027.79	3.76244
1031.16	2.49254
1034.54	1.95705
1037.91	0.797081
1041.29	0.930874
1044.66	0.519444
1048.04	0.113426
1051.41	0.781265
1054.79	0.605091
1058.16	0.730423
1061.54	0.419643
1064.91	0.084499
1068.29	0.586773
1071.66	0.045383
1075.04	1.36458
1078.41	0.948383
1081.79	1.396
1085.16	1.00364
1088.54	0.853439
1091.91	0.7733
1095.29	1.21742
1098.66	1.98365
1102.04	1.22289
1105.41	0.88385
1108.79	1.66749
1112.16	1.42787
1115.53	0.578999
1118.91	0.92569
1122.28	0.635735
1125.66	0.420921
1129.03	1.40978
1132.41	0.635937
1135.78	1.47399
1139.16	1.37482
1142.53	0.06427
1145.91	1.93266
1149.28	0.173885
1152.66	1.13783
1156.03	0.72617
1159.41	0.069801
1162.78	0.382893
1166.16	0.619858
1169.53	0.570324
1172.91	1.08946
1176.28	1.07137
1179.66	0.342884
1183.03	0.466312
1186.4	0.014233
1189.78	0.018127
1193.15	0.434326
1196.53	0.17223
1199.9	0.040707
1203.28	0.359173
1206.65	1.2691
1210.03	0.244675
1213.4	0.46801
1216.78	0.123447
1220.15	0.339176
1223.53	1.24769
1226.9	1.5024
1230.28	0.457039
1233.65	1.05127
1237.03	0.522018
1240.4	1.15868
1243.78	1.63491
1247.15	0.308182
1250.53	1.29214
1253.9	0.981655
1257.28	0.266476
1260.65	0.56546
1264.03	0.539368
1267.4	0.182529
1270.78	1.35108
1274.15	2.44727
1277.53	0.767498
1280.9	1.76555
1284.28	1.01843
1287.65	1.27311
1291.03	1.25667
1294.4	2.49016
1297.78	0.809338
1301.15	0.05003
