Measurement: Raman, 532 nm, unoriented, Raman Data Processed
Mineral: Bakerite
Rruff sample: R050423
Ideal chemistry: Ca_4_B_5_Si_3_O_15_(OH)_5_
Locality: Corkscrew Canyon, Death Valley, California, USA
Source: Marcus Origlieri
Description: White fine-grained aggregate
Measured chemistry: Ca_4.00_(B_4.99_S_0.01_)_Σ=5_(Si_2.97_Al_0.03_)_Σ=3_O_15_(OH)_5_
Raman shift (cm-1)	intensity
145.487	0
148.862	0.681671
152.237	7.3015
155.612	9.55669
158.986	10.0426
162.361	12.9956
165.736	16.1849
169.111	21.1652
172.486	19.8736
175.86	15.6576
179.235	13.2012
182.61	7.47218
185.985	8.28433
189.36	2.69041
192.734	3.78908
196.109	1.26361
199.484	3.16533
202.859	3.19824
206.234	4.07518
209.608	4.07506
212.983	6.31366
216.358	9.12314
219.733	11.3527
223.108	10.7224
226.483	5.89041
229.857	3.58476
233.232	0.446228
236.607	1.90071
239.982	1.14426
243.357	1.9481
246.732	0.595062
250.106	0.180176
253.481	1.4633
256.856	0.071793
260.231	1.00545
263.606	0.94313
266.98	2.52953
270.355	1.71219
273.73	3.03615
277.105	3.65843
280.48	3.54181
283.854	4.80797
287.229	6.34129
290.604	9.00172
293.979	10.1807
297.354	6.73526
300.729	3.67325
304.103	2.06876
307.478	0.698883
310.853	0.642853
314.228	1.28775
317.603	0.843849
320.978	1.31418
324.352	1.32097
327.727	2.77327
331.102	4.03517
334.477	3.25909
337.851	2.1768
341.226	1.30539
344.601	0.088333
347.976	1.45493
351.351	1.74571
354.726	3.85938
358.1	3.7065
361.475	6.60245
364.85	8.59804
368.225	10.3689
371.6	13.4623
374.974	16.5459
378.349	21.4492
381.724	21.8947
385.099	23.9281
388.474	23.5264
391.849	27.9748
395.223	29.3581
398.598	28.9832
401.973	23.4393
405.348	15.5243
408.723	10.7958
412.098	7.27057
415.472	4.26306
418.847	2.08023
422.222	1.48654
425.597	2.01683
428.972	1.06676
432.346	2.36017
435.721	3.46802
439.096	1.41034
442.471	1.62401
445.846	2.80454
449.221	1.76849
452.595	1.36337
455.97	1.43637
459.345	3.27416
462.72	3.489
466.095	3.45163
469.469	2.09047
472.844	2.03342
476.219	0.558105
479.594	0.16069
482.969	0.622849
486.344	1.41315
489.718	1.68576
493.093	1.80385
496.468	0.519272
499.843	1.75426
503.218	1.16362
506.592	1.314
509.967	0.503479
513.342	0.918961
516.717	0.549591
520.092	1.18768
523.466	0.226746
526.841	0.40332
530.216	0.073822
533.591	0.300766
536.966	1.96686
540.341	1.47221
543.715	3.86664
547.09	2.71579
550.465	5.91634
553.84	5.25797
557.215	4.36459
560.59	7.18494
563.964	5.90578
567.339	4.1207
570.714	5.94945
574.089	4.02612
577.464	5.16728
580.838	4.5112
584.213	4.96462
587.588	6.40991
590.963	8.0782
594.338	8.91527
597.712	10.9653
601.087	9.66277
604.462	6.9303
607.837	8.24252
611.212	4.68365
614.587	4.72867
617.961	1.74112
621.336	0.196564
624.711	1.74695
628.086	1.34027
631.461	0.248322
634.835	0.711487
638.21	0.340302
641.585	0.201172
644.96	1.1499
648.335	0.76416
651.71	4.27893
655.084	6.64871
658.459	9.4397
661.834	11.3239
665.209	13.062
668.584	16.8825
671.958	22.9658
675.333	29.1048
678.708	41.5408
682.083	54.7354
685.458	71.3861
688.832	94.6012
692.207	119.636
695.582	141.572
698.957	152.051
702.332	151.376
705.707	128.522
709.081	93.7512
712.456	63.5975
715.831	43.0727
719.206	27.6647
722.581	17.8618
725.955	12.7515
729.33	7.79648
732.705	6.59238
736.08	5.80603
739.455	5.05896
742.83	4.12561
746.204	3.18936
749.579	1.34317
752.954	2.02667
756.329	0.834869
759.704	1.78342
763.078	0.134369
766.453	0.261047
769.828	0.932037
773.203	1.4928
776.578	1.60312
779.952	1.14285
783.327	1.22287
786.702	0.132874
790.077	0.426178
793.452	0.41449
796.827	1.59427
800.201	0.343658
803.576	0.082397
806.951	1.36932
810.326	0.134827
813.701	1.97726
817.076	0.931915
820.45	0.361298
823.825	2.17407
827.2	2.95547
830.575	2.77414
833.95	5.80206
837.324	5.36456
840.699	5.7161
844.074	5.64575
847.449	4.35736
850.824	4.30527
854.198	4.58417
857.573	4.37326
860.948	4.70422
864.323	4.14618
867.698	3.40613
871.073	3.43991
874.447	2.54047
877.822	2.15268
881.197	4.1265
884.572	1.27054
887.947	2.43835
891.322	1.22034
894.696	0.495697
898.071	0.442444
901.446	0.835907
904.821	1.66031
908.196	2.87112
911.57	5.25732
914.945	9.19299
918.32	11.1913
921.695	15.8387
925.07	15.0428
928.444	15.5101
931.819	10.8126
935.194	7.69153
938.569	5.95474
941.944	3.4801
945.318	0.168152
948.693	0.738678
952.068	0.383728
955.443	1.16794
958.818	2.10672
962.193	1.12598
965.567	2.3111
968.942	2.96042
972.317	6.61887
975.692	10.0079
979.067	14.828
982.442	17.7323
985.816	16.5564
989.191	13.31
992.566	10.0605
995.941	7.97729
999.316	5.91318
1002.69	3.88281
1006.07	1.22507
1009.44	2.18948
1012.82	1.20377
1016.19	1.46225
1019.57	0.593933
1022.94	1.94739
1026.31	0.532715
1029.69	0.378174
1033.06	1.47897
1036.44	1.55228
1039.81	3.44299
1043.19	3.63773
1046.56	5.73209
1049.94	6.60419
1053.31	6.83676
1056.69	8.23495
1060.06	12.2465
1063.44	12.5117
1066.81	14.7919
1070.19	19.8467
1073.56	24.4059
1076.94	27.5528
1080.31	27.5757
1083.69	22.7221
1087.06	15.2508
1090.44	10.7929
1093.81	5.77374
1097.18	5.12198
1100.56	2.76404
1103.93	2.47559
1107.31	2.83231
1110.68	1.10617
1114.06	1.10727
1117.43	1.06485
1120.81	0.00061
1124.18	0.345215
1127.56	1.15424
1130.93	0.657104
1134.31	2.44888
1137.68	2.44607
1141.06	2.33078
1144.43	2.62115
1147.81	2.05753
1151.18	1.8436
1154.56	3.58722
1157.93	3.61029
1161.31	5.31287
1164.68	5.20596
1168.06	8.767
1171.43	10.9367
1174.81	12.1304
1178.18	14.4605
1181.56	15.0482
1184.93	12.9772
1188.31	14.0474
1191.68	14.82
1195.06	12.4817
1198.43	11.7727
1201.81	11.1766
1205.18	8.83145
1208.55	6.51355
1211.93	7.96317
1215.3	7.95648
1218.68	4.96161
1222.05	5.37744
1225.43	4.83212
1228.8	3.4997
1232.18	3.60544
1235.55	3.30514
1238.93	2.21225
1242.3	2.33841
1245.68	0.631805
1249.05	0.06308
1252.43	1.68771
1255.8	1.08331
1259.18	1.53876
1262.55	2.05966
1265.93	0.390717
1269.3	0.676331
1272.68	3.57028
1276.05	2.4631
1279.42	1.01553
1282.8	1.5947
1286.17	1.72372
1289.55	2.07114
1292.92	2.52921
1296.3	1.69916
1299.67	0.562805
1303.05	0.013855
