Measurement: Raman, 780 nm, unoriented, Raman Data Processed
Mineral: Bakhchisaraitsevite
Rruff sample: R060607
Ideal chemistry: Na_2_Mg_5_(PO_4_)_4_7H_2_O
Locality: Kovdor Massif,  Kola Peninsula,  Murmanskaja Oblast', Northern Region, Russia
Source: Michael Scott
Description: Colorless to brown radial aggregate of bladed crystals
Measured chemistry: (Na_1.94_Ca_0.03_[box]_0.03_)_Σ=2_(Mg_4.65_Fe_0.20_Mn_0.15_)_Σ=5_(P_1.00_O_4_)_4_·7H_2_O; H_2_O estimated by difference
Raman shift (cm-1)	intensity
93.9705	0
97.3453	11.7671
100.72	6.75836
104.095	9.09717
107.47	34.1791
110.845	24.5472
114.219	30.128
117.594	37.6404
120.969	16.7261
124.344	13.3898
127.719	3.8299
131.094	5.2312
134.468	2.2962
137.843	0.51178
141.218	9.57104
144.593	0.958618
147.968	4.85413
151.342	4.52625
154.717	11.5092
158.092	9.60193
161.467	8.86511
164.842	4.46512
168.216	6.62747
171.591	10.8484
174.966	9.9906
178.341	11.4239
181.716	18.0281
185.09	23.3785
188.465	29.9082
191.84	31.5945
195.215	27.3457
198.59	34.5969
201.965	39.9056
205.339	57.3433
208.714	74.4345
212.089	81.9856
215.464	91.529
218.839	97.7361
222.214	121.263
225.588	135.67
228.963	139.353
232.338	131.755
235.713	118.577
239.088	109.292
242.462	109.302
245.837	122.174
249.212	128.246
252.587	133.43
255.962	129.702
259.336	122.6
262.711	115.932
266.086	99.0073
269.461	79.066
272.836	57.6748
276.211	30.4339
279.585	8.71042
282.96	2.52393
286.335	4.52307
289.71	0.684998
293.085	7.54071
296.459	8.20975
299.834	13.1842
303.209	11.7113
306.584	15.4812
309.959	14.8576
313.334	21.333
316.708	29.0385
320.083	31.9106
323.458	30.8272
326.833	20.8286
330.207	13.9582
333.582	14.3863
336.957	13.0684
340.332	16.5461
343.707	11.6625
347.082	8.06003
350.456	4.13117
353.831	1.97311
357.206	2.25195
360.581	1.57361
363.956	2.33008
367.33	1.95738
370.705	3.13153
374.08	0.629669
377.455	8.14325
380.83	14.7914
384.205	25.1769
387.579	36.0474
390.954	46.9326
394.329	49.1798
397.704	43.7838
401.079	36.4731
404.453	28.539
407.828	21.0685
411.203	17.7106
414.578	21.4279
417.953	22.8341
421.327	29.9377
424.702	39.5642
428.077	49.3796
431.452	64.5965
434.827	77.0521
438.202	75.9871
441.576	66.4458
444.951	52.1534
448.326	36.2826
451.701	30.2696
455.076	29.409
458.45	33.6933
461.825	43.1874
465.2	51.5619
468.575	52.1988
471.95	45.2548
475.325	34.9983
478.699	26.5511
482.074	24.6149
485.449	21.205
488.824	21.6902
492.199	20.6469
495.573	19.349
498.948	16.6454
502.323	11.6806
505.698	3.67778
509.073	4.41635
512.447	2.07213
515.822	0.462906
519.197	0.017868
522.572	2.52246
525.947	3.78597
529.322	3.37816
532.696	2.52158
536.071	2.24463
539.446	6.78015
542.821	13.7042
546.196	21.8424
549.57	35.4558
552.945	52.6688
556.32	68.5669
559.695	85.4891
563.07	102.535
566.444	106.37
569.819	92.8824
573.194	77.8934
576.569	71.7033
579.944	69.486
583.319	67.237
586.693	62.287
590.068	53.4355
593.443	48.6572
596.818	42.6726
600.193	40.4899
603.567	36.5412
606.942	38.6714
610.317	38.62
613.692	37.1536
617.067	32.34
620.442	26.9046
623.816	22.1195
627.191	17.0802
630.566	15.1471
633.941	13.606
637.316	13.2751
640.69	11.6649
644.065	8.45924
647.44	7.10883
650.815	3.31268
654.19	6.12947
657.564	5.20748
660.939	2.18939
664.314	1.90727
667.689	0.539749
671.064	0.203896
674.439	1.92666
677.813	0.693298
681.188	0.307518
684.563	0.07608
687.938	1.44161
691.313	0.619919
694.688	1.19682
698.062	0.632843
701.437	0.245018
704.812	0.14492
708.187	0.488625
711.562	0.925011
714.936	1.44
718.311	0.602791
721.686	0.23159
725.061	2.0025
728.436	1.52844
731.81	1.51854
735.185	1.15764
738.56	0.608078
741.935	1.21494
745.31	1.19514
748.684	1.339
752.059	2.42572
755.434	2.80396
758.809	2.22168
762.184	2.60241
765.559	4.0005
768.933	3.62723
772.308	4.76416
775.683	5.03887
779.058	5.35126
782.433	5.12538
785.808	7.61711
789.182	7.21713
792.557	6.41817
795.932	8.42443
799.307	5.52911
802.682	5.69123
806.056	7.61072
809.431	6.12118
812.806	5.15057
816.181	5.30874
819.556	4.84328
822.93	5.52206
826.305	5.54219
829.68	7.48148
833.055	7.73344
836.43	7.53017
839.804	8.76799
843.179	11.3588
846.554	12.8017
849.929	13.5166
853.304	13.166
856.679	12.5225
860.053	11.9718
863.428	11.0153
866.803	9.04003
870.178	8.92377
873.553	8.95405
876.927	6.2668
880.302	3.51082
883.677	2.9056
887.052	1.70049
890.427	0.636421
893.802	0.246033
897.176	1.15125
900.551	0.906059
903.926	3.48969
907.301	1.29822
910.676	2.0366
914.05	0.519028
917.425	3.7891
920.8	11.6025
924.175	19.3887
927.55	34.1025
930.924	55.5566
934.299	90.0752
937.674	147.87
941.049	236.006
944.424	357.555
947.799	495.137
951.173	652.173
954.548	750.931
957.923	639.276
961.298	443.096
964.673	315.942
968.047	271.053
971.422	285.3
974.797	342.145
978.172	432.917
981.547	478.993
984.922	386.224
988.296	274.875
991.671	212.544
995.046	200.014
998.421	198.851
1001.8	184.443
1005.17	153.631
1008.54	105.943
1011.92	67.573
1015.29	39.2656
1018.67	23.411
1022.04	12.2975
1025.42	7.16428
1028.79	3.69919
1032.17	0.696472
1035.54	0.329987
1038.92	5.34241
1042.29	13.8334
1045.67	24.6282
1049.04	32.8951
1052.42	34.7336
1055.79	30.0776
1059.17	26.569
1062.54	18.6443
1065.92	9.98259
1069.29	0.503891
1072.67	4.22949
1076.04	5.48602
1079.42	0.478348
1082.79	7.86729
1086.17	16.2497
1089.54	25.6629
1092.92	29.4825
1096.29	35.5925
1099.66	33.6686
1103.04	28.1534
1106.41	22.7676
1109.79	13.6717
1113.16	13.1855
1116.54	14.1046
1119.91	19.0758
1123.29	23.7769
1126.66	26.6206
1130.04	29.2951
1133.41	33.3685
1136.79	42.8169
1140.16	56.8216
1143.54	61.1012
1146.91	47.5463
1150.29	30.2852
1153.66	15.2678
1157.04	8.45062
1160.41	4.75831
1163.79	3.70235
1167.16	1.02879
1170.54	0.13343
1173.91	0.692024
1177.29	0.5214
1180.66	0.708363
1184.04	1.33525
1187.41	1.22733
1190.79	3.17781
1194.16	3.17331
1197.54	2.79763
1200.91	4.28993
1204.28	3.27354
1207.66	6.52094
1211.03	5.36199
1214.41	5.34571
1217.78	5.44183
1221.16	4.95525
1224.53	5.88266
1227.91	6.62168
1231.28	3.2713
1234.66	4.2944
1238.03	5.00705
1241.41	4.28292
1244.78	2.62157
1248.16	3.41581
1251.53	2.46146
1254.91	3.12955
1258.28	1.04273
1261.66	1.83588
1265.03	2.44394
1268.41	2.10261
1271.78	1.60901
1275.16	1.00885
1278.53	0.426689
1281.9	2.70296
