Measurement: Raman, 532 nm, unoriented, Raman Data Processed
Mineral: Bakhchisaraitsevite
Rruff sample: R060607
Ideal chemistry: Na_2_Mg_5_(PO_4_)_4_7H_2_O
Locality: Kovdor Massif,  Kola Peninsula,  Murmanskaja Oblast', Northern Region, Russia
Source: Michael Scott
Description: Colorless to brown radial aggregate of bladed crystals
Measured chemistry: (Na_1.94_Ca_0.03_[box]_0.03_)_Σ=2_(Mg_4.65_Fe_0.20_Mn_0.15_)_Σ=5_(P_1.00_O_4_)_4_·7H_2_O; H_2_O estimated by difference
Raman shift (cm-1)	intensity
133.575	0
136.467	29.466
139.36	285.334
142.253	251.122
145.145	363.173
148.038	432.784
150.931	427.536
153.824	386.998
156.716	279.687
159.609	159.849
162.502	83.685
165.394	14.949
168.287	8.685
171.18	13.681
174.072	4.777
176.965	23.46
179.858	7.386
182.751	40.082
185.643	221.325
188.536	210.526
191.429	161.708
194.321	80.272
197.214	62.661
200.107	123.714
202.999	210.884
205.892	315.967
208.785	452.382
211.678	414.966
214.57	510.041
217.463	585.779
220.356	730.713
223.248	976.367
226.141	1106.36
229.034	1129.99
231.926	1106.76
234.819	987.164
237.712	995.061
240.605	1144.39
243.497	1442.58
246.39	1636.58
249.283	1796.86
252.176	1771.78
255.068	1688.53
257.961	1540.64
260.854	1470.37
263.746	1238.82
266.639	954.688
269.532	728.563
272.424	493.298
275.317	258.026
278.21	38.165
281.103	15.647
283.995	31.281
286.888	11.479
289.781	55.148
292.673	84.312
295.566	110.667
298.459	58.419
301.351	23.041
304.244	18.581
307.137	91.083
310.03	148.352
312.922	236.15
315.815	272.122
318.708	314.796
321.6	219.305
324.493	230.517
327.386	178.918
330.278	254.644
333.171	167.866
336.064	200.946
338.957	196.475
341.849	137.67
344.742	166.826
347.635	112.754
350.527	63.47
353.42	100.03
356.313	10.075
359.205	20.783
362.098	10.27
364.991	45.901
367.884	22.259
370.776	19.763
373.669	25.463
376.562	64.695
379.454	118.45
382.347	256.457
385.24	400.363
388.132	461.968
391.025	587.591
393.918	535.643
396.81	520.281
399.703	478.479
402.596	381.453
405.489	367.559
408.381	246.39
411.274	187.469
414.167	288.861
417.06	298.465
419.952	419.487
422.845	539.834
425.738	756.001
428.63	1035.97
431.523	1323.07
434.416	1527.61
437.308	1550.49
440.201	1395.27
443.094	1223.16
445.987	838.068
448.879	585.083
451.772	502.873
454.665	488.5
457.557	595.418
460.45	717.008
463.343	819.467
466.235	762.83
469.128	766.461
472.021	688.167
474.914	532.886
477.806	409.944
480.699	361.326
483.592	310.762
486.484	286.247
489.377	306.095
492.27	272.767
495.162	221.633
498.055	189.81
500.948	109.49
503.841	45.59
506.733	13.797
509.626	12.075
512.519	20.267
515.411	34.108
518.304	5.617
521.197	23.763
524.089	3.941
526.982	8.396
529.875	8.153
532.768	2.169
535.66	39.68
538.553	33.195
541.446	151.371
544.338	244.174
547.231	449.542
550.124	617.78
553.016	995.796
555.909	1095.47
558.802	1306.29
561.695	1557.27
564.587	1625.58
567.48	1487.92
570.373	1454.18
573.265	1465.96
576.158	1555.06
579.051	1556.44
581.943	1503.78
584.836	1395.73
587.729	1202.06
590.622	1082.64
593.514	938.532
596.407	911.587
599.3	861.92
602.192	904.016
605.085	962.178
607.978	990.065
610.87	1017.22
613.763	1002.74
616.656	851.121
619.549	627.391
622.441	484.015
625.334	404.464
628.227	379.509
631.119	357.679
634.012	366.161
636.905	389.239
639.797	333.054
642.69	308.648
645.583	301.332
648.476	282.315
651.368	304.936
654.261	291.481
657.154	199.424
660.046	164.393
662.939	89.116
665.832	78.29
668.724	48.681
671.617	6.975
674.51	17.99
677.403	22.662
680.295	16.445
683.188	16.129
686.081	13.66
688.973	35.8
691.866	6.182
694.759	9.132
697.652	20.47
700.544	34.39
703.437	23.753
706.33	13.713
709.222	30.09
712.115	24.262
715.008	22.923
717.901	13.864
720.793	63.48
723.686	50.079
726.579	4.85
729.471	61.909
732.364	28.798
735.257	54.418
738.149	44.474
741.042	16.194
743.935	16.209
746.828	30.158
749.72	10.165
752.613	22.428
755.506	33.939
758.398	83.751
761.291	45.072
764.184	40.055
767.076	76.743
769.969	51.127
772.862	57.082
775.755	80.093
778.647	54.945
781.54	104.23
784.433	123.969
787.325	112.982
790.218	119.685
793.111	69.304
796.003	127.188
798.896	133.474
801.789	85.098
804.682	100.793
807.574	58.246
810.467	43.193
813.36	74.022
816.252	67.415
819.145	19.546
822.038	17.321
824.93	71.03
827.823	124.676
830.716	95.329
833.609	91.322
836.501	181.055
839.394	204.65
842.287	170.914
845.179	213.233
848.072	223.124
850.965	229.667
853.857	201.472
856.75	200.245
859.643	186.083
862.536	195.71
865.428	154.796
868.321	166.253
871.214	95.546
874.106	64.203
876.999	64.705
879.892	50.819
882.784	42.631
885.677	4.375
888.57	8.423
891.463	0.59
894.355	13.981
897.248	26.193
900.141	1.782
903.033	20.477
905.926	5.592
908.819	23.579
911.711	56.834
914.604	25.578
917.497	18.977
920.39	113.179
923.282	303.499
926.175	455.393
929.068	773.547
931.96	1275.38
934.853	1998.62
937.746	3119.49
940.638	4893.78
943.531	6948.72
946.424	9552.64
949.317	12422.9
952.209	14271.3
955.102	12969.1
957.995	10090.2
960.888	7234.58
963.78	5449.12
966.673	5090.32
969.566	5763.85
972.458	7071.41
975.351	8968.53
978.244	10827
981.136	10167
984.029	7440.09
986.922	5352.16
989.815	4475
992.707	4038.76
995.6	3934.66
998.493	3715.66
1001.38	3255.15
1004.28	2435.22
1007.17	1691.07
1010.06	1035.91
1012.96	610.472
1015.85	497.963
1018.74	375.299
1021.63	243.18
1024.53	105.02
1027.42	46.017
1030.31	74.298
1033.2	60.706
1036.1	25.296
1038.99	202.815
1041.88	388.801
1044.78	698.693
1047.67	799.668
1050.56	835.069
1053.45	816.557
1056.35	720.222
1059.24	635.391
1062.13	419.017
1065.03	173.561
1067.92	4.702
1070.81	91.56
1073.7	54.542
1076.6	45.44
1079.49	132.844
1082.38	288.694
1085.27	548.886
1088.17	753.444
1091.06	835.221
1093.95	802.266
1096.84	671.329
1099.74	571.139
1102.63	388.434
1105.52	227.93
1108.41	223.381
1111.31	202.689
1114.2	260.418
1117.09	413.889
1119.99	534.838
1122.88	692.316
1125.77	844.85
1128.66	938.833
1131.56	1110.96
1134.45	1478.84
1137.34	1942.65
1140.23	2211.62
1143.13	1998.08
1146.02	1428.65
1148.91	832.268
1151.81	548.565
1154.7	343.335
1157.59	226.063
1160.48	106.242
1163.38	2.508
1166.27	16.682
1169.16	5.676
1172.06	12.778
1174.95	0.09
1177.84	16.843
1180.73	28.733
1183.62	56.384
1186.52	81.616
1189.41	105.872
1192.3	89.848
1195.2	129.419
1198.09	140.424
1200.98	148.87
1203.87	121.879
1206.77	135.92
1209.66	152.12
1212.55	145.987
1215.44	185.255
1218.34	230.88
1221.23	237.858
1224.12	180.34
1227.02	176.238
1229.91	227.595
1232.8	107.165
1235.69	110.86
1238.59	120.807
1241.48	67.303
1244.37	69.073
1247.27	70.246
1250.16	70.999
1253.05	89.195
1255.94	53.756
1258.84	75.559
1261.73	63.875
1264.62	22.022
1267.51	21.476
1270.41	59.154
1273.3	25.403
1276.19	31.5
1279.09	43.957
1281.98	49.125
1284.87	5.023
1287.76	57.443
