Measurement: Raman, 780 nm, unoriented, Raman Data Processed
Mineral: Balangeroite
Rruff sample: R060244
Ideal chemistry: Mg_21_Si_8_O_27_(OH)_20_
Locality: San Vittore mine, Balangero Serpentinite, Lanzo Valley, Piedmont, Italy
Source: Michael Scott
Description: Brown fibers, asbestiform
Raman shift (cm-1)	intensity
144.566	0
147.459	7.63562
150.351	5.57471
153.244	5.1825
156.137	0.240356
159.03	10.7267
161.922	2.86316
164.815	5.21448
167.708	3.55408
170.6	16.0696
173.493	4.06494
176.386	14.574
179.278	4.40259
182.171	13.5615
185.064	10.7483
187.957	10.4259
190.849	18.8506
193.742	22.8274
196.635	19.7795
199.527	15.6868
202.42	25.6836
205.313	33.3182
208.205	45.3865
211.098	70.3495
213.991	100.269
216.884	133.378
219.776	159.648
222.669	190.381
225.562	243.424
228.454	283.03
231.347	282.483
234.24	228.116
237.132	152.07
240.025	98.7772
242.918	62.9391
245.811	41.0343
248.703	26.4224
251.596	16.1189
254.489	15.8865
257.381	18.6204
260.274	9.17993
263.167	4.01562
266.059	8.24377
268.952	5.51587
271.845	15.8882
274.738	0.596802
277.63	2.70801
280.523	8.57703
283.416	0.025024
286.308	1.33618
289.201	3.80347
292.094	2.70019
294.986	4.24402
297.879	0.289795
300.772	2.4707
303.665	0.271484
306.557	8.64123
309.45	1.38477
312.343	8.74365
315.235	9.67566
318.128	7.53455
321.021	5.25012
323.913	7.67212
326.806	5.04724
329.699	2.76514
332.592	9.90808
335.484	9.04419
338.377	6.28174
341.27	18.245
344.162	15.7637
347.055	25.8396
349.948	17.8367
352.841	26.9852
355.733	30.1299
358.626	44.6515
361.519	56.4552
364.411	70.1057
367.304	88.4757
370.197	99.7589
373.089	122.222
375.982	143.242
378.875	160.336
381.767	163.392
384.66	141.633
387.553	112.667
390.446	73.1483
393.338	56.8738
396.231	33.8389
399.124	25.1721
402.016	18.3539
404.909	11.6361
407.802	4.23377
410.695	5.64319
413.587	3.40637
416.48	1.33569
419.373	0.931152
422.265	1.68445
425.158	2.86023
428.051	11.0149
430.943	6.71924
433.836	0.591431
436.729	5.53784
439.622	3.61768
442.514	7.65869
445.407	8.85754
448.3	11.772
451.192	9.27148
454.085	9.49585
456.978	13.9998
459.87	13.8805
462.763	21.156
465.656	23.7217
468.548	21.2997
471.441	19.3944
474.334	13.5446
477.227	2.96753
480.119	17.1276
483.012	16.0519
485.905	12.0666
488.797	16.7815
491.69	8.0166
494.583	20.1549
497.476	14.2959
500.368	11.0448
503.261	11.9552
506.154	11.7948
509.046	6.03162
511.939	1.56177
514.832	3.35254
517.724	16.6483
520.617	1.03455
523.51	0.140381
526.403	11.6899
529.295	8.82007
532.188	7.52918
535.081	12.3002
537.973	5.77722
540.866	3.18066
543.759	0.380371
546.651	3.08398
549.544	4.30493
552.437	4.7478
555.33	11.6007
558.222	6.86243
561.115	1.23364
564.008	4.75696
566.9	3.52026
569.793	3.45789
572.686	6.13794
575.578	5.16089
578.471	3.68994
581.364	3.67261
584.256	3.69043
587.149	15.8591
590.042	11.6104
592.935	15.9225
595.827	12.6834
598.72	10.0966
601.613	5.06299
604.505	8.33569
607.398	10.959
610.291	7.8999
613.183	19.7263
616.076	11.9802
618.969	19.2084
621.862	23.7826
624.754	23.1803
627.647	12.9161
630.54	10.6738
633.432	21.1637
636.325	8.91834
639.218	11.4901
642.111	9.48377
645.003	10.708
647.896	13.3409
650.789	5.22754
653.681	1.32385
656.574	13.328
659.467	22.6041
662.359	18.876
665.252	33.1575
668.145	45.8658
671.038	55.964
673.93	69.3535
676.823	90.4212
679.716	107.905
682.608	120.053
685.501	119.448
688.394	114.246
691.286	96.0579
694.179	80.4951
697.072	55.6672
699.965	40.4544
702.857	26.3447
705.75	21.1049
708.643	12.2695
711.535	12.4898
714.428	3.21472
717.321	3.34821
720.213	5.9483
723.106	6.87866
725.999	7.1283
728.891	3.91443
731.784	3.99921
734.677	8.51288
737.57	0.888916
740.462	7.77399
743.355	1.31189
746.248	4.24316
749.14	2.96149
752.033	9.5448
754.926	0.751465
757.818	6.52576
760.711	4.83594
763.604	5.12396
766.497	4.21252
769.389	4.16675
772.282	9.95825
775.175	3.37195
778.067	1.87573
780.96	12.6835
783.853	7.68848
786.745	1.85828
789.638	5.93152
792.531	7.14441
795.424	12.1442
798.316	9.16681
801.209	11.5525
804.102	5.45789
806.994	12.4061
809.887	7.10083
812.78	13.7025
815.673	8.8244
818.565	4.07965
821.458	17.4399
824.351	8.33813
827.243	9.64453
830.136	11.7141
833.029	14.5822
835.921	10.8336
838.814	10.9468
841.707	15.9189
844.6	16.0862
847.492	13.2762
850.385	6.55725
853.278	12.9552
856.17	14.5044
859.063	14.682
861.956	7.83228
864.848	0.147766
867.741	8.52856
870.634	7.98572
873.527	8.07867
876.419	11.6352
879.312	8.70917
882.205	4.83423
885.097	3.49615
887.99	0.309204
890.883	4.73322
893.775	0.783386
896.668	1.57983
899.561	6.56744
902.454	3.52191
905.346	0.412781
908.239	10.9826
911.132	1.30481
914.024	4.31116
916.917	3.85938
919.81	8.46509
922.702	6.27508
925.595	7.91833
928.488	1.05817
931.381	9.74902
934.273	5.72729
937.166	6.20856
940.059	3.61078
942.951	4.48529
945.844	7.01587
948.737	7.38794
951.63	10.5142
954.522	9.10431
957.415	6.89899
960.308	9.11298
963.2	3.85315
966.093	5.6394
968.986	0.322449
971.878	10.5689
974.771	10.3221
977.664	5.78253
980.557	9.42706
983.449	4.57257
986.342	5.00897
989.235	0.988953
992.127	9.95331
995.02	11.8931
997.913	7.0979
1000.8	1.43469
1003.7	6.83319
1006.59	0.840027
1009.48	1.5506
1012.38	3.2522
1015.27	2.27789
1018.16	5.18414
1021.05	8.78906
1023.95	4.34851
1026.84	11.5252
1029.73	4.70404
1032.62	16.6155
1035.52	15.3859
1038.41	13.9435
1041.3	12.4567
1044.2	21.2795
1047.09	17.4199
1049.98	22.5308
1052.87	5.47473
1055.77	12.17
1058.66	9.48907
1061.55	2.26703
1064.44	6.76532
1067.34	7.97138
1070.23	13.1954
1073.12	13.0066
1076.02	11.578
1078.91	9.00854
1081.8	15.111
1084.69	20.7438
1087.59	21.247
1090.48	6.63348
1093.37	3.72784
1096.27	6.55353
1099.16	0.637573
1102.05	5.19055
1104.94	5.2301
1107.84	1.06055
1110.73	1.15515
1113.62	1.21069
1116.51	7.8598
1119.41	7.75134
1122.3	3.82147
1125.19	2.47705
1128.08	0.398804
1130.98	5.34436
1133.87	4.13178
1136.76	6.03455
1139.65	2.737
1142.55	4.93085
1145.44	14.0666
1148.33	3.35583
1151.23	2.95349
1154.12	4.51678
1157.01	5.77472
1159.9	2.02978
1162.8	2.47778
1165.69	7.19208
1168.58	5.93133
1171.47	12.8469
1174.37	6.40027
1177.26	6.79627
1180.15	7.87354
1183.05	4.87274
1185.94	7.25592
1188.83	18.2777
1191.72	8.00177
1194.62	10.8186
1197.51	5.39697
1200.4	5.19525
1203.29	5.09283
1206.19	13.3527
1209.08	9.0069
1211.97	12.0376
1214.87	9.74115
1217.76	2.82867
1220.65	0.914001
1223.54	3.80713
1226.44	3.23651
1229.33	10.1401
1232.22	8.80286
1235.11	7.89117
1238.01	8.91455
1240.9	9.34003
1243.79	7.37219
1246.68	6.99976
1249.58	4.47522
1252.47	1.50305
1255.36	6.47772
1258.26	7.64697
1261.15	5.27429
1264.04	4.771
1266.93	5.08404
1269.83	5.02576
1272.72	5.19763
1275.61	1.93695
1278.51	8.9375
1281.4	1.14459
1284.29	1.59522
