Measurement: Raman, 785 nm, unoriented, Raman Data Processed
Mineral: Bannisterite
Rruff sample: R060817
Ideal chemistry: (Ca,K,Na)(Mn^2+^,Fe^2+^)_10_(Si,Al)_16_O_38_(OH)_8_nH_2_O
Locality: Broken Hill, New South Wales, Australia
Source: Bob Jenkins
Description: Dark brown fragment with prominent cleavage
Measured chemistry: (K_0.65_Ca_0.32_Na_0.03_)_Σ=1_(Mn^2+^_5.37_Fe^2+^_4.48_Mg_0.15_)_Σ=10_(Si_14.68_Al_1.32_)_Σ=16_O_38_(OH)_8_·8.77H_2_O
Raman shift (cm-1)	intensity
169.739	0
172.632	35.4281
175.525	50.6457
178.417	9.44299
181.31	22.6888
184.203	63.1246
187.096	52.3232
189.988	67.2827
192.881	15.0433
195.774	22.738
198.666	111.399
201.559	43.8851
204.452	84.7216
207.345	61.519
210.237	49.7025
213.13	29.5729
216.023	7.78967
218.915	11.7965
221.808	31.1077
224.701	38.0981
227.593	20.9951
230.486	21.8074
233.379	67.381
236.272	51.3379
239.164	20.1233
242.057	74.299
244.95	42.6711
247.842	66.7523
250.735	18.8308
253.628	53.0346
256.52	31.7554
259.413	29.2561
262.306	33.9204
265.199	61.2423
268.091	16.2892
270.984	51.2779
273.877	40.6013
276.769	23.1492
279.662	37.4115
282.555	42.8485
285.447	43.0845
288.34	11.7473
291.233	16.4638
294.125	66.2596
297.018	77.5874
299.911	47.6759
302.804	64.5429
305.696	42.8373
308.589	86.1792
311.482	5.39319
314.374	1.74829
317.267	32.8828
320.16	7.03564
323.053	10.6291
325.945	5.29333
328.838	22.9386
331.731	48.979
334.623	53.5636
337.516	58.1963
340.409	80.6603
343.301	128.401
346.194	116.521
349.087	138.309
351.979	174.737
354.872	209.887
357.765	296.81
360.658	278.757
363.55	281.78
366.443	316.583
369.336	296.983
372.228	297.895
375.121	333.615
378.014	303.502
380.906	302.438
383.799	242.317
386.692	274.136
389.585	263.502
392.477	240.447
395.37	267.538
398.263	263.132
401.155	261.526
404.048	245.083
406.941	264.671
409.834	248.894
412.726	279.662
415.619	238.05
418.512	240.43
421.404	168.815
424.297	166.574
427.19	125.934
430.082	81.1027
432.975	68.2532
435.868	66.093
438.76	40.4547
441.653	2.26794
444.546	48.9617
447.439	17.4668
450.331	31.3744
453.224	34.0063
456.117	5.49719
459.01	25.6864
461.902	19.0912
464.795	14.1101
467.688	14.4779
470.58	20.1652
473.473	54.062
476.366	30.0768
479.258	32.9619
482.151	64.9149
485.044	62.0132
487.937	76.2454
490.829	118.975
493.722	155.571
496.615	154.976
499.507	194.04
502.4	148.219
505.293	211.233
508.185	224.192
511.078	261.895
513.971	262.469
516.864	297.598
519.756	339.471
522.649	333.95
525.542	354.592
528.434	361.977
531.327	380.991
534.22	279.043
537.112	264.616
540.005	233.889
542.898	243.206
545.79	170.093
548.683	120.936
551.576	69.8309
554.469	1.92834
557.361	22.0171
560.254	4.18884
563.147	31.0959
566.039	0.411377
568.932	41.0762
571.825	30.7134
574.717	64.2279
577.61	113.527
580.503	124.829
583.396	165.487
586.288	198.439
589.181	264.211
592.074	314.802
594.966	384.824
597.859	425.736
600.752	500.452
603.644	565.604
606.537	724.266
609.43	810.601
612.323	931.961
615.215	1160.43
618.108	1300.88
621.001	1523.32
623.893	1764.07
626.786	1989.75
629.679	2281.21
632.572	2558.49
635.464	2806.23
638.357	3016.68
641.25	3174.84
644.142	3220.02
647.035	3136.68
649.928	2938.36
652.82	2641.42
655.713	2229.77
658.606	1855.18
661.499	1411.09
664.391	1029.29
667.284	789.635
670.177	587.537
673.069	391.074
675.962	330.031
678.855	263.762
681.747	180.416
684.64	92.4425
687.533	62.6194
690.426	22.54
693.318	8.17664
696.211	19.4938
699.104	17.3165
701.996	11.6636
704.889	12.4039
707.782	30.1177
710.674	13.7463
713.567	3.48975
716.46	10.9924
719.352	29.5173
722.245	15.753
725.138	13.3555
728.031	11.7421
730.923	24.9348
733.816	5.63593
736.709	15.1028
739.601	60.986
742.494	44.3834
745.387	5.85712
748.279	71.0794
751.172	80.2417
754.065	69.5077
756.958	48.4341
759.85	58.1612
762.743	67.4346
765.636	57.1513
768.528	6.71661
771.421	70.2662
774.314	64.0911
777.207	39.4998
780.099	68.0433
782.992	48.0262
785.885	46.2035
788.777	67.4247
791.67	97.1906
794.563	80.8997
797.455	61.5544
800.348	1.05151
803.241	26.9016
806.134	59.4532
809.026	38.5707
811.919	42.8013
814.812	49.6075
817.704	38.4673
820.597	58.3596
823.49	39.311
826.382	53.0967
829.275	46.707
832.168	62.7274
835.061	50.6187
837.953	8.70496
840.846	3.59595
843.739	33.035
846.631	3.28174
849.524	1.72986
852.417	39.2083
855.309	45.401
858.202	39.783
861.095	30.9235
863.987	24.4533
866.88	22.9255
869.773	28.8839
872.666	24.2169
875.558	22.5951
878.451	26.6421
881.344	44.0541
884.236	31.778
887.129	45.5778
890.022	79.6552
892.915	85.1096
895.807	79.8511
898.7	101.567
901.593	92.2128
904.485	106.685
907.378	106.604
910.271	107.439
913.163	96.0828
916.056	47.7833
918.949	87.7326
921.842	111.175
924.734	123.88
927.627	177.349
930.52	156.613
933.412	116.858
936.305	147.983
939.198	191.615
942.091	191.546
944.983	165.783
947.876	179.127
950.769	212.749
953.661	194.296
956.554	176.941
959.447	177.408
962.339	184.069
965.232	182.761
968.125	120.38
971.018	192.116
973.91	172.089
976.803	153.227
979.696	118.64
982.588	101.362
985.481	96.9258
988.374	95.4901
991.266	10.2878
994.159	22.8441
997.052	44.7405
999.944	29.8809
1002.84	33.2446
1005.73	36.2974
1008.62	55.7459
1011.51	78.1318
1014.41	82.6123
1017.3	88.707
1020.19	49.4838
1023.09	24.0309
1025.98	19.3729
1028.87	47.3235
1031.76	68.8125
1034.66	67.5821
1037.55	40.5659
1040.44	33.0826
1043.34	22.2949
1046.23	50.4055
1049.12	45.1057
1052.01	16.844
1054.91	47.4935
1057.8	27.358
1060.69	28.371
1063.58	13.6779
1066.48	9.06647
1069.37	33.0842
1072.26	5.47473
1075.15	17.9256
1078.05	19.1488
1080.94	17.047
1083.83	13.4953
1086.72	26.578
1089.62	27.891
1092.51	11.5931
1095.4	22.5463
1098.3	46.9896
1101.19	44.4044
1104.08	60.9582
1106.97	21.984
1109.87	45.6481
1112.76	45.283
1115.65	19.6635
1118.55	50.1758
1121.44	61.6883
1124.33	74.5826
1127.22	81.4603
1130.12	118.074
1133.01	102.287
1135.9	107.574
1138.79	53.8591
1141.69	71.5989
1144.58	41.285
1147.47	39.3429
1150.37	56.3072
1153.26	41.7101
1156.15	38.8511
1159.04	45.056
1161.94	19.2822
1164.83	78.8085
1167.72	51.2234
1170.61	74.1263
1173.51	43.8952
1176.4	11.8923
1179.29	48.4442
1182.18	49.2657
1185.08	15.5621
1187.97	1.96698
1190.86	42.2137
1193.76	44.1001
1196.65	42.0261
1199.54	62.8504
1202.43	49.7938
1205.33	3.7608
1208.22	41.887
1211.11	24.9828
1214	16.6317
1216.9	26.8546
1219.79	36.5732
1222.68	40.7809
1225.58	24.2554
1228.47	46.9512
1231.36	52.2576
1234.25	29.9995
1237.15	23.6143
1240.04	61.8665
1242.93	51.1761
1245.82	27.8857
1248.72	45.5569
1251.61	54.7668
1254.5	26.7197
1257.39	27.8986
1260.29	33.2362
1263.18	51.9592
1266.07	50.3901
1268.97	66.8864
1271.86	7.86877
