Measurement: Raman, 532 nm, unoriented, Raman Data Processed
Mineral: Bannisterite
Rruff sample: R060817
Ideal chemistry: (Ca,K,Na)(Mn^2+^,Fe^2+^)_10_(Si,Al)_16_O_38_(OH)_8_nH_2_O
Locality: Broken Hill, New South Wales, Australia
Source: Bob Jenkins
Description: Dark brown fragment with prominent cleavage
Measured chemistry: (K_0.65_Ca_0.32_Na_0.03_)_Σ=1_(Mn^2+^_5.37_Fe^2+^_4.48_Mg_0.15_)_Σ=10_(Si_14.68_Al_1.32_)_Σ=16_O_38_(OH)_8_·8.77H_2_O
Raman shift (cm-1)	intensity
162.02	0
164.913	41.2735
167.806	59.3637
170.699	41.3081
173.591	58.4103
176.484	118.941
179.377	122.248
182.269	90.9905
185.162	113.331
188.055	3.10869
190.947	66.3706
193.84	38.9874
196.733	14.9421
199.626	5.5089
202.518	13.3995
205.411	45.9909
208.304	3.96652
211.196	10.5834
214.089	4.29922
216.982	16.9525
219.875	15.0589
222.767	8.59024
225.66	12.8552
228.553	50.1391
231.445	50.9411
234.338	41.1589
237.231	76.0977
240.123	74.6283
243.016	124.028
245.909	135.904
248.802	132.696
251.694	121.687
254.587	100.455
257.48	130.969
260.372	194.029
263.265	106.833
266.158	143.882
269.05	74.141
271.943	101.077
274.836	108.437
277.728	136.921
280.621	113.6
283.514	163.499
286.406	130.165
289.299	139.873
292.192	150.255
295.085	145.411
297.977	103.773
300.87	169.138
303.763	94.0664
306.655	86.1458
309.548	121.809
312.441	48.2982
315.334	24.2367
318.226	6.34043
321.119	14.2102
324.012	14.7262
326.904	10.1011
329.797	14.0249
332.69	5.0366
335.582	5.50994
338.475	39.259
341.368	96.6581
344.26	99.0951
347.153	80.3257
350.046	171.941
352.939	215.92
355.831	274.334
358.724	269.713
361.617	280.608
364.509	354.836
367.402	380.712
370.295	454.355
373.188	470.064
376.08	520.957
378.973	534.882
381.866	483.268
384.758	492.432
387.651	467.68
390.544	516.255
393.436	467.052
396.329	486.506
399.222	444.748
402.114	442.44
405.007	420.111
407.9	440.103
410.793	455.091
413.685	342.727
416.578	372.662
419.471	309.577
422.363	272.183
425.256	291.06
428.149	209.375
431.041	199.543
433.934	205.798
436.827	162.015
439.719	102.279
442.612	102.377
445.505	89.289
448.398	0.225452
451.29	4.11698
454.183	5.14302
457.076	19.7512
459.968	21.9809
462.861	13.7062
465.754	0.094793
468.647	25.453
471.539	16.6241
474.432	66.3883
477.325	26.0304
480.217	125.239
483.11	192.53
486.003	136.463
488.895	147.918
491.788	119.394
494.681	172
497.574	166.827
500.466	183.319
503.359	236.832
506.252	305.567
509.144	361.286
512.037	393.182
514.93	339.051
517.822	433.609
520.715	432.421
523.608	479.443
526.5	493.606
529.393	500.898
532.286	470.72
535.179	364.143
538.071	325.728
540.964	226.425
543.857	179.175
546.749	117.837
549.642	147.527
552.535	120.102
555.427	52.0636
558.32	20.804
561.213	11.4244
564.106	9.1989
566.998	5.87355
569.891	13.0647
572.784	10.2809
575.676	16.7898
578.569	15.8893
581.462	5.83394
584.354	19.7942
587.247	7.12522
590.14	69.5588
593.033	82.4598
595.925	165.084
598.818	251.803
601.711	324.701
604.603	414.001
607.496	552.591
610.389	701.307
613.281	848.87
616.174	1038.7
619.067	1275.36
621.96	1598.6
624.852	1795.37
627.745	2024.3
630.638	2334.77
633.53	2625.13
636.423	2848.15
639.316	3012.63
642.208	3195.92
645.101	3298.74
647.994	3277.14
650.886	3160.18
653.779	2927.54
656.672	2574.45
659.565	2080.86
662.457	1664.76
665.35	1303.68
668.243	918.635
671.135	708.926
674.028	522.998
676.921	385.274
679.813	256.595
682.706	236.838
685.599	152.602
688.492	170.673
691.384	69.105
694.277	8.42852
697.17	22.7807
700.062	13.4886
702.955	14.7524
705.848	2.64918
708.74	12.5088
711.633	19.7809
714.526	8.97281
717.418	3.51077
720.311	42.7379
723.204	54.2353
726.097	15.8774
728.989	63.4539
731.882	39.1312
734.775	79.4809
737.667	57.9506
740.56	88.2124
743.453	109.767
746.346	93.535
749.238	120.498
752.131	55.8677
755.024	118.155
757.916	120.404
760.809	112.411
763.702	180.678
766.594	143.401
769.487	125.05
772.38	99.5769
775.273	112.032
778.165	126.131
781.058	125.625
783.951	158.924
786.843	92.5966
789.736	97.8064
792.629	94.8608
795.521	112.226
798.414	30.2133
801.307	48.1014
804.199	72.3685
807.092	25.2282
809.985	42.9305
812.878	2.25717
815.77	7.97078
818.663	18.1872
821.556	7.2144
824.448	4.5251
827.341	7.48082
830.234	6.5717
833.126	3.48607
836.019	7.48188
838.912	13.7148
841.805	7.28759
844.697	0.067396
847.59	16.3516
850.483	24.3467
853.375	33.6833
856.268	46.3094
859.161	9.10897
862.053	82.9574
864.946	96.8653
867.839	85.395
870.731	41.5926
873.624	85.9871
876.517	94.2233
879.41	113.965
882.302	123.826
885.195	146.673
888.088	201.252
890.98	213.226
893.873	261.187
896.766	229.928
899.659	179.303
902.551	174.424
905.444	187.431
908.337	229.816
911.229	195.344
914.122	229.299
917.015	221.434
919.907	290.555
922.8	306.399
925.693	343.177
928.586	271.67
931.478	359.513
934.371	362.496
937.264	285.168
940.156	367.348
943.049	291.151
945.942	265.798
948.834	260.491
951.727	273.637
954.62	248.529
957.513	222.085
960.405	134.712
963.298	155.621
966.191	176.042
969.083	110.772
971.976	127.196
974.869	88.6007
977.761	94.1474
980.654	47.9042
983.547	63.7618
986.439	20.9344
989.332	19.2516
992.225	17.0461
995.118	20.3579
998.01	14.915
1000.9	2.12491
1003.8	36.9199
1006.69	5.12841
1009.58	3.73432
1012.47	33.3407
1015.37	31.8418
1018.26	37.7479
1021.15	69.2978
1024.05	34.8267
1026.94	47.6509
1029.83	11.9785
1032.72	15.3137
1035.62	19.979
1038.51	6.609
1041.4	40.8129
1044.29	4.31263
1047.19	12.4947
1050.08	46.5222
1052.97	7.55623
1055.86	59.9353
1058.76	42.235
1061.65	28.2379
1064.54	8.65171
1067.43	30.9189
1070.33	4.68794
1073.22	7.93284
1076.11	0.693095
1079.01	3.60295
1081.9	2.12427
1084.79	15.7877
1087.68	102.603
1090.58	27.6057
1093.47	92.3783
1096.36	104.918
1099.26	87.207
1102.15	71.2487
1105.04	90.8535
1107.93	24.9236
1110.83	83.2992
1113.72	96.5644
1116.61	66.7406
1119.5	128.171
1122.4	101.183
1125.29	109.174
1128.18	156.984
1131.07	197.409
1133.97	207.218
1136.86	198.827
1139.75	221.077
1142.64	213.212
1145.54	186.156
1148.43	200.221
1151.32	141.581
1154.22	154.463
1157.11	136.856
1160	152.643
1162.89	116.711
1165.79	132.245
1168.68	143.624
1171.57	101.488
1174.46	165.633
1177.36	115.852
1180.25	59.7806
1183.14	94.4414
1186.04	50.784
1188.93	9.29279
1191.82	0.434138
1194.71	12.9381
1197.61	7.41068
1200.5	5.63981
1203.39	49.3601
1206.29	6.25154
1209.18	35.1866
1212.07	24.0239
1214.96	22.1681
1217.86	2.53287
1220.75	20.7193
1223.64	10.3335
1226.53	18.8405
1229.43	2.99157
1232.32	10.8038
1235.21	12.5917
1238.1	29.4794
1241	46.5645
1243.89	69.9317
1246.78	63.6015
1249.67	126.781
1252.57	101.204
1255.46	163.862
1258.35	71.0087
1261.25	91.6548
1264.14	88.4659
1267.03	46.8954
1269.92	100.215
1272.82	96.2622
1275.71	107.071
1278.6	64.5117
1281.49	113.909
1284.39	90.7617
1287.28	54.9328
1290.17	43.4151
1293.07	65.1008
1295.96	36.6433
1298.85	25.5443
