Measurement: Raman, 532 nm, unoriented, Raman Data Processed
Mineral: Baotite
Rruff sample: R060414
Ideal chemistry: Ba_4_(Ti,Nb,W)_8_O_16_(SiO_3_)_4_Cl
Locality: Zagi Mountain, near Hammedabad, Khaffor Dehri, North-West Frontier Province, Pakistan
Source: Herb Obodda
Description: Dark brown vitreous fragment
Measured chemistry: Ba_4.00_(Ti_6.54_Nb^5+^_1.23_Fe^3+^_0.23_)_Î£=8_O_16_(Si_1.00_O_3_)_4_Cl_1.00_
Raman shift (cm-1)	intensity
156.603	0
159.496	12.4488
162.388	64.089
165.281	172.06
168.174	315.485
171.067	438.587
173.959	499.579
176.852	550.743
179.745	630.397
182.637	531.615
185.53	336.483
188.423	218.472
191.315	123.841
194.208	25.606
197.101	4.96939
199.994	16.8562
202.886	10.2346
205.779	2.26309
208.672	7.71478
211.565	15.6834
214.457	12.6798
217.35	19.4696
220.243	30.1198
223.135	58.6817
226.028	129.368
228.921	221.212
231.813	316.194
234.706	445.841
237.599	614.609
240.492	843.963
243.384	1045.03
246.277	937.164
249.17	627.737
252.062	432.599
254.955	364.524
257.848	352.56
260.74	385.193
263.633	440.926
266.526	534.749
269.418	633.99
272.311	635.26
275.204	526.722
278.097	445.295
280.989	382.36
283.882	301.106
286.775	221.957
289.667	160.085
292.56	130.605
295.453	131.59
298.346	140.082
301.238	95.9669
304.131	42.7697
307.024	15.2303
309.916	5.8533
312.809	14.1458
315.702	31.0478
318.594	56.3778
321.487	78.9943
324.38	108.612
327.273	155.721
330.165	198.003
333.058	233.976
335.951	245.763
338.843	214.805
341.736	143.147
344.629	79.682
347.522	34.6435
350.414	3.84036
353.307	21.7966
356.2	17.8695
359.092	5.11533
361.985	39.942
364.878	87.5373
367.77	149.232
370.663	237.722
373.556	331.609
376.449	374.158
379.341	294.472
382.234	222.561
385.127	206.217
388.019	221.121
390.912	244.636
393.805	254.511
396.697	237.452
399.59	199.445
402.483	139.927
405.376	92.1844
408.268	56.0714
411.161	20.3842
414.054	1.00104
416.946	0.300018
419.839	10.7634
422.732	30.5672
425.625	57.1313
428.517	58.8147
431.41	48.6208
434.303	57.4331
437.195	56.8302
440.088	50.6597
442.981	46.2978
445.873	39.7422
448.766	37.2747
451.659	32.5298
454.551	27.3071
457.444	28.2721
460.337	24.9318
463.23	28.3804
466.122	29.2402
469.015	35.901
471.908	36.091
474.8	31.5356
477.693	27.7082
480.586	22.2903
483.479	20.1871
486.371	10.4156
489.264	11.8712
492.157	10.2594
495.049	7.0258
497.942	4.41954
500.835	0.74353
503.728	6.48256
506.62	0.205948
509.513	3.31265
512.406	0.40274
515.298	2.22644
518.191	0.178986
521.084	5.72681
523.976	6.00528
526.869	4.73981
529.762	1.55118
532.654	10.1385
535.547	19.9026
538.44	39.8984
541.333	61.4704
544.225	86.7981
547.118	114.155
550.011	149.532
552.903	181.829
555.796	210.777
558.689	216.34
561.582	214.441
564.474	211.419
567.367	204.354
570.26	196.806
573.152	200.633
576.045	201.347
578.938	197.986
581.83	192.232
584.723	180.035
587.616	162.294
590.509	141.235
593.401	119.278
596.294	100.453
599.187	78.1363
602.079	59.5027
604.972	41.098
607.865	24.0278
610.758	14.6147
613.65	8.53467
616.543	4.77878
619.436	0.029968
622.328	1.01172
625.221	8.82581
628.114	17.2248
631.006	26.1095
633.899	38.8867
636.792	56.2958
639.684	83.2416
642.577	110.361
645.47	132.744
648.363	161.213
651.255	179.447
654.148	206.263
657.041	225.965
659.933	237.316
662.826	231.598
665.719	223.478
668.612	203.64
671.504	178.003
674.397	160.012
677.29	127.784
680.182	100.174
683.075	74.2556
685.968	58.0808
688.861	36.3512
691.753	21.4293
694.646	9.4776
697.539	5.30243
700.431	0.389648
703.324	3.20019
706.217	3.08392
709.109	5.74921
712.002	4.47192
714.895	5.09787
717.788	8.61224
720.68	9.87946
723.573	16.6442
726.466	22.146
729.358	28.634
732.251	35.599
735.144	47.3756
738.036	53.607
740.929	61.305
743.822	62.7558
746.715	65.9614
749.607	63.7791
752.5	64.7408
755.393	63.2194
758.285	62.7024
761.178	69.8377
764.071	79.7512
766.963	101.489
769.856	124.501
772.749	151.37
775.642	170.853
778.534	180.155
781.427	176.845
784.32	165.181
787.212	144.135
790.105	124.078
792.998	109.934
795.89	86.9837
798.783	73.6122
801.676	57.5289
804.569	43.9109
807.461	30.0741
810.354	19.9536
813.247	15.3448
816.139	8.3965
819.032	5.31084
821.925	1.7159
824.818	2.22743
827.71	3.50026
830.603	3.74781
833.496	1.18008
836.388	0.574417
839.281	0.960251
842.174	2.83395
845.067	3.75722
847.959	5.37748
850.852	5.74107
853.745	7.42912
856.637	7.17976
859.53	7.79634
862.423	11.0351
865.315	13.4388
868.208	16.7365
871.101	21.2146
873.994	24.7908
876.886	35.0617
879.779	39.6529
882.672	45.3492
885.564	52.0237
888.457	62.8743
891.35	68.0136
894.242	75.9971
897.135	75.2093
900.028	62.549
902.92	41.0047
905.813	28.9462
908.706	23.1754
911.599	20.9823
914.491	18.1981
917.384	15.122
920.277	12.8856
923.169	12.0235
926.062	9.42225
928.955	9.18125
931.847	6.78021
934.74	2.37309
937.633	6.3203
940.526	4.45525
943.418	6.38245
946.311	9.44197
949.204	14.9429
952.096	20.177
954.989	19.4862
957.882	22.4143
960.775	15.2935
963.667	12.5396
966.56	11.6227
969.453	13.6716
972.345	15.1132
975.238	19.2187
978.131	32.1778
981.024	48.1424
983.916	59.4482
986.809	57.5913
989.702	42.1992
992.594	24.5715
995.487	16.9979
998.38	13.4064
1001.27	9.09725
1004.16	8.4521
1007.06	6.98061
1009.95	3.19367
1012.84	4.2869
1015.74	0.054699
1018.63	0.313307
1021.52	2.17076
1024.41	0.137583
1027.31	0.316809
1030.2	0.170538
1033.09	1.17408
1035.98	0.042376
1038.88	1.78726
1041.77	0.314941
1044.66	0.222506
1047.56	1.1953
1050.45	0.983536
1053.34	2.00331
1056.23	0.517708
1059.13	1.28964
1062.02	0.309866
1064.91	2.03567
1067.81	1.6865
1070.7	1.15754
1073.59	4.66949
1076.48	3.78831
1079.38	7.22904
1082.27	9.47929
1085.16	13.4953
1088.05	17.1657
1090.95	22.6321
1093.84	38.2903
1096.73	45.0596
1099.62	47.2632
1102.52	48.1434
1105.41	37.3321
1108.3	25.4333
1111.19	18.159
1114.09	13.4767
1116.98	12.4504
1119.87	10.0748
1122.77	8.20144
1125.66	6.84526
1128.55	9.9352
1131.44	7.40191
1134.34	1.70486
1137.23	3.5825
1140.12	0.626106
1143.02	3.88824
1145.91	1.28933
1148.8	0.794113
1151.69	2.42797
1154.59	1.46529
1157.48	2.1154
1160.37	0.142147
1163.26	0.975273
1166.16	1.8935
1169.05	0.681129
1171.94	4.06318
1174.84	1.59476
1177.73	2.97836
1180.62	1.48796
1183.51	1.23645
1186.4	1.81097
1189.3	4.16683
1192.19	2.81726
1195.08	2.25923
1197.98	20.8367
1200.87	0.007455
1203.76	3.61817
1206.65	4.3557
1209.55	4.86454
1212.44	2.77449
1215.33	1.44987
1218.22	3.7157
1221.12	4.72456
1224.01	3.10904
1226.9	1.43476
1229.8	0.28277
1232.69	3.39766
1235.58	2.87486
1238.47	0.502412
1241.37	1.69155
1244.26	1.48049
1247.15	1.94077
1250.05	0.049955
1252.94	1.3991
1255.83	2.18961
1258.72	2.98316
1261.62	1.05583
1264.51	3.6043
1267.4	1.84001
1270.29	1.89539
1273.19	1.32554
1276.08	3.36531
1278.97	2.70148
1281.87	2.83035
1284.76	1.79692
1287.65	1.5401
1290.54	0.878531
1293.43	1.83741
1296.33	1.50996
1299.22	2.20935
1302.11	1.27023
