Measurement: Raman, 532 nm, unoriented, Raman Data Processed
Mineral: Baotite
Rruff sample: R060251
Ideal chemistry: Ba_4_(Ti,Nb,W)_8_O_16_(SiO_3_)_4_Cl
Locality: Baiyun-Obo mine, Inner Mongolia, China
Source: William W. Pinch
Description: Brownish-purple colored cleavage fragments associated with clear brewsterite and blue richterite
Raman shift (cm-1)	intensity
150.832	0
153.725	42.8175
156.618	88.3124
159.51	127.059
162.403	171.92
165.296	217.962
168.189	246.785
171.081	239.212
173.974	217.53
176.867	186.451
179.759	148.357
182.652	123.276
185.545	99.3884
188.437	59.5559
191.33	31.4152
194.223	6.3916
197.115	6.65418
200.008	13.6207
202.901	9.54883
205.794	4.08313
208.686	17.394
211.579	42.8669
214.472	70.8272
217.364	102.525
220.257	128.968
223.15	162.066
226.042	185.398
228.935	204.04
231.828	214.973
234.721	238.533
237.613	258.851
240.506	254.278
243.399	194.789
246.291	129.088
249.184	87.4844
252.077	62.7832
254.97	43.7832
257.862	22.0492
260.755	5.3689
263.648	8.66699
266.54	17.61
269.433	17.1599
272.326	4.97119
275.218	1.80689
278.111	1.27112
281.004	17.8219
283.897	33.9225
286.789	56.4106
289.682	78.213
292.575	85.1006
295.467	87.5154
298.36	78.4154
301.253	58.9824
304.145	43.902
307.038	31.4133
309.931	15.6298
312.824	10.8671
315.716	18.1588
318.609	25.082
321.502	41.2848
324.394	65.0889
327.287	106.843
330.18	150.737
333.072	174.65
335.965	183.252
338.858	180.553
341.75	157.804
344.643	133.349
347.536	92.1627
350.429	49.4279
353.321	15.4999
356.214	0.834229
359.107	2.24731
361.999	3.1654
364.892	5.74439
367.785	8.76514
370.678	1.01978
373.57	1.61902
376.463	5.07178
379.356	2.23804
382.248	10.2809
385.141	33.2421
388.034	72.0702
390.926	105.938
393.819	106.581
396.712	75.5656
399.604	50.3396
402.497	24.1644
405.39	8.39514
408.283	0.62146
411.175	1.41345
414.068	4.27197
416.961	14.9402
419.853	26.4963
422.746	51.7019
425.639	79.879
428.531	85.9353
431.424	85.7893
434.317	94.0912
437.21	102.263
440.102	110.692
442.995	117.495
445.888	132.5
448.78	152.504
451.673	160.909
454.566	152.45
457.459	143.129
460.351	134.686
463.244	124.317
466.137	115.532
469.029	105.324
471.922	95.8019
474.815	89.5481
477.707	81.6471
480.6	74.7225
483.493	67.2822
486.385	57.7097
489.278	54.3234
492.171	41.2167
495.064	30.9233
497.956	17.5587
500.849	10.3843
503.742	9.55298
506.634	1.75561
509.527	0.299194
512.42	1.776
515.313	1.54517
518.205	0.548584
521.098	3.61926
523.991	1.08923
526.883	6.84546
529.776	6.26892
532.669	15.6883
535.562	20.0015
538.454	25.6514
541.347	26.6195
544.24	28.9854
547.132	30.7856
550.025	34.0022
552.918	37.6956
555.81	36.0651
558.703	36.7065
561.596	30.9373
564.489	23.4318
567.381	25.4491
570.274	20.4988
573.167	19.1953
576.059	23.1108
578.952	23.4941
581.845	24.8072
584.737	20.3486
587.63	19.4271
590.523	18.3815
593.415	15.0261
596.308	10.5236
599.201	14.7437
602.093	8.65002
604.986	6.79016
607.879	5.9801
610.772	0.415161
613.664	2.41516
616.557	2.66406
619.45	2.99646
622.342	3.2134
625.235	2.39111
628.128	2.33207
631.02	0.004395
633.913	1.05115
636.806	0.331543
639.699	5.59326
642.591	12.4692
645.484	21.9396
648.377	29.4645
651.269	40.5338
654.162	51.4375
657.055	55.7407
659.947	62.2255
662.84	63.2406
665.733	62.5559
668.626	61.3396
671.518	53.1915
674.411	50.2508
677.304	39.3226
680.196	27.4978
683.089	23.5303
685.982	12.7284
688.875	12.6242
691.767	7.7793
694.66	1.99487
697.553	0.542603
700.445	1.53137
703.338	5.99927
706.231	0.310059
709.123	4.3114
712.016	10.6101
714.909	14.246
717.802	20.8811
720.694	25.6049
723.587	34.7636
726.48	41.7336
729.372	55.9357
732.265	70.9318
735.158	81.1918
738.05	97.1318
740.943	107.14
743.836	118.428
746.729	129.06
749.621	135.845
752.514	144.463
755.407	150.533
758.299	162.014
761.192	173.913
764.085	189.733
766.977	204.231
769.87	219.619
772.763	239.426
775.655	249.98
778.548	256.257
781.441	252.493
784.334	250.088
787.226	243.75
790.119	234.139
793.012	223.342
795.904	203.799
798.797	189.649
801.69	175.846
804.582	170.064
807.475	165.324
810.368	164.286
813.261	164.421
816.153	169.213
819.046	160.995
821.939	148.21
824.831	122.176
827.724	89.8536
830.617	61.1005
833.51	29.5304
836.402	12.718
839.295	4.84875
842.188	1.71326
845.08	4.51392
847.973	4.9596
850.866	4.60242
853.758	4.88818
856.651	2.50757
859.544	0.06958
862.437	4.43555
865.329	6.12939
868.222	9.52124
871.115	10.762
874.007	16.5608
876.9	22.0333
879.793	23.8766
882.685	30.5187
885.578	32.4249
888.471	35.7675
891.364	35.189
894.256	32.0405
897.149	27.6925
900.042	30.6578
902.934	29.5731
905.827	30.9907
908.72	25.7991
911.612	24.4196
914.505	24.2806
917.398	21.7277
920.29	20.1503
923.183	16.8529
926.076	11.5267
928.969	8.22144
931.861	8.0907
934.754	4.8147
937.647	5.69873
940.539	3.40405
943.432	4.75854
946.325	12.6946
949.217	17.3033
952.11	20.6422
955.003	21.6097
957.896	22.8866
960.788	21.4191
963.681	23.9044
966.574	26.7944
969.466	33.7887
972.359	33.3866
975.252	38.0819
978.144	52.3951
981.037	56.9938
983.93	55.346
986.823	50.9011
989.715	46.8518
992.608	47.2961
995.501	48.3833
998.393	52.0874
1001.29	49.1469
1004.18	43.259
1007.07	35.1858
1009.96	25.3944
1012.86	17.1865
1015.75	11.4864
1018.64	7.52942
1021.53	8.74793
1024.43	5.16528
1027.32	7.63928
1030.21	3.79675
1033.11	0.464111
1036	2.48108
1038.89	3.80627
1041.78	4.35864
1044.68	2.61011
1047.57	1.2312
1050.46	1.73828
1053.36	0.106201
1056.25	0.411255
1059.14	4.21973
1062.03	1.0011
1064.93	2.63887
1067.82	1.83276
1070.71	3.81909
1073.6	0.870239
1076.5	4.82776
1079.39	3.32288
1082.28	8.86438
1085.17	5.39502
1088.07	7.60596
1090.96	7.77124
1093.85	10.9288
1096.74	13.7827
1099.64	13.6998
1102.53	17.2649
1105.42	14.2174
1108.32	11.3938
1111.21	12.2948
1114.1	7.45972
1116.99	8.14026
1119.89	8.89758
1122.78	2.90894
1125.67	2.30786
1128.57	5.53589
1131.46	0.503174
1134.35	1.92004
1137.24	3.03455
1140.14	4.52808
1143.03	4.93335
1145.92	3.46594
1148.81	5.04419
1151.71	2.72607
1154.6	0.540039
1157.49	0.406738
1160.38	1.37512
1163.28	3.29053
1166.17	3.099
1169.06	2.15002
1171.95	0.904297
1174.85	4.24463
1177.74	7.51147
1180.63	8.01465
1183.53	1.12415
1186.42	5.35998
1189.31	5.03918
1192.2	6.71191
1195.1	3.92041
1197.99	3.88013
1200.88	6.89856
1203.78	6.54297
1206.67	6.10693
1209.56	5.90454
1212.45	5.28845
1215.35	3.81885
1218.24	0.502686
1221.13	1.10669
1224.02	0.422485
1226.92	4.25708
1229.81	0.580811
1232.7	1.70105
1235.6	0.22998
1238.49	1.79895
1241.38	3.68994
1244.27	3.67334
1247.17	6.21765
1250.06	5.76172
1252.95	4.03882
1255.84	3.42468
1258.74	2.90576
1261.63	3.86499
1264.52	3.61353
1267.41	7.53418
1270.31	2.7229
1273.2	3.01025
1276.09	3.06165
1278.98	4.28198
1281.88	1.2157
1284.77	3.94617
1287.66	5.66589
1290.56	4.36719
1293.45	1.79199
1296.34	1.98022
1299.23	3.46082
1302.13	0
