Measurement: Raman, 532 nm, unoriented, Raman Data Processed
Mineral: Barbosalite
Rruff sample: R070358
Ideal chemistry: Fe^2+^Fe^3+^_2_(PO_4_)_2_(OH)_2_
Locality: Bull Moose mine, Custer, Custer District, Custer County, South Dakota, USA
Source: Michael Scott
Description: Dark blue to black massive and with tabular crystals in vugs, associated with pyrite
Measured chemistry: (Fe^2+^_0.97_Mn_0.03_)_Σ=1_Fe^3+^_2.00_(P_1.00_O_4_)_2_((OH)_1.89_F_0.11_)_Σ=2_ ; OH estimated by charge balance
Raman shift (cm-1)	intensity
155.929	0
158.822	64.5169
161.715	174.139
164.607	234.436
167.5	102.43
170.393	2.92822
173.286	70.4768
176.178	142.595
179.071	208.055
181.964	184.568
184.856	215.471
187.749	300.419
190.642	303.276
193.535	301.747
196.427	282.061
199.32	218.004
202.213	156.698
205.105	101.362
207.998	0.757568
210.891	0.015747
213.783	80.3439
216.676	53.2817
219.569	32.2546
222.462	19.8503
225.354	45.3882
228.247	80.4307
231.14	198.856
234.032	326.46
236.925	456.832
239.818	558.413
242.71	530.496
245.603	528.72
248.496	657.587
251.388	681.773
254.281	703.025
257.174	610.952
260.067	437.863
262.959	295.657
265.852	247.361
268.745	227.206
271.637	150.825
274.53	117.387
277.423	82.8506
280.315	159.751
283.208	177.081
286.101	259.696
288.994	322.228
291.886	467.527
294.779	612.088
297.672	859.582
300.564	1129.62
303.457	1484.84
306.35	1740
309.243	1861.16
312.135	1618.67
315.028	1262.25
317.921	920.41
320.813	617.616
323.706	421.729
326.599	328.793
329.491	276.538
332.384	320.291
335.277	407.98
338.17	558.01
341.062	693.322
343.955	867.836
346.848	847.182
349.74	786.381
352.633	719.013
355.526	731.328
358.418	682.604
361.311	576.282
364.204	470.266
367.097	390.978
369.989	283.068
372.882	246.65
375.775	168.065
378.667	199.92
381.56	145.816
384.453	134.995
387.346	91.9487
390.238	61.3206
393.131	47.1733
396.024	4.06226
398.916	5.94019
401.809	19.9319
404.702	25.5369
407.594	63.9487
410.487	31.1445
413.38	18.9846
416.272	19.4851
419.165	26.5666
422.058	68.7441
424.951	89.9831
427.843	160.527
430.736	218.927
433.629	302.033
436.521	338.601
439.414	399.903
442.307	445.571
445.2	499.428
448.092	566.227
450.985	671.717
453.878	748.627
456.77	829.15
459.663	819.849
462.556	764.879
465.448	706.087
468.341	595.459
471.234	504.293
474.127	457.294
477.019	394.935
479.912	358.922
482.805	311.096
485.697	323.509
488.59	333.577
491.483	341.217
494.375	389.279
497.268	396.033
500.161	427.708
503.053	375.501
505.946	281.511
508.839	206.731
511.732	150.011
514.624	108.848
517.517	61.397
520.41	26.0169
523.302	40.8452
526.195	3.13892
529.088	30.9829
531.981	2.3169
534.873	3.28003
537.766	25.9644
540.659	24.7485
543.551	22.832
546.444	12.7349
549.337	14.0691
552.229	45.9949
555.122	44.7302
558.015	96.1753
560.908	108.122
563.8	165.248
566.693	191.812
569.586	243.812
572.478	284.556
575.371	272.486
578.264	274.435
581.156	309.66
584.049	378.661
586.942	388.281
589.835	450.15
592.727	465.988
595.62	567.696
598.513	659.363
601.405	678.52
604.298	701.548
607.191	707.011
610.083	599.073
612.976	453.113
615.869	337.815
618.762	296.643
621.654	201.368
624.547	154.123
627.44	103.592
630.332	89.3748
633.225	60.8728
636.118	60.2529
639.01	49.3943
641.903	19.5696
644.796	38.6768
647.689	18.8459
650.581	16.9609
653.474	10.011
656.367	8.8457
659.259	20.6011
662.152	21.0459
665.045	0.694824
667.938	47.2571
670.83	13.8704
673.723	28.4163
676.616	19.1819
679.508	9.69531
682.401	29.845
685.294	26.0842
688.186	49.1782
691.079	27.0166
693.972	63.5061
696.865	37.7495
699.757	34.3926
702.65	54.2861
705.543	8.53687
708.435	30.8027
711.328	20.2744
714.221	20.4785
717.113	46.3701
720.006	23.9863
722.899	18.6504
725.792	14.1753
728.684	27.2974
731.577	15.7297
734.47	40.366
737.362	13.2878
740.255	24.1357
743.148	31.0693
746.04	54.408
748.933	21.5183
751.826	41.4448
754.719	26.5789
757.611	41.8501
760.504	24.2134
763.397	44.1255
766.289	29.4197
769.182	17.7866
772.075	44.988
774.967	10.6892
777.86	55.6782
780.753	52.3704
783.646	2.97363
786.538	12.7712
789.431	68.7029
792.324	44.575
795.216	15.3848
798.109	41.0645
801.002	54.0864
803.894	57.5735
806.787	19.7161
809.68	27.4453
812.573	56.9116
815.465	83.811
818.358	83.5601
821.251	42.666
824.143	48.3657
827.036	52.1807
829.929	65.363
832.822	40.3037
835.714	59.3718
838.607	56.7039
841.5	69.6846
844.392	56.4526
847.285	38.8328
850.178	39.4072
853.07	48.5864
855.963	39.7263
858.856	29.0066
861.749	71.0732
864.641	58.8508
867.534	65.5891
870.427	30.8406
873.319	66.6245
876.212	28.6001
879.105	48.9346
881.997	39.355
884.89	32.53
887.783	37.7642
890.676	24.5034
893.568	60.0308
896.461	30.8355
899.354	73.8855
902.246	18.7993
905.139	1.16211
908.032	31.6411
910.924	2.89722
913.817	8.65894
916.71	4.94287
919.602	5.8125
922.495	4.80542
925.388	24.2681
928.281	10.929
931.173	17.5156
934.066	18.8257
936.959	0.933105
939.851	12.2659
942.744	11.0818
945.637	62.7
948.529	52.7707
951.422	70.2959
954.315	101.215
957.208	166.234
960.1	168.903
962.993	238.89
965.886	244.214
968.778	213.284
971.671	173.042
974.564	245.468
977.457	330.989
980.349	410.647
983.242	467.832
986.135	465.371
989.027	342.359
991.92	199.603
994.813	61.5996
997.705	51.0776
1000.6	1.1438
1003.49	87.3513
1006.38	125.286
1009.28	239.648
1012.17	527.932
1015.06	829.283
1017.95	1026.36
1020.85	1202.68
1023.74	1263.16
1026.63	1406.65
1029.53	1487.01
1032.42	1404.18
1035.31	1409.51
1038.2	1333.63
1041.1	1310.17
1043.99	1092.73
1046.88	715.562
1049.77	398.358
1052.67	284.937
1055.56	256.471
1058.45	257.687
1061.35	331.952
1064.24	294.749
1067.13	272.813
1070.02	238.36
1072.92	186.008
1075.81	180.361
1078.7	129.196
1081.59	140.709
1084.49	115.161
1087.38	107.173
1090.27	81.188
1093.16	9.90137
1096.06	21.0674
1098.95	15.8752
1101.84	3.81055
1104.73	35.926
1107.63	13.6099
1110.52	32.7332
1113.41	21.6379
1116.31	39.2978
1119.2	50.7092
1122.09	103.4
1124.98	185.691
1127.88	257.969
1130.77	380.149
1133.66	388.595
1136.56	455.31
1139.45	369.289
1142.34	331.872
1145.23	280.83
1148.13	197.809
1151.02	147.058
1153.91	131.245
1156.8	76.5205
1159.7	125.642
1162.59	101.764
1165.48	87.1836
1168.38	62.0239
1171.27	47.7903
1174.16	50.3525
1177.05	53.2632
1179.95	6.31714
1182.84	74.1685
1185.73	58.728
1188.62	17.4509
1191.52	57.2134
1194.41	3.56543
1197.3	4.48047
1200.19	32.9319
1203.09	6.35327
1205.98	30.3706
1208.87	50.5515
1211.77	15.4797
1214.66	34.9773
1217.55	45.3369
1220.44	16.8259
1223.34	30.3003
1226.23	64.2649
1229.12	52.5234
1232.01	49.2551
1234.91	28.8752
1237.8	58.9885
1240.69	28.4072
1243.59	42.6387
1246.48	81.5398
1249.37	70.3987
1252.26	36.3875
1255.16	14.1909
1258.05	45.553
1260.94	61.7622
1263.83	14.8032
1266.73	56.6199
1269.62	101.207
1272.51	8.15015
1275.4	65.0794
1278.3	46.491
1281.19	59.4565
1284.08	18.4187
1286.98	62.9133
1289.87	40.4226
1292.76	11.4028
1295.65	24.332
1298.55	20.6484
