Measurement: Raman, 785 nm, unoriented, Raman Data Processed
Mineral: Barbosalite
Rruff sample: R070358
Ideal chemistry: Fe^2+^Fe^3+^_2_(PO_4_)_2_(OH)_2_
Locality: Bull Moose mine, Custer, Custer District, Custer County, South Dakota, USA
Source: Michael Scott
Description: Dark blue to black massive and with tabular crystals in vugs, associated with pyrite
Measured chemistry: (Fe^2+^_0.97_Mn_0.03_)_Σ=1_Fe^3+^_2.00_(P_1.00_O_4_)_2_((OH)_1.89_F_0.11_)_Σ=2_ ; OH estimated by charge balance
Raman shift (cm-1)	intensity
153.803	0
156.696	8.62183
159.589	37.7013
162.481	170.526
165.374	272.097
168.267	224.016
171.16	180.124
174.052	213.491
176.945	263.228
179.838	273.144
182.73	310.429
185.623	334.163
188.516	380.374
191.408	335.047
194.301	332.602
197.194	343.459
200.087	275.007
202.979	252.106
205.872	118.517
208.765	36.1586
211.657	16.0264
214.55	67.3555
217.443	18.2956
220.335	37.5476
223.228	43.7258
226.121	41.0393
229.013	5.01269
231.906	20.2837
234.799	103.081
237.692	189.344
240.584	295.103
243.477	363.178
246.37	380.183
249.262	514.28
252.155	586.9
255.048	581.118
257.941	494.846
260.833	393.946
263.726	334.878
266.619	328.944
269.511	336.016
272.404	288.721
275.297	279.342
278.19	256.082
281.082	321.672
283.975	399.804
286.868	506.686
289.76	583.958
292.653	731.686
295.546	937.615
298.438	1151.28
301.331	1503.18
304.224	1728.4
307.116	1896.78
310.009	1941.1
312.902	1728.84
315.795	1448.33
318.687	1110.01
321.58	794.984
324.473	587.486
327.365	489.422
330.258	515.035
333.151	654.913
336.043	889.454
338.936	1138.35
341.829	1375.79
344.721	1491.62
347.614	1314.44
350.507	964.162
353.4	648.738
356.292	610.675
359.185	496.069
362.078	427.144
364.97	359.055
367.863	361.301
370.756	335.265
373.649	360.404
376.541	407.008
379.434	431.259
382.327	374.811
385.219	248.629
388.112	149.183
391.005	123.955
393.897	76.4421
396.79	6.86182
399.683	36.6375
402.575	35.8677
405.468	35.5227
408.361	19.0974
411.254	54.491
414.146	46.0612
417.039	21.1785
419.932	31.2797
422.824	46.8833
425.717	103.92
428.61	130.31
431.502	172.211
434.395	197.155
437.288	256.2
440.181	334.12
443.073	394.31
445.966	493.204
448.859	621.348
451.751	719.58
454.644	857.322
457.537	906.65
460.43	944.342
463.322	936.356
466.215	831.94
469.108	799.657
472	763.846
474.893	687.663
477.786	608.436
480.678	590.099
483.571	564.608
486.464	577.339
489.356	616.861
492.249	704.04
495.142	751.57
498.035	747.059
500.927	766.038
503.82	649.4
506.713	547.762
509.605	372.557
512.498	255.509
515.391	193.741
518.284	115.376
521.176	80.1084
524.069	36.483
526.962	3.32764
529.854	8.72839
532.747	2.58704
535.64	6.33301
538.533	16.5535
541.425	22.1647
544.318	32.9962
547.211	42.1593
550.103	3.71533
552.996	32.0295
555.889	33.45
558.781	78.3863
561.674	65.8397
564.567	155.913
567.459	157.524
570.352	189.672
573.245	219.767
576.138	264.078
579.03	290.351
581.923	398.527
584.816	435.873
587.708	427.999
590.601	408.035
593.494	409.857
596.386	348.082
599.279	354.948
602.172	353.828
605.064	312.458
607.957	290.381
610.85	238.707
613.743	198.6
616.635	144.772
619.528	100.953
622.421	74.7073
625.313	58.3568
628.206	87.1609
631.099	47.9344
633.991	36.6407
636.884	15.6197
639.777	45.8268
642.67	18.6099
645.562	27.0258
648.455	9.61475
651.348	38.3573
654.24	23.725
657.133	0.039917
660.026	19.8391
662.918	3.26965
665.811	41.7579
668.704	22.0902
671.597	47.023
674.489	37.5703
677.382	34.3624
680.275	105.601
683.167	77.2548
686.06	71.4625
688.953	53.6446
691.846	61.434
694.738	63.5344
697.631	82.1277
700.524	59.0917
703.416	63.5713
706.309	66.5925
709.202	50.8939
712.094	62.564
714.987	75.2968
717.88	63.5637
720.773	44.4742
723.665	65.3429
726.558	12.4159
729.451	27.7954
732.343	24.7524
735.236	13.5813
738.129	19.4979
741.021	6.65442
743.914	28.6504
746.807	4.8346
749.699	25.3132
752.592	33.4631
755.485	13.6005
758.378	24.502
761.27	28.2688
764.163	8.88684
767.056	1.37353
769.948	7.87207
772.841	9.48047
775.734	17.9591
778.626	1.9115
781.519	7.67505
784.412	13.0599
787.305	14.7207
790.197	27.1549
793.09	16.382
795.983	36.3656
798.875	63.6693
801.768	44.9119
804.661	41.394
807.553	69.2837
810.446	61.7461
813.339	65.0455
816.232	68.1115
819.124	44.7415
822.017	39.4601
824.91	32.7703
827.802	0.087646
830.695	40.6674
833.588	88.6941
836.481	57.2955
839.373	67.5565
842.266	45.3705
845.159	50.5873
848.051	55.6228
850.944	32.2484
853.837	32.2854
856.729	28.2059
859.622	22.2921
862.515	26.5834
865.408	41.0739
868.3	14.1666
871.193	28.8511
874.086	30.3513
876.978	26.4293
879.871	25.1928
882.764	5.57752
885.656	1.67444
888.549	28.9659
891.442	44.5248
894.335	0.847778
897.227	19.406
900.12	8.8645
903.013	42.6904
905.905	35.9128
908.798	3.85144
911.691	24.672
914.583	36.4391
917.476	14.1278
920.369	35.9285
923.261	37.8003
926.154	1.57739
929.047	26.3505
931.94	20.1559
934.832	26.5689
937.725	30.2916
940.618	21.4161
943.51	6.04321
946.403	26.922
949.296	23.6693
952.188	34.0569
955.081	5.88672
957.974	36.9984
960.867	38.428
963.759	0.91272
966.652	7.11035
969.545	18.761
972.437	6.23401
975.33	17.0946
978.223	54.6309
981.115	24.4631
984.008	18.3274
986.901	4.22131
989.794	12.059
992.686	18.4748
995.579	2.05273
998.472	17.8252
1001.36	20.9729
1004.26	35.7622
1007.15	89.6351
1010.04	210.869
1012.93	356.592
1015.83	472.505
1018.72	563.064
1021.61	510.875
1024.51	490.588
1027.4	561.24
1030.29	603.847
1033.18	651.923
1036.08	696.132
1038.97	736.288
1041.86	748.638
1044.76	667.898
1047.65	461.844
1050.54	287.241
1053.43	219.63
1056.33	214.202
1059.22	263.451
1062.11	328.119
1065	290.138
1067.9	273.46
1070.79	285.879
1073.68	229.928
1076.58	218.575
1079.47	162.111
1082.36	124.661
1085.25	133.522
1088.14	65.1041
1091.04	90.2938
1093.93	52.5688
1096.82	15.1867
1099.72	8.65308
1102.61	9.85718
1105.5	7.8479
1108.39	15.1432
1111.29	25.1133
1114.18	10.1846
1117.07	21.1327
1119.96	15.745
1122.86	71.2545
1125.75	61.577
1128.64	100.492
1131.54	121.79
1134.43	144.797
1137.32	121.676
1140.21	84.988
1143.11	72.2825
1146	50.0023
1148.89	41.6331
1151.79	30.2427
1154.68	35.8937
1157.57	20.6423
1160.46	1.979
1163.36	2.5426
1166.25	6.24805
1169.14	4.19116
1172.03	2.72473
1174.93	3.50452
1177.82	2.4519
1180.71	11.8042
1183.6	11.5342
1186.5	3.52924
1189.39	24.0759
1192.28	20.1028
1195.17	26.1512
1198.07	25.9442
1200.96	21.1716
1203.85	23.9647
1206.75	21.0507
1209.64	24.4253
1212.53	8.93854
1215.42	14.4182
1218.32	0.136902
1221.21	26.2763
