Measurement: Raman, 785 nm, unoriented, Raman Data Processed
Mineral: Baricite
Rruff sample: R061045
Ideal chemistry: Mg_3_(PO_4_)_2_8H_2_O
Locality: Rapid Creek, Yukon, Canada
Source: Michael Scott
Description: Bluish-gray translucent fragment
Measured chemistry: (Mg_1.66_Fe_1.33_Mn_0.01_)_Σ=3_(P_1.00_O_4_)_2_·8H_2_O; H_2_O estimated by difference
Raman shift (cm-1)	intensity
108.028	0
110.921	20.2088
113.814	34.0887
116.707	43.1032
119.599	18.8382
122.492	5.39351
125.385	17.2052
128.277	42.3574
131.17	128.231
134.063	221.377
136.956	215.136
139.848	90.4421
142.741	45.1808
145.634	65.1448
148.526	72.2285
151.419	75.3649
154.312	28.0761
157.204	27.3268
160.097	61.0404
162.99	61.7224
165.882	101.492
168.775	120.95
171.668	100.722
174.561	76.6737
177.453	6.47031
180.346	18.9423
183.239	2.83234
186.131	35.4055
189.024	117.641
191.917	248.788
194.81	509.694
197.702	865.247
200.595	1332.48
203.488	1657.37
206.38	1585.55
209.273	1247.5
212.166	931.112
215.058	716.308
217.951	565.131
220.844	439.018
223.737	328.311
226.629	205.827
229.522	150.507
232.415	113.138
235.307	143.094
238.2	202.646
241.093	284.102
243.985	357.726
246.878	400.052
249.771	395.024
252.663	355.736
255.556	313.424
258.449	348.955
261.342	386.214
264.234	442.459
267.127	438.303
270.02	443.333
272.912	443.808
275.805	486.962
278.698	534.529
281.591	541.729
284.483	499.518
287.376	330.721
290.269	200.382
293.161	106.43
296.054	24.788
298.947	14.9974
301.839	19.4638
304.732	14.841
307.625	46.6176
310.517	90.9942
313.41	161.469
316.303	192.153
319.195	142.336
322.088	111.78
324.981	48.8332
327.874	34.2812
330.766	47.7472
333.659	21.0614
336.552	16.777
339.444	11.1164
342.337	11.9712
345.23	2.66185
348.123	0.258881
351.015	1.27097
353.908	5.01556
356.801	7.70706
359.693	2.10884
362.586	7.65256
365.479	4.46614
368.371	18.1121
371.264	21.6236
374.157	36.6565
377.05	42.1192
379.942	73.9939
382.835	93.9834
385.728	109.648
388.62	133.075
391.513	155.372
394.406	145.9
397.298	101.812
400.191	100.237
403.084	92.2539
405.976	81.0385
408.869	84.2667
411.762	97.7513
414.655	100.337
417.547	110.594
420.44	91.2353
423.333	47.2328
426.225	61.0004
429.118	80.5818
432.011	53.4084
434.904	47.9417
437.796	50.4299
440.689	30.803
443.582	57.9792
446.474	91.854
449.367	125.79
452.26	214.688
455.152	273.904
458.045	372.558
460.938	410.088
463.83	380.298
466.723	340.217
469.616	252.009
472.509	145.893
475.401	99.6501
478.294	40.2789
481.187	2.50922
484.079	9.26834
486.972	19.8144
489.865	14.2111
492.757	6.89383
495.65	23.9271
498.543	8.21435
501.436	29.1021
504.328	72.1477
507.221	93.7073
510.114	137.772
513.006	189.764
515.899	268.825
518.792	317.003
521.684	407.49
524.577	454.85
527.47	585.718
530.362	669.216
533.255	760.691
536.148	866.129
539.041	964.083
541.933	1015.24
544.826	1012.43
547.719	990.25
550.611	879.093
553.504	769.476
556.397	621.197
559.29	489.55
562.182	394.972
565.075	361.293
567.968	400.144
570.86	522.004
573.753	641.045
576.646	716.527
579.538	635.591
582.431	425.674
585.324	241.36
588.217	130.926
591.109	76.6046
594.002	60.5286
596.895	30.9449
599.787	0.614899
602.68	17.0625
605.573	3.19516
608.466	10.1438
611.358	10.6009
614.251	14.5466
617.144	21.2602
620.036	54.0027
622.929	49.6269
625.822	67.061
628.714	69.7704
631.607	110.663
634.5	107.924
637.393	124.259
640.285	130.998
643.178	112.718
646.071	111.854
648.963	116.195
651.856	84.578
654.749	71.0013
657.641	69.6069
660.534	65.8648
663.427	60.522
666.319	26.5502
669.212	20.2504
672.105	6.84416
674.997	51.6091
677.89	34.219
680.783	37.6784
683.676	15.5303
686.568	31.2708
689.461	24.0677
692.354	27.2713
695.246	24.3145
698.139	36.7882
701.032	28.1582
703.924	20.9622
706.817	47.2133
709.71	45.7203
712.603	35.2044
715.495	31.5358
718.388	20.9208
721.281	15.394
724.173	24.6247
727.066	21.9328
729.959	19.5665
732.851	20.7338
735.744	24.7553
738.637	22.1864
741.53	8.5495
744.422	25.3084
747.315	10.7478
750.208	3.6714
753.1	1.39121
755.993	5.99019
758.886	11.3697
761.779	33.1949
764.671	16.0822
767.564	8.63974
770.457	7.8017
773.349	28.2287
776.242	9.24577
779.135	37.4463
782.027	21.7255
784.92	29.4883
787.813	30.3782
790.706	22.0287
793.598	25.4418
796.491	24.2712
799.384	8.23233
802.276	1.15889
805.169	12.605
808.062	4.04785
810.954	19.1892
813.847	36.8546
816.74	7.34549
819.633	7.40799
822.525	0.880875
825.418	5.59616
828.311	21.9652
831.203	6.56792
834.096	14.1318
836.989	28.8232
839.881	22.5188
842.774	30.3791
845.667	10.7569
848.559	31.0189
851.452	39.5566
854.345	37.8798
857.237	48.3633
860.13	27.7941
863.023	25.0109
865.916	26.4298
868.808	33.8317
871.701	6.80756
874.594	47.257
877.486	7.7587
880.379	3.88551
883.272	0.312759
886.165	6.07173
889.057	14.8064
891.95	4.47964
894.843	13.0086
897.735	15.3573
900.628	2.96103
903.521	12.0627
906.413	17.7496
909.306	17.761
912.199	20.5367
915.092	36.6748
917.984	59.1839
920.877	77.7647
923.77	121.105
926.662	160.435
929.555	199.105
932.448	295.911
935.341	412.933
938.233	569.565
941.126	811.907
944.019	1175.58
946.911	1710.71
949.804	2497.32
952.697	3282.33
955.589	3611.34
958.482	3132.35
961.375	2251.94
964.268	1466.6
967.16	929.519
970.053	581.545
972.946	405.032
975.838	312.522
978.731	184.464
981.624	144.015
984.516	95.3227
987.409	44.2239
990.302	3.83005
993.194	9.60001
996.087	8.4527
998.98	14.1931
1001.87	24.429
1004.76	14.8268
1007.66	25.4706
1010.55	9.07858
1013.44	18.4182
1016.34	20.9745
1019.23	4.77753
1022.12	2.22263
1025.01	6.55527
1027.91	11.3376
1030.8	35.6227
1033.69	43.3946
1036.59	86.8642
1039.48	112.403
1042.37	151.196
1045.26	246.971
1048.16	342.196
1051.05	483.744
1053.94	764.227
1056.83	1054.41
1059.73	1171.82
1062.62	908.23
1065.51	528.662
1068.4	293.6
1071.3	155.048
1074.19	101.806
1077.08	51.0614
1079.97	36.9145
1082.87	27.3376
1085.76	22.0414
1088.65	5.59233
1091.55	0.666794
1094.44	8.18086
1097.33	19.1082
1100.22	4.0352
1103.12	8.11166
1106.01	22.9414
1108.9	15.5163
1111.8	15.3154
1114.69	18.511
1117.58	8.81114
1120.47	16.8958
1123.37	23.8703
1126.26	23.8634
1129.15	21.5063
1132.04	10.8405
1134.94	34.2057
1137.83	20.9175
1140.72	22.1404
1143.62	25.9924
1146.51	17.4222
1149.4	8.239
1152.29	17.6614
1155.19	25.553
1158.08	39.7936
1160.97	24.7388
1163.86	16.6876
1166.76	23.7383
1169.65	31.3111
1172.54	29.9824
1175.43	27.0984
1178.33	38.306
1181.22	27.7072
1184.11	42.1311
1187.01	15.7652
1189.9	26.7822
1192.79	27.3197
1195.68	25.4416
1198.58	13.0504
1201.47	24.7473
1204.36	3.89389
1207.25	7.37254
1210.15	7.84639
1213.04	13.2217
1215.93	35.7991
1218.83	39.624
1221.72	38.9499
1224.61	42.6399
1227.5	15.3186
1230.4	20.0418
1233.29	6.11784
1236.18	19.5757
1239.07	5.17804
1241.97	16.5602
1244.86	51.1297
1247.75	16.724
