Measurement: Raman, 785 nm, unoriented, Raman Data Processed
Mineral: Bariopharmacosiderite
Rruff sample: R060571
Ideal chemistry: Ba_0.5_Fe^3+^_4_(As^5+^O_4_)_3_(OH)_4_5H_2_O
Locality: Barrus mine, Pyramid District, Washoe County, Nevada, USA
Source: Michael Scott
Description: Colorless transparent distorted cubes.
Raman shift (cm-1)	intensity
153.347	0
156.24	95.299
159.133	44.937
162.025	21.604
164.918	69.743
167.811	125.666
170.703	143.714
173.596	144.759
176.489	109.165
179.381	179.425
182.274	103.419
185.167	115.628
188.059	170.805
190.952	222.812
193.845	116.237
196.738	180.558
199.63	218.591
202.523	191.715
205.416	186.397
208.308	97.048
211.201	66.629
214.094	46.404
216.986	19.521
219.879	42.722
222.772	34.325
225.665	19.949
228.557	22.331
231.45	27.665
234.343	37.219
237.236	52.674
240.128	35.291
243.021	47.846
245.914	15.653
248.806	90.296
251.699	78.111
254.592	135.567
257.484	89.152
260.377	147.583
263.27	164.677
266.163	230.08
269.055	273.53
271.948	251.88
274.841	201.103
277.733	253.36
280.626	228.752
283.519	195.096
286.411	177.502
289.304	160.464
292.197	140.991
295.09	259.477
297.982	399.566
300.875	505.806
303.768	761.768
306.66	919.767
309.553	1093.84
312.446	1160.03
315.338	1031.21
318.231	775.72
321.124	575.18
324.017	375.604
326.909	204.942
329.802	145.705
332.695	159.541
335.587	141.296
338.48	39.713
341.373	85
344.265	35.695
347.158	9.688
350.051	43.786
352.944	25.469
355.836	4.239
358.729	39.455
361.622	55.203
364.514	11.857
367.407	30.399
370.3	12.609
373.193	18.817
376.085	33.082
378.978	36.654
381.871	45.657
384.763	38.006
387.656	4.716
390.549	42.996
393.441	0.014
396.334	6.557
399.227	11.552
402.12	29.742
405.012	28.684
407.905	46.062
410.798	5
413.69	57.014
416.583	49.466
419.476	48.131
422.368	37.646
425.261	46.266
428.154	13.527
431.047	1.652
433.939	67.845
436.832	18.461
439.725	10.111
442.617	32.367
445.51	31.721
448.403	26.938
451.295	32.457
454.188	46.909
457.081	61.34
459.974	128.836
462.866	284.361
465.759	363.372
468.652	506.516
471.544	695.416
474.437	966.302
477.33	1277.85
480.222	1620.21
483.115	1975.61
486.008	2300.21
488.901	2513.37
491.793	2740.57
494.686	2598.57
497.579	2426.09
500.471	2198.71
503.364	1906.16
506.257	1654.57
509.15	1359.91
512.042	1169.81
514.935	1040.4
517.828	904.488
520.72	807.931
523.613	836.98
526.506	906.281
529.398	1036.86
532.291	933.66
535.184	558.707
538.076	513.921
540.969	493.286
543.862	396.226
546.755	339.903
549.647	335.251
552.54	335.627
555.433	309.161
558.325	271.839
561.218	295.818
564.111	255.709
567.003	263.676
569.896	154.669
572.789	227.324
575.682	172.344
578.574	103.239
581.467	76.702
584.36	15.068
587.252	21.313
590.145	1.602
593.038	35.661
595.93	31.816
598.823	18.565
601.716	0.295
604.609	21.178
607.501	10.431
610.394	8.183
613.287	35.169
616.179	45.238
619.072	28.125
621.965	11.065
624.857	41.606
627.75	43.806
630.643	25.857
633.536	71.812
636.428	47.629
639.321	131.882
642.214	93.621
645.107	122.304
647.999	113.163
650.892	111.039
653.785	117.372
656.677	115.141
659.57	114.392
662.463	165.321
665.355	151.398
668.248	127.713
671.141	123.664
674.034	142.547
676.926	95.61
679.819	111.607
682.712	108.97
685.604	99.331
688.497	77.421
691.39	96.001
694.282	106.399
697.175	131.849
700.068	144.96
702.961	153.489
705.853	155.872
708.746	155.853
711.639	148.368
714.531	135.82
717.424	115.41
720.317	103.848
723.209	85.728
726.102	83.437
728.995	60.97
731.888	11.889
734.78	47.071
737.673	48.79
740.566	26.403
743.458	19.245
746.351	8.966
749.244	5.104
752.136	44.145
755.029	58.857
757.922	36.199
760.815	35.222
763.707	20.095
766.6	46.802
769.493	94.279
772.385	122.088
775.278	254.676
778.171	327.015
781.063	510.505
783.956	711.932
786.849	845.509
789.742	1032.17
792.634	1134.15
795.527	1220.88
798.42	1225.43
801.312	1194.42
804.205	1071.35
807.098	1095.21
809.99	1065.8
812.883	1056.04
815.776	1039.09
818.669	871.098
821.561	761.274
824.454	686.092
827.347	599.794
830.239	516.425
833.132	337.845
836.025	269.168
838.917	259.577
841.81	145.05
844.703	245.351
847.596	389.919
850.488	460.67
853.381	602.224
856.274	748.61
859.166	941.681
862.059	1111.69
864.952	1250.98
867.844	1467.61
870.737	1762.94
873.63	1957.17
876.523	2205.53
879.415	2264.67
882.308	2308.26
885.201	2054.21
888.094	1847.78
890.986	1551.14
893.879	1259.92
896.772	1095.38
899.664	807.097
902.557	691.148
905.45	595.608
908.342	518.632
911.235	441.819
914.128	405.806
917.021	310.206
919.913	277.645
922.806	242.408
925.699	122.153
928.591	55.283
931.484	97.631
934.377	29.645
937.269	1.374
940.162	18.882
943.055	17.668
945.948	10.055
948.84	5.482
951.733	59.474
954.626	0.064
957.518	9.415
960.411	12.05
963.304	43.231
966.196	35.495
969.089	44.695
971.982	87.925
974.875	66.263
977.767	52.727
980.66	125.562
983.553	124.563
986.445	109.536
989.338	98.183
992.231	105.182
995.123	124.124
998.016	166.649
1000.91	158.245
1003.8	118.661
1006.69	98.322
1009.59	79.289
1012.48	40.296
1015.37	61.669
1018.26	40.682
1021.16	33.793
1024.05	49.151
1026.94	101.694
1029.84	64.621
1032.73	89.973
1035.62	100.967
1038.51	137.422
1041.41	117.876
1044.3	106.103
1047.19	58.346
1050.09	81.598
1052.98	31.441
1055.87	100.445
1058.76	120.326
1061.66	74.275
1064.55	45.875
1067.44	58.345
1070.33	90.359
1073.23	30.285
1076.12	71.619
1079.01	65.871
1081.9	50.69
1084.8	1.747
1087.69	49.155
1090.58	12.525
1093.47	17.459
1096.37	68.426
1099.26	53.659
1102.15	0.229
1105.05	37.987
1107.94	40.371
1110.83	28.207
1113.72	30.23
1116.62	17.369
1119.51	35.234
1122.4	31.885
1125.3	28.165
1128.19	3.339
1131.08	32.603
1133.97	30.347
1136.87	44.492
1139.76	4.263
1142.65	21.742
1145.54	54.602
1148.44	34.046
1151.33	56.923
1154.22	50.613
1157.12	47.39
1160.01	47.369
1162.9	48.844
1165.79	46.693
1168.69	41.664
1171.58	40.981
1174.47	41.778
1177.36	43.662
1180.26	38.263
1183.15	50.551
1186.04	10.681
1188.93	40.639
1191.83	40.468
1194.72	40.104
1197.61	5.129
1200.51	9.325
1203.4	45.447
1206.29	38.833
1209.18	28.902
1212.08	24.844
1214.97	40.37
1217.86	26.892
1220.75	10.598
1223.65	36.769
1226.54	15.038
1229.43	23.995
1232.33	7.483
1235.22	40.236
1238.11	49.611
1241	28.605
1243.9	28.111
1246.79	34.755
1249.68	43.13
1252.57	3.257
1255.47	55.987
1258.36	42.287
1261.25	26.195
1264.14	18.301
1267.04	3.713
1269.93	63.431
1272.82	0
