Measurement: Raman, 532 nm, unoriented, Raman Data Processed
Mineral: Baricite
Rruff sample: R061045
Ideal chemistry: Mg_3_(PO_4_)_2_8H_2_O
Locality: Rapid Creek, Yukon, Canada
Source: Michael Scott
Description: Bluish-gray translucent fragment
Measured chemistry: (Mg_1.66_Fe_1.33_Mn_0.01_)_Σ=3_(P_1.00_O_4_)_2_·8H_2_O; H_2_O estimated by difference
Raman shift (cm-1)	intensity
124.415	0
127.308	72.4129
130.2	222.153
133.093	499.017
135.986	873.14
138.878	551.486
141.771	175.994
144.664	23.924
147.556	10.2246
150.449	57.9896
153.342	81.8257
156.234	111.499
159.127	372.047
162.02	671.951
164.913	1059.06
167.805	1586.44
170.698	2170.73
173.591	2299.34
176.483	1517.82
179.376	809.654
182.269	481.521
185.161	364.205
188.054	540.541
190.947	897.256
193.84	1566.15
196.732	2665.32
199.625	3993.42
202.518	5352.19
205.41	5746.53
208.303	4932.72
211.196	3832.59
214.089	3093.9
216.981	2522.51
219.874	2158.47
222.767	1872.8
225.659	1538.54
228.552	1285.42
231.445	1143.45
234.337	1035.2
237.23	1038.86
240.123	1222.72
243.016	1483.78
245.908	1706.94
248.801	1509.49
251.694	1385.35
254.586	1276
257.479	1281.29
260.372	1380.54
263.264	1496.58
266.157	1458.83
269.05	1293.76
271.942	1111.81
274.835	951.964
277.728	837.782
280.62	765.742
283.513	652.145
286.406	505.885
289.299	294.437
292.191	123.372
295.084	0.724854
297.977	99.0852
300.869	85.7433
303.762	78.2445
306.655	16.1071
309.548	69.21
312.44	159.893
315.333	254.326
318.226	238.043
321.118	212.423
324.011	174.245
326.904	197.906
329.796	183.798
332.689	201.554
335.582	233.647
338.474	228.469
341.367	278.515
344.26	257.64
347.153	208.949
350.045	147.787
352.938	110.681
355.831	62.3178
358.723	22.9807
361.616	22.9044
364.509	27.1579
367.401	19.1217
370.294	2.82184
373.187	10.9034
376.08	58.5493
378.972	69.8731
381.865	156.805
384.758	216.451
387.65	273.841
390.543	295.72
393.436	288.669
396.329	225.978
399.221	171.549
402.114	151.672
405.007	146.441
407.899	184.089
410.792	243.007
413.685	274.376
416.577	284.725
419.47	240.686
422.363	221.052
425.255	245.46
428.148	235.005
431.041	268.322
433.934	301.453
436.826	306.4
439.719	360.462
442.612	433.131
445.504	634.419
448.397	927.161
451.29	1287.56
454.183	1727
457.075	2199.51
459.968	2533.73
462.861	2506.51
465.753	2186.06
468.646	1714.22
471.539	1156.98
474.431	705.52
477.324	382.083
480.217	170.58
483.11	67.6738
486.002	20.9127
488.895	27.5325
491.788	43.6188
494.68	32.8279
497.573	6.35278
500.466	40.3618
503.358	75.8279
506.251	196.815
509.144	260.268
512.036	405.836
514.929	554.205
517.822	703.117
520.715	926.162
523.607	1171.06
526.5	1465
529.393	1727.97
532.285	1998.78
535.178	2335.12
538.071	2599.75
540.963	2873.55
543.856	3055.09
546.749	3058.29
549.641	2859.98
552.534	2551.23
555.427	2125
558.32	1771.52
561.212	1412.68
564.105	1192.66
566.998	1064.14
569.89	1114.4
572.783	1253.4
575.676	1351.65
578.568	1283.22
581.461	961.654
584.354	590.692
587.247	356.565
590.139	187.696
593.032	80.0082
595.925	44.1279
598.817	1.21551
601.71	16.4341
604.603	25.7394
607.495	5.01154
610.388	13.4143
613.281	44.3908
616.174	40.397
619.066	105.458
621.959	172.094
624.852	230.372
627.744	326.804
630.637	367.221
633.53	404.85
636.423	412.673
639.315	443.812
642.208	423.883
645.101	390.093
647.993	329.905
650.886	314.503
653.779	235.4
656.671	191.889
659.564	167.253
662.457	112.125
665.35	96.9595
668.242	58.7604
671.135	40.3988
674.028	12.2177
676.92	8.42548
679.813	21.6683
682.706	27.8538
685.598	23.4599
688.491	39.9352
691.384	45.9882
694.276	64.7413
697.169	79.2335
700.062	55.4996
702.955	61.6101
705.847	69.7114
708.74	81.0253
711.633	51.6168
714.525	66.0518
717.418	40.8456
720.311	65.1414
723.203	43.4194
726.096	39.788
728.989	8.30963
731.881	8.53516
734.774	0.874512
737.667	2.91309
740.56	5.4989
743.452	0.155884
746.345	7.62341
749.238	44.0257
752.13	34.1824
755.023	46.4067
757.916	89.128
760.808	71.8252
763.701	78.9972
766.594	82.3008
769.487	91.0135
772.379	111.635
775.272	101.605
778.165	117.665
781.057	94.5602
783.95	98.8417
786.843	86.925
789.736	81.1585
792.628	67.9616
795.521	29.5713
798.414	0.96582
801.306	8.69739
804.199	33.8672
807.092	0.688721
809.984	22.5602
812.877	19.0942
815.77	4.57983
818.663	18.2288
821.555	5.67615
824.448	61.99
827.341	74.4354
830.233	102.794
833.126	150.872
836.019	185.009
838.911	258.966
841.804	313.125
844.697	418.308
847.59	504.396
850.482	537.021
853.375	630.795
856.268	714.091
859.16	749.111
862.053	824.313
864.946	787.867
867.838	778.032
870.731	697.199
873.624	599.487
876.516	551.876
879.409	422.429
882.302	342.204
885.195	285.856
888.087	190.238
890.98	149.49
893.873	84.5897
896.765	56.4343
899.658	1.10498
902.551	9.24475
905.443	24.437
908.336	38.7588
911.229	111.037
914.121	192.621
917.014	285.84
919.907	419.573
922.8	576.494
925.692	836.412
928.585	1102.16
931.478	1566.31
934.37	2128.6
937.263	2982.26
940.156	4159.24
943.048	5888
945.941	8207.5
948.834	11266.8
951.727	14736.9
954.619	17160.6
957.512	16088.7
960.405	11983.7
963.297	7707.37
966.19	4792.4
969.083	3001.46
971.976	1946.05
974.868	1353.35
977.761	908.513
980.654	602.982
983.546	394.87
986.439	227.657
989.332	125.292
992.224	68.8754
995.117	57.0287
998.01	34.7714
1000.9	25.0107
1003.79	19.6345
1006.69	33.3046
1009.58	51.7521
1012.47	27.4296
1015.37	2.84827
1018.26	38.0707
1021.15	50.4438
1024.04	97.0565
1026.94	153.273
1029.83	206.902
1032.72	234.12
1035.62	256.689
1038.51	315.024
1041.4	428.899
1044.29	560.815
1047.19	750.962
1050.08	1098.63
1052.97	1564.16
1055.86	2163.99
1058.76	2615.96
1061.65	2434.22
1064.54	1644.63
1067.43	919.091
1070.33	501.926
1073.22	320.266
1076.11	187.514
1079.01	110.311
1081.9	89.338
1084.79	62.9229
1087.68	49.0506
1090.58	37.1827
1093.47	18.857
1096.36	16.8189
1099.25	28.319
1102.15	22.9703
1105.04	28.8408
1107.93	37.1897
1110.83	10.1718
1113.72	19.6364
1116.61	12.853
1119.5	10.9462
1122.4	8.7063
1125.29	21.905
1128.18	30.4197
1131.07	4.48004
1133.97	11.3777
1136.86	11.7127
1139.75	35.4124
1142.64	52.2106
1145.54	35.4037
1148.43	43.7612
1151.32	48.0902
1154.22	64.5856
1157.11	70.771
1160	32.1267
1162.89	66.3854
1165.79	56.5078
1168.68	42.5175
1171.57	57.4001
1174.46	51.1035
1177.36	28.0486
1180.25	40.3125
1183.14	46.865
1186.04	28.792
1188.93	21.5584
1191.82	19.17
1194.71	21.1151
1197.61	27.1204
1200.5	31.6695
1203.39	30.493
1206.28	43.6596
1209.18	15.744
1212.07	0.709473
1214.96	27.2411
1217.86	16.576
1220.75	12.3636
1223.64	21.3172
1226.53	13.8229
1229.43	23.2192
1232.32	14.3704
1235.21	31.5421
1238.1	33.3778
1241	1.71503
1243.89	5.21954
1246.78	29.8548
1249.67	22.9972
1252.57	32.8136
1255.46	9.69049
1258.35	25.9185
1261.24	14.2459
1264.14	17.5032
1267.03	1.578
1269.92	11.3517
1272.82	7.76581
1275.71	0
