Measurement: Raman, 514 nm, unoriented, Raman Data Processed
Mineral: Barrerite
Rruff sample: R050135
Ideal chemistry: Na_2_(Al_2_Si_7_)O_18_6H_2_O
Locality: Kuiu Island, Alaska, USA
Source: Ben Norton
Description: Colorless laminar crystals
Measured chemistry: (Na_4.49_K_1.30_Ca_1.23_[box]_0.98_)_Σ=8_(Si_27.75_Al_8.25_)O_72_·19H_2_O
Raman shift (cm-1)	intensity
186.251	0
190.387	0.184
194.52	207.436
198.652	223.166
202.782	424.412
206.909	582.793
211.035	184.898
215.159	82.822
219.281	193.393
223.4	223.816
227.518	356.818
231.634	368.838
235.748	310.32
239.86	457.004
243.97	347.824
248.079	914.646
252.185	762.23
256.289	922.332
260.391	971.756
264.492	1316.34
268.59	1614.95
272.687	2002.28
276.781	2586.05
280.874	2775.18
284.964	2263.98
289.053	2185.12
293.14	1843.78
297.225	1769.32
301.308	1363.99
305.389	1165.42
309.468	1115.23
313.545	831.258
317.62	728.486
321.693	849.91
325.765	597.516
329.834	780.281
333.902	709.191
337.967	907.223
342.031	845.359
346.093	772.586
350.153	962.018
354.21	791.059
358.267	1035.42
362.321	1593.08
366.373	1994.39
370.423	2436.21
374.471	3250.11
378.518	4533.03
382.563	5673.59
386.605	7026.18
390.646	9063.1
394.685	11978
398.722	16129.1
402.757	21893.5
406.79	26735.2
410.821	28822.8
414.851	25018.5
418.878	19136.5
422.904	14722.8
426.927	11390.7
430.949	8857.92
434.969	7437.83
438.987	6851.81
443.003	6015.85
447.018	6610.94
451.03	7456.06
455.041	8796.17
459.049	9303.25
463.056	8019.27
467.061	6046.25
471.064	4307.14
475.065	3209.95
479.064	3641.66
483.062	4041.27
487.057	5753.77
491.051	8909.15
495.043	13137.4
499.032	12108.6
503.02	7411.82
507.007	4130.68
510.991	2150.91
514.973	1391.15
518.954	902.434
522.933	472.227
526.91	215.215
530.885	134.727
534.858	88.365
538.829	78.213
542.799	150.754
546.766	98.699
550.732	28.896
554.696	136.484
558.658	5.938
562.618	16.188
566.576	148.877
570.533	98.117
574.488	198.018
578.44	30.84
582.391	31.186
586.341	209.66
590.288	510.164
594.233	536.004
598.177	854.541
602.119	1190.33
606.059	1661.65
609.997	1845.25
613.933	2295.35
617.868	2227.17
621.801	1959.62
625.731	2187.69
629.66	1835.36
633.588	1357.69
637.513	1307.62
641.437	1239.14
645.358	744.258
649.278	551.033
653.196	751.49
657.113	303.527
661.027	424.133
664.94	337.506
668.851	194.562
672.76	59.979
676.667	109.072
680.572	128.633
684.476	290.289
688.378	86.752
692.278	126.166
696.176	3.387
700.072	212.084
703.967	107.104
707.86	250.668
711.751	45.529
715.64	977.688
719.527	574.408
723.413	349.002
727.297	546.545
731.179	458.387
735.059	265.055
738.937	386.232
742.814	267.67
746.689	447.359
750.562	223.113
754.433	353.854
758.303	560.955
762.17	396.568
766.036	386.16
769.901	739.973
773.763	698.164
777.624	678.857
781.482	837.617
785.339	1072.46
789.195	1025.96
793.048	897.023
796.9	889.691
800.75	760.508
804.598	919.199
808.445	867.957
812.289	578.803
816.132	287.551
819.973	427.896
823.813	426.082
827.65	128.74
831.486	396.939
835.32	6.525
839.152	149.768
842.983	179.852
846.812	56.773
850.639	140.824
854.464	76.744
858.288	244.652
862.11	101.426
865.93	100.889
869.748	156.846
873.564	61.791
877.379	621.664
881.192	69.83
885.004	224.367
888.813	214.281
892.621	249.648
896.427	174.77
900.232	94.721
904.034	350.092
907.835	244.291
911.634	144.152
915.432	281.992
919.227	238.117
923.021	138.023
926.813	16.178
930.604	398.504
934.393	160.111
938.18	293.629
941.965	318.051
945.749	223.412
949.53	92.701
953.311	77.076
957.089	124.846
960.866	197.623
964.641	280.691
968.414	274.859
972.185	118.498
975.955	259.723
979.723	401.332
983.49	587.402
987.254	483.32
991.017	484.898
994.779	603.859
998.538	734.914
1002.3	223.105
1006.05	623.211
1009.81	829.965
1013.56	797.75
1017.31	764.52
1021.06	783.953
1024.81	946.746
1028.55	767.445
1032.3	737.387
1036.04	917.211
1039.78	978.176
1043.52	887.609
1047.26	815.113
1050.99	928.336
1054.73	1028.73
1058.46	924.258
1062.19	857.141
1065.92	996.086
1069.65	529.352
1073.37	731.215
1077.1	698.988
1080.82	1105.27
1084.54	1364.95
1088.26	1230.26
1091.97	1371.56
1095.69	1959.43
1099.4	1734.45
1103.12	2157.8
1106.83	1771.36
1110.54	2272.98
1114.24	2512.7
1117.95	2524.27
1121.65	2735.88
1125.35	2575.35
1129.06	2649.19
1132.75	3001.62
1136.45	2747.08
1140.15	2992.75
1143.84	2980.19
1147.53	3097.45
1151.22	3152.68
1154.91	2854.26
1158.6	2992.63
1162.28	2893.68
1165.97	2904.6
1169.65	2252.82
1173.33	2168.72
1177.01	1925.02
1180.69	1138.98
1184.36	1248.09
1188.04	1173.95
1191.71	836.641
1195.38	628.141
1199.05	499.117
1202.71	767.367
1206.38	455.488
1210.04	291.574
1213.71	598.203
1217.37	209.664
1221.03	311.184
1224.68	208.848
1228.34	52.828
1231.99	345.207
1235.65	157.152
1239.3	114.031
1242.95	277.262
1246.59	405.477
1250.24	385.207
1253.88	337.52
1257.53	205.074
1261.17	76.34
1264.81	426.621
1268.45	168.66
1272.08	238.969
1275.72	64.836
1279.35	376.812
1282.98	47.996
1286.61	142.438
1290.24	155.914
1293.87	30.023
1297.49	258.938
1301.11	71.441
1304.73	59.289
1308.36	201.566
1311.97	34.199
1315.59	79.531
1319.2	85.77
1322.82	297.188
1326.43	178.508
1330.04	15.91
1333.65	47.602
1337.26	23.816
1340.86	109.914
1344.47	148.047
1348.07	466.254
1351.67	361.684
1355.27	591.273
1358.87	490.078
1362.46	425.676
1366.06	367.301
1369.65	441.027
1373.24	530.652
1376.83	486.469
1380.42	613.516
1384	653.785
1387.59	361.664
1391.17	613.309
1394.75	841.152
1398.33	612.215
1401.91	610.5
1405.49	459.148
1409.06	337.496
1412.64	580.449
1416.21	341.648
1419.78	495.148
1423.35	172.453
1426.91	300.035
1430.48	386.18
1434.05	396.844
1437.61	279.828
1441.17	511.371
1444.73	569.5
1448.29	257.281
1451.84	727.547
1455.4	819.148
1458.95	575.605
1462.5	195.598
1466.05	99.828
1469.6	237.004
1473.15	125.871
1476.69	204.422
1480.24	7.18
1483.78	440.277
1487.32	74.465
1490.86	0
