Measurement: Raman, 532 nm, unoriented, Raman Data Processed
Mineral: Barrerite
Rruff sample: R050135
Ideal chemistry: Na_2_(Al_2_Si_7_)O_18_6H_2_O
Locality: Kuiu Island, Alaska, USA
Source: Ben Norton
Description: Colorless laminar crystals
Measured chemistry: (Na_4.49_K_1.30_Ca_1.23_[box]_0.98_)_Σ=8_(Si_27.75_Al_8.25_)O_72_·19H_2_O
Raman shift (cm-1)	intensity
191.272	0
194.165	2.05431
197.058	1.50012
199.95	2.14485
202.843	1.44161
205.736	1.29504
208.629	0.764252
211.521	1.56724
214.414	0.918762
217.307	1.59201
220.199	0.370407
223.092	0.433212
225.985	1.02855
228.877	0.133179
231.77	0.898453
234.663	0.836197
237.555	2.20395
240.448	1.46782
243.341	4.55148
246.234	5.78339
249.126	7.19926
252.019	9.39223
254.912	11.4507
257.804	12.3464
260.697	13.8585
263.59	15.5184
266.483	17.798
269.375	19.9758
272.268	21.9514
275.161	25.265
278.053	28.5555
280.946	27.2444
283.839	28.1002
286.731	27.959
289.624	27.7708
292.517	25.8815
295.409	25.598
298.302	23.9085
301.195	22.3542
304.088	19.7949
306.98	20.6169
309.873	20.7418
312.766	21.3187
315.658	19.6658
318.551	19.3244
321.444	15.627
324.337	12.3395
327.229	11.2759
330.122	8.15956
333.015	6.06133
335.907	2.2475
338.8	0.212433
341.693	3.14319
344.585	2.91351
347.478	2.95602
350.371	5.35196
353.264	3.24226
356.156	1.46526
359.049	3.5836
361.942	8.21187
364.834	12.7249
367.727	23.8418
370.62	34.0285
373.512	48.7321
376.405	60.7493
379.298	76.563
382.19	95.0173
385.083	114.46
387.976	139.406
390.869	169.577
393.761	213.339
396.654	262.801
399.547	313.586
402.439	368.988
405.332	420.402
408.225	448.883
411.118	438.273
414.01	396.249
416.903	332.22
419.796	267.482
422.688	210.23
425.581	163.669
428.474	124.847
431.366	94.8342
434.259	69.3001
437.152	52.4993
440.044	43.1086
442.937	35.5812
445.83	33.9205
448.723	36.7184
451.615	41.7811
454.508	50.367
457.401	56.6301
460.293	56.4723
463.186	51.7887
466.079	36.8518
468.971	23.2548
471.864	17.5542
474.757	17.7809
477.649	28.1509
480.542	45.1063
483.435	71.8888
486.328	110.831
489.22	155.712
492.113	213.162
495.006	264.46
497.898	276.086
500.791	226.687
503.684	150.695
506.577	89.6288
509.469	49.7641
512.362	27.2456
515.255	13.858
518.147	5.80547
521.04	0.113731
523.933	0.878319
526.825	1.50449
529.718	3.18929
532.611	3.49442
535.504	1.92483
538.396	2.37241
541.289	1.19959
544.182	1.3318
547.074	0.41922
549.967	0.529301
552.86	2.71014
555.752	4.91952
558.645	5.0429
561.538	5.25826
564.431	7.93672
567.323	9.42989
570.216	10.5454
573.109	11.516
576.001	13.3332
578.894	13.6987
581.787	16.2289
584.679	19.2313
587.572	21.1926
590.465	20.8166
593.357	21.3636
596.25	23.0129
599.143	27.6566
602.036	28.8481
604.928	32.8304
607.821	36.0608
610.714	37.9878
613.606	41.7624
616.499	42.5818
619.392	42.1167
622.284	42.3463
625.177	38.7259
628.07	37.0785
630.963	32.7154
633.855	28.659
636.748	26.1927
639.641	23.1366
642.533	20.6755
645.426	15.9799
648.319	13.7301
651.212	10.7941
654.104	9.64204
656.997	7.82353
659.89	6.21978
662.782	4.97716
665.675	3.33231
668.568	2.55396
671.46	1.22846
674.353	1.35683
677.246	0.223057
680.139	0.131149
683.031	0.163395
685.924	0.10257
688.817	0.069592
691.709	0.746994
694.602	0.142807
697.495	0.243378
700.387	0.560081
703.28	0.349522
706.173	0.586914
709.066	0.662689
711.958	1.55482
714.851	1.90718
717.744	2.08601
720.636	2.22854
723.529	2.4841
726.422	2.43689
729.314	1.9417
732.207	3.1116
735.1	2.41981
737.992	3.48384
740.885	2.87765
743.778	2.37499
746.671	3.78962
749.563	4.36365
752.456	6.07686
755.349	6.38622
758.241	8.89346
761.134	10.0903
764.027	10.9963
766.919	14.1407
769.812	16.6395
772.705	19.2437
775.598	21.3382
778.49	24.8717
781.383	28.0815
784.276	32.6859
787.168	35.9597
790.061	39.044
792.954	41.1979
795.846	40.4285
798.739	41.392
801.632	40.7817
804.524	38.7593
807.417	35.3064
810.31	27.8215
813.203	21.0236
816.095	14.2962
818.988	8.64365
821.881	5.71313
824.773	3.60873
827.666	2.26962
830.559	0.817612
833.452	0.795036
836.344	0.627399
839.237	0.989975
842.13	0.69894
845.022	1.79124
847.915	0.16721
850.808	0.396122
853.7	0.204784
856.593	0.485283
859.486	0.567406
862.379	0.015129
865.271	0.12949
868.164	0.528477
871.057	0.510883
873.949	0.549988
876.842	0.942924
879.735	0.956228
882.627	1.17103
885.52	1.35923
888.413	1.15998
891.306	1.97873
894.198	1.98194
897.091	2.19375
899.984	1.33255
902.876	1.65237
905.769	2.72565
908.662	1.92905
911.554	2.09036
914.447	1.80521
917.34	2.31153
920.232	2.06841
923.125	2.02928
926.018	2.10401
928.911	1.65899
931.803	1.39865
934.696	0.868359
937.589	1.35237
940.481	0.975374
943.374	1.10112
946.267	1.02614
949.159	1.5435
952.052	0.151649
954.945	0.387749
957.838	0.146851
960.73	0.458467
963.623	0.34437
966.516	0.141867
969.408	0.002258
972.301	0.268976
975.194	0.521372
978.087	0.133688
980.979	1.02575
983.872	0.852837
986.765	1.59504
989.657	2.86102
992.55	2.77356
995.443	2.33025
998.335	2.8535
1001.23	4.27467
1004.12	3.8684
1007.01	3.93612
1009.91	5.6566
1012.8	6.03988
1015.69	6.10465
1018.58	5.79423
1021.48	5.75867
1024.37	6.74188
1027.26	6.29542
1030.15	7.12392
1033.05	5.83048
1035.94	5.26757
1038.83	5.15217
1041.73	5.18565
1044.62	4.94649
1047.51	4.21724
1050.4	1.66924
1053.3	2.16653
1056.19	1.55289
1059.08	1.26466
1061.97	0.926159
1064.87	0.413578
1067.76	1.2929
1070.65	0.867317
1073.55	0.917736
1076.44	0.826908
1079.33	1.31551
1082.22	3.16885
1085.12	5.27744
1088.01	8.89265
1090.9	10.1351
1093.79	12.9715
1096.69	14.564
1099.58	16.9546
1102.47	20.3788
1105.37	21.2994
1108.26	23.762
1111.15	26.45
1114.04	28.0088
1116.94	30.0981
1119.83	30.2442
1122.72	32.594
1125.61	34.194
1128.51	32.8474
1131.4	34.0627
1134.29	33.9101
1137.18	34.6204
1140.08	33.7608
1142.97	33.9774
1145.86	32.4867
1148.76	31.7107
1151.65	31.9222
1154.54	29.3238
1157.43	28.3137
1160.33	27.1809
1163.22	24.9953
1166.11	22.1278
1169.01	19.9394
1171.9	15.9274
1174.79	14.1088
1177.68	12.9476
1180.58	10.0081
1183.47	8.17433
1186.36	6.74695
1189.25	5.41291
1192.15	4.36184
1195.04	2.90705
1197.93	1.61485
1200.82	2.36288
1203.72	1.75268
1206.61	0.464869
1209.5	0.068316
1212.39	0.488289
1215.29	0.300171
1218.18	0.209003
1221.07	0.775303
1223.97	0.032789
1226.86	0.226946
1229.75	0.421812
1232.64	0.123817
1235.54	0.207438
1238.43	0.123297
1241.32	0.531874
1244.21	0.717655
1247.11	2.72457
1250	2.14119
1252.89	2.90589
1255.79	3.22924
1258.68	2.3792
1261.57	1.79112
1264.46	1.85807
1267.36	1.7872
1270.25	1.15167
1273.14	0.983177
1276.04	1.44575
1278.93	1.56604
1281.82	0.974239
1284.71	0.973621
1287.61	0.489931
1290.5	1.02676
1293.39	0.450926
