Measurement: Raman, 532 nm, unoriented, Raman Data Processed
Mineral: Bartelkeite
Rruff sample: R070114
Ideal chemistry: PbFeGe(Ge_2_O_7_)(OH)_2_H_2_O
Locality: Tsumeb mine, Tsumeb, Otavi District, Oshikoto, Namibia
Source: William W. Pinch
Description: Pistachio green crystals in vug associated with pale yellow prismatic mimetite crystals.
Measured chemistry: Pb_0.97_(Fe^+2^_0.94_Zn_0.01_)_Σ=0.95_^VI^Ge_1.00_^IV^(Ge_1.81_As_0.16_Si_0.01_S_0.01_)_Σ=1.99_O_7_[(OH)_1.94_Cl_0.04_]_Σ=1.98_·1.02H_2_O
Raman shift (cm-1)	intensity
120.772	0
124.147	3.57312
127.522	216.773
130.897	572.104
134.272	1074.42
137.647	1787.76
141.021	1764.62
144.396	1604.03
147.771	1832.12
151.146	2337.14
154.521	2903.42
157.895	3253.83
161.27	3528.78
164.645	3489.52
168.02	2985.72
171.395	2224.95
174.769	1740.93
178.144	1472.71
181.519	1175.94
184.894	900.751
188.269	652.824
191.644	348.202
195.018	61.8657
198.393	4.08368
201.768	31.5388
205.143	14.8149
208.518	256.873
211.893	703.739
215.267	1422.45
218.642	2338
222.017	3465.84
225.392	4603.18
228.767	5624.98
232.141	5849.28
235.516	4976.7
238.891	3800.85
242.266	2223.14
245.641	1241.69
249.015	584.874
252.39	221.286
255.765	99.2202
259.14	32.4331
262.515	116.171
265.889	322.57
269.264	655.466
272.639	1230.22
276.014	1859.32
279.389	2376.12
282.764	2456.11
286.138	1968.85
289.513	1473.86
292.888	1220.3
296.263	1233.08
299.638	1362.09
303.012	1234.8
306.387	793.145
309.762	426.55
313.137	297.822
316.512	268.452
319.887	187.416
323.261	205.33
326.636	325.647
330.011	417.301
333.386	339.219
336.761	174.164
340.135	44.7388
343.51	58.0378
346.885	34.7315
350.26	4.54541
353.635	170.473
357.01	458.519
360.384	827.748
363.759	1364.27
367.134	2193.32
370.509	3246.07
373.884	4656.37
377.258	6334.7
380.633	8041.33
384.008	9347.56
387.383	9657.82
390.758	8636.58
394.132	6767.16
397.507	5005.34
400.882	3485.82
404.257	2313.02
407.632	1389.48
411.007	825.948
414.381	380.364
417.756	80.5942
421.131	-26.8361
424.506	22.3015
427.881	70.4374
431.255	-27.0964
434.63	16.8396
438.005	27.3252
441.38	86.7461
444.755	274.176
448.13	551.641
451.504	880.891
454.879	1318.26
458.254	1975.93
461.629	2692.95
465.003	3464.89
468.378	4261.64
471.753	5127.72
475.128	5867.71
478.503	6493.93
481.878	6735.38
485.252	6508.84
488.627	5848.44
492.002	4799.73
495.377	3907.97
498.752	3137.71
502.127	2595.23
505.501	2095.86
508.876	1845.01
512.251	1918.37
515.626	2369.41
519	3444.62
522.375	5196.43
525.75	7985.38
529.125	12332.4
532.5	18476.8
535.875	25774.5
539.249	32450.8
542.624	34659.9
545.999	29202.5
549.374	19749.6
552.749	12408
556.124	7913.17
559.498	5149.38
562.873	3419.59
566.248	2435.41
569.623	1753.85
572.998	1372.28
576.372	1125.16
579.747	972.91
583.122	736.36
586.497	568.763
589.872	393.952
593.246	273.58
596.621	111.344
599.996	61.6665
603.371	58.1655
606.746	87.0735
610.12	50.897
613.495	100.786
616.87	97.3394
620.245	40.7375
623.62	48.4111
626.995	36.9575
630.369	50.6611
633.744	126.725
637.119	246.697
640.494	397.223
643.869	564.064
647.244	617.538
650.618	682.323
653.993	764.153
657.368	783.091
660.743	834.276
664.117	729.465
667.492	660.008
670.867	535.448
674.242	389.278
677.617	252.789
680.992	166.363
684.366	20.8462
687.741	3.85962
691.116	104.026
694.491	216.183
697.866	207.148
701.24	96.9473
704.615	77.2241
707.99	395.879
711.365	918.406
714.74	1496.6
718.115	2306.54
721.489	3392.1
724.864	4833.79
728.239	6745.17
731.614	9390.2
734.989	13587.9
738.363	19193.5
741.738	26478.9
745.113	34437
748.488	40538.8
751.863	42554.7
755.237	37407.1
758.612	27828.6
761.987	19319.6
765.362	13214.5
768.737	9178.87
772.112	6639
775.486	5008.05
778.861	4009.01
782.236	3611.11
785.611	3636.2
788.986	4030.41
792.361	4864.98
795.735	6009.69
799.11	7453.15
802.485	8926.81
805.86	9640.33
809.235	9841.46
812.609	8726.67
815.984	7057.57
819.359	5481.27
822.734	4054.93
826.109	2938.23
829.483	2089.29
832.858	1430.6
836.233	935.811
839.608	567.568
842.983	283.366
846.357	132.063
849.732	31.9331
853.107	129.174
856.482	140.416
859.857	128.171
863.231	120.044
866.606	77.5996
869.981	64.4131
873.356	16.0425
876.731	2.69507
880.106	51.5012
883.48	131.355
886.855	209.532
890.23	295.769
893.605	420.325
896.98	596.938
900.355	681.477
903.729	721.229
907.104	619.802
910.479	502.489
913.854	418.033
917.229	348.99
920.603	287.398
923.978	264.765
927.353	229.503
930.728	207.694
934.103	199.291
937.477	132.47
940.852	134.601
944.227	139.895
947.602	121
950.977	135.162
954.351	123.657
957.726	112.475
961.101	118.347
964.476	165.478
967.851	135.177
971.226	101.894
974.6	93.5796
977.975	74.9442
981.35	60.0452
984.725	67.954
988.1	26.329
991.475	24.3523
994.849	39.9388
998.224	24.8818
1001.6	63.0259
1004.97	33.8054
1008.35	56.4211
1011.72	35.0052
1015.1	0.72937
1018.47	9.30359
1021.85	41.4168
1025.22	6.61194
1028.6	10.5998
1031.97	19.3558
1035.35	32.6637
1038.72	27.9288
1042.1	5.67322
1045.47	35.2705
1048.85	15.2562
1052.22	26.5004
1055.6	31.2401
1058.97	35.1112
1062.35	71.2543
1065.72	74.9558
1069.1	52.8517
1072.47	87.2559
1075.85	76.0627
1079.22	45.8282
1082.59	45.8503
1085.97	63.5463
1089.34	49.2761
1092.72	18.4054
1096.09	50.2435
1099.47	23.366
1102.84	35.5645
1106.22	15.7449
1109.59	38.7473
1112.97	1.92456
1116.34	17.7135
1119.72	2.08557
1123.09	33.3804
1126.47	6.30774
1129.84	12.6519
1133.22	12.1395
1136.59	4.16626
1139.97	4.64795
1143.34	21.4414
1146.72	18.0216
1150.09	18.6562
1153.47	13.8839
1156.84	34.6959
1160.21	17.9768
1163.59	23.3743
1166.96	16.512
1170.34	33.6554
1173.71	16.8166
1177.09	39.3911
1180.46	32.313
1183.84	34.7554
1187.21	34.6533
1190.59	52.5237
1193.96	46.6144
1197.34	41.974
1200.71	38.2339
1204.09	36.6693
1207.46	37.3882
1210.84	30.167
1214.21	34.1965
1217.59	23.9187
1220.96	39.151
1224.34	0.456421
1227.71	32.5588
1231.09	25.5308
1234.46	18.5399
1237.84	2.84351
1241.21	11.7463
1244.59	33.5842
1247.96	40.5633
1251.34	42.656
1254.71	15.2515
1258.09	26.3508
1261.46	5.84326
1264.83	43.2329
1268.21	29.8713
1271.58	13.028
1274.96	52.8809
1278.33	16.339
1281.71	28.7262
1285.08	16.0008
1288.46	13.7667
1291.83	19.8638
1295.21	17.9602
1298.58	29.1842
1301.96	6.27161
1305.33	0.204224
1308.71	0.00415
