Measurement: Raman, 785 nm, unoriented, Raman Data Processed
Mineral: Bartelkeite
Rruff sample: R070114
Ideal chemistry: PbFeGe(Ge_2_O_7_)(OH)_2_H_2_O
Locality: Tsumeb mine, Tsumeb, Otavi District, Oshikoto, Namibia
Source: William W. Pinch
Description: Pistachio green crystals in vug associated with pale yellow prismatic mimetite crystals.
Measured chemistry: Pb_0.97_(Fe^+2^_0.94_Zn_0.01_)_Σ=0.95_^VI^Ge_1.00_^IV^(Ge_1.81_As_0.16_Si_0.01_S_0.01_)_Σ=1.99_O_7_[(OH)_1.94_Cl_0.04_]_Σ=1.98_·1.02H_2_O
Raman shift (cm-1)	intensity
123.72	0
126.613	3.61786
129.506	70.8934
132.398	147.07
135.291	179.451
138.184	90.3599
141.077	125.96
143.969	227.198
146.862	437.71
149.755	653.841
152.647	738.228
155.54	679.842
158.433	648.407
161.325	723.29
164.218	816.059
167.111	791.303
170.004	601.678
172.896	452.015
175.789	318.374
178.682	252.537
181.574	166.027
184.467	110.186
187.36	83.4416
190.252	49.8868
193.145	19.6514
196.038	56.3881
198.93	10.2001
201.823	71.9509
204.716	118.975
207.609	286.75
210.501	528.052
213.394	756.16
216.287	1128.77
219.179	1541.51
222.072	2010.95
224.965	2441.18
227.857	2849.09
230.75	3043.34
233.643	2873.58
236.536	2421.32
239.428	1816.43
242.321	1234.57
245.214	792.091
248.106	509.002
250.999	285.839
253.892	147.114
256.784	65.8868
259.677	26.027
262.57	51.3346
265.463	100.824
268.355	182.863
271.248	286.606
274.141	390.047
277.033	572.578
279.926	689.722
282.819	751.191
285.712	652.222
288.604	605.71
291.497	377.005
294.39	297.26
297.282	308.488
300.175	325.213
303.068	278.394
305.96	222.817
308.853	115.551
311.746	51.4916
314.639	79.6196
317.531	44.6437
320.424	44.1451
323.317	56.1865
326.209	69.0272
329.102	96.745
331.995	95.9117
334.887	77.8846
337.78	7.25903
340.673	22.3487
343.565	57.2841
346.458	5.35254
349.351	14.5518
352.244	70.1428
355.136	103.397
358.029	222.582
360.922	373.373
363.814	530.798
366.707	777.648
369.6	1089.67
372.493	1517.36
375.385	1893.74
378.278	2427.94
381.171	2839.3
384.063	3183.22
386.956	3365.62
389.849	3145.97
392.741	2677.97
395.634	2125.44
398.527	1638.55
401.419	1223.49
404.312	864.039
407.205	591.395
410.098	373.576
412.99	220.192
415.883	125.651
418.776	71.9633
421.668	20.3401
424.561	30.9526
427.454	39.5835
430.346	33.24
433.239	39.3694
436.132	7.53955
439.024	0.634766
441.917	45.9678
444.81	71.7528
447.703	137.139
450.595	178.445
453.488	272.064
456.381	374.457
459.273	493.353
462.166	653.134
465.059	810.263
467.952	973.601
470.844	1138.41
473.737	1293.78
476.63	1401.58
479.522	1494.12
482.415	1518.19
485.308	1420.45
488.2	1327.04
491.093	1186.45
493.986	997.943
496.878	874.323
499.771	782.769
502.664	652.432
505.557	519.279
508.449	455.337
511.342	464.616
514.235	503.643
517.127	649.006
520.02	952.648
522.913	1362.96
525.806	1972.53
528.698	2871.94
531.591	3998.38
534.484	5328.03
537.376	6664.68
540.269	7857.71
543.162	7962.4
546.054	6792.65
548.947	5023.13
551.84	3483.09
554.732	2377.04
557.625	1650.1
560.518	1150.62
563.411	823.51
566.303	627.31
569.196	457.618
572.089	353.627
574.981	299.666
577.874	249.367
580.767	201.471
583.659	155.187
586.552	107.507
589.445	100.523
592.338	63.6904
595.23	27.2485
598.123	21.1277
601.016	7.24213
603.908	3.73321
606.801	4.31854
609.694	32.6717
612.587	36.7255
615.479	56.355
618.372	22.9171
621.265	7.16852
624.157	0.072144
627.05	11.76
629.943	30.2553
632.835	29.5415
635.728	56.4102
638.621	68.3456
641.514	115.601
644.406	120.179
647.299	126.202
650.192	138.522
653.084	153.908
655.977	158.818
658.87	166.847
661.762	152.393
664.655	144.95
667.548	130.516
670.441	89.8577
673.333	47.2803
676.226	49.8933
679.119	52.6912
682.011	10.5297
684.904	1.01691
687.797	5.28345
690.689	17.0096
693.582	39.7666
696.475	32.8761
699.367	21.5118
702.26	0.070068
705.153	17.1998
708.046	102.444
710.938	170.393
713.831	306.832
716.724	443.378
719.616	661.412
722.509	860.816
725.402	1175.91
728.294	1533.08
731.187	2022.21
734.08	2743.23
736.973	3596.8
739.865	4781
742.758	5930.86
745.651	7228.57
748.543	8081.15
751.436	8352.4
754.329	7743.94
757.221	6342.2
760.114	4782.46
763.007	3497.18
765.899	2496.27
768.792	1819.59
771.685	1375.71
774.578	1085.25
777.47	902.908
780.363	773.583
783.256	750.689
786.148	780.709
789.041	890.662
791.934	1087.09
794.827	1317.32
797.719	1625.13
800.612	1887.97
803.505	2212.02
806.397	2354.86
809.29	2397.28
812.183	2199.17
815.075	1895.24
817.968	1578.52
820.861	1237.21
823.754	961.344
826.646	740.131
829.539	535.035
832.432	376.026
835.324	273.379
838.217	169.725
841.11	125.304
844.002	47.1947
846.895	42.2991
849.788	3.06445
852.681	16.9937
855.573	37.3995
858.466	22.5828
861.359	15.7808
864.251	15.4934
867.144	11.1637
870.037	5.61822
872.929	13.4537
875.822	18.0563
878.715	9.70697
881.607	5.00665
884.5	48.2504
887.393	57.6968
890.286	51.1592
893.178	93.7371
896.071	124.443
898.964	152.932
901.856	150.549
904.749	143.504
907.642	113.295
910.534	110.547
913.427	88.0318
916.32	78.7988
919.213	73.954
922.105	64.4412
924.998	82.4499
927.891	64.4618
930.783	71.9827
933.676	60.6803
936.569	43.6636
939.462	47.9327
942.354	35.3981
945.247	32.935
948.14	39.9059
951.032	34.6
953.925	44.3492
956.818	36.6925
959.71	25.6313
962.603	53.435
965.496	25.6287
968.389	46.6925
971.281	44.9596
974.174	14.4513
977.067	42.2633
979.959	35.7633
982.852	27.5333
985.745	31.4972
988.637	10.8913
991.53	27.8941
994.423	31.8105
997.316	32.8722
1000.21	23.8197
1003.1	23.0949
1005.99	18.503
1008.89	18.1582
1011.78	5.92114
1014.67	6.36096
1017.56	1.9288
1020.46	18.7719
1023.35	0.842224
1026.24	6.0531
1029.13	14.3556
1032.03	8.14883
1034.92	14.6703
1037.81	7.71201
1040.71	24.391
1043.6	24.4476
1046.49	6.78433
1049.38	12.2731
1052.28	22.399
1055.17	18.6172
1058.06	28.4411
1060.95	16.9038
1063.85	11.792
1066.74	32.913
1069.63	13.474
1072.53	3.46667
1075.42	4.72464
1078.31	26.8634
1081.2	25.7559
1084.1	15.342
1086.99	12.8689
1089.88	2.0347
1092.78	27.7438
1095.67	20.3241
1098.56	23.7378
1101.45	13.5187
1104.35	21.45
1107.24	10.3998
1110.13	10.4284
1113.02	9.36475
1115.92	4.14441
1118.81	9.38742
1121.7	4.14929
1124.59	3.71399
1127.49	6.62872
1130.38	7.61441
1133.27	1.20163
1136.16	2.83536
1139.06	13.6041
1141.95	8.00803
1144.84	7.88968
1147.74	15.9207
1150.63	8.46201
1153.52	14.4419
1156.41	3.1105
1159.31	7.09558
1162.2	30.1537
1165.09	18.9023
1167.98	1.9519
1170.88	1.55429
1173.77	10.2552
1176.66	15.2667
1179.56	7.19466
1182.45	25.3214
1185.34	8.04382
1188.23	15.5447
1191.13	15.6314
1194.02	24.4924
1196.91	20.5711
1199.8	8.04764
1202.7	13.3351
1205.59	12.7722
1208.48	18.1336
1211.38	17.4505
1214.27	17.1069
1217.16	15.3299
1220.05	15.6121
1222.95	25.2123
1225.84	9.04691
1228.73	13.0321
1231.62	0
