Measurement: Raman, 532 nm, unoriented, Raman Data Processed
Mineral: Barytolamprophyllite
Rruff sample: R120087
Ideal chemistry: Na_3_(BaK)Ti_3_(Si_2_O_7_)_2_O_2_(OH)_2_
Locality: Coyote Peak, Orick, Humboldt County, California, USA
Source: Michael Scott
Description: Tabular reddish brown massive, associated with phlogopite, bartonite and R070139 erdite
Raman shift (cm-1)	intensity
180.648	0
183.541	0.1684
186.433	2.0028
189.326	4.98057
192.219	9.80722
195.112	14.1326
198.004	20.4817
200.897	29.8782
203.79	39.1379
206.682	51.4036
209.575	63.7483
212.468	70.9424
215.36	74.4084
218.253	72.8594
221.146	66.6857
224.038	61.7652
226.931	54.8063
229.824	47.3127
232.717	39.9522
235.609	36.2432
238.502	32.0657
241.395	29.9948
244.287	26.5788
247.18	24.3833
250.073	20.0065
252.965	14.278
255.858	10.2297
258.751	6.35915
261.644	0.360252
264.536	1.11271
267.429	3.31799
270.322	3.02218
273.214	2.09745
276.107	0.903152
279	2.09467
281.892	3.47205
284.785	5.37071
287.678	8.46177
290.571	14.1698
293.463	17.6279
296.356	23.6016
299.249	31.4171
302.141	38.2581
305.034	46.0988
307.927	53.2597
310.82	59.4237
313.712	59.9188
316.605	59.5761
319.498	52.9145
322.39	45.9619
325.283	40.0031
328.176	33.7044
331.068	33.8029
333.961	34.2596
336.854	40.1159
339.747	42.9314
342.639	45.3135
345.532	45.4838
348.425	43.9333
351.317	40.3163
354.21	39.2498
357.103	34.0501
359.995	31.4702
362.888	28.536
365.781	23.3389
368.673	18.1624
371.566	16.5452
374.459	11.2437
377.352	10.6632
380.244	11.8084
383.137	14.3303
386.03	19.5129
388.922	22.0301
391.815	22.424
394.708	20.4104
397.601	14.9876
400.493	11.2955
403.386	9.13606
406.279	9.32186
409.171	9.64387
412.064	11.976
414.957	11.6085
417.849	11.2746
420.742	12.1568
423.635	11.5719
426.527	10.0671
429.42	7.68518
432.313	4.35756
435.206	0.766636
438.098	1.06934
440.991	2.40204
443.884	1.5455
446.776	1.92649
449.669	0.827427
452.562	0.347321
455.454	2.90094
458.347	4.89143
461.24	7.14137
464.133	10.1201
467.025	12.6932
469.918	15.0922
472.811	16.6309
475.703	16.6356
478.596	15.0875
481.489	14.4829
484.382	13.705
487.274	14.4496
490.167	15.5369
493.06	14.6397
495.952	14.3554
498.845	10.7024
501.738	7.61637
504.63	4.03464
507.523	1.79868
510.416	0.53083
513.308	0.829376
516.201	0.217407
519.094	0.163395
521.987	1.02976
524.879	2.83624
527.772	5.42293
530.665	8.01064
533.557	8.92382
536.45	10.3271
539.343	9.22219
542.236	8.15042
545.128	7.97848
548.021	8.43014
550.914	9.94929
553.806	11.1861
556.699	14.2423
559.592	18.0089
562.484	24.373
565.377	31.0651
568.27	40.7286
571.163	51.812
574.055	64.054
576.948	73.4777
579.841	77.5264
582.733	72.9993
585.626	61.5581
588.519	51.2253
591.411	42.5395
594.304	37.0432
597.197	31.1739
600.09	26.0149
602.982	18.7492
605.875	12.9996
608.768	9.22722
611.66	5.14499
614.553	2.5812
617.446	1.04576
620.338	0.046827
623.231	0.033012
626.124	0.457228
629.016	1.23734
631.909	0.028997
634.802	0.309334
637.695	0.460476
640.587	1.33077
643.48	2.47053
646.373	2.97707
649.265	4.96381
652.158	5.6053
655.051	8.43616
657.943	10.4915
660.836	14.3828
663.729	17.5376
666.622	21.8848
669.514	27.7434
672.407	34.2389
675.3	41.4248
678.192	50.3284
681.085	60.1811
683.978	67.633
686.87	71.3883
689.763	73.0476
692.656	67.8005
695.549	57.4775
698.441	47.4833
701.334	38.7725
704.227	30.9985
707.119	25.0522
710.012	20.8219
712.905	17.0281
715.798	15.1793
718.69	13.0773
721.583	11.6125
724.476	10.6575
727.368	10.44
730.261	9.02755
733.154	7.74262
736.046	6.65169
738.939	4.88047
741.832	4.06303
744.725	3.08017
747.617	1.52198
750.51	0.964787
753.403	0.704662
756.295	0.401825
759.188	0.117069
762.081	0.916428
764.973	0.127911
767.866	0.172359
770.759	0.234055
773.652	0.458843
776.544	0.282112
779.437	0.037502
782.33	0.388412
785.222	0.397797
788.115	1.36633
791.008	2.22943
793.9	2.45272
796.793	3.0042
799.686	2.36115
802.578	1.40062
805.471	1.70058
808.364	0.078033
811.257	1.56395
814.149	3.01225
817.042	2.66113
819.935	4.17966
822.827	2.08859
825.72	0.167213
828.613	4.50269
831.505	11.1748
834.398	18.2093
837.291	28.3309
840.184	39.3114
843.076	50.1592
845.969	63.1198
848.862	79.0588
851.754	93.0261
854.647	105.213
857.54	113.458
860.433	118.834
863.325	121.888
866.218	126.196
869.111	143.237
872.003	173.814
874.896	221.494
877.789	284.157
880.681	353.815
883.574	428.284
886.467	487.624
889.36	529.342
892.252	541.488
895.145	530.079
898.038	499.715
900.93	455.737
903.823	404.097
906.716	346.402
909.608	287.887
912.501	228.807
915.394	177.963
918.287	137.695
921.179	110.795
924.072	96.8441
926.965	87.072
929.857	82.8605
932.75	82.5225
935.643	84.5107
938.535	91.904
941.428	98.4842
944.321	101.052
947.213	98.0458
950.106	82.0222
952.999	57.6415
955.892	36.0102
958.784	19.8061
961.677	7.16901
964.57	0.272827
967.462	2.87914
970.355	3.59763
973.248	4.52306
976.14	4.59044
979.033	2.91116
981.926	1.70773
984.819	1.59973
987.711	4.53925
990.604	7.43969
993.497	10.5709
996.389	14.1104
999.282	17.4598
1002.17	22.9675
1005.07	27.0134
1007.96	33.2866
1010.85	37.2115
1013.75	42.3816
1016.64	46.6394
1019.53	52.3105
1022.42	57.0934
1025.32	61.3391
1028.21	66.0767
1031.1	70.5718
1033.99	76.2093
1036.89	83.7776
1039.78	92.6325
1042.67	106.12
1045.57	122.161
1048.46	139.413
1051.35	159.5
1054.24	176.687
1057.14	188.941
1060.03	191.368
1062.92	181.051
1065.81	157.886
1068.71	127.964
1071.6	94.9147
1074.49	63.9731
1077.38	42.3637
1080.28	27.0467
1083.17	16.5119
1086.06	10.6636
1088.96	6.20797
1091.85	3.75113
1094.74	1.15402
1097.63	0.700123
1100.53	0.128965
1103.42	0.243036
1106.31	0.479727
1109.2	0.902435
1112.1	0.499153
1114.99	0.098122
1117.88	0.265385
1120.78	0.191809
1123.67	0.201376
1126.56	0.809757
1129.45	0.029625
1132.35	1.00396
1135.24	0.755901
1138.13	1.62997
1141.02	1.21304
1143.92	1.43976
1146.81	2.01858
1149.7	1.92285
1152.6	2.0186
1155.49	2.34763
1158.38	1.91779
1161.27	2.49416
1164.17	1.32965
1167.06	1.9193
1169.95	1.08998
1172.84	1.49609
1175.74	1.04218
1178.63	1.14066
1181.52	1.25967
1184.41	0.343826
1187.31	0.545534
1190.2	0.135487
1193.09	0.608912
1195.99	0.431828
1198.88	1.7643
1201.77	0.458797
1204.66	0.423973
1207.56	0.741879
1210.45	1.69591
1213.34	0.935722
1216.23	0.458832
1219.13	0.30637
1222.02	0.482071
1224.91	0.185724
1227.81	0.546463
1230.7	0.739573
1233.59	0.310295
1236.48	0.394953
1239.38	0.688156
1242.27	0.197994
1245.16	0.403677
1248.05	0.527519
1250.95	0.292229
1253.84	0.641882
1256.73	0.488605
1259.62	0.944485
1262.52	0.393999
1265.41	0.531721
1268.3	0.260414
1271.2	0.41992
1274.09	0.593935
1276.98	0.270235
1279.87	0.492571
1282.77	0.228762
1285.66	0.321005
1288.55	0.3762
1291.44	0.785913
1294.34	0.767078
1297.23	0.803072
1300.12	0.56654
1303.02	0
