Measurement: Raman, 514 nm, unoriented, Raman Data Processed
Mineral: Baryte
Rruff sample: R050335
Ideal chemistry: BaSO_4_
Locality: Bullion Mountains, San Bernardino County, California, USA
Source: California Institute of Technology
Description: Colorless cleavage fragment
Measured chemistry: (Ba_0.95_Sr_0.05_)_Î£=1_S_1.00_O_4_
Raman shift (cm-1)	intensity
52.866	0
57.065	0.618
61.262	38.656
65.458	115.626
69.651	260.04
73.842	399.76
78.031	147.676
82.218	100.158
86.404	106.419
90.587	151.167
94.768	233.616
98.947	246.418
103.124	142.685
107.3	95.315
111.473	54.284
115.644	64.611
119.813	61.223
123.981	68.007
128.146	43.785
132.309	43.517
136.47	38.198
140.63	79.445
144.787	122.467
148.942	206.258
153.096	272.502
157.247	183.275
161.396	103.6
165.544	64.119
169.689	48.036
173.833	45.971
177.974	59.048
182.114	96.883
186.251	142.821
190.387	149.856
194.52	100.504
198.652	45.678
202.782	35.844
206.909	22.129
211.035	18.625
215.159	7.51
219.281	3.197
223.4	5.507
227.518	12.292
231.634	5.625
235.748	5.641
239.86	7.044
243.97	2.544
248.079	7.139
252.185	0.26
256.289	2.6
260.391	6.089
264.492	5.8
268.59	1.476
272.687	3.746
276.781	4.391
280.874	6.701
284.964	7.584
289.053	3.11
293.14	7.212
297.225	4.55
301.308	4.901
305.389	8.721
309.468	9.305
313.545	7.874
317.62	1.422
321.693	5.051
325.765	4.554
329.834	2.907
333.902	14.341
337.967	13.742
342.031	17.467
346.093	15.461
350.153	17.791
354.21	22.098
358.267	22.385
362.321	24.676
366.373	23.976
370.423	41.28
374.471	46.028
378.518	46.904
382.563	58.225
386.605	50.34
390.646	40.561
394.685	37.077
398.722	64.452
402.757	69.733
406.79	68.002
410.821	70.845
414.851	93.683
418.878	114.937
422.904	121.227
426.927	173.151
430.949	255.413
434.969	378.091
438.987	607.757
443.003	1130.83
447.018	2565.46
451.03	4926.9
455.041	8231.36
459.049	14587.3
463.056	12788.8
467.061	4553.09
471.064	1624.59
475.065	778.949
479.064	470.819
483.062	327.304
487.057	236.286
491.051	200.309
495.043	156.684
499.032	116.672
503.02	95.503
507.007	85.927
510.991	62.572
514.973	67.953
518.954	59.407
522.933	58.44
526.91	51.002
530.885	52.505
534.858	43.327
538.829	19.87
542.799	31.403
546.766	23.001
550.732	18.016
554.696	26.933
558.658	32.561
562.618	26.478
566.576	11.577
570.533	10.597
574.488	27.43
578.44	10.1
582.391	26.995
586.341	42.786
590.288	53.397
594.233	58.14
598.177	83.963
602.119	124.36
606.059	231.116
609.997	633.857
613.933	1769.63
617.868	2051.38
621.801	1034.02
625.731	926.198
629.66	1170.03
633.588	652.695
637.513	258.35
641.437	132.005
645.358	107.671
649.278	69.338
653.196	41.017
657.113	7.669
661.027	8.313
664.94	7.007
668.851	0.406
672.76	15.665
676.667	1.368
680.572	0.326
684.476	6.872
688.378	5.681
692.278	6.471
696.176	11.974
700.072	5.462
703.967	0.116
707.86	0.88
711.751	7.297
715.64	9.81
719.527	0.668
723.413	6.775
727.297	3.188
731.179	15.766
735.059	4.205
738.937	7.447
742.814	11.664
746.689	2.861
750.562	1.034
754.433	4.816
758.303	5.296
762.17	14.385
766.036	20.452
769.901	14.496
773.763	12.519
777.624	5.521
781.482	9.495
785.339	7.369
789.195	19.37
793.048	16.278
796.9	16.168
800.75	16.04
804.598	16.894
808.445	14.729
812.289	20.546
816.132	22.346
819.973	12.872
823.813	12.622
827.65	0.341
831.486	8.95
835.32	5.77
839.152	1.356
842.983	15.807
846.812	11.397
850.639	12.887
854.464	3.657
858.288	12.427
862.11	7.524
865.93	0.714
869.748	11.054
873.564	9.802
877.379	13.88
881.192	3.711
885.004	15.912
888.813	20.064
892.621	14.146
896.427	26.297
900.232	37.882
904.034	43.561
907.835	61.296
911.634	62.33
915.432	76.557
919.227	73.755
923.021	104.925
926.813	83.134
930.604	97.416
934.393	87.256
938.18	111.407
941.965	135.746
945.749	117.092
949.53	124.448
953.311	139.813
957.089	149.947
960.866	194.559
964.641	339.958
968.414	403.369
972.185	541.767
975.955	857.21
979.723	2033.09
983.49	8758.31
987.254	47871.9
991.017	25645.1
994.779	4418.43
998.538	1357.79
1002.3	701.374
1006.05	470.741
1009.81	343.895
1013.56	254.78
1017.31	205.487
1021.06	157.112
1024.81	128.765
1028.55	88.508
1032.3	63.306
1036.04	55.946
1039.78	47.736
1043.52	44.744
1047.26	45.788
1050.99	25.898
1054.73	29.606
1058.46	26.337
1062.19	13.551
1065.92	13.802
1069.65	17.203
1073.37	15.411
1077.1	18.764
1080.82	41.149
1084.54	46.571
1088.26	42.029
1091.97	32.52
1095.69	54.257
1099.4	143.603
1103.12	262.197
1106.83	192.823
1110.54	96.48
1114.24	66.99
1117.95	43.892
1121.65	67.652
1125.35	100.451
1129.06	156.29
1132.75	272.169
1136.45	613.085
1140.15	1247.05
1143.84	2038.07
1147.53	1692.12
1151.22	837.208
1154.91	393.321
1158.6	225.475
1162.28	148.522
1165.97	137.968
1169.65	122.044
1173.33	53.75
1177.01	42.131
1180.69	21.029
1184.36	23.373
1188.04	0.324
1191.71	3.619
1195.38	2.703
1199.05	5.144
1202.71	4.768
1206.38	8.693
1210.04	9.587
1213.71	31.31
1217.37	36.032
1221.03	39.666
1224.68	45.169
1228.34	8.696
1231.99	19.22
1235.65	31.122
1239.3	35.662
1242.95	37.311
1246.59	15.477
1250.24	29.117
1253.88	40.717
1257.53	7.364
1261.17	7.108
1264.81	17.863
1268.45	30.537
1272.08	24.201
1275.72	32.283
1279.35	33.923
1282.98	43.514
1286.61	20.152
1290.24	11.734
1293.87	17.282
1297.49	4.787
1301.11	13.276
1304.73	8.759
1308.36	2.766
1311.97	5.315
1315.59	15.703
1319.2	1.525
1322.82	6.177
1326.43	14.422
1330.04	12.418
1333.65	6.665
1337.26	7.889
1340.86	11.084
1344.47	16.332
1348.07	10.579
1351.67	3.545
1355.27	0.447
1358.87	2.366
1362.46	23.697
1366.06	8.742
1369.65	18.035
1373.24	17.069
1376.83	1.083
1380.42	21.025
1384	17.204
1387.59	4.134
1391.17	10.517
1394.75	27.159
1398.33	27.788
1401.91	13.396
1405.49	7.99
1409.06	13.574
1412.64	30.15
1416.21	1.721
1419.78	29.089
1423.35	17.518
1426.91	10.742
1430.48	9.591
1434.05	34.282
1437.61	45.264
1441.17	28.994
1444.73	43.222
1448.29	33.05
1451.84	20.412
1455.4	39.714
1458.95	23.922
1462.5	37.245
1466.05	35.902
1469.6	26.848
1473.15	19.534
1476.69	8.511
1480.24	0.328
1483.78	36.52
1487.32	17.707
1490.86	35.837
1494.39	30.019
1497.93	16.289
1501.46	12.817
1505	13.823
1508.53	8.579
1512.06	33.6
1515.59	21.07
1519.11	11.714
1522.64	12.019
