Measurement: Raman, 514 nm, unoriented, Raman Data Processed
Mineral: Barytocalcite
Rruff sample: R050288
Ideal chemistry: BaCa(CO_3_)_2_
Locality: Cumberland, England
Source: Marcus Origlieri
Description: Light tan elongated crystals
Measured chemistry: Ba_1.00_Ca_1.00_(CO_3_)_2_
Raman shift (cm-1)	intensity
52.866	0
57.065	15.571
61.262	12.603
65.458	44.919
69.651	582.9
73.842	357.238
78.031	437.81
82.218	910.556
86.404	1438.11
90.587	1105.52
94.768	1218.15
98.947	1838.42
103.124	3550.79
107.3	5761.95
111.473	4024.69
115.644	2225.84
119.813	1406.24
123.981	1268.76
128.146	1407.32
132.309	1122.91
136.47	825.421
140.63	637.237
144.787	660.152
148.942	851.432
153.096	1163.24
157.247	1094.62
161.396	1276.56
165.544	1427
169.689	1195.87
173.833	873.179
177.974	599.836
182.114	520.799
186.251	486.087
190.387	635.699
194.52	1041.59
198.652	1422.27
202.782	1286.3
206.909	778.945
211.035	532.927
215.159	549.903
219.281	754.261
223.4	1087.89
227.518	931.186
231.634	707.926
235.748	610.494
239.86	533.964
243.97	479.878
248.079	557.05
252.185	992.393
256.289	1983.64
260.391	3630.36
264.492	2718.34
268.59	1358.4
272.687	831.873
276.781	527.693
280.874	371.39
284.964	301.033
289.053	364.827
293.14	323.339
297.225	296.04
301.308	306.497
305.389	411.337
309.468	504.384
313.545	428.078
317.62	211.204
321.693	82.733
325.765	80.555
329.834	11.147
333.902	11.244
337.967	5.598
342.031	52.298
346.093	34.177
350.153	18.913
354.21	30.109
358.267	8.382
362.321	5.786
366.373	9.13
370.423	3.474
374.471	7.323
378.518	29.342
382.563	21.574
386.605	15.994
390.646	8.677
394.685	17.646
398.722	19.224
402.757	27.627
406.79	24.141
410.821	20.522
414.851	40.835
418.878	13.763
422.904	38.681
426.927	33.953
430.949	22.184
434.969	0.878
438.987	41.119
443.003	14.784
447.018	21.846
451.03	65.119
455.041	12.692
459.049	13.524
463.056	47.658
467.061	34.546
471.064	30.899
475.065	5.374
479.064	46.722
483.062	58.107
487.057	33.668
491.051	25.526
495.043	80.382
499.032	57.748
503.02	83.002
507.007	58.895
510.991	29.778
514.973	92.576
518.954	101.159
522.933	70.567
526.91	57.15
530.885	41.83
534.858	55.554
538.829	41.179
542.799	100.134
546.766	88.187
550.732	98.003
554.696	29.775
558.658	147.491
562.618	78.326
566.576	90.719
570.533	76.885
574.488	100.936
578.44	29.308
582.391	16.665
586.341	49.601
590.288	107.752
594.233	5.06
598.177	35.763
602.119	123.799
606.059	86.771
609.997	108.981
613.933	74.339
617.868	52.449
621.801	38.532
625.731	106.076
629.66	94.658
633.588	11.364
637.513	124.75
641.437	97.234
645.358	71.772
649.278	83.584
653.196	131.147
657.113	14.235
661.027	99.166
664.94	82.357
668.851	32.937
672.76	72.652
676.667	99.273
680.572	210.698
684.476	670.919
688.378	1661.66
692.278	928.72
696.176	497.252
700.072	1767.21
703.967	360.316
707.86	164.972
711.751	311.008
715.64	799.532
719.527	209.381
723.413	109.252
727.297	112.505
731.179	153.603
735.059	111.728
738.937	67.747
742.814	84.908
746.689	111.705
750.562	3.791
754.433	71.805
758.303	69.602
762.17	46.034
766.036	78.097
769.901	121.31
773.763	97.409
777.624	60.747
781.482	77.824
785.339	5.292
789.195	147.914
793.048	5.734
796.9	110.634
800.75	50.396
804.598	69.212
808.445	72.655
812.289	48.923
816.132	71.535
819.973	99.479
823.813	46.889
827.65	29.91
831.486	126.055
835.32	27.549
839.152	81.904
842.983	33.698
846.812	50.298
850.639	84.478
854.464	37.728
858.288	112.576
862.11	124.806
865.93	148.644
869.748	118.22
873.564	87.758
877.379	187.958
881.192	43.976
885.004	56.922
888.813	198.094
892.621	139.916
896.427	67.016
900.232	156.728
904.034	138.855
907.835	174.39
911.634	99.8
915.432	189.004
919.227	58.784
923.021	46.35
926.813	72.401
930.604	106.366
934.393	37.399
938.18	187.017
941.965	74.03
945.749	91.492
949.53	19.544
953.311	73.939
957.089	84.888
960.866	185.192
964.641	24.534
968.414	14.043
972.185	14.068
975.955	114.026
979.723	115.657
983.49	227.124
987.254	160.61
991.017	36.035
994.779	84.136
998.538	199.33
1002.3	55.008
1006.05	93.41
1009.81	102.988
1013.56	224.595
1017.31	210.929
1021.06	139.564
1024.81	175.896
1028.55	154.71
1032.3	188.241
1036.04	202.792
1039.78	235.199
1043.52	230.916
1047.26	159.559
1050.99	157.44
1054.73	264.545
1058.46	407.791
1062.19	473.518
1065.92	429.118
1069.65	487.034
1073.37	833.642
1077.1	1632.94
1080.82	4363.32
1084.54	30359.5
1088.26	19404.7
1091.97	2940.78
1095.69	1372.19
1099.4	698.71
1103.12	342.532
1106.83	163.874
1110.54	189.828
1114.24	150.768
1117.95	230.555
1121.65	83.166
1125.35	144.963
1129.06	62.641
1132.75	133.828
1136.45	163.261
1140.15	13.584
1143.84	117.539
1147.53	145.596
1151.22	61.374
1154.91	7.326
1158.6	93.267
1162.28	92.83
1165.97	158.585
1169.65	291.837
1173.33	44.453
1177.01	172.647
1180.69	175.134
1184.36	193.889
1188.04	229.244
1191.71	183.82
1195.38	190.981
1199.05	137.923
1202.71	384.228
1206.38	242.277
1210.04	296.058
1213.71	272.203
1217.37	312.435
1221.03	301.447
1224.68	354.312
1228.34	198.992
1231.99	287.278
1235.65	320.083
1239.3	251.045
1242.95	218.245
1246.59	354.766
1250.24	332.436
1253.88	312.029
1257.53	143.346
1261.17	188.75
1264.81	252.05
1268.45	159.127
1272.08	312.537
1275.72	161.635
1279.35	279.447
1282.98	171.451
1286.61	231.076
1290.24	8.109
1293.87	121.354
1297.49	177.771
1301.11	42.707
1304.73	18.84
1308.36	75.254
1311.97	86.627
1315.59	191.396
1319.2	33.672
1322.82	201.918
1326.43	175.941
1330.04	8.443
1333.65	46.244
1337.26	78.746
1340.86	204.775
1344.47	19.037
1348.07	198.248
1351.67	142.662
1355.27	265.135
1358.87	291.266
1362.46	166.021
1366.06	221.764
1369.65	485.211
1373.24	358.879
1376.83	180.357
1380.42	435.02
1384	373.139
1387.59	167.436
1391.17	405.115
1394.75	241.002
1398.33	194.959
1401.91	300.934
1405.49	224.146
1409.06	140.275
1412.64	399.844
1416.21	433.656
1419.78	447.717
1423.35	383.572
1426.91	192.311
1430.48	345.832
1434.05	294.967
1437.61	472.303
1441.17	301.24
1444.73	343.596
1448.29	271.109
1451.84	446.871
1455.4	497.445
1458.95	405.768
1462.5	26.32
1466.05	147.486
1469.6	52.732
1473.15	1.658
1476.69	8.039
1480.24	103.816
1483.78	296.387
1487.32	58.502
1490.86	117.791
