Measurement: Raman, 780 nm, unoriented, Raman Data Processed
Mineral: Barytocalcite
Rruff sample: R050288
Ideal chemistry: BaCa(CO_3_)_2_
Locality: Cumberland, England
Source: Marcus Origlieri
Description: Light tan elongated crystals
Measured chemistry: Ba_1.00_Ca_1.00_(CO_3_)_2_
Raman shift (cm-1)	intensity
122.897	0
125.79	31.4035
128.682	105.594
131.575	129.811
134.468	44.2445
137.36	0.464096
140.253	3.29739
143.146	12.9258
146.038	44.6774
148.931	82.5974
151.824	133.134
154.716	179.169
157.609	208.428
160.502	260.013
163.395	339.049
166.287	361.455
169.18	266.402
172.073	172.554
174.965	86.6138
177.858	28.714
180.751	11.4838
183.643	15.3444
186.536	20.2623
189.429	40.7732
192.322	72.2734
195.214	125.331
198.107	185.15
201	217.41
203.892	144.898
206.785	39.4313
209.678	0.865707
212.571	7.72128
215.463	3.94072
218.356	30.7374
221.249	68.1372
224.141	97.554
227.034	82.3395
229.927	51.4254
232.819	38.9588
235.712	47.4567
238.605	82.9136
241.498	161.544
244.39	253.304
247.283	322.238
250.176	414.113
253.068	534.266
255.961	696.878
258.854	917.885
261.746	1016.47
264.639	708.85
267.532	352.584
270.425	173.356
273.317	96.6054
276.21	58.0823
279.103	41.1685
281.995	34.001
284.888	37.6515
287.781	47.2451
290.673	54.3827
293.566	45.9939
296.459	28.7801
299.351	16.5368
302.244	12.7064
305.137	13.6619
308.03	16.256
310.922	16.5541
313.815	9.7755
316.708	2.95371
319.6	0.753075
322.493	2.64859
325.386	3.59621
328.279	2.3335
331.171	2.31625
334.064	0.286743
336.957	0.11377
339.849	0.882877
342.742	1.23632
345.635	4.20589
348.527	3.85843
351.42	4.59391
354.313	6.82227
357.205	8.21105
360.098	8.61528
362.991	8.44854
365.884	9.76818
368.776	10.6084
371.669	11.6904
374.562	12.1558
377.454	12.0545
380.347	12.2387
383.24	11.5443
386.132	9.89153
389.025	9.44485
391.918	8.43157
394.81	7.08791
397.703	6.31423
400.596	7.132
403.489	7.41443
406.381	5.9299
409.274	6.5072
412.167	5.9189
415.059	5.99277
417.952	6.15802
420.845	4.62698
423.738	5.37322
426.63	4.42345
429.523	4.62846
432.416	2.94062
435.308	3.04963
438.201	3.88319
441.094	2.7701
443.986	2.15784
446.879	2.84343
449.772	2.06634
452.665	1.653
455.557	1.31996
458.45	2.60588
461.343	1.99143
464.235	2.13321
467.128	1.24761
470.021	1.18257
472.913	0.8521
475.806	0.657995
478.699	0.519876
481.592	0.498806
484.484	1.51254
487.377	0.481445
490.27	0.633272
493.162	0.651649
496.055	0.619289
498.948	1.21721
501.841	0.152576
504.733	0.476477
507.626	0.44371
510.519	1.00468
513.411	1.26252
516.304	0.395037
519.197	0.199404
522.089	1.06711
524.982	0.313929
527.875	0.055147
530.768	0.662687
533.66	0.003565
536.553	0.780331
539.446	1.15892
542.338	0.19338
545.231	1.40679
548.124	0.414354
551.016	0.674139
553.909	0.769672
556.802	1.31069
559.694	2.41634
562.587	1.8117
565.48	0.66835
568.373	0.780609
571.265	0.81822
574.158	0.08868
577.051	0.475712
579.943	0.858709
582.836	0.676952
585.729	1.17146
588.621	1.34151
591.514	0.623632
594.407	0.635283
597.299	0.582693
600.192	0.037233
603.085	0.997221
605.978	0.531828
608.87	0.262377
611.763	0.251217
614.656	0.850571
617.548	0.724779
620.441	0.194435
623.334	0.604076
626.226	0.928467
629.119	0.260794
632.012	0.924242
634.905	0.789406
637.797	0.139732
640.69	1.15622
643.583	0.158493
646.475	1.73081
649.368	0.382677
652.261	0.682528
655.154	1.22075
658.046	0.880518
660.939	0.767033
663.832	1.40114
666.724	2.32491
669.617	4.4963
672.51	13.2632
675.402	24.3286
678.295	32.5957
681.188	44.8314
684.081	80.5439
686.973	161.045
689.866	162.871
692.759	97.9637
695.651	85.5307
698.544	152.307
701.437	198.595
704.329	50.4661
707.222	30.8903
710.115	34.9474
713.008	58.5633
715.9	84.1158
718.793	18.4962
721.686	5.6586
724.578	2.76765
727.471	1.24467
730.364	0.921808
733.256	1.13377
736.149	1.58103
739.042	1.3163
741.934	0.931654
744.827	1.1547
747.72	0.120045
750.613	0.218555
753.505	0.558569
756.398	0.02047
759.291	0.774464
762.183	0.450472
765.076	0.331472
767.969	0.44331
770.861	1.01108
773.754	1.04899
776.647	0.522675
779.54	0.550076
782.432	0.324839
785.325	0.839224
788.218	0.356484
791.11	0.052217
794.003	0.582489
796.896	0.65382
799.788	1.33834
802.681	1.06623
805.574	0.326955
808.467	1.69205
811.359	0.557292
814.252	0.91643
817.145	0.385964
820.037	1.37168
822.93	1.04812
825.823	0.972889
828.716	0.984451
831.608	0.719301
834.501	0.914916
837.394	1.19171
840.286	1.37049
843.179	1.12827
846.072	0.213917
848.964	1.95959
851.857	1.39407
854.75	1.05847
857.643	0.606304
860.535	1.33784
863.428	3.09953
866.321	5.25574
869.213	3.86565
872.106	4.22376
874.999	10.6041
877.891	7.88498
880.784	4.84427
883.677	0.463913
886.569	1.22953
889.462	0.728967
892.355	1.34843
895.248	0.787542
898.14	0.81388
901.033	0.104901
903.926	0.905021
906.818	0.572593
909.711	0.951208
912.604	0.718645
915.496	0.914016
918.389	1.4642
921.282	1.69616
924.175	0.994021
927.067	0.359699
929.96	0.666433
932.853	1.47573
935.745	0.461888
938.638	0.985906
941.531	0.267131
944.423	0.911319
947.316	1.10936
950.209	0.354822
953.102	1.62007
955.994	0.073936
958.887	1.06351
961.78	1.29641
964.672	0.551036
967.565	1.76286
970.458	0.100964
973.351	0.600823
976.243	0.153568
979.136	0.858172
982.029	0.6816
984.921	0.412379
987.814	0.574324
990.707	0.002586
993.599	1.02704
996.492	1.0435
999.385	1.2217
1002.28	1.01755
1005.17	0.787293
1008.06	0.905186
1010.96	0.792859
1013.85	1.2096
1016.74	1.71389
1019.63	0.859447
1022.53	0.509439
1025.42	0.696957
1028.31	0.035075
1031.2	0.102642
1034.1	0.138354
1036.99	0.578528
1039.88	0.481009
1042.78	1.3234
1045.67	0.856184
1048.56	2.87325
1051.45	4.5437
1054.35	6.24092
1057.24	10.8199
1060.13	18.1385
1063.02	24.7597
1065.92	30.6823
1068.81	58.7902
1071.7	188.712
1074.6	527.074
1077.49	640.994
1080.38	1115.97
1083.27	2065.67
1086.17	3497.55
1089.06	468.506
1091.95	119.7
1094.84	56.2503
1097.74	28.7129
1100.63	14.8235
1103.52	8.8368
1106.41	4.49418
1109.31	2.30493
1112.2	1.15508
1115.09	1.42423
1117.98	0.937548
1120.88	1.09722
1123.77	0.114074
1126.66	0.243766
1129.56	0.736349
1132.45	0.274612
1135.34	0.360923
1138.23	0.08138
1141.13	0.307341
1144.02	1.03826
1146.91	0.353392
1149.81	1.01167
1152.7	0.749618
1155.59	0.727567
1158.48	0.421847
1161.38	0.364697
1164.27	0.959075
1167.16	0.17597
1170.05	0.039675
1172.95	0.080486
1175.84	1.67287
1178.73	1.89879
1181.62	0.492903
1184.52	0.644899
1187.41	1.16104
1190.3	0.980671
1193.2	1.31779
1196.09	1.18204
1198.98	0.862385
1201.87	0.995014
1204.77	1.60627
1207.66	2.06418
1210.55	1.14456
1213.44	1.47058
1216.34	1.61545
1219.23	0.895569
1222.12	0.704204
1225.02	1.36484
1227.91	1.23018
1230.8	1.08901
1233.69	2.01079
1236.59	0.700935
1239.48	0.567822
1242.37	0.031331
1245.26	0.000287
1248.16	0.773437
1251.05	0.513905
1253.94	1.6641
1256.84	1.43137
1259.73	1.45516
1262.62	0.568079
1265.51	0.035351
1268.41	1.24947
1271.3	0.445417
1274.19	0.384761
