Measurement: Raman, 532 nm, unoriented, Raman Data Processed
Mineral: Baryte
Rruff sample: R050375
Ideal chemistry: BaSO_4_
Locality: unknown
Source: Eugene Schlepp
Description: Pale green tabular crystals
Measured chemistry: Ba_1.00_SO_4_
Raman shift (cm-1)	intensity
138.155	0
141.529	12.9642
144.904	48.0529
148.279	74.898
151.654	58.3598
155.029	41.376
158.404	28.7201
161.778	5.77719
165.153	1.53818
168.528	3.40462
171.903	14.2415
175.278	24.1259
178.652	34.9665
182.027	51.4354
185.402	89.7409
188.777	135.884
192.152	104.405
195.526	40.252
198.901	11.8523
202.276	3.63891
205.651	0.641415
209.026	0.284672
212.401	0.673878
215.775	0.426857
219.15	2.72803
222.525	1.36398
225.9	1.48469
229.275	1.33732
232.649	2.13582
236.024	2.32992
239.399	4.15852
242.774	2.67867
246.149	3.81021
249.524	4.25728
252.898	3.57749
256.273	4.43471
259.648	5.25362
263.023	6.11205
266.398	5.23628
269.772	2.99115
273.147	4.32921
276.522	4.24954
279.897	3.83212
283.272	6.20696
286.647	4.25414
290.021	3.71354
293.396	3.07555
296.771	1.36169
300.146	2.28725
303.521	1.45762
306.895	2.44038
310.27	1.84355
313.645	1.58106
317.02	2.82254
320.395	1.46353
323.769	0.632923
327.144	0.221779
330.519	0.274448
333.894	0.430027
337.269	0.062859
340.644	0.280556
344.018	0.286766
347.393	1.2412
350.768	0.245392
354.143	0.095135
357.518	1.48553
360.892	0.331684
364.267	1.23869
367.642	0.377415
371.017	0.458618
374.392	0.217228
377.767	0.344872
381.141	1.93915
384.516	1.12152
387.891	0.059616
391.266	1.14029
394.641	0.292263
398.015	0.152782
401.39	0.904102
404.765	1.76127
408.14	1.79159
411.515	4.98857
414.89	9.52091
418.264	17.719
421.639	28.6841
425.014	52.8993
428.389	93.4538
431.764	180.225
435.139	376.875
438.513	660.898
441.888	991.597
445.263	1535.64
448.638	2434.7
452.013	3299.21
455.387	2427.04
458.762	1335.53
462.137	1091.77
465.512	465.695
468.887	178.098
472.262	88.5129
475.636	48.342
479.011	29.5295
482.386	19.4065
485.761	12.2303
489.136	5.50948
492.51	2.43217
495.885	0.200127
499.26	1.1216
502.635	1.63716
506.01	2.18559
509.385	0.690048
512.759	2.15741
516.134	1.50503
519.509	1.95367
522.884	2.49208
526.259	1.62264
529.633	3.17094
533.008	1.65251
536.383	1.83554
539.758	3.30279
543.133	2.25795
546.507	0.68132
549.882	0.586952
553.257	0.512043
556.632	0.208206
560.007	1.71145
563.381	0.80146
566.756	0.579792
570.131	0.608093
573.506	0.168186
576.881	0.676811
580.256	0.240585
583.63	1.03701
587.005	4.22507
590.38	7.10497
593.755	13.6615
597.13	29.464
600.505	69.4952
603.879	132.815
607.254	212.34
610.629	358.395
614.004	583.166
617.379	706.474
620.753	423.118
624.128	229.829
627.503	164.06
630.878	159.367
634.253	151.952
637.628	164.137
641.002	217.075
644.377	295.94
647.752	323.374
651.127	154.262
654.502	48.199
657.876	20.4746
661.251	9.05092
664.626	3.34315
668.001	1.90791
671.376	0.291111
674.75	0.267624
678.125	1.74777
681.5	0.707298
684.875	0.019539
688.25	1.80501
691.625	1.79923
694.999	2.38947
698.374	0.375732
701.749	1.6501
705.124	0.659931
708.499	1.24283
711.874	0.161671
715.248	0.387234
718.623	0.183502
721.998	0.085075
725.373	0.357708
728.748	0.826611
732.122	0.157127
735.497	1.25162
738.872	0.640984
742.247	2.12001
745.622	0.80505
748.996	1.94649
752.371	1.65542
755.746	2.21093
759.121	2.09729
762.496	2.80205
765.87	4.10541
769.245	4.04623
772.62	5.08894
775.995	3.76101
779.37	4.36465
782.745	4.63735
786.119	5.1099
789.494	5.17836
792.869	5.22807
796.244	3.81867
799.619	6.45619
802.994	4.26843
806.368	4.91235
809.743	4.84816
813.118	5.31633
816.493	5.56638
819.868	5.6304
823.242	6.27845
826.617	4.35688
829.992	5.68077
833.367	5.42451
836.742	3.37017
840.116	2.11301
843.491	2.80273
846.866	0.223526
850.241	0.609653
853.616	1.24795
856.991	1.3214
860.365	0.58876
863.74	1.47392
867.115	1.69658
870.49	1.72307
873.865	1.45041
877.24	0.260468
880.614	0.148308
883.989	0.429787
887.364	3.18128
890.739	5.54875
894.114	8.52476
897.488	10.9245
900.863	11.1029
904.238	9.72953
907.613	6.79098
910.988	6.18429
914.362	6.27801
917.737	6.13758
921.112	4.41621
924.487	5.58891
927.862	4.939
931.237	4.02565
934.611	3.4848
937.986	5.09149
941.361	6.08885
944.736	7.23936
948.111	9.04414
951.486	12.6845
954.86	19.0001
958.235	29.1846
961.61	47.6193
964.985	89.9518
968.36	117.549
971.734	249.711
975.109	921.783
978.484	1900.57
981.859	3234.43
985.234	7405.61
988.609	13393.4
991.983	2220.06
995.358	530.86
998.733	239.963
1002.11	137.665
1005.48	87.3941
1008.86	60.7214
1012.23	42.5508
1015.61	27.9425
1018.98	21.1589
1022.36	13.5034
1025.73	7.79872
1029.11	4.04464
1032.48	1.70073
1035.86	1.1383
1039.23	0.192631
1042.61	2.58561
1045.98	3.05275
1049.36	0.405334
1052.73	1.83238
1056.11	4.06392
1059.48	1.23014
1062.85	0.760986
1066.23	4.78404
1069.6	15.2477
1072.98	30.8796
1076.35	55.6532
1079.73	95.2867
1083.1	133.936
1086.48	95.1994
1089.85	57.9487
1093.23	81.7857
1096.6	135.307
1099.98	232.45
1103.35	359.593
1106.73	263.578
1110.1	94.223
1113.48	39.6254
1116.85	19.6172
1120.23	11.0909
1123.6	15.5128
1126.98	40.0259
1130.35	86.7498
1133.73	163.465
1137.1	295.358
1140.47	215.787
1143.85	97.2162
1147.22	55.4267
1150.6	36.3932
1153.97	44.8466
1157.35	65.1593
1160.72	112.857
1164.1	183.268
1167.47	192.404
1170.85	97.772
1174.22	41.6711
1177.6	20.7599
1180.97	8.53667
1184.35	3.79506
1187.72	0.215626
1191.1	1.76302
1194.47	0.840191
1197.85	1.7772
1201.22	0.144718
1204.6	0.192711
1207.97	2.25415
1211.35	1.58815
1214.72	1.90203
1218.1	3.06123
1221.47	1.97169
1224.85	2.22644
1228.22	2.04552
1231.6	3.9833
1234.97	4.34882
1238.35	5.46217
1241.72	6.69835
1245.09	5.13646
1248.47	2.9178
1251.84	2.55484
1255.22	1.10132
1258.59	0.660145
1261.97	3.45224
1265.34	1.32754
1268.72	3.20503
1272.09	2.01517
1275.47	1.85098
1278.84	2.44342
1282.22	1.48053
1285.59	2.50178
1288.97	1.25212
1292.34	1.12967
1295.72	2.15107
1299.09	0.11734
1302.47	2.0648
