Measurement: Raman, 532 nm, unoriented, Raman Data Processed
Mineral: Barysilite
Rruff sample: R070651
Ideal chemistry: Pb_8_Mn(Si_2_O_7_)_3_
Locality: Kombat mine, Kombat, Grootfontein District, Otjozondjupa Region, Namibia
Source: William W. Pinch
Description: Colorless lamellar aggregate associated with colorless kombatite, R070720, and black jacobsite, R070719
Raman shift (cm-1)	intensity
136.037	0
138.93	212.018
141.823	598.121
144.715	771.598
147.608	688.312
150.501	177.971
153.393	130.119
156.286	60.7119
159.179	420.668
162.071	1460.7
164.964	3361.98
167.857	6809.73
170.75	11132.6
173.642	15782.9
176.535	21177.2
179.428	28097.8
182.32	37150
185.213	43745.9
188.106	37402.5
190.998	24877.4
193.891	15280.6
196.784	9751.4
199.677	6444.11
202.569	4569.86
205.462	3442.53
208.355	2593.14
211.247	1925.88
214.14	1304.77
217.033	1045.51
219.925	962.604
222.818	1001.48
225.711	1069.44
228.603	1292.58
231.496	1550.42
234.389	2038.51
237.282	2404.04
240.174	2814.55
243.067	3057.35
245.96	3102.8
248.852	3247.09
251.745	3673.15
254.638	4131.71
257.531	4262.03
260.423	3833.47
263.316	2901.97
266.209	1931.65
269.101	1142.7
271.994	627.404
274.887	281.834
277.779	147.547
280.672	171.542
283.565	24.333
286.457	26.9624
289.35	71.1606
292.243	75.9517
295.136	32.4692
298.028	71.5342
300.921	38.958
303.814	108.001
306.706	187.575
309.599	332.191
312.492	466.718
315.385	636.922
318.277	932.793
321.17	1200.86
324.063	1366.28
326.955	1313.23
329.848	1122
332.741	1083.26
335.633	1086.97
338.526	896.56
341.419	680.659
344.312	496.192
347.204	451.275
350.097	458.902
352.99	600.368
355.882	611.29
358.775	637.987
361.668	666.032
364.56	714.136
367.453	821.765
370.346	922.446
373.238	1002.94
376.131	1156.47
379.024	1223.14
381.917	1312.94
384.809	1299.29
387.702	1148.6
390.595	790.146
393.487	375.508
396.38	206.808
399.273	43.6968
402.166	74.5684
405.058	94.7842
407.951	92.3301
410.844	69.9741
413.736	12.2231
416.629	209.567
419.522	525.451
422.414	831.78
425.307	1125.29
428.2	1623.74
431.092	2110.83
433.985	2516.11
436.878	2521.22
439.771	2065.9
442.663	1473.22
445.556	914.778
448.449	541.167
451.341	274.896
454.234	143.792
457.127	86.2837
460.019	37.3999
462.912	65.1333
465.805	215.612
468.697	548.09
471.59	934.304
474.483	1357.25
477.376	2146.07
480.268	3006.64
483.161	3404.59
486.054	3520.15
488.946	4351.88
491.839	5981.87
494.732	8037.52
497.625	10365.6
500.517	12854.1
503.41	15066.9
506.303	15768.2
509.195	14068.6
512.088	10563.1
514.981	7172.5
517.873	4835.05
520.766	3399.06
523.659	2306.44
526.552	1698.33
529.444	1365.49
532.337	1329.38
535.23	1337.92
538.122	1039.55
541.015	522.44
543.908	283.98
546.8	174.969
549.693	179.478
552.586	209.877
555.479	48.355
558.371	1.41553
561.264	13.873
564.157	20.1934
567.049	52.8232
569.942	44.9297
572.835	24.8208
575.727	11.9663
578.62	26.8945
581.513	33.0972
584.405	40.6528
587.298	25.7109
590.191	45.501
593.084	65.7959
595.976	66.1177
598.869	90.875
601.762	42.5415
604.654	26.542
607.547	29.1191
610.44	112.332
613.332	91.0068
616.225	110.601
619.118	68.3364
622.011	80.73
624.903	86.4648
627.796	53.0605
630.689	10.709
633.581	30.4136
636.474	37.3535
639.367	47.1973
642.26	45.6943
645.152	11.3535
648.045	2.83594
650.938	44.6411
653.83	18.4097
656.723	26.4683
659.616	42.2803
662.508	31.0112
665.401	76.3555
668.294	67.6694
671.187	33.4263
674.079	8.99658
676.972	70.9277
679.865	103.802
682.757	93.5181
685.65	99.9268
688.543	137.648
691.435	222.523
694.328	377.543
697.221	533.121
700.114	816.024
703.006	1269.07
705.899	1659.71
708.792	1484.12
711.684	725.742
714.577	375.573
717.47	156.698
720.362	109.147
723.255	79.605
726.148	72.4878
729.04	48.7373
731.933	32.751
734.826	5.40186
737.719	11.1187
740.611	2.46973
743.504	42.3716
746.397	5.15137
749.289	35.8037
752.182	30.5195
755.075	54.916
757.967	7.76562
760.86	5.81689
763.753	6.37939
766.646	4.36865
769.538	45.852
772.431	70.5615
775.324	45.1875
778.216	42.1934
781.109	51.3066
784.002	80.98
786.894	87.7939
789.787	169.15
792.68	190.522
795.573	174.034
798.465	291.884
801.358	254.442
804.251	280.125
807.143	346.714
810.036	484.17
812.929	640.761
815.822	818.833
818.714	973.639
821.607	1039.19
824.5	907.738
827.392	563.091
830.285	275.227
833.178	124.666
836.07	4.75879
838.963	10.2983
841.856	8.23828
844.748	76.5425
847.641	12.1226
850.534	17.3706
853.427	51.5698
856.319	64.1035
859.212	82.8706
862.105	103.303
864.997	162.157
867.89	225.196
870.783	409.774
873.675	682.304
876.568	1309.77
879.461	2123.51
882.354	3149.45
885.246	4430.47
888.139	5457.39
891.032	5193.86
893.924	3853.8
896.817	3262.61
899.71	3312.38
902.602	3651.39
905.495	4127.31
908.388	4291.35
911.28	4229.89
914.173	4345.77
917.066	4821.58
919.959	4833.81
922.851	3669.58
925.744	2658.65
928.637	1926.77
931.529	1422.64
934.422	1071.46
937.315	839.619
940.207	618.825
943.1	527.69
945.993	472.267
948.886	354.744
951.778	344.942
954.671	274.436
957.564	249.208
960.456	264.202
963.349	194.176
966.242	221.162
969.135	168.567
972.027	171.077
974.92	70.2212
977.813	116.732
980.705	74.1543
983.598	36.2978
986.491	40.3159
989.383	30.1045
992.276	22.0205
995.169	16.2895
998.062	36.3545
1000.95	76.0977
1003.85	86.25
1006.74	38.5605
1009.63	25.4233
1012.52	21.2134
1015.42	36.8628
1018.31	6.53271
1021.2	44.6777
1024.1	6.44971
1026.99	26.7715
1029.88	39.0859
1032.77	22.9971
1035.67	115.163
1038.56	71.2647
1041.45	141.515
1044.35	138.122
1047.24	89.874
1050.13	108.931
1053.02	99.8911
1055.92	84.1602
1058.81	156.832
1061.7	104.835
1064.59	172.088
1067.49	150.716
1070.38	149.748
1073.27	127.62
1076.16	139.174
1079.06	128.457
1081.95	95.9214
1084.84	83.4331
1087.73	68.1631
1090.63	248.759
1093.52	49.0273
1096.41	61.0249
1099.31	76.5557
1102.2	74.582
1105.09	101.944
1107.98	16.2593
1110.88	48.6938
1113.77	41.7749
1116.66	49.5444
1119.56	74.376
1122.45	48.6714
1125.34	58.2363
1128.23	77.6865
1131.13	42.5249
1134.02	73.7632
1136.91	45.9058
1139.8	38.8154
1142.7	14.7798
1145.59	57.6206
1148.48	48.4507
1151.38	132.556
1154.27	113.179
1157.16	1.31055
1160.05	35.3809
1162.94	94.0234
1165.84	48.376
1168.73	61.8906
1171.62	70.0322
1174.52	59.3369
1177.41	58.0283
1180.3	5.95898
1183.19	18.0791
1186.09	64.5098
1188.98	98.5029
1191.87	99.2988
1194.77	19.6289
1197.66	41.1592
1200.55	31.5713
1203.44	10.708
1206.34	0.392578
1209.23	89.541
1212.12	58.3457
1215.01	56.7178
1217.91	116.475
1220.8	25.7822
1223.69	19.4883
1226.59	65.374
1229.48	36.1377
1232.37	43.459
1235.26	13.8848
1238.16	105.792
1241.05	97.5312
1243.94	29.7041
1246.83	33.3154
1249.73	14.8145
1252.62	90.7812
1255.51	62.7422
1258.4	114.115
1261.3	45.9043
1264.19	78.4736
1267.08	52.709
1269.97	59.1357
1272.87	89.2656
1275.76	82.5752
1278.65	73.6221
1281.55	40.1318
1284.44	40.1143
