Measurement: Raman, 532 nm, unoriented, Raman Data Processed
Mineral: Barytocalcite
Rruff sample: R120099
Ideal chemistry: BaCa(CO_3_)_2_
Locality: Langban, Filipstad, Varmland, Sweden
Source: Michael Scott
Description: Colorless massive, associated with black hausmannite and britvinite R060785
Raman shift (cm-1)	intensity
182.577	0.980164
185.469	22.3961
188.362	57.6225
191.255	97.8212
194.147	158.334
197.04	242.284
199.933	328.545
202.825	322.31
205.718	197.636
208.611	123.82
211.504	108.441
214.396	129.575
217.289	173.102
220.182	243.705
223.074	310.552
225.967	293.816
228.86	201.672
231.752	124.445
234.645	86.2647
237.538	58.4492
240.43	40.601
243.323	40.1558
246.216	52.7147
249.109	80.1717
252.001	113.724
254.894	165.536
257.787	241.69
260.679	315.736
263.572	298.995
266.465	199.931
269.358	143.737
272.25	105.974
275.143	64.556
278.036	34.2093
280.928	11.3873
283.821	2.72226
286.714	2.33374
289.606	1.9068
292.499	6.09659
295.392	8.5448
298.284	11.1372
301.177	19.3346
304.07	34.2
306.963	50.7841
309.855	55.1285
312.748	44.4302
315.641	22.352
318.533	7.30496
321.426	0.173004
324.319	1.63525
327.212	6.43474
330.104	6.77077
332.997	2.84872
335.89	2.05051
338.782	1.23059
341.675	2.0912
344.568	0.903915
347.46	3.79034
350.353	4.82161
353.246	7.67975
356.139	11.0089
359.031	10.708
361.924	14.3711
364.817	13.9512
367.709	19.1149
370.602	16.4403
373.495	20.2748
376.387	18.3673
379.28	21.7172
382.173	20.107
385.065	21.4327
387.958	19.1954
390.851	17.0143
393.744	14.6976
396.636	15.5233
399.529	13.1421
402.422	12.6113
405.314	12.8406
408.207	13.2378
411.1	11.0368
413.993	13.7576
416.885	10.7793
419.778	8.70369
422.671	7.35025
425.563	11.7846
428.456	9.9407
431.349	7.83847
434.241	5.83862
437.134	5.32379
440.027	3.92651
442.92	7.94394
445.812	4.8635
448.705	9.25263
451.598	4.21954
454.49	4.6149
457.383	2.2175
460.276	4.33282
463.168	4.99097
466.061	5.40591
468.954	2.72464
471.846	0.567749
474.739	2.62216
477.632	1.91333
480.525	2.22083
483.417	0.224701
486.31	1.49408
489.203	1.28186
492.095	2.18765
494.988	1.52564
497.881	2.96426
500.774	3.60339
503.666	1.61517
506.559	1.03793
509.452	0.164612
512.344	1.1915
515.237	2.77606
518.13	1.29291
521.022	0.117462
523.915	2.36777
526.808	1.08441
529.701	1.9997
532.593	0.431824
535.486	2.19699
538.379	0.9198
541.271	0.598083
544.164	1.50308
547.057	1.93033
549.949	3.32016
552.842	2.81256
555.735	3.45969
558.628	0.145355
561.52	1.53311
564.413	0.390808
567.306	3.06073
570.198	1.51538
573.091	0.511139
575.984	1.3172
578.876	0.209747
581.769	2.83957
584.662	3.08762
587.554	1.70694
590.447	4.29925
593.34	2.94995
596.232	4.34595
599.125	1.49231
602.018	3.93912
604.911	3.6029
607.803	3.37097
610.696	2.13217
613.589	0.3927
616.481	0.778381
619.374	2.32864
622.267	7.30975
625.159	3.3335
628.052	0.040436
630.945	1.87167
633.838	0.363251
636.73	1.37643
639.623	4.97827
642.516	1.40091
645.408	0.763916
648.301	1.8638
651.194	1.94733
654.087	6.51392
656.979	4.27283
659.872	5.80591
662.765	2.10315
665.657	2.3909
668.55	2.69275
671.443	4.54871
674.335	8.51434
677.228	12.2191
680.121	19.7378
683.014	30.9368
685.906	51.5829
688.799	70.2835
691.692	62.2244
694.584	33.1641
697.477	37.5682
700.37	60.3829
703.263	48.1303
706.155	34.5799
709.048	39.3045
711.941	61.1046
714.833	97.2861
717.726	75.7737
720.619	10.9978
723.511	2.29767
726.404	4.14389
729.297	2.81448
732.189	3.77005
735.082	0.263367
737.975	0.337341
740.868	2.26764
743.76	2.40274
746.653	4.44485
749.546	0.046753
752.438	2.7009
755.331	3.56363
758.224	1.16605
761.116	2.20401
764.009	2.20895
766.902	0.296692
769.795	3.15173
772.687	2.73904
775.58	1.97375
778.473	2.43832
781.365	0.85434
784.258	1.07211
787.151	2.10059
790.043	0.100708
792.936	4.18332
795.829	2.08682
798.722	1.84506
801.614	1.53229
804.507	1.82199
807.4	1.28302
810.292	2.37973
813.185	1.86377
816.078	0.255524
818.971	2.9863
821.863	3.10724
824.756	2.54303
827.649	1.94696
830.541	2.43884
833.434	2.54517
836.327	3.50009
839.219	1.06986
842.112	3.29279
845.005	3.65842
847.898	2.95444
850.79	3.16122
853.683	2.92071
856.576	4.27066
859.468	4.26443
862.361	7.39728
865.254	13.4742
868.146	16.1892
871.039	23.9241
873.932	39.1773
876.824	56.0907
879.717	8.69769
882.61	3.07809
885.503	3.71695
888.395	3.7186
891.288	1.67453
894.181	1.22647
897.073	2.13419
899.966	0.398773
902.859	5.66345
905.751	1.20969
908.644	2.65811
911.537	2.68652
914.43	4.89853
917.322	3.37024
920.215	2.59625
923.108	5.20529
926	1.73068
928.893	1.05426
931.786	0.851196
934.678	0.915283
937.571	0.593872
940.464	0.498688
943.357	2.80154
946.249	3.52005
949.142	0.13916
952.035	0.865906
954.927	1.14145
957.82	1.65842
960.713	3.306
963.606	1.48926
966.498	1.59946
969.391	3.67248
972.284	0.462524
975.176	0.287628
978.069	2.4104
980.962	2.87476
983.854	1.02194
986.747	0.052368
989.64	4.05292
992.533	3.20975
995.425	2.66599
998.318	0.427368
1001.21	2.99185
1004.1	0.830078
1007	4.75708
1009.89	2.99127
1012.78	2.75385
1015.67	0.381653
1018.57	3.91907
1021.46	2.57147
1024.35	3.09167
1027.24	2.65826
1030.14	2.30249
1033.03	2.41809
1035.92	8.30542
1038.82	3.22711
1041.71	1.38867
1044.6	0.85553
1047.49	2.36383
1050.39	6.16986
1053.28	8.55548
1056.17	10.9236
1059.07	14.8714
1061.96	20.4737
1064.85	18.9947
1067.74	28.56
1070.63	62.7741
1073.53	199.935
1076.42	582.936
1079.31	863.974
1082.21	1458.22
1085.1	2986.03
1087.99	1463.46
1090.88	147.43
1093.78	45.1567
1096.67	22.1897
1099.56	18.1145
1102.45	10.4257
1105.35	4.43951
1108.24	5.84265
1111.13	5.21942
1114.03	4.04303
1116.92	1.5509
1119.81	3.26874
1122.7	1.74713
1125.6	2.56262
1128.49	0.778381
1131.38	3.44946
1134.28	1.85004
1137.17	1.32965
1140.06	0.024536
1142.95	3.98669
1145.85	1.32153
1148.74	1.78412
1151.63	0.60675
1154.52	1.54254
1157.42	5.41962
1160.31	0.156616
1163.2	5.21832
1166.09	1.56451
1168.99	0.996826
1171.88	4.62781
1174.77	2.56165
1177.66	2.7431
1180.56	3.17871
1183.45	4.59784
1186.34	5.19263
1189.24	0.999268
1192.13	1.70459
1195.02	4.94782
1197.91	8.36475
1200.81	5.93115
1203.7	2.14172
1206.59	5.9101
1209.48	7.29108
1212.38	9.85382
1215.27	7.96423
1218.16	2.26221
1221.06	4.47082
1223.95	5.69952
1226.84	5.88965
1229.73	4.59039
1232.63	3.14105
1235.52	3.40643
1238.41	1.54834
1241.31	2.84961
1244.2	1.94464
1247.09	0.967651
1249.98	1.81934
1252.88	6.38623
1255.77	0.459473
1258.66	6.16852
1261.55	4.9845
1264.45	3.31513
1267.34	5.95276
1270.23	5.61566
1273.12	2.44348
1276.02	5.33044
1278.91	1.98755
1281.8	1.88245
1284.69	5.96045
1287.59	3.48132
1290.48	3.25116
1293.37	1.68768
1296.27	2.82678
1299.16	0.839539
1302.05	1.12634
