Measurement: Raman, 785 nm, unoriented, Raman Data Processed
Mineral: Barysilite
Rruff sample: R050002
Ideal chemistry: Pb_8_Mn(Si_2_O_7_)_3_
Locality: Franklin, Sussex County, New Jersey, USA
Source: University of Arizona Mineral Museum
Description: A lamellar aggregate of platy crystals
Measured chemistry: Pb_8.00_Mn_1.00_(Si_2.00_O_7_)_3_
Raman shift (cm-1)	intensity
125.359	0
128.251	-3.72446
131.144	-0.0360791
134.037	4.6809
136.929	6.74231
139.822	7.11217
142.715	66.5508
145.607	186.792
148.5	289.735
151.393	332.846
154.286	293.931
157.178	268.723
160.071	319.132
162.964	477.708
165.856	717.01
168.749	1047.68
171.642	1420.36
174.534	1915.54
177.427	2393.75
180.32	2941.24
183.212	3339.34
186.105	3337.12
188.998	2786.82
191.891	2083.61
194.783	1485.08
197.676	1078.95
200.569	810.92
203.461	610.759
206.354	509.21
209.247	428.764
212.139	338.145
215.032	281.401
217.925	228.516
220.818	206.316
223.71	210.281
226.603	207.01
229.496	213.929
232.388	226.075
235.281	279.393
238.174	299.641
241.066	339.232
243.959	373.166
246.852	339.196
249.745	353.62
252.637	373.082
255.53	362.664
258.423	331.212
261.315	292.008
264.208	226.611
267.101	136.956
269.993	97.3232
272.886	60.85
275.779	13.5212
278.672	12.1069
281.564	8.41711
284.457	0.552368
287.35	7.97107
290.242	9.14789
293.135	28.732
296.028	14.8093
298.921	3.19171
301.813	9.06744
304.706	0.381958
307.599	16.072
310.491	32.0865
313.384	58.5359
316.277	76.265
319.169	130.679
322.062	158.783
324.955	172.196
327.847	167.016
330.74	165.934
333.633	158.548
336.526	161.105
339.418	127.024
342.311	93.0623
345.204	88.9904
348.096	64.8095
350.989	58.1246
353.882	80.5901
356.774	88.1199
359.667	103.053
362.56	97.0368
365.452	91.9821
368.345	107.787
371.238	116.857
374.131	132.552
377.023	147.865
379.916	159.535
382.809	143.823
385.701	118.62
388.594	120.2
391.487	83.7808
394.38	56.0967
397.272	39.4388
400.165	29.9263
403.058	0.095032
405.95	3.11505
408.843	5.91644
411.736	3.19598
414.628	14.1516
417.521	21.5287
420.414	38.7388
423.307	62.8374
426.199	102.505
429.092	128.008
431.985	164.262
434.877	190.303
437.77	223.885
440.663	188.804
443.555	122.531
446.448	86.9013
449.341	43.2233
452.234	47.2043
455.126	21.832
458.019	8.72693
460.912	4.00317
463.804	0.812927
466.697	11.6702
469.59	45.5042
472.483	77.9453
475.375	101.549
478.268	182.222
481.161	237.687
484.053	317.132
486.946	345.251
489.839	404.212
492.731	540.45
495.624	743.863
498.517	988.27
501.409	1211.21
504.302	1451.26
507.195	1539.93
510.088	1408.76
512.98	1069.48
515.873	776.913
518.766	530.201
521.658	353.27
524.551	273.516
527.444	190.342
530.337	156.735
533.229	126.909
536.122	139.354
539.015	104.501
541.907	91.3307
544.8	71.0593
547.693	56.8104
550.585	39.8843
553.478	56.1795
556.371	44.661
559.263	2.21726
562.156	7.74597
565.049	18.1606
567.942	2.76968
570.834	5.8689
573.727	10.399
576.62	1.3562
579.512	5.08359
582.405	0.846588
585.298	1.75619
588.19	5.59534
591.083	0.643311
593.976	3.60471
596.869	6.96362
599.761	3.78973
602.654	10.4878
605.547	3.95563
608.439	15.9929
611.332	4.68964
614.225	13.3546
617.117	11.4224
620.01	9.426
622.903	16.9232
625.795	16.2949
628.688	16.8621
631.581	12.3816
634.474	7.49329
637.366	6.96881
640.259	12.4611
643.152	11.3928
646.044	16.5294
648.937	0.709198
651.83	15.6285
654.722	24.3269
657.615	11.0244
660.508	22.494
663.401	24.0313
666.293	6.30942
669.186	20.3341
672.079	20.2661
674.971	45.3677
677.864	38.3827
680.757	50.9201
683.649	66.6082
686.542	56.0163
689.435	39.2342
692.328	47.41
695.22	102.624
698.113	134.258
701.006	163.535
703.898	203.835
706.791	245.276
709.684	218.585
712.577	116.144
715.469	63.8665
718.362	29.544
721.255	25.7999
724.147	17.8619
727.04	2.87955
729.933	5.56027
732.825	9.02902
735.718	14.017
738.611	1.89365
741.504	4.60614
744.396	5.7084
747.289	9.98084
750.182	15.9457
753.074	4.55484
755.967	1.19544
758.86	15.447
761.752	10.1707
764.645	11.0429
767.538	7.12427
770.431	7.58551
773.323	6.76245
776.216	3.5466
779.109	6.62781
782.001	10.5688
784.894	5.51685
787.787	3.59345
790.679	18.2328
793.572	6.11587
796.465	7.51504
799.357	11.3251
802.25	12.0097
805.143	8.71435
808.036	8.64505
810.928	26.9969
813.821	45.1243
816.714	59.9183
819.606	80.7257
822.499	90.9787
825.392	88.3534
828.284	59.1076
831.177	47.4117
834.07	26.4534
836.963	38.7993
839.855	27.355
842.748	18.5429
845.641	18.1262
848.533	7.09024
851.426	1.82309
854.319	2.42682
857.212	5.9649
860.104	11.3037
862.997	10.6663
865.89	12.3125
868.782	20.1874
871.675	40.6978
874.568	59.6685
877.46	117.402
880.353	189.317
883.246	297.066
886.139	416.328
889.031	478.416
891.924	469.245
894.817	373.999
897.709	345.615
900.602	332.419
903.495	363.07
906.388	362.309
909.28	362.835
912.173	320.855
915.066	324.8
917.958	294.693
920.851	314.409
923.744	265.495
926.636	234.721
929.529	175.236
932.422	129.774
935.314	82.1428
938.207	67.2424
941.1	59.9768
943.993	40.1739
946.885	32.4023
949.778	14.7667
952.671	20.8867
955.563	10.7982
958.456	23.3545
961.349	11.809
964.241	18.3326
967.134	18.1349
970.027	18.5316
972.92	0.292358
975.812	9.15741
978.705	14.497
981.598	7.4104
984.49	6.48425
987.383	0.919678
990.276	16.2989
993.168	1.14035
996.061	1.23291
998.954	8.68036
1001.85	4.28091
1004.74	11.5613
1007.63	5.11231
1010.52	0.856079
1013.42	0.206024
1016.31	18.2071
1019.2	15.0054
1022.1	9.91666
1024.99	5.70813
1027.88	13.5054
1030.77	4.78726
1033.67	12.1812
1036.56	6.181
1039.45	14.5238
1042.34	28.264
1045.24	83.1876
1048.13	196.28
1051.02	331.155
1053.91	648.666
1056.81	590.027
1059.7	243.778
1062.59	69.8362
1065.49	28.3832
1068.38	16.3473
1071.27	37.858
1074.16	24.2011
1077.06	6.84293
1079.95	19.7956
1082.84	29.3896
1085.73	12.6101
1088.63	16.9883
1091.52	6.1514
1094.41	7.49109
1097.31	13.9498
1100.2	14.3545
1103.09	2.84811
1105.98	9.18857
1108.88	7.75595
1111.77	3.72201
1114.66	8.39685
1117.56	7.29584
1120.45	4.0282
1123.34	4.43939
1126.23	4.23373
1129.12	16.1068
1132.02	11.691
1134.91	10.6322
1137.8	4.37085
1140.7	7.74863
1143.59	18.2818
1146.48	8.72772
1149.37	7.24078
1152.27	5.93402
1155.16	12.2163
1158.05	3.07858
1160.94	24.9169
1163.84	13.1776
1166.73	20.0749
1169.62	17.7598
1172.52	10.123
1175.41	12.1777
1178.3	0.778809
1181.19	16.4046
1184.09	5.80963
1186.98	7.96115
1189.87	21.7619
1192.77	25.9601
1195.66	17.5733
1198.55	13.3035
1201.44	13.1005
1204.34	7.35477
