Measurement: Raman, 532 nm, unoriented, Raman Data Processed
Mineral: Baryte
Rruff sample: R050335
Ideal chemistry: BaSO_4_
Locality: Bullion Mountains, San Bernardino County, California, USA
Source: California Institute of Technology
Description: Colorless cleavage fragment
Measured chemistry: (Ba_0.95_Sr_0.05_)_Î£=1_S_1.00_O_4_
Raman shift (cm-1)	intensity
91.8714	0
95.2462	0.677996
98.621	0.475718
101.996	0.078858
105.371	0.609002
108.746	2.44575
112.12	2.8502
115.495	4.90113
118.87	7.42719
122.245	9.14176
125.62	9.48054
128.994	11.3035
132.369	14.6569
135.744	17.2369
139.119	19.4203
142.494	24.1907
145.869	30.118
149.243	39.794
152.618	48.3438
155.993	37.8084
159.368	22.9158
162.743	16.2187
166.117	11.7401
169.492	10.8413
172.867	10.3569
176.242	11.32
179.617	10.0752
182.992	12.4812
186.366	19.3161
189.741	22.0698
193.116	14.2913
196.491	6.21324
199.865	3.52874
203.24	1.739
206.615	1.18058
209.99	0.794086
213.365	0.691493
216.74	1.03505
220.114	0.146507
223.489	0.075397
226.864	0.446796
230.239	0.306724
233.614	0.617616
236.988	0.540721
240.363	0.391066
243.738	0.234792
247.113	0.701593
250.488	1.14923
253.863	0.596445
257.237	0.049933
260.612	0.471192
263.987	0.716069
267.362	0.348405
270.737	0.940519
274.111	0.581398
277.486	1.06018
280.861	1.31254
284.236	0.117929
287.611	1.12962
290.986	0.358132
294.36	0.799478
297.735	1.04147
301.11	1.29908
304.485	0.66565
307.86	0.555303
311.235	0.408
314.609	0.289205
317.984	0.084216
321.359	0.730867
324.734	0.181638
328.109	0.206369
331.483	0.031878
334.858	0.492541
338.233	1.11796
341.608	0.566723
344.983	0.845056
348.358	0.39934
351.732	0.150442
355.107	0.487726
358.482	0.636524
361.857	1.07571
365.232	1.59664
368.606	1.0931
371.981	0.776524
375.356	0.954809
378.731	0.936668
382.106	0.607222
385.481	0.115854
388.855	0.829496
392.23	0.79685
395.605	0.272745
398.98	0.003605
402.355	0.299896
405.729	0.90332
409.104	2.46899
412.479	2.96944
415.854	5.04551
419.229	8.07654
422.603	11.7282
425.978	19.6081
429.353	29.6328
432.728	52.5624
436.103	95.2011
439.478	157.023
442.852	275.265
446.227	479.483
449.602	731.142
452.977	989.424
456.352	1138.14
459.726	1565.13
463.101	1226.42
466.476	391.881
469.851	155.272
473.226	83.4415
476.601	48.1123
479.975	32.5281
483.35	20.5154
486.725	13.603
490.1	9.0998
493.475	6.40129
496.849	4.4459
500.224	3.32753
503.599	2.20124
506.974	2.21325
510.349	1.13726
513.723	0.9807
517.098	0.653421
520.473	0.486549
523.848	0.89694
527.223	0.853664
530.598	0.115259
533.972	0.627151
537.347	0.094
540.722	1.01959
544.097	0.204237
547.472	0.211271
550.846	0.217133
554.221	0.382557
557.596	0.672331
560.971	0.111237
564.346	0.026384
567.721	0.81876
571.095	0.524593
574.47	1.21233
577.845	1.85637
581.22	2.72114
584.595	4.70983
587.97	6.55954
591.344	9.78593
594.719	14.1301
598.094	22.4022
601.469	44.5477
604.844	68.7231
608.218	109.625
611.593	193.643
614.968	327.204
618.343	284.502
621.718	143.336
625.092	120.242
628.467	138.16
631.842	112.998
635.217	45.2699
638.592	18.5259
641.967	11.3488
645.341	9.85124
648.716	6.80181
652.091	2.61361
655.466	0.878961
658.841	0.273751
662.216	0.974383
665.59	0.373151
668.965	0.23124
672.34	0.257193
675.715	0.536886
679.09	1.2181
682.464	1.15492
685.839	0.252247
689.214	0.623066
692.589	1.06627
695.964	0.565941
699.338	0.035843
702.713	0.634518
706.088	0.808094
709.463	0.327893
712.838	0.016343
716.212	0.586728
719.587	0.154384
722.962	0.17973
726.337	0.454888
729.712	0.45694
733.087	0.686296
736.461	0.997809
739.836	0.219355
743.211	0.430076
746.586	0.632339
749.961	1.29175
753.336	1.19998
756.71	1.2382
760.085	1.36293
763.46	1.55105
766.835	1.19867
770.21	2.17964
773.584	1.77369
776.959	1.9427
780.334	1.87123
783.709	1.94947
787.084	2.19167
790.458	2.11884
793.833	3.14934
797.208	2.20797
800.583	2.256
803.958	2.36721
807.333	3.13752
810.707	2.40659
814.082	2.39295
817.457	2.30774
820.832	1.69561
824.207	2.069
827.582	1.97508
830.956	2.15224
834.331	1.26777
837.706	1.06772
841.081	1.09908
844.456	0.559758
847.83	1.02484
851.205	0.998496
854.58	0.931861
857.955	0.191918
861.33	0.598276
864.705	0.277646
868.079	0.411451
871.454	0.109493
874.829	0.016069
878.204	0.519533
881.579	0.049429
884.953	0.240225
888.328	0.318104
891.703	0.200319
895.078	1.85621
898.453	3.27194
901.827	2.39054
905.202	2.35057
908.577	1.51547
911.952	2.06557
915.327	2.74267
918.702	2.95716
922.076	1.98124
925.451	3.74311
928.826	2.47791
932.201	2.35785
935.576	3.45875
938.95	2.80739
942.325	3.60427
945.7	3.23003
949.075	3.93866
952.45	5.80639
955.824	9.54243
959.199	14.7949
962.574	23.2393
965.949	40.7202
969.324	61.2385
972.699	141.797
976.073	489.403
979.448	858.456
982.823	1600
986.198	3879.78
989.573	4958.15
992.947	639.582
996.322	188.301
999.697	90.8311
1003.07	53.1652
1006.45	34.6681
1009.82	25.0473
1013.2	18.8856
1016.57	11.6224
1019.95	8.78979
1023.32	6.3139
1026.7	5.24023
1030.07	2.82954
1033.44	1.13591
1036.82	0.051441
1040.19	0.378353
1043.57	1.23737
1046.94	0.412493
1050.32	0.554205
1053.69	0.078583
1057.07	0.182831
1060.44	0.044998
1063.82	0.69154
1067.19	0.553209
1070.57	0.909992
1073.94	1.15301
1077.32	1.83696
1080.69	3.048
1084.07	3.46933
1087.44	3.72604
1090.82	4.42756
1094.19	8.87541
1097.57	15.0548
1100.94	24.8283
1104.32	26.693
1107.69	13.7929
1111.07	6.26971
1114.44	4.41196
1117.82	4.54613
1121.19	5.89167
1124.57	8.92504
1127.94	15.0197
1131.32	26.8233
1134.69	47.6171
1138.07	76.8701
1141.44	115.169
1144.81	130.153
1148.19	88.0153
1151.56	44.2122
1154.94	27.5828
1158.31	16.4364
1161.69	11.2316
1165.06	9.71088
1168.44	7.18694
1171.81	3.95513
1175.19	1.66926
1178.56	2.08347
1181.94	0.978767
1185.31	1.35134
1188.69	0.010897
1192.06	0.120323
1195.44	0.239695
1198.81	0.173843
1202.19	0.104605
1205.56	0.622692
1208.94	0.818209
1212.31	2.55849
1215.68	2.3384
1219.06	1.90032
1222.43	2.41554
1225.81	1.70094
1229.18	1.23335
1232.56	1.30127
1235.93	2.01594
1239.31	2.68977
1242.68	3.10716
1246.06	2.20554
1249.43	2.06413
1252.81	1.11939
1256.18	1.96211
1259.56	1.26684
1262.93	1.96816
1266.31	1.58487
1269.68	1.51923
1273.06	1.75587
1276.43	1.17798
1279.81	0.915806
1283.18	1.00006
1286.56	1.52662
1289.93	0.180216
1293.31	0.635111
1296.68	0.832611
1300.06	0.678333
1303.43	0.261652
