Measurement: Raman, 532 nm, unoriented, Raman Data Processed
Mineral: Barysilite
Rruff sample: R100057
Ideal chemistry: Pb_8_Mn(Si_2_O_7_)_3_
Locality: Langban, Filipstad, Varmland, Sweden
Source: William W Pinch
Description: Aggregate of colorless plates
Raman shift (cm-1)	intensity
90.9743	0
94.3491	2.11668
97.7239	3.30913
101.099	7.58372
104.474	9.75607
107.848	13.8186
111.223	21.6868
114.598	18.1677
117.973	11.6733
121.348	4.92253
124.722	1.67938
128.097	5.13313
131.472	6.07612
134.847	0.630348
138.222	14.8528
141.597	34.5089
144.971	45.1326
148.346	56.5278
151.721	74.3112
155.096	82.504
158.471	97.3233
161.845	137.28
165.22	217.196
168.595	331.834
171.97	463.026
175.345	623.908
178.72	865.491
182.094	1249.45
185.469	1608.44
188.844	1398.13
192.219	892.014
195.594	550.467
198.968	363.044
202.343	259.677
205.718	196.127
209.093	153.018
212.468	125.211
215.843	103.08
219.217	87.0535
222.592	79.586
225.967	83.0664
229.342	84.4516
232.717	95.0971
236.091	111.862
239.466	123.429
242.841	134.918
246.216	137.876
249.591	144.745
252.965	162.78
256.34	185.244
259.715	177.061
263.09	135.562
266.465	83.6146
269.84	45.6698
273.214	22.1826
276.589	10.4339
279.964	2.98125
283.339	0.253494
286.714	1.16349
290.089	2.37295
293.463	5.49705
296.838	3.52604
300.213	3.90638
303.588	2.70431
306.963	0.120583
310.337	4.78341
313.712	8.66005
317.087	18.6247
320.462	31.0871
323.837	43.9819
327.212	42.4983
330.586	36.0773
333.961	27.9028
337.336	26.7246
340.711	21.3859
344.086	16.6644
347.46	17.1517
350.835	18.7416
354.21	21.862
357.585	26.9459
360.96	29.0322
364.334	29.4208
367.709	31.266
371.084	35.9028
374.459	41.5117
377.834	46.6718
381.209	47.245
384.583	49.7778
387.958	43.644
391.333	32.0737
394.708	16.9452
398.083	8.13207
401.457	0.556602
404.832	3.19017
408.207	2.36238
411.582	2.10912
414.957	1.55219
418.332	11.6108
421.706	23.8829
425.081	39.4851
428.456	59.3557
431.831	83.3506
435.206	104.481
438.58	101.41
441.955	76.6653
445.33	48.3167
448.705	29.1309
452.08	14.4981
455.454	7.38689
458.829	4.05276
462.204	1.93986
465.579	6.64972
468.954	15.216
472.329	29.2616
475.703	52.0807
479.078	86.6474
482.453	116.347
485.828	130.51
489.203	167.019
492.577	240.081
495.952	339.721
499.327	461.407
502.702	594.963
506.077	689.552
509.452	648.225
512.826	485.833
516.201	309.483
519.576	195.456
522.951	125.795
526.326	85.4818
529.701	62.4451
533.075	52.7635
536.45	51.7782
539.825	34.4155
543.2	18.4102
546.575	12.2415
549.949	10.1137
553.324	10.2702
556.699	7.45779
560.074	2.23468
563.449	1.04778
566.823	0.437141
570.198	2.19386
573.573	1.67696
576.948	0.969627
580.323	1.9104
583.697	0.746914
587.072	0.398594
590.447	0.608742
593.822	0.310776
597.197	1.28599
600.572	1.17878
603.946	1.49554
607.321	2.74072
610.696	2.53949
614.071	3.42457
617.446	3.76263
620.821	5.11266
624.195	4.93676
627.57	3.44054
630.945	2.86593
634.32	3.08701
637.695	3.68581
641.069	3.85668
644.444	2.88872
647.819	2.62019
651.194	2.39958
654.569	2.84363
657.943	2.43155
661.318	1.89763
664.693	1.7529
668.068	1.83551
671.443	1.82214
674.818	2.00512
678.192	2.20905
681.567	2.49438
684.942	2.98276
688.317	4.07299
691.692	8.46874
695.067	14.3528
698.441	25.1076
701.816	41.5099
705.191	63.9627
708.566	73.2941
711.941	39.2865
715.315	13.2097
718.69	5.64683
722.065	3.59671
725.44	2.15056
728.815	2.4617
732.189	1.87525
735.564	1.26155
738.939	1.00687
742.314	0.807178
745.689	1.573
749.063	0.261581
752.438	0.034023
755.813	0.648647
759.188	0.785519
762.563	0.78265
765.938	0.275833
769.312	0.220787
772.687	0.390881
776.062	0.092968
779.437	0.514015
782.812	0.59898
786.187	1.08336
789.561	0.481514
792.936	0.835991
796.311	1.39326
799.686	1.14302
803.061	2.69534
806.435	3.68991
809.81	7.84244
813.185	15.7217
816.56	22.633
819.935	30.8089
823.309	32.5453
826.684	23.5952
830.059	12.4746
833.434	5.35538
836.809	2.76707
840.184	0.451878
843.558	0.004627
846.933	0.712555
850.308	1.04917
853.683	0.383602
857.058	0.055328
860.433	0.857048
863.807	3.79835
867.182	7.10265
870.557	14.6484
873.932	27.9467
877.307	54.2578
880.681	91.4449
884.056	148.701
887.431	230.832
890.806	264.455
894.181	188.057
897.556	137.824
900.93	134.859
904.305	155.708
907.68	175.568
911.055	156.386
914.43	132.468
917.804	144.651
921.179	157.723
924.554	119.825
927.929	85.6617
931.304	57.1077
934.678	39.8533
938.053	26.5069
941.428	18.8995
944.803	14.4623
948.178	10.124
951.553	7.76892
954.927	7.48793
958.302	8.76608
961.677	7.87257
965.052	6.03033
968.427	5.05718
971.802	3.42653
975.176	2.91392
978.551	2.80472
981.926	2.27702
985.301	1.58606
988.676	1.78054
992.05	0.810394
995.425	0.17804
998.8	0.368393
1002.17	0.114296
1005.55	0.523067
1008.92	0.607899
1012.3	0.258652
1015.67	0.736984
1019.05	0.025307
1022.42	0.450161
1025.8	0.129452
1029.17	1.23401
1032.55	0.095802
1035.92	1.9967
1039.3	1.32702
1042.67	2.6236
1046.05	3.81968
1049.42	4.26461
1052.8	6.35826
1056.17	6.86114
1059.55	7.51377
1062.92	8.86631
1066.3	6.95058
1069.67	9.62463
1073.05	9.24728
1076.42	8.73063
1079.8	8.48258
1083.17	7.19848
1086.55	5.75197
1089.92	5.737
1093.3	4.9906
1096.67	5.71035
1100.04	3.96333
1103.42	3.25332
1106.79	3.95552
1110.17	2.29686
1113.54	1.91919
1116.92	1.10672
1120.29	0.549675
1123.67	1.2297
1127.04	0.014557
1130.42	0.866787
1133.79	0.897205
1137.17	0.252552
1140.54	0.637447
1143.92	0.06609
1147.29	0.346016
1150.67	1.04956
1154.04	0.63488
1157.42	0.548306
1160.79	1.42709
1164.17	0.542759
1167.54	1.01881
1170.92	0.775757
1174.29	1.07284
1177.66	1.267
1181.04	1.31359
1184.41	1.15956
1187.79	0.673443
1191.16	0.704334
1194.54	1.12122
1197.91	0.669445
1201.29	0.19762
1204.66	0.60479
1208.04	0.917889
1211.41	0.334629
1214.79	1.15752
1218.16	0.125858
1221.54	2.30227
1224.91	1.18794
1228.29	0.674694
1231.66	1.17426
1235.04	1.6985
1238.41	0.624851
1241.79	0.437172
1245.16	1.91421
1248.54	1.63137
1251.91	1.44142
1255.29	0.67194
1258.66	0.622982
1262.04	0.31715
1265.41	0.946041
1268.79	0.96706
1272.16	1.02755
1275.54	0.782722
1278.91	1.54265
1282.29	1.08757
1285.66	0.809067
1289.03	0.841228
1292.41	1.94623
1295.78	0.587322
1299.16	1.50034
1302.53	0.003716
