Measurement: Raman, 532 nm, unoriented, Raman Data Processed
Mineral: Barylite
Rruff sample: R060620
Ideal chemistry: BaBe_2_Si_2_O_7_
Locality: Zomba, Malawi
Source: Michael Scott
Description: Colorless long prismatic single crystals associated with aegirine
Measured chemistry: Ba_1.00_Be_2.00_Si_2.00_O_7_ ; Be not measured but estimated by difference and stoichiometry
Raman shift (cm-1)	intensity
178.72	0
181.612	17.112
184.505	76.1136
187.398	283.747
190.29	603.369
193.183	244.689
196.076	77.1105
198.968	82.8775
201.861	125.061
204.754	44.8351
207.647	9.21747
210.539	4.01073
213.432	10.4455
216.325	3.24654
219.217	13.7423
222.11	21.6699
225.003	36.6228
227.895	83.3823
230.788	197.974
233.681	466.521
236.573	234.88
239.466	54.4678
242.359	17.5027
245.252	5.60547
248.144	1.6201
251.037	1.83719
253.93	0.295914
256.822	3.03143
259.715	11.2264
262.608	18.2307
265.5	2.30125
268.393	1.30307
271.286	1.46373
274.179	1.27219
277.071	1.06659
279.964	0.509583
282.857	3.67493
285.75	4.94972
288.642	2.30963
291.535	4.77055
294.428	5.4935
297.32	9.06255
300.213	13.401
303.106	16.4463
305.998	22.389
308.891	34.1708
311.784	49.7508
314.676	72.6463
317.569	113.048
320.462	179.019
323.355	292.909
326.247	465.533
329.14	714.245
332.033	878.91
334.925	1256.67
337.818	1472.52
340.711	1035.34
343.603	559.683
346.496	304.934
349.389	180.289
352.281	111.802
355.174	79.5345
358.067	65.2447
360.96	38.9863
363.852	22.1021
366.745	23.7162
369.638	30.1365
372.53	42.9201
375.423	56.6056
378.316	103.045
381.209	219.589
384.101	419.704
386.994	136.174
389.887	29.5013
392.779	13.017
395.672	8.32355
398.565	9.50629
401.457	10.8424
404.35	21.0162
407.243	51.9296
410.135	96.493
413.028	43.8749
415.921	25.7477
418.814	6.67139
421.706	3.168
424.599	4.1212
427.492	0.58902
430.384	1.79234
433.277	0.17482
436.17	5.64958
439.062	13.4497
441.955	25.1385
444.848	30.3713
447.741	40.2103
450.633	22.6805
453.526	22.7542
456.419	32.1981
459.311	62.2463
462.204	124.161
465.097	187.283
467.99	69.8794
470.882	36.5097
473.775	14.6872
476.668	9.08641
479.56	6.64265
482.453	2.58972
485.346	2.60327
488.238	1.75307
491.131	1.98386
494.024	1.44043
496.916	1.51482
499.809	0.453995
502.702	0.869339
505.595	0.940704
508.487	1.31088
511.38	0.773956
514.273	1.70914
517.165	3.25171
520.058	0.942245
522.951	1.72482
525.844	2.83722
528.736	4.57306
531.629	8.29826
534.522	12.8809
537.414	24.9155
540.307	28.2225
543.2	18.4754
546.092	16.7167
548.985	10.6926
551.878	7.54013
554.771	8.8578
557.663	8.43799
560.556	6.62723
563.449	8.98419
566.341	9.81122
569.234	18.1119
572.127	21.0483
575.019	27.3859
577.912	18.5873
580.805	3.64839
583.697	0.988983
586.59	0.853104
589.483	0.953751
592.376	0.842377
595.268	1.14485
598.161	0.842499
601.054	0.745926
603.946	2.35513
606.839	2.55762
609.732	8.09845
612.625	11.9586
615.517	16.2215
618.41	27.2363
621.303	39.5677
624.195	53.2574
627.088	64.3468
629.981	58.9682
632.873	38.6951
635.766	25.7081
638.659	16.9296
641.552	13.3887
644.444	7.96317
647.337	6.32423
650.23	8.34842
653.122	8.13188
656.015	11.9026
658.908	17.5521
661.8	28.5174
664.693	40.9594
667.586	62.7666
670.479	109.139
673.371	188.147
676.264	302.371
679.157	512.911
682.049	869.505
684.942	1236.3
687.835	871.943
690.727	382.847
693.62	183.263
696.513	99.4833
699.405	60.7684
702.298	39.6143
705.191	26.3423
708.084	16.4398
710.976	11.6452
713.869	6.10989
716.762	3.00629
719.654	2.89778
722.547	1.89366
725.44	1.97066
728.332	3.20535
731.225	2.28636
734.118	2.77736
737.011	2.06294
739.903	0.404755
742.796	1.68259
745.689	0.505951
748.581	1.6212
751.474	3.98814
754.367	4.25668
757.26	3.66115
760.152	0.275894
763.045	1.46977
765.938	1.64812
768.83	1.642
771.723	0.19455
774.616	0.558746
777.508	0.369095
780.401	0.321091
783.294	0.37883
786.187	1.57458
789.079	3.87868
791.972	0.350937
794.865	0.905624
797.757	4.2829
800.65	0.862366
803.543	1.49977
806.435	2.34737
809.328	3.22118
812.221	2.13872
815.114	3.39883
818.006	4.24501
820.899	4.27388
823.792	1.88797
826.684	1.58368
829.577	1.94124
832.47	2.99155
835.362	1.40152
838.255	3.04155
841.148	2.2307
844.04	2.09425
846.933	1.50198
849.826	0.224106
852.719	0.568588
855.611	1.59769
858.504	0.738266
861.397	1.11092
864.289	1.42221
867.182	0.646576
870.075	0.764664
872.967	4.81926
875.86	9.76054
878.753	20.0472
881.646	36.9708
884.538	58.6307
887.431	91.1616
890.324	84.8991
893.216	44.7987
896.109	19.9786
899.002	6.12703
901.894	1.90967
904.787	0.531311
907.68	0.734329
910.573	0.266068
913.465	0.406082
916.358	1.50694
919.251	6.32274
922.143	11.5123
925.036	23.2309
927.929	44.0297
930.822	72.6333
933.714	116.962
936.607	172.805
939.5	176.077
942.392	133.729
945.285	143.083
948.178	206.823
951.07	328.312
953.963	540.441
956.856	830.382
959.749	937.247
962.641	599.209
965.534	305.553
968.427	169.38
971.319	97.9396
974.212	63.5274
977.105	50.1069
979.997	52.034
982.89	55.4466
985.783	52.3582
988.676	40.7704
991.568	32.2293
994.461	35.1483
997.354	35.6648
1000.25	21.2119
1003.14	8.90495
1006.03	5.26041
1008.92	6.23305
1011.82	8.47047
1014.71	12.8797
1017.6	8.09264
1020.5	3.69467
1023.39	1.88699
1026.28	1.62355
1029.17	0.159378
1032.07	1.16319
1034.96	0.236481
1037.85	0.660553
1040.74	0.687485
1043.64	0.659225
1046.53	1.04919
1049.42	0.706024
1052.32	0.313126
1055.21	0.67012
1058.1	2.09734
1060.99	2.12212
1063.89	1.70651
1066.78	2.25421
1069.67	2.40816
1072.56	4.00891
1075.46	4.22046
1078.35	4.29111
1081.24	5.32069
1084.13	3.96037
1087.03	5.4211
1089.92	2.94783
1092.81	4.88579
1095.7	2.44846
1098.6	5.27675
1101.49	4.00948
1104.38	4.62859
1107.28	3.94428
1110.17	3.88661
1113.06	2.49066
1115.95	2.89502
1118.85	0.801331
1121.74	1.46356
1124.63	1.18378
1127.53	1.21796
1130.42	1.55631
1133.31	0.615829
1136.2	2.15124
1139.1	2.03303
1141.99	2.81041
1144.88	0.132935
1147.77	2.2762
1150.67	1.92906
1153.56	2.59102
1156.45	2.5437
1159.35	1.54143
1162.24	2.87178
1165.13	0.964493
1168.02	1.76596
1170.92	4.08403
1173.81	1.91406
1176.7	2.41975
1179.59	1.54933
1182.49	1.77801
1185.38	1.27365
1188.27	1.64891
1191.16	3.93636
1194.06	1.67049
1196.95	0.482864
1199.84	0.050552
1202.73	1.50058
1205.63	0.783676
1208.52	2.5791
1211.41	3.25623
1214.31	1.83733
1217.2	2.24153
1220.09	0.419434
1222.98	1.39481
1225.88	0.329636
1228.77	4.42511
1231.66	1.37923
1234.56	1.65715
1237.45	2.36481
1240.34	0.532501
1243.23	0.200974
1246.13	1.15611
1249.02	0.75206
1251.91	3.55666
1254.8	2.00014
1257.7	1.81738
1260.59	2.21561
1263.48	3.0242
1266.38	2.38155
1269.27	1.31508
1272.16	2.30437
1275.05	3.57292
1277.95	0.907669
1280.84	2.882
1283.73	3.59422
1286.62	1.85438
1289.52	2.88628
1292.41	1.87265
1295.3	2.62955
1298.19	2.26816
1301.09	0.321838
