Measurement: Raman, 780 nm, unoriented, Raman Data Processed
Mineral: Baryte
Rruff sample: R040036
Ideal chemistry: BaSO_4_
Locality: Cumbria County, England
Source: University of Arizona Mineral Museum
Description: Golden brown tabular crystal
Measured chemistry: Ba_1.00_S_1.00_O_4_; trace amounts of Pb
Raman shift (cm-1)	intensity
118.616	0
121.991	0.502075
125.365	1.86005
128.74	7.36047
132.115	11.1898
135.49	20.7314
138.865	24.5175
142.24	42.3518
145.614	68.8816
148.989	103.62
152.364	117.007
155.739	67.1409
159.114	28.7643
162.488	18.3525
165.863	20.905
169.238	18.733
172.613	22.9039
175.988	26.4662
179.363	30.9026
182.737	44.9582
186.112	74.5208
189.487	79.2823
192.862	34.6258
196.237	15.5871
199.612	7.51044
202.986	4.0849
206.361	2.42127
209.736	6.03406
213.111	0.577393
216.486	2.53351
219.86	0.799866
223.235	3.35663
226.61	0.740662
229.985	0.13916
233.36	4.64423
236.734	4.43292
240.109	9.6059
243.484	2.9657
246.859	13.4576
250.234	4.06815
253.609	2.7146
256.983	4.6301
260.358	5.73175
263.733	6.75015
267.108	6.74722
270.483	4.3992
273.858	2.76382
277.232	3.19888
280.607	5.08063
283.982	6.07318
287.357	0.988434
290.731	5.52615
294.106	3.26489
297.481	5.98468
300.856	6.65137
304.231	5.78375
307.606	8.51166
310.98	2.629
314.355	4.63773
317.73	6.08417
321.105	11.6397
324.48	3.20749
327.854	4.19098
331.229	6.2691
334.604	2.32443
337.979	2.73889
341.354	3.05124
344.729	6.11856
348.103	5.68198
351.478	3.75183
354.853	1.21045
358.228	7.2229
361.603	3.95187
364.978	4.31555
368.352	1.30051
371.727	4.87772
375.102	1.71817
378.477	2.49365
381.852	1.37457
385.226	1.87393
388.601	1.17773
391.976	1.40463
395.351	1.21982
398.726	0.089691
402.101	4.10062
405.475	6.12845
408.85	8.79788
412.225	9.0907
415.6	19.6735
418.974	26.4378
422.349	35.9124
425.724	59.5755
429.099	96.484
432.474	164.55
435.849	282.189
439.223	460.078
442.598	866.305
445.973	1311.02
449.348	1808.41
452.723	2465.61
456.098	2892.96
459.472	4338.19
462.847	4111.75
466.222	1309.86
469.597	484.429
472.972	242.02
476.346	134.913
479.721	94.5346
483.096	65.7766
486.471	47.1743
489.846	34.0312
493.221	23.5457
496.595	16.1463
499.97	10.4951
503.345	5.4556
506.72	4.11301
510.095	5.5025
513.469	3.34445
516.844	3.89768
520.219	6.51004
523.594	0.046082
526.969	0.345612
530.343	3.22965
533.718	1.66495
537.093	1.08502
540.468	7.00165
543.843	0.561768
547.218	0.857086
550.592	3.80337
553.967	2.10272
557.342	6.86963
560.717	2.09943
564.092	7.66507
567.466	0.302063
570.841	3.51974
574.216	0.024841
577.591	5.7179
580.966	2.89664
584.341	6.62622
587.715	8.57526
591.09	14.635
594.465	22.5236
597.84	44.5062
601.215	82.3294
604.589	103.53
607.964	158.376
611.339	258.461
614.714	474.476
618.089	490.669
621.463	279.515
624.838	264.966
628.213	352.479
631.588	317.231
634.963	136.335
638.338	73.3016
641.712	59.9967
645.087	62.5573
648.462	54.1305
651.837	20.4915
655.212	8.79346
658.587	3.185
661.961	3.97986
665.336	4.99362
668.711	2.59567
672.086	1.20703
675.461	2.2215
678.835	2.79514
682.21	7.16394
685.585	2.22586
688.96	4.74564
692.335	5.504
695.71	0.945374
699.084	1.81494
702.459	3.34638
705.834	1.06946
709.209	5.36664
712.584	1.88959
715.958	0.649933
719.333	2.36533
722.708	7.70154
726.083	2.38199
729.458	0.687347
732.832	0.548859
736.207	0.410553
739.582	0.51532
742.957	6.78732
746.332	3.67343
749.707	1.21878
753.081	6.37967
756.456	2.79071
759.831	5.18924
763.206	4.63223
766.581	7.49286
769.955	3.57074
773.33	3.62421
776.705	1.8866
780.08	4.03555
783.455	3.14554
786.83	7.1488
790.204	5.82761
793.579	5.20874
796.954	5.82681
800.329	2.9845
803.704	3.07535
807.078	8.86237
810.453	6.31622
813.828	4.31992
817.203	6.69428
820.578	6.82834
823.952	4.52328
827.327	3.28037
830.702	1.32022
834.077	4.25906
837.452	2.40595
840.827	4.37512
844.201	4.07495
847.576	3.18195
850.951	2.30899
854.326	3.46991
857.701	0.348572
861.076	0.609863
864.45	1.64706
867.825	3.47513
871.2	1.84808
874.575	2.00363
877.95	2.6152
881.324	1.33145
884.699	4.97806
888.074	1.99948
891.449	0.362061
894.824	5.59891
898.198	9.22317
901.573	3.67233
904.948	8.91077
908.323	1.26868
911.698	2.50009
915.073	3.69125
918.447	1.20123
921.822	4.39566
925.197	7.42062
928.572	5.05554
931.947	1.73523
935.321	1.51413
938.696	3.05768
942.071	1.39471
945.446	6.89133
948.821	8.89047
952.196	13.1026
955.57	15.5307
958.945	27.1487
962.32	48.7442
965.695	90.9562
969.07	146.18
972.444	468.984
975.819	1284.29
979.194	1754.07
982.569	3097.23
985.944	6809.3
989.318	8459.35
992.693	1101.08
996.068	330.857
999.443	160.957
1002.82	101.372
1006.19	64.4727
1009.57	49.0224
1012.94	35.3451
1016.32	27.9648
1019.69	24.4815
1023.07	15.0639
1026.44	16.4373
1029.82	12.5808
1033.19	24.2367
1036.57	1.78006
1039.94	4.79983
1043.32	2.59488
1046.69	1.80512
1050.07	0.619354
1053.44	2.41138
1056.82	6.05566
1060.19	1.44553
1063.56	18.0206
1066.94	0.46106
1070.31	0.787872
1073.69	4.67673
1077.06	0.092285
1080.44	4.53217
1083.81	4.39801
1087.19	3.50601
1090.56	5.65741
1093.94	12.4641
1097.31	21.9637
1100.69	37.4008
1104.06	45.4391
1107.44	18.4836
1110.81	5.36746
1114.19	10.6146
1117.56	7.37576
1120.94	18.0371
1124.31	45.4773
1127.69	88.3897
1131.06	165.777
1134.44	268.608
1137.81	419.511
1141.18	586.537
1144.56	611.749
1147.93	357.575
1151.31	178.868
1154.68	94.7515
1158.06	64.9937
1161.43	56.1226
1164.81	48.4583
1168.18	33.9296
1171.56	16.4425
1174.93	12.5084
1178.31	10.5223
1181.68	9.80646
1185.06	6.66849
1188.43	7.03226
1191.81	0.546539
1195.18	1.23621
1198.56	4.07883
1201.93	3.78976
1205.31	3.79129
1208.68	2.83572
1212.06	3.2926
1215.43	4.12891
1218.81	6.03394
1222.18	3.90503
1225.56	6.22659
1228.93	1.34216
1232.31	5.50946
1235.68	2.53635
1239.06	8.56753
1242.43	5.60391
1245.81	5.58331
1249.18	1.40857
1252.55	1.65607
1255.93	1.36963
1259.3	0.724457
1262.68	3.31952
1266.05	2.32861
1269.43	3.297
1272.8	6.48209
1276.18	0.023163
