Measurement: Raman, 532 nm, unoriented, Raman Data Processed
Mineral: Barysilite
Rruff sample: R050002
Ideal chemistry: Pb_8_Mn(Si_2_O_7_)_3_
Locality: Franklin, Sussex County, New Jersey, USA
Source: University of Arizona Mineral Museum
Description: A lamellar aggregate of platy crystals
Measured chemistry: Pb_8.00_Mn_1.00_(Si_2.00_O_7_)_3_
Raman shift (cm-1)	intensity
134.716	0
138.091	3.8418
141.466	31.9395
144.841	104.191
148.215	125.863
151.59	182.796
154.965	343.028
158.34	650.477
161.715	1227.04
165.09	2182.67
168.464	3799.52
171.839	6064.01
175.214	8951.58
178.589	12120
181.964	14310.9
185.339	13962.1
188.713	10938.6
192.088	7395.38
195.463	4946.84
198.838	3396.09
202.213	2400.48
205.587	1792.1
208.962	1351.09
212.337	1098.69
215.712	867
219.087	740.9
222.462	657.146
225.836	661.807
229.211	784.655
232.586	856.187
235.961	1003.45
239.336	1205.16
242.71	1314.44
246.085	1414.89
249.46	1559.37
252.835	1707.36
256.21	1689.96
259.584	1418.4
262.959	1066.37
266.334	655.261
269.709	386.661
273.084	198.875
276.459	86.7302
279.833	7.81394
283.208	10.9253
286.583	13.8438
289.958	9.14549
293.333	15.269
296.707	6.97681
300.082	5.94525
303.457	8.05713
306.832	70.0041
310.207	122.806
313.582	274.545
316.956	448.936
320.331	597.926
323.706	785.112
327.081	776.938
330.456	720.51
333.83	693.499
337.205	595.879
340.58	487.006
343.955	352.823
347.33	303.781
350.705	301.922
354.079	293.107
357.454	340.421
360.829	413.789
364.204	441.716
367.579	510.829
370.954	563.414
374.328	637.523
377.703	645.205
381.078	646.477
384.453	587.482
387.828	525.998
391.202	383.786
394.577	258.595
397.952	94.7837
401.327	68.8452
404.702	16.2843
408.077	13.6206
411.451	10.764
414.826	29.9014
418.201	106.471
421.576	252.275
424.951	480.324
428.325	715.65
431.7	901.088
435.075	1027.25
438.45	972.068
441.825	761.083
445.2	477.274
448.574	276.246
451.949	162.534
455.324	62.7407
458.699	9.43115
462.074	11.5303
465.448	86.2612
468.823	172.936
472.198	447.576
475.573	836.513
478.948	1191.43
482.322	1553.25
485.697	1764.54
489.072	2226.22
492.447	3076.8
495.822	4466.54
499.197	6033.74
502.571	7442.62
505.946	7975.11
509.321	7181.87
512.696	5349.67
516.071	3517.66
519.446	2255.71
522.82	1558.82
526.195	1104.59
529.57	946.721
532.945	854.491
536.32	675.392
539.694	565.907
543.069	359.558
546.444	252.997
549.819	290.227
553.194	248.047
556.568	176.519
559.943	131.992
563.318	70.666
566.693	15.3242
570.068	39.5708
573.443	34.2139
576.817	39.2012
580.192	14.7422
583.567	13.5347
586.942	52.0727
590.317	8.82861
593.692	2.53174
597.066	24.5703
600.441	35.7036
603.816	24.0689
607.191	58.9722
610.566	47.9404
613.94	20.9121
617.315	94.6934
620.69	45.2358
624.065	72.1899
627.44	71.6958
630.814	112.445
634.189	89.6602
637.564	41.8242
640.939	48.4316
644.314	32.0815
647.689	88.312
651.063	73.3486
654.438	112.089
657.813	39.2344
661.188	100.209
664.563	115.972
667.938	104.93
671.312	167.41
674.687	240.03
678.062	199.244
681.437	342.877
684.812	276.703
688.186	224.207
691.561	234.86
694.936	415.413
698.311	584.146
701.686	758.306
705.061	847.054
708.435	739.296
711.81	420.082
715.185	163.297
718.56	141.285
721.935	51.0737
725.309	30.6148
728.684	90.4624
732.059	54.0405
735.434	46.9155
738.809	54.2998
742.183	5.98096
745.558	45.5923
748.933	102.31
752.308	12.6104
755.683	38.5547
759.058	20.4136
762.432	20.3164
765.807	31.3496
769.182	18.6445
772.557	27.3018
775.932	3.17041
779.307	4.31787
782.681	23.4331
786.056	25.4839
789.431	27.5151
792.806	51.6118
796.181	41.0181
799.555	90.166
802.93	99.1602
806.305	106.835
809.68	175.017
813.055	286.87
816.429	496.238
819.804	575.991
823.179	555.516
826.554	439.835
829.929	308.382
833.304	284.239
836.678	258.379
840.053	141.934
843.428	48.2549
846.803	9.14795
850.178	68.228
853.553	17.8442
856.927	26.2256
860.302	23.5361
863.677	75.0859
867.052	166.036
870.427	271.967
873.801	461.394
877.176	855.84
880.551	1477.56
883.926	2056.76
887.301	2723.37
890.676	2719.42
894.05	2392.79
897.425	2295.49
900.8	2433.94
904.175	2657.82
907.55	2569.7
910.924	2358.35
914.299	2308.14
917.674	2381.53
921.049	2220.39
924.424	1880.55
927.798	1330.47
931.173	1078.05
934.548	768.302
937.923	480.677
941.298	370.529
944.673	220.935
948.047	175.894
951.422	182.137
954.797	134.285
958.172	182.703
961.547	130.507
964.922	72.7109
968.296	132.099
971.671	121.042
975.046	60.5283
978.421	79.1201
981.796	37.2046
985.17	48.1157
988.545	9.56396
991.92	35.9092
995.295	42.46
998.67	14.3872
1002.04	13.0493
1005.42	10.9751
1008.79	2.57373
1012.17	56.5742
1015.54	13.6221
1018.92	0.475586
1022.29	9.61523
1025.67	46.6431
1029.04	81.085
1032.42	50.9795
1035.79	78.0415
1039.17	117.555
1042.54	246.144
1045.92	1105.18
1049.29	2852.07
1052.67	4560.63
1056.04	4616.81
1059.42	1584.46
1062.79	347.63
1066.17	132.916
1069.54	151.691
1072.92	65.6025
1076.29	147.841
1079.66	160.071
1083.04	97.5
1086.41	87.4609
1089.79	37.1572
1093.16	90.25
1096.54	65.0142
1099.91	46.1807
1103.29	18.1831
1106.66	42.5215
1110.04	55.6763
1113.41	3.30078
1116.79	20.6592
1120.16	38.5576
1123.54	30.5156
1126.91	20.187
1130.29	18.7051
1133.66	72.2519
1137.04	47.0918
1140.41	21.2041
1143.79	48.9077
1147.16	52.3452
1150.54	26.8267
1153.91	9.78418
1157.29	49.1411
1160.66	31.9004
1164.04	22.0806
1167.41	60.3867
1170.79	59.6211
1174.16	27.688
1177.54	92.8291
1180.91	44.4995
1184.29	38.353
1187.66	25.3545
1191.03	57.3208
1194.41	7.37744
1197.78	75.9429
1201.16	31.9434
1204.53	22.3516
1207.91	1.40186
1211.28	23.8213
1214.66	20.1797
1218.03	52.8623
1221.41	26.4165
1224.78	33.8823
1228.16	17.148
1231.53	44.3052
1234.91	76.7344
1238.28	3.94141
1241.66	0.749023
1245.03	35.4297
1248.41	15.9214
1251.78	40.749
1255.16	32.082
1258.53	98.0195
1261.91	39.4868
1265.28	52.1645
1268.65	63.9136
1272.03	3.64502
1275.4	10.5928
1278.78	39.5859
1282.15	74.2446
1285.53	43.2769
1288.9	89.396
1292.28	16.5869
1295.65	44.2163
1299.03	21.0161
1302.4	45.835
1305.78	71.063
1309.15	0
