Measurement: Raman, 514 nm, unoriented, Raman Data Processed
Mineral: Baryte
Rruff sample: R050342
Ideal chemistry: BaSO_4_
Locality: Palos Verdes, Los Angeles County, California, USA
Source: California Institute of Technology
Description: Light brown fragment
Measured chemistry: Ba_1.00_S_1.00_O_4_
Raman shift (cm-1)	intensity
90.587	0
94.768	72.737
98.947	139.207
103.124	50.646
107.3	33.342
111.473	122.703
115.644	186.785
119.813	220.354
123.981	268.635
128.146	343.103
132.309	297.398
136.47	378.19
140.63	329.158
144.787	394.116
148.942	519.989
153.096	591.765
157.247	467.282
161.396	370.44
165.544	338.297
169.689	333.778
173.833	322.814
177.974	346.936
182.114	517.145
186.251	697.543
190.387	707.187
194.52	497.114
198.652	274.309
202.782	253.372
206.909	284.896
211.035	272.998
215.159	201.788
219.281	198.33
223.4	226.656
227.518	243.757
231.634	159.151
235.748	162.725
239.86	164.61
243.97	144.808
248.079	126.859
252.185	174.609
256.289	160.847
260.391	107.541
264.492	131.528
268.59	128.271
272.687	169.481
276.781	132.297
280.874	136.523
284.964	15.106
289.053	151.003
293.14	94.184
297.225	141.621
301.308	128.293
305.389	48.184
309.468	73.279
313.545	13.436
317.62	53.088
321.693	66.719
325.765	1.494
329.834	19.556
333.902	10.384
337.967	94.015
342.031	57.356
346.093	77.832
350.153	59.438
354.21	72.061
358.267	80.931
362.321	85.91
366.373	33.019
370.423	8.673
374.471	48.75
378.518	96.174
382.563	116.731
386.605	76.737
390.646	92.464
394.685	59.342
398.722	42.202
402.757	70.777
406.79	15.079
410.821	17.088
414.851	1.343
418.878	40.918
422.904	55.313
426.927	101.308
430.949	165.618
434.969	250.812
438.987	467.717
443.003	903.868
447.018	2090
451.03	3600.2
455.041	2935.48
459.049	2779.82
463.056	2003.29
467.061	791.851
471.064	343.468
475.065	4.741
479.064	97.498
483.062	58.297
487.057	15.618
491.051	14.228
495.043	25.379
499.032	37.463
503.02	46.567
507.007	25.698
510.991	35.653
514.973	38.821
518.954	64.964
522.933	58.558
526.91	51.296
530.885	81.812
534.858	70.631
538.829	45.255
542.799	79.868
546.766	7.949
550.732	17.019
554.696	44.876
558.658	39.868
562.618	77.922
566.576	20.736
570.533	76.075
574.488	96.738
578.44	17.032
582.391	9.098
586.341	41.404
590.288	108.861
594.233	138.251
598.177	85.278
602.119	156.737
606.059	238.308
609.997	396.643
613.933	841.501
617.868	1132.97
621.801	847.979
625.731	946.667
629.66	1184.9
633.588	767.338
637.513	743.421
641.437	932.478
645.358	1429.94
649.278	1110.63
653.196	560.344
657.113	229.58
661.027	148.239
664.94	217.022
668.851	74.158
672.76	102.249
676.667	42.974
680.572	133.621
684.476	128.235
688.378	32.931
692.278	158.517
696.176	41.749
700.072	141.59
703.967	24.338
707.86	133.441
711.751	18.567
715.64	124.464
719.527	133.112
723.413	111.171
727.297	235.84
731.179	200.448
735.059	37.16
738.937	145.285
742.814	204.837
746.689	70.159
750.562	104.413
754.433	171.641
758.303	179.438
762.17	69.226
766.036	37.896
769.901	134.518
773.763	186.943
777.624	65.137
781.482	56.711
785.339	49.18
789.195	107.989
793.048	131.659
796.9	76.218
800.75	161.622
804.598	200.866
808.445	59.868
812.289	127.696
816.132	129.419
819.973	177.042
823.813	100.377
827.65	31.827
831.486	24.543
835.32	86.968
839.152	101.126
842.983	22.544
846.812	103.329
850.639	164.563
854.464	49.231
858.288	34.762
862.11	48.238
865.93	126.424
869.748	125.583
873.564	129.649
877.379	5.825
881.192	94.356
885.004	70.793
888.813	240.102
892.621	220.007
896.427	131.914
900.232	169.784
904.034	114.74
907.835	259.876
911.634	138.152
915.432	164.385
919.227	279.701
923.021	218.531
926.813	118.656
930.604	192.195
934.393	80.232
938.18	285.825
941.965	171.718
945.749	147.634
949.53	188.681
953.311	222.087
957.089	209.129
960.866	231.681
964.641	381.201
968.414	440.138
972.185	431.3
975.955	791.51
979.723	1870.06
983.49	8890.98
987.254	45765.2
991.017	15946.9
994.779	3296.2
998.538	1102.03
1002.3	418.816
1006.05	444.622
1009.81	398.22
1013.56	259.729
1017.31	90.535
1021.06	183.252
1024.81	271.94
1028.55	157.411
1032.3	105.437
1036.04	25.595
1039.78	129.424
1043.52	112.466
1047.26	45.555
1050.99	105.381
1054.73	74.692
1058.46	106.821
1062.19	168.749
1065.92	53.585
1069.65	13.071
1073.37	167.353
1077.1	25.485
1080.82	71.835
1084.54	165.568
1088.26	82.542
1091.97	87.187
1095.69	126.493
1099.4	145.298
1103.12	422.31
1106.83	178.295
1110.54	205.064
1114.24	170.372
1117.95	199.233
1121.65	19.357
1125.35	191.641
1129.06	164.685
1132.75	821.808
1136.45	2262.47
1140.15	3227.91
1143.84	3508.79
1147.53	2400.02
1151.22	979.234
1154.91	480.84
1158.6	444.044
1162.28	671.83
1165.97	1196.66
1169.65	984.576
1173.33	410.473
1177.01	362.739
1180.69	176.991
1184.36	187.732
1188.04	65.513
1191.71	103.165
1195.38	5.547
1199.05	41.529
1202.71	159.48
1206.38	216.087
1210.04	326.974
1213.71	251.981
1217.37	78.596
1221.03	209.498
1224.68	148.653
1228.34	123.349
1231.99	90.26
1235.65	269.24
1239.3	97.714
1242.95	159.223
1246.59	156.041
1250.24	87.694
1253.88	193.078
1257.53	30.266
1261.17	46.35
1264.81	215.533
1268.45	5.698
1272.08	165.7
1275.72	130.432
1279.35	141.633
1282.98	84.463
1286.61	106.864
1290.24	21.074
1293.87	128.635
1297.49	45.971
1301.11	77.032
1304.73	73.694
1308.36	126.978
1311.97	12.119
1315.59	86.344
1319.2	58.343
1322.82	93.996
1326.43	122.254
1330.04	28.197
1333.65	11.803
1337.26	5.59
1340.86	162.569
1344.47	83.419
1348.07	121.553
1351.67	89.319
1355.27	170.234
1358.87	275.422
1362.46	262.349
1366.06	161.792
1369.65	219.385
1373.24	216.55
1376.83	220.304
1380.42	207.282
1384	157.2
1387.59	110.391
1391.17	355.677
1394.75	325.876
1398.33	154.809
1401.91	323.373
1405.49	140.971
1409.06	131.801
1412.64	292.801
1416.21	192.895
1419.78	310.672
1423.35	123.619
1426.91	220.705
1430.48	272.383
1434.05	235.975
1437.61	245.779
1441.17	374.014
1444.73	326.188
1448.29	387.191
1451.84	347.58
1455.4	554.016
1458.95	413.773
1462.5	213.295
1466.05	332.379
1469.6	303.598
1473.15	274.24
1476.69	285.588
1480.24	305.553
1483.78	261.211
1487.32	261.939
1490.86	232.359
1494.39	321.58
1497.93	151.627
1501.46	253.178
1505	0
