Measurement: Raman, 532 nm, unoriented, Raman Data Processed
Mineral: Barytocalcite
Rruff sample: R050288
Ideal chemistry: BaCa(CO_3_)_2_
Locality: Cumberland, England
Source: Marcus Origlieri
Description: Light tan elongated crystals
Measured chemistry: Ba_1.00_Ca_1.00_(CO_3_)_2_
Raman shift (cm-1)	intensity
123.691	0
126.584	37.1067
129.476	274.633
132.369	369.204
135.262	252.627
138.155	203.454
141.047	178.554
143.94	212.284
146.833	270.679
149.725	429.896
152.618	627.748
155.511	706.335
158.404	651.741
161.296	687.217
164.189	855.029
167.082	880.729
169.974	746.065
172.867	493.435
175.76	257.241
178.652	98.7046
181.545	68.854
184.438	179.278
187.331	230.556
190.223	358.404
193.116	588.313
196.009	969.366
198.901	1481.59
201.794	1721.47
204.687	960.679
207.579	261.127
210.472	12.1992
213.365	20.001
216.257	42.2676
219.15	237.06
222.043	451.432
224.936	582.865
227.828	348.566
230.721	137.16
233.614	45.458
236.506	1.49219
239.399	25.3809
242.292	125.943
245.185	348.917
248.077	606.548
250.97	941.369
253.863	1440.72
256.755	2274.73
259.648	3302.77
262.541	3320.5
265.433	1903.07
268.326	876.67
271.219	376.565
274.111	166.092
277.004	36.3257
279.897	1.04004
282.79	17.2021
285.682	3.67041
288.575	75.3447
291.468	90.0581
294.36	60.1387
297.253	3.9375
300.146	6.22949
303.038	12.7368
305.931	43.4961
308.824	36.2129
311.717	52.9175
314.609	25.9463
317.502	10.0503
320.395	4.93115
323.287	16.3662
326.18	14.001
329.073	2.30127
331.966	12.146
334.858	7.90674
337.751	32.9741
340.644	29.8857
343.536	13.1245
346.429	44.7632
349.322	44.1465
352.214	54.5498
355.107	82.8413
358	76.3657
360.892	69.2056
363.785	90.4258
366.678	114.534
369.571	113.688
372.463	92.1577
375.356	87.0298
378.249	113.189
381.141	120.816
384.034	106.344
386.927	96.4097
389.82	89.686
392.712	89.7339
395.605	85.5
398.498	68.9116
401.39	85.7666
404.283	71.5322
407.176	73.3242
410.068	59.852
412.961	54.1987
415.854	84.7153
418.747	74.2837
421.639	75.6255
424.532	64.0606
427.425	47.124
430.317	69.0791
433.21	44.5586
436.103	45.9898
438.995	10.7461
441.888	27.4585
444.781	25.3252
447.673	8.51855
450.566	38.9951
453.459	56.6548
456.352	32.1494
459.244	24.7925
462.137	22.0479
465.03	21.187
467.922	28.8218
470.815	16.4185
473.708	25.7153
476.601	11.7222
479.493	2.56103
482.386	11.5859
485.279	54.4487
488.171	22.4106
491.064	5.72949
493.957	12.5513
496.849	24.0176
499.742	35.9653
502.635	29.7202
505.527	10.7017
508.42	3.9834
511.313	12.918
514.206	15.9815
517.098	18.7231
519.991	14.3115
522.884	14.519
525.776	4.78125
528.669	19.9268
531.562	17.769
534.455	30.7168
537.347	23.9248
540.24	28.6035
543.133	23.1963
546.025	30.9814
548.918	26.9727
551.811	34.3565
554.703	16.582
557.596	32.7549
560.489	25.8848
563.381	16.0967
566.274	13.6035
569.167	1.16992
572.06	2.89551
574.952	11.9316
577.845	7.52734
580.738	37.3232
583.63	23.6689
586.523	15.294
589.416	51.0488
592.308	50.6934
595.201	48.8906
598.094	59.0254
600.987	39.0693
603.879	29.8945
606.772	70.9248
609.665	35.4424
612.557	40.9092
615.45	45.0498
618.343	38.3711
621.236	18.6025
624.128	8.58301
627.021	23.2373
629.914	23.0703
632.806	24.6328
635.699	23.0742
638.592	30.792
641.484	18.7451
644.377	9.20117
647.27	3.98731
650.163	5.54883
653.055	9.3457
655.948	15.0742
658.841	36.9863
661.733	43.3232
664.626	70.1709
667.519	32.7041
670.411	6.29102
673.304	43.1582
676.197	69.584
679.09	106.976
681.982	184.398
684.875	318.987
687.768	506.489
690.66	399.887
693.553	269.429
696.446	531.106
699.338	754.823
702.231	664.177
705.124	155.773
708.016	123.962
710.909	103.984
713.802	186
716.695	209.079
719.587	56.5185
722.48	44.6641
725.373	32.3076
728.265	55.7295
731.158	34.6777
734.051	19.9863
736.943	0.310547
739.836	27.5215
742.729	28.5645
745.622	0.019531
748.514	43.0762
751.407	36.9307
754.3	21.4023
757.192	14.9756
760.085	7.28613
762.978	39.1455
765.87	43.8262
768.763	52.1797
771.656	13.3838
774.549	29.5342
777.441	10.0557
780.334	12.4229
783.227	44.4785
786.119	48.5107
789.012	36.6357
791.905	55.9678
794.798	54.8027
797.69	41.3965
800.583	22.5361
803.476	50.8223
806.368	59.9619
809.261	67.0674
812.154	35.9326
815.046	28.2354
817.939	8.66113
820.832	11.0605
823.725	65.1553
826.617	17.4395
829.51	5.93262
832.403	3.99414
835.295	14.5693
838.188	38.1992
841.081	37.2022
843.973	14.8164
846.866	2.88672
849.759	17.6338
852.652	53.7725
855.544	50.3711
858.437	41.083
861.33	9.8877
864.222	15.6104
867.115	66.9414
870.008	79.5732
872.9	124.103
875.793	164.689
878.686	48.0918
881.578	16.0645
884.471	12.1621
887.364	59.5684
890.257	74.6367
893.149	42.3701
896.042	40.9551
898.935	31.083
901.827	18.2451
904.72	63.0518
907.613	66.6436
910.505	37.1465
913.398	26.2793
916.291	13.8281
919.184	60.6641
922.076	37.751
924.969	55.2598
927.862	94.125
930.754	115.247
933.647	52.5967
936.54	51.749
939.433	43.2637
942.325	19.3965
945.218	16.9541
948.111	53.1152
951.003	34.5928
953.896	29.7832
956.789	72.4961
959.681	1.30859
962.574	19.7168
965.467	13.7227
968.36	25.4062
971.252	82.9922
974.145	60.9355
977.038	68.916
979.93	57.0781
982.823	82.5215
985.716	106.418
988.608	81.5254
991.501	103.717
994.394	67.4356
997.287	17.9785
1000.18	9.45703
1003.07	6.66992
1005.97	19.6602
1008.86	62.9609
1011.75	63.502
1014.64	53.707
1017.53	67.4902
1020.43	40.8223
1023.32	57.1133
1026.21	41.1367
1029.11	42.9004
1032	46.1777
1034.89	26.1172
1037.78	55.123
1040.68	59.5234
1043.57	6.26562
1046.46	3.5625
1049.36	14.9082
1052.25	50.0312
1055.14	103.758
1058.03	114.769
1060.93	116.57
1063.82	146.441
1066.71	157.592
1069.6	197.254
1072.5	459.815
1075.39	1509.71
1078.28	2410.66
1081.17	4275.24
1084.07	10885.4
1086.96	13237.5
1089.85	1354.65
1092.75	445.44
1095.64	249.606
1098.53	170.053
1101.42	175.723
1104.32	67.9297
1107.21	23.9785
1110.1	57.4492
1112.99	51.4414
1115.89	50.9453
1118.78	1.13086
1121.67	27.334
1124.57	49.5684
1127.46	10.9785
1130.35	91.8262
1133.24	85.0801
1136.14	89.3262
1139.03	71.3008
1141.92	74.7773
1144.81	96.7324
1147.71	72.6914
1150.6	3.75
1153.49	11.416
1156.38	51.7578
1159.28	46.627
1162.17	61.6895
1165.06	140.023
1167.96	91.791
1170.85	77.4707
1173.74	132.057
1176.63	74.7188
1179.53	69.7812
1182.42	75.334
1185.31	20.8203
1188.2	116.135
1191.1	146.578
1193.99	67.5469
1196.88	55.4648
1199.78	18.791
1202.67	40.9707
1205.56	66.7871
1208.45	72.8438
1211.35	60.6465
1214.24	59.2324
1217.13	83.6172
1220.02	86.5273
1222.92	46.3047
1225.81	56.7695
1228.7	76.7227
1231.6	95.7109
1234.49	115.527
1237.38	49.8516
1240.27	25.7598
1243.17	19.0898
1246.06	117.103
1248.95	64.1797
1251.84	138.051
1254.74	102.25
1257.63	93.5859
1260.52	42.0879
1263.41	86.8164
1266.31	23.6914
1269.2	18.6953
1272.09	48.9531
1274.99	20.248
1277.88	30.4238
