Measurement: Raman, 780 nm, unoriented, Raman Data Processed
Mineral: Baryte
Rruff sample: R050342
Ideal chemistry: BaSO_4_
Locality: Palos Verdes, Los Angeles County, California, USA
Source: California Institute of Technology
Description: Light brown fragment
Measured chemistry: Ba_1.00_S_1.00_O_4_
Raman shift (cm-1)	intensity
130.129	0
133.021	5.92969
135.914	9.81055
138.807	19.5312
141.699	95.7461
144.592	114.916
147.485	224.623
150.377	318.783
153.27	321.193
156.163	201.174
159.055	134.016
161.948	78.8867
164.841	61.3594
167.734	72.5898
170.626	116.172
173.519	115.137
176.412	113.353
179.304	108.828
182.197	133.297
185.09	233.506
187.982	306.861
190.875	230.684
193.768	121.414
196.661	22.6699
199.553	66.1094
202.446	37.3105
205.339	34.1465
208.231	52.3066
211.124	14.8438
214.017	47.1387
216.91	29.2656
219.802	45.9355
222.695	23.7285
225.588	55.4414
228.48	35.1816
231.373	57.9824
234.266	40.2598
237.158	1.33398
240.051	5.94141
242.944	1.9082
245.837	1.29492
248.729	29.7012
251.622	35.0078
254.515	27.8535
257.407	0.173828
260.3	5.87305
263.193	31.9375
266.085	52.6445
268.978	56.5312
271.871	38.1387
274.764	60.8145
277.656	38.0547
280.549	6.97461
283.442	66.0527
286.334	61.4883
289.227	9.93164
292.12	35.9766
295.012	25.5078
297.905	17.2207
300.798	13.6543
303.69	2.47852
306.583	6.90234
309.476	9.83496
312.369	4.02344
315.261	19.7861
318.154	38.7412
321.047	17.4551
323.939	26.4414
326.832	26.9561
329.725	26.6289
332.618	21.8408
335.51	16.5469
338.403	47.5
341.296	49.5781
344.188	77.4228
347.081	44.2275
349.974	74.4893
352.866	63.5283
355.759	27.4404
358.652	49.3242
361.545	37.3408
364.437	34.0645
367.33	43.04
370.223	70.8584
373.115	31.6475
376.008	17.4307
378.901	6.96387
381.793	17.624
384.686	0.108398
387.579	12.582
390.471	16.9336
393.364	0.969727
396.257	24.6475
399.15	33.4912
402.042	24.2168
404.935	5.11914
407.828	88.6943
410.72	8.96289
413.613	41.7236
416.506	64.1074
419.399	107.106
422.291	158.462
425.184	259.453
428.077	281.658
430.969	407.621
433.862	634.765
436.755	964.161
439.647	1381.38
442.54	2304.98
445.433	3717.55
448.325	4760.68
451.218	6216.56
454.111	7475.59
457.004	8896.9
459.896	12335.1
462.789	11704.4
465.682	4830.89
468.574	1926.41
471.467	1043.41
474.36	629.77
477.252	427.139
480.145	301.559
483.038	290.573
485.931	223.756
488.823	161.996
491.716	167.233
494.609	102.823
497.501	97.2139
500.394	81.4717
503.287	43.9268
506.18	60.54
509.072	52.124
511.965	44.8906
514.857	43.7715
517.75	69.291
520.643	51.0273
523.536	56.7852
526.428	3.74414
529.321	37.3838
532.214	14.6152
535.106	0.535156
537.999	3.84082
540.892	13.1807
543.784	0.527344
546.677	7.67773
549.57	0.802734
552.463	3.83008
555.355	16.0732
558.248	3.65234
561.141	11.1855
564.033	8.76465
566.926	20.0869
569.819	25.9092
572.712	43.3125
575.604	15.4443
578.497	8.19922
581.39	9.8125
584.282	8.48145
587.175	74.3359
590.068	84.4932
592.96	92.3984
595.853	106.737
598.746	146.746
601.639	248.856
604.531	348.101
607.424	486.677
610.317	714.599
613.209	1084.23
616.102	1585.86
618.995	1254.98
621.888	802.793
624.78	740.039
627.673	840.369
630.566	825.329
633.458	469.336
636.351	251.723
639.244	183.938
642.136	158.127
645.029	140.452
647.922	152.204
650.814	76.7481
653.707	38.8565
656.6	30.9102
659.493	12.7295
662.385	21.6289
665.278	10.126
668.171	28.1416
671.063	22.0283
673.956	9.89551
676.849	20.7441
679.741	1.06348
682.634	20.7354
685.527	21.999
688.42	41.9043
691.312	3.21777
694.205	16.54
697.098	33.8662
699.99	6.94336
702.883	9.10156
705.776	10.9756
708.668	18.9385
711.561	62.8438
714.454	13.0537
717.346	32.3935
720.239	34.0371
723.132	10.9004
726.025	13.5117
728.917	15.8301
731.81	33.1465
734.703	5.78516
737.595	10.5742
740.488	21.9121
743.381	20.4746
746.274	31.6465
749.166	25.9971
752.059	30.5352
754.952	3.16016
757.844	16.0703
760.737	4.33691
763.63	5.34961
766.522	4.31738
769.415	9.87891
772.308	16.5713
775.201	15.7158
778.093	32.2295
780.986	41.3477
783.879	16.8271
786.771	16.3027
789.664	10.2031
792.557	15.0947
795.449	29.9922
798.342	29.0537
801.235	18.7305
804.128	23.7188
807.02	71.0928
809.913	56.7998
812.806	45.4727
815.698	48.8506
818.591	50.9307
821.484	14.9053
824.376	33.5996
827.269	33.3301
830.162	46.9082
833.054	54.3662
835.947	50.6504
838.84	15.4033
841.733	40.5566
844.625	16.9551
847.518	15.4082
850.411	20.4561
853.303	6.02637
856.196	3.75391
859.089	0.147461
861.981	32.8076
864.874	16.9951
867.767	27.9424
870.66	36.3643
873.552	8.51465
876.445	15.2959
879.338	0.736328
882.23	28.3438
885.123	4.91797
888.016	13.9473
890.909	43.8721
893.801	12.2461
896.694	14.7285
899.587	35.8066
902.479	32.3594
905.372	16.0752
908.265	15.5605
911.157	4.66699
914.05	24.8672
916.943	23.7461
919.836	7.10059
922.728	36.9043
925.621	19.7344
928.514	19.3643
931.406	13.7998
934.299	18.2412
937.192	7.10938
940.084	24.0625
942.977	24.1895
945.87	5.58008
948.763	17.9805
951.655	26.6729
954.548	39.2353
957.441	56.8496
960.333	82.8252
963.226	121.676
966.119	208.949
969.011	323.634
971.904	737.773
974.797	2673.72
977.689	3904.4
980.582	5894.24
983.475	9626.23
986.368	18767.3
989.26	20346.7
992.153	3614.39
995.046	1068.67
997.938	505.822
1000.83	289.062
1003.72	192.185
1006.62	126.377
1009.51	73.7852
1012.4	51.626
1015.29	51.7188
1018.19	30.8145
1021.08	24.6113
1023.97	11.9502
1026.87	0.966797
1029.76	5.99805
1032.65	11.2451
1035.54	5.26758
1038.44	19.4199
1041.33	38.7041
1044.22	7.09668
1047.11	2.35547
1050.01	80.2051
1052.9	40.6172
1055.79	40.8486
1058.68	11.8203
1061.58	17.8252
1064.47	21.8096
1067.36	32.7881
1070.26	25.9629
1073.15	45.6992
1076.04	31.4121
1078.93	33.666
1081.83	54.9414
1084.72	37.1055
1087.61	42.335
1090.51	29.2744
1093.4	28.9209
1096.29	62.5117
1099.18	71.9834
1102.08	93.7607
1104.97	82.0449
1107.86	22.2832
1110.75	5.28418
1113.65	11.0801
1116.54	6.50586
1119.43	9.21973
1122.32	55.4668
1125.22	87.0137
1128.11	154.024
1131	246.132
1133.89	400.606
1136.79	613.058
1139.68	774.002
1142.57	930.861
1145.47	776.231
1148.36	483.411
1151.25	282.644
1154.14	155.616
1157.04	143.301
1159.93	110.54
1162.82	87.2705
1165.71	100.103
1168.61	58.5859
1171.5	54.1465
1174.39	50.165
1177.29	28.0723
1180.18	42.7461
1183.07	14.9336
1185.96	31.5205
1188.86	40.1743
1191.75	9.65479
1194.64	8.146
1197.54	36.4902
1200.43	15.6973
1203.32	11.8027
1206.21	33.7637
1209.11	25.8061
1212	37.2485
1214.89	16.9898
1217.78	26.9439
1220.68	24.1982
1223.57	13.8525
1226.46	4.2417
1229.35	13.7222
1232.25	27.5132
1235.14	27.7734
1238.03	31.708
1240.92	21.749
1243.82	20.6807
1246.71	23.6743
1249.6	23.9077
1252.5	22.1333
1255.39	20.5561
1258.28	4.47949
1261.17	19.9849
1264.07	1.05225
1266.96	25.1328
1269.85	30.5102
1272.74	28.9707
1275.64	7.2168
1278.53	23.0654
1281.42	0.024414
