Measurement: Raman, 514 nm, unoriented, Raman Data Processed
Mineral: Baryte
Rruff sample: R040036
Ideal chemistry: BaSO_4_
Locality: Cumbria County, England
Source: University of Arizona Mineral Museum
Description: Golden brown tabular crystal
Measured chemistry: Ba_1.00_S_1.00_O_4_; trace amounts of Pb
Raman shift (cm-1)	intensity
129.534	0
133.696	18.261
137.857	0.478
142.016	27.105
146.172	101.621
150.327	273.845
154.48	183.242
158.63	63.627
162.779	48.335
166.926	18.517
171.07	18.234
175.213	14.265
179.354	66.97
183.493	35.622
187.63	104.945
191.765	80.405
195.898	100.66
200.029	88.576
204.158	81.593
208.285	125.391
212.41	28.745
216.533	10.573
220.654	7.932
224.773	21.784
228.891	4.348
233.006	31.936
237.119	25.447
241.231	6.777
245.34	18.796
249.448	4.643
253.553	27.044
257.657	31.04
261.758	5.885
265.858	4.483
269.956	26.276
274.052	21.604
278.146	10.7
282.237	32.733
286.327	2.71
290.416	17.648
294.502	16.477
298.586	14.93
302.668	3.193
306.749	28.374
310.827	29.407
314.903	23.288
318.978	23.981
323.051	10.531
327.121	10.954
331.19	49.148
335.257	19.433
339.322	7.941
343.385	13.74
347.446	58.393
351.505	14.023
355.563	31.565
359.618	25.958
363.672	14.272
367.723	58.51
371.773	41.699
375.821	40.713
379.866	44.513
383.91	37.981
387.952	40.557
391.992	47.963
396.031	20.328
400.067	32.633
404.101	23.196
408.134	29.79
412.165	63.015
416.193	52.843
420.22	29.349
424.245	27.764
428.268	73.628
432.289	112.333
436.309	188.905
440.326	378.168
444.342	790.753
448.355	2139.79
452.367	4003.47
456.377	2468.43
460.385	2504.69
464.391	1289.16
468.395	443.835
472.398	189.594
476.398	107.166
480.397	92.669
484.394	87.152
488.389	59.656
492.382	8.724
496.373	6.93
500.362	51.454
504.349	25.022
508.335	34.704
512.319	30.391
516.3	38.002
520.28	36.716
524.259	10.319
528.235	31.567
532.209	42.184
536.182	26.948
540.152	49.976
544.121	21.75
548.088	34.391
552.053	16.164
556.017	21.891
559.978	4.346
563.938	57.458
567.895	35.474
571.851	62.146
575.805	48.599
579.758	32.004
583.708	47.809
587.657	91.735
591.603	102.133
595.548	104.244
599.491	124.262
603.432	183.07
607.372	375.888
611.309	998.689
615.245	3042.34
619.179	2358.21
623.111	953.311
627.041	951.848
630.97	970.647
634.896	309.425
638.821	166.718
642.744	79.479
646.665	82.759
650.584	44.3
654.502	32.031
658.418	3.751
662.331	12.27
666.244	5.971
670.154	3.638
674.062	9.416
677.969	30.02
681.874	36.646
685.777	23.215
689.678	15.766
693.577	32.302
697.475	42.093
701.371	15.677
705.265	22.406
709.157	44.847
713.047	21.993
716.936	40.304
720.823	30.698
724.708	2.053
728.591	42.817
732.472	41.092
736.352	47.341
740.23	22.564
744.106	5.23
747.98	32.943
751.853	0.095
755.723	19.205
759.592	19.292
763.459	15.364
767.325	9.578
771.188	4.557
775.05	47.431
778.91	35.395
782.768	7.334
786.625	41.246
790.479	37.146
794.332	35.027
798.183	21.113
802.033	9.696
805.88	29.493
809.726	47.281
813.57	21.013
817.413	5.754
821.253	35.416
825.092	2.094
828.929	9.594
832.764	3.718
836.598	25.945
840.429	34.084
844.259	42.739
848.088	5.67
851.914	2.395
855.739	4.811
859.562	14.809
863.383	21.394
867.203	24.801
871.02	43.598
874.836	36.144
878.65	11.685
882.463	61.085
886.274	37.049
890.083	45.103
893.89	57.779
897.695	29.75
901.499	38.439
905.301	48.585
909.102	69.337
912.9	59.059
916.697	90.788
920.492	90.708
924.285	55.951
928.077	88.18
931.867	120.886
935.655	106.938
939.442	94.753
943.226	160.585
947.009	153.908
950.791	176.287
954.57	172.12
958.348	218.016
962.124	243.929
965.899	411.862
969.671	381.004
973.442	577.972
977.211	893.822
980.979	2075.88
984.745	10548.7
988.509	63734
992.271	10894.1
996.032	2344.28
999.791	1031.17
1003.55	589.271
1007.3	424.317
1011.06	337.497
1014.81	271.806
1018.56	289.422
1022.31	309.842
1026.06	393.51
1029.8	478.909
1033.55	295.424
1037.29	154.976
1041.03	108.612
1044.77	34.242
1048.5	52.905
1052.24	72.681
1055.97	51.413
1059.7	70.697
1063.43	55.491
1067.16	50.124
1070.89	39.958
1074.61	36.82
1078.34	10.292
1082.06	34.611
1085.78	49.588
1089.5	11.575
1093.21	23.538
1096.93	21.523
1100.64	76.531
1104.35	224.584
1108.06	118.862
1111.77	168.029
1115.48	9.885
1119.18	25.992
1122.89	33.185
1126.59	48.183
1130.29	4.321
1133.99	93.491
1137.68	174.671
1141.38	223.072
1145.07	402.329
1148.76	241.584
1152.45	110.91
1156.14	57.795
1159.83	35.721
1163.51	43.2
1167.19	20.832
1170.88	49.802
1174.56	37.279
1178.23	23.818
1181.91	1.59
1185.59	4.319
1189.26	22.928
1192.93	36.012
1196.6	60.109
1200.27	19.307
1203.94	24.494
1207.6	75.948
1211.27	11.821
1214.93	18.202
1218.59	24.174
1222.25	15.122
1225.9	20.819
1229.56	18.797
1233.21	29.721
1236.86	35.644
1240.51	20.635
1244.16	56.583
1247.81	61.437
1251.45	30.314
1255.1	50.131
1258.74	22.061
1262.38	22.842
1266.02	71.61
1269.66	30.361
1273.29	55.087
1276.93	29.752
1280.56	30.403
1284.19	4.096
1287.82	24.593
1291.45	24.052
1295.07	13.456
1298.7	1.178
1302.32	1.856
1305.94	15.428
1309.56	24.676
1313.18	3.106
1316.8	10.019
1320.41	20.892
1324.02	49.404
1327.63	38.541
1331.24	9.394
1334.85	26.537
1338.46	12.477
1342.06	11.596
1345.67	12.184
1349.27	42.016
1352.87	0.314
1356.47	52.291
1360.07	53.161
1363.66	28.942
1367.25	40.899
1370.85	22.692
1374.44	62.501
1378.03	29.408
1381.61	31.206
1385.2	44.896
1388.78	43.056
1392.37	38.366
1395.95	112.544
1399.53	37.708
1403.1	50.949
1406.68	69.084
1410.26	68.887
1413.83	61.702
1417.4	94.15
1420.97	72.82
1424.54	72.405
1428.1	38.437
1431.67	40.274
1435.23	50.194
1438.8	72.807
1442.36	56.018
1445.91	40.302
1449.47	89.621
1453.03	71.756
1456.58	108.673
1460.13	74.642
1463.68	54.548
1467.23	57.188
1470.78	47.987
1474.33	39.703
1477.87	26.202
1481.42	82.379
1484.96	49.832
1488.5	63.472
1492.04	85.172
1495.57	56.995
1499.11	71.028
1502.64	55.376
1506.17	44.758
1509.71	88.89
1513.23	83.595
1516.76	7.853
1520.29	88.717
1523.81	49.189
1527.34	21.339
