Measurement: Raman, 514 nm, unoriented, Raman Data Processed
Mineral: Barysilite
Rruff sample: R050002
Ideal chemistry: Pb_8_Mn(Si_2_O_7_)_3_
Locality: Franklin, Sussex County, New Jersey, USA
Source: University of Arizona Mineral Museum
Description: A lamellar aggregate of platy crystals
Measured chemistry: Pb_8.00_Mn_1.00_(Si_2.00_O_7_)_3_
Raman shift (cm-1)	intensity
93.375	0
97.554	2411.79
101.732	14390.1
105.908	24164.3
110.082	13913.4
114.254	8941.3
118.424	6851.27
122.592	4685.06
126.758	2639.76
130.922	1725.27
135.083	1869.89
139.243	1175.6
143.401	628.119
147.557	519.432
151.711	309.275
155.863	18.646
160.013	375.26
164.161	428.311
168.308	519.396
172.452	2172.08
176.594	6858.29
180.734	15475.2
184.872	26195.6
189.008	29020.9
193.143	21044.3
197.275	12762.4
201.405	8347.75
205.534	5695.34
209.66	4272.44
213.784	2893.47
217.907	2175.47
222.027	1658.79
226.146	1457.36
230.263	1668.87
234.377	2003.15
238.49	2178.4
242.601	2408.78
246.709	2305.53
250.816	2671.08
254.921	2810.89
259.024	3093.46
263.125	2808.64
267.224	1552.5
271.321	635.08
275.416	126.238
279.51	70.383
283.601	238.371
287.69	226.346
291.778	278.98
295.863	133.85
299.947	160.918
304.029	108.43
308.108	168.037
312.186	191.812
316.262	732.549
320.336	1454.65
324.408	2145.55
328.478	2387.46
332.546	2068.3
336.612	1840.8
340.677	1447.09
344.739	848.855
348.799	610.396
352.858	619.799
356.915	596.871
360.969	862.406
365.022	1096.75
369.073	1223.26
373.122	1774.91
377.169	2157.9
381.215	1965.25
385.258	1822.89
389.299	1671.65
393.339	1247.58
397.376	893.795
401.412	620.293
405.446	627.199
409.478	779.768
413.508	796.32
417.536	803.551
421.562	855.443
425.586	1247.77
429.609	1830.36
433.629	2515.08
437.648	3164.83
441.665	2967.31
445.68	2462.09
449.693	1555.61
453.704	1098.54
457.713	857.379
461.721	696.291
465.726	667.363
469.73	840.639
473.731	848.027
477.731	1584.86
481.729	2606.2
485.725	2868.11
489.72	2996.59
493.712	4320.5
497.703	6448.43
501.691	10239.9
505.678	14640
509.663	15397.8
513.646	11947.2
517.627	7567.78
521.607	4676.9
525.584	3332.64
529.56	2177.21
533.534	1888.39
537.506	1803.01
541.476	1501.93
545.444	1143.3
549.41	968.521
553.375	959.541
557.337	962.441
561.298	576.715
565.257	319.643
569.214	128.662
573.17	99.904
577.123	3.094
581.075	3.367
585.024	62.943
588.972	147.396
592.918	198.998
596.863	17.744
600.805	46.938
604.746	33.662
608.685	182.406
612.621	51.732
616.557	154.75
620.49	277.492
624.421	210.967
628.351	157.896
632.279	93.988
636.205	170.957
640.129	446.676
644.051	172.922
647.972	46.25
651.89	117.707
655.807	73.238
659.722	138.58
663.636	93.072
667.547	88.93
671.457	271.244
675.365	358.105
679.271	212.471
683.175	161.465
687.077	256.775
690.978	354.586
694.877	92.383
698.774	876.951
702.669	1122.84
706.562	2223.81
710.454	1581.36
714.344	922.498
718.232	5.277
722.118	310.973
726.002	158.693
729.885	3.186
733.766	303.684
737.645	15.062
741.522	139.109
745.397	194.412
749.271	97.42
753.143	219.451
757.013	76.029
760.881	21.551
764.748	116.543
768.613	203.883
772.476	120.992
776.337	51.016
780.196	194.066
784.054	55.941
787.91	263.523
791.764	3.742
795.616	36.879
799.467	79.809
803.316	42.406
807.163	232.316
811.008	301.41
814.851	227.969
818.693	397.504
822.533	888.973
826.371	971.848
830.208	661.391
834.042	167.18
837.875	296.754
841.706	381.469
845.536	274.996
849.363	230.82
853.189	335.746
857.013	305.508
860.836	266.316
864.656	301.094
868.475	466.719
872.292	582.199
876.108	967.086
879.922	1355.82
883.733	1891.61
887.544	4396.99
891.352	5820.84
895.159	4596.64
898.964	3975.03
902.767	4085.79
906.568	4689.62
910.368	4384.58
914.166	3741.15
917.962	4097.53
921.757	4954.78
925.55	4177.98
929.341	3306.5
933.13	2659.21
936.918	2211.36
940.703	1325.58
944.488	1490.19
948.27	1225.41
952.051	1058.54
955.83	486.016
959.607	702.953
963.383	674.164
967.156	542.078
970.928	792.562
974.699	680.398
978.468	673.277
982.234	709.312
986	104.199
989.763	324.914
993.525	389.414
997.285	403.648
1001.04	222.457
1004.8	727.719
1008.55	518.844
1012.31	586
1016.06	476.414
1019.81	652.285
1023.56	799.996
1027.31	353.023
1031.05	969.016
1034.79	563.098
1038.53	563.469
1042.27	906.246
1046.01	911.277
1049.75	847.066
1053.48	3245.35
1057.22	6073.21
1060.95	2239.8
1064.68	858.355
1068.4	522.871
1072.13	790.703
1075.86	1190
1079.58	1522.62
1083.3	5294.1
1087.02	2915.03
1090.74	841.305
1094.45	370.012
1098.17	97.773
1101.88	485.891
1105.59	49.902
1109.3	387.156
1113.01	225.715
1116.71	183.336
1120.42	492.93
1124.12	295.922
1127.82	131.484
1131.52	150.996
1135.22	156.77
1138.91	269.355
1142.61	51.488
1146.3	81.289
1149.99	188.051
1153.68	67.852
1157.37	520.691
1161.06	47.961
1164.74	193.766
1168.42	309.758
1172.1	268.352
1175.78	115.754
1179.46	217.012
1183.14	149.066
1186.81	313.648
1190.48	283.445
1194.15	746.941
1197.83	445.969
1201.49	627.602
1205.16	335.145
1208.82	446.875
1212.49	438.777
1216.15	266.559
1219.81	833.938
1223.46	753.055
1227.12	843.969
1230.78	752.371
1234.43	505.375
1238.08	452.797
1241.73	724.047
1245.38	760.895
1249.03	770.57
1252.67	597.359
1256.31	472.332
1259.95	850.41
1263.6	658.312
1267.23	421.109
1270.87	279.664
1274.51	201.73
1278.14	417.992
1281.77	275.578
1285.4	249.746
1289.03	31.887
1292.66	354.863
1296.28	283.059
1299.91	95.336
1303.53	286.578
1307.15	148.477
1310.77	11.777
1314.38	161.859
1318	92.605
1321.61	230.332
1325.23	630.965
1328.84	249.824
1332.45	388.168
1336.06	174.301
1339.66	527.633
1343.27	420.449
1346.87	517.508
1350.47	442.512
1354.07	403.34
1357.67	639.781
1361.26	946.27
1364.86	1214.9
1368.45	1243.62
1372.04	902.82
1375.63	1079.14
1379.22	1034.3
1382.81	1187.39
1386.39	1199.04
1389.98	773.16
1393.56	535.715
1397.14	437.238
1400.72	429.98
1404.3	549.84
1407.87	736.836
1411.45	806.152
1415.02	25.129
1418.59	504.672
1422.16	313.383
1425.73	315.574
1429.29	184.254
1432.86	195.719
1436.42	34.938
1439.98	188.844
1443.54	252.246
1447.1	5.004
1450.66	107.867
