Measurement: Raman, 780 nm, unoriented, Raman Data Processed
Mineral: Barysilite
Rruff sample: R100057
Ideal chemistry: Pb_8_Mn(Si_2_O_7_)_3_
Locality: Langban, Filipstad, Varmland, Sweden
Source: William W Pinch
Description: Aggregate of colorless plates
Raman shift (cm-1)	intensity
91.5332	0
94.908	17.0837
98.2828	57.3906
101.658	248.235
105.032	339.989
108.407	108.937
111.782	38.7811
115.157	28.4081
118.532	22.8813
121.907	21.7313
125.281	12.4182
128.656	13.2127
132.031	17.5754
135.406	17.8344
138.781	6.41728
142.155	1.40355
145.53	5.09389
148.905	10.9866
152.28	1.48035
155.655	17.3149
159.03	52.9229
162.404	117.049
165.779	199.972
169.154	274.75
172.529	339.995
175.904	424.894
179.278	522.522
182.653	626.063
186.028	624.707
189.403	450.75
192.778	289.916
196.153	197.754
199.527	142.995
202.902	107.913
206.277	82.5005
209.652	64.6755
213.027	54.1489
216.401	47.355
219.776	44.5179
223.151	47.7982
226.526	48.8775
229.901	52.5773
233.275	59.4488
236.65	64.5169
240.025	66.7467
243.4	64.9284
246.775	62.9525
250.15	63.292
253.524	65.2443
256.899	62.7283
260.274	53.3488
263.649	36.855
267.024	21.8638
270.399	12.3266
273.773	7.20014
277.148	3.89452
280.523	1.26966
283.898	1.09187
287.273	0.381855
290.647	2.66773
294.022	1.68224
297.397	1.59024
300.772	1.71369
304.147	1.52611
307.522	1.69472
310.896	1.83858
314.271	3.37926
317.646	4.87477
321.021	6.30382
324.396	7.70531
327.77	6.56044
331.145	6.03221
334.52	4.47273
337.895	3.90326
341.27	2.13327
344.644	2.08443
348.019	2.25056
351.394	3.69361
354.769	4.28922
358.144	5.8023
361.519	5.48202
364.893	6.79554
368.268	8.6979
371.643	10.2657
375.018	11.3114
378.393	12.7754
381.767	12.6785
385.142	12.1465
388.517	9.33671
391.892	5.09566
395.267	1.54954
398.642	0.643175
402.016	0.921978
405.391	1.26534
408.766	0.120934
412.141	0.407133
415.516	5.12218
418.89	9.14836
422.265	15.1814
425.64	18.3656
429.015	23.9364
432.39	28.1172
435.765	28.8907
439.139	22.9091
442.514	16.4576
445.889	9.50823
449.264	5.88911
452.639	1.81359
456.014	0.959913
459.388	0.766264
462.763	3.80353
466.138	6.13605
469.513	10.0849
472.887	15.7244
476.262	23.7017
479.637	36.0276
483.012	46.2013
486.387	58.729
489.762	77.5609
493.136	105.25
496.511	130.532
499.886	153.85
503.261	172.279
506.636	171.537
510.01	138.906
513.385	93.8197
516.76	59.8943
520.135	37.5904
523.51	25.9338
526.885	18.3555
530.259	13.222
533.634	12.0029
537.009	11.1402
540.384	6.77859
543.759	4.04756
547.134	1.88427
550.508	2.65249
553.883	2.6746
557.258	1.44072
560.633	0.164644
564.008	0.438009
567.382	0.715578
570.757	0.010225
574.132	0.532703
577.507	0.037018
580.882	0.092251
584.256	0.447634
587.631	0.517161
591.006	0.18028
594.381	0.438667
597.756	0.660774
601.131	1.12872
604.505	0.675739
607.88	1.3586
611.255	1.49232
614.63	1.04591
618.005	1.2582
621.38	1.36228
624.754	0.755978
628.129	1.22185
631.504	0.937745
634.879	0.948483
638.254	0.586041
641.628	1.16773
645.003	0.748806
648.378	0.695582
651.753	0.411861
655.128	0.923337
658.503	0.359611
661.877	1.1666
665.252	0.15069
668.627	0.528795
672.002	0.406508
675.377	0.905705
678.751	0.946521
682.126	1.41739
685.501	2.15256
688.876	4.9539
692.251	8.75498
695.625	14.2603
699	16.5543
702.375	22.1149
705.75	27.7629
709.125	21.7386
712.5	7.79407
715.874	2.85826
719.249	1.36093
722.624	1.15247
725.999	1.72347
729.374	0.736082
732.749	0.694511
736.123	0.766393
739.498	0.267524
742.873	0.778818
746.248	0.469577
749.623	0.052872
752.997	0.685236
756.372	0.180471
759.747	0.34062
763.122	0.306521
766.497	0.53946
769.871	0.520091
773.246	0.574183
776.621	0.586104
779.996	0.095148
783.371	1.11631
786.745	0.765667
790.12	0.714624
793.495	0.284081
796.87	0.808922
800.245	1.40485
803.62	1.78999
806.994	3.84809
810.369	5.17665
813.744	7.76044
817.119	8.87839
820.494	10.1973
823.869	8.387
827.243	4.59914
830.618	2.45013
833.993	0.320389
837.368	0.192562
840.743	0.031221
844.117	0.260252
847.492	0.184011
850.867	0.023375
854.242	0.327787
857.617	0.520666
860.991	0.946983
864.366	2.82919
867.741	4.36824
871.116	9.69146
874.491	18.2403
877.866	30.0506
881.24	41.3869
884.615	52.0199
887.99	64.0993
891.365	57.8135
894.74	41.3962
898.115	37.1292
901.489	37.1758
904.864	44.1009
908.239	46.436
911.614	39.7969
914.989	37.6676
918.363	39.4106
921.738	34.4591
925.113	22.0117
928.488	13.9816
931.863	9.42419
935.237	6.67602
938.612	4.53419
941.987	3.48086
945.362	2.56854
948.737	1.52006
952.112	1.77192
955.486	1.41585
958.861	1.00979
962.236	0.985318
965.611	1.60423
968.986	0.401867
972.361	0.609564
975.735	0.688699
979.11	0.570875
982.485	0.416919
985.86	0.149524
989.235	0.460962
992.609	0.379179
995.984	0.368434
999.359	0.218591
1002.73	0.151508
1006.11	0.166356
1009.48	0.023726
1012.86	0.066096
1016.23	0.137233
1019.61	0.074333
1022.98	1.25185
1026.36	2.25211
1029.73	0.205836
1033.11	0.925949
1036.48	0.901481
1039.86	0.849162
1043.23	1.5621
1046.61	1.39748
1049.98	1.98698
1053.36	1.76845
1056.73	1.8272
1060.11	2.08745
1063.48	1.81086
1066.86	1.93552
1070.23	2.31944
1073.61	1.8268
1076.98	2.25943
1080.36	1.54608
1083.73	1.26893
1087.1	1.32458
1090.48	1.0303
1093.85	1.33207
1097.23	0.448351
1100.6	0.688811
1103.98	0.174356
1107.35	0.823756
1110.73	0.820408
1114.1	0.392256
1117.48	0.689761
1120.85	0.308431
1124.23	0.662239
1127.6	0.008717
1130.98	0.020391
1134.35	0.318402
1137.73	0.166256
1141.1	0.727645
1144.48	0.357542
1147.85	0.755774
1151.23	0.112791
1154.6	0.71345
1157.97	0.320719
1161.35	0.500381
1164.72	0.141041
1168.1	0.193873
1171.47	0.357826
1174.85	0.74419
1178.22	0.978593
1181.6	0.45641
1184.97	0.429987
1188.35	1.12792
1191.72	0.392299
1195.1	0.582949
1198.47	0.700467
1201.85	0.46666
1205.22	0.589415
1208.6	0.769177
1211.97	0.624386
1215.35	0.146555
1218.72	0.360601
1222.1	0.518796
1225.47	0.220215
1228.85	0.482635
1232.22	0.265425
1235.6	1.3e-05
1238.97	0.781491
1242.35	0.32008
1245.72	0.553914
1249.1	0.425321
1252.47	0.232174
1255.85	0.780395
1259.22	1.06097
1262.6	0.834208
1265.97	0.451405
1269.34	0.080145
1272.72	0.132206
1276.09	0.696356
1279.47	1.37064
1282.84	0.768719
