Measurement: Raman, 780 nm, unoriented, Raman Data Processed
Mineral: Barytocalcite
Rruff sample: R120099
Ideal chemistry: BaCa(CO_3_)_2_
Locality: Langban, Filipstad, Varmland, Sweden
Source: Michael Scott
Description: Colorless massive, associated with black hausmannite and britvinite R060785
Raman shift (cm-1)	intensity
92.5678	0
95.9426	15.328
99.3174	93.208
102.692	283.014
106.067	599.761
109.442	822.221
112.817	562.327
116.192	323.163
119.566	344.591
122.941	382.954
126.316	500.292
129.691	610.56
133.066	409.589
136.44	96.9833
139.815	39.5077
143.19	45.4188
146.565	19.7386
149.94	143.325
153.315	328.179
156.689	400.115
160.064	279.697
163.439	244.642
166.814	233.618
170.189	129.662
173.563	44.1534
176.938	7.78638
180.313	3.08588
183.688	63.5543
187.063	148.668
190.437	268.773
193.812	454.929
197.187	708.897
200.562	933.058
203.937	840.591
207.311	491.12
210.686	376.297
214.061	456.517
217.436	665.937
220.811	968.197
224.186	1243.29
227.56	1077.22
230.935	673.95
234.31	443.553
237.685	313.148
241.06	240.857
244.435	230.177
247.809	260.693
251.184	329.722
254.559	485.742
257.934	739.634
261.309	1042.31
264.683	925.487
268.058	573.2
271.433	388.095
274.808	240.944
278.183	114.871
281.558	39.9875
284.932	13.284
288.307	17.7738
291.682	26.2983
295.057	24.806
298.432	24.246
301.806	44.0092
305.181	88.4771
308.556	131.626
311.931	131.86
315.306	73.3043
318.68	24.0028
322.055	0.425049
325.43	10.056
328.805	12.9041
332.18	13.2582
335.555	8.59749
338.929	4.39968
342.304	0.355972
345.679	4.08585
349.054	9.15503
352.429	12.5665
355.803	18.7952
359.178	21.8794
362.553	28.0981
365.928	32.7228
369.303	37.9455
372.678	43.0256
376.052	46.3691
379.427	47.2566
382.802	47.2971
386.177	43.9311
389.552	38.6678
392.926	30.4336
396.301	28.0589
399.676	23.3402
403.051	19.8221
406.426	19.8418
409.8	16.8299
413.175	15.0522
416.55	14.3702
419.925	14.1595
423.3	11.7105
426.675	10.5486
430.049	10.2205
433.424	9.35464
436.799	7.75364
440.174	8.20631
443.549	7.16796
446.923	6.44736
450.298	5.69831
453.673	6.74448
457.048	6.97193
460.423	7.78885
463.798	7.77988
467.172	9.24102
470.547	7.86915
473.922	7.19485
477.297	8.12023
480.672	8.16027
484.046	6.74071
487.421	4.1039
490.796	4.17634
494.171	4.60307
497.546	2.69854
500.921	3.68032
504.295	1.15479
507.67	0.697186
511.045	0.815605
514.42	0.382217
517.795	1.05273
521.169	0.278954
524.544	1.08014
527.919	0.082336
531.294	0.268124
534.669	4.63311
538.044	1.64691
541.418	0.144665
544.793	0.724781
548.168	0.022755
551.543	1.29814
554.918	0.499542
558.293	1.6077
561.667	1.20824
565.042	1.29991
568.417	2.92278
571.792	2.18736
575.167	3.52253
578.541	2.73931
581.916	2.56207
585.291	2.80444
588.666	10.3511
592.041	3.18953
595.415	1.75415
598.79	2.04787
602.165	1.97329
605.54	2.15107
608.915	2.19297
612.29	0.941746
615.664	0.416592
619.039	0.068939
622.414	0.577606
625.789	0.691582
629.164	0.891628
632.538	0.736595
635.913	0.415699
639.288	2.38535
642.663	2.22609
646.038	2.64463
649.413	4.26988
652.787	5.81821
656.162	9.77781
659.537	14.6285
662.912	13.2575
666.287	11.8485
669.661	8.73189
673.036	16.3972
676.411	29.5959
679.786	44.829
683.161	74.9796
686.535	159.843
689.91	211.81
693.285	136.056
696.66	88.2211
700.035	173.281
703.41	166.952
706.784	77.9843
710.159	106.558
713.534	200.584
716.909	333.944
720.284	56.6091
723.659	11.318
727.033	3.60039
730.408	3.63938
733.783	4.2683
737.158	0.178921
740.533	0.006409
743.907	0.90506
747.282	0.791374
750.657	1.40369
754.032	0.11528
757.407	0.922543
760.782	1.62559
764.156	1.6909
767.531	0.676544
770.906	0.13245
774.281	0.162079
777.656	0.415085
781.03	2.4881
784.405	0.541691
787.78	1.46854
791.155	4.08106
794.53	2.10608
797.904	2.11255
801.279	3.28735
804.654	1.83348
808.029	4.49994
811.404	3.46625
814.779	3.69585
818.153	3.78004
821.528	3.40151
824.903	4.03592
828.278	2.97715
831.653	4.04505
835.028	3.96225
838.402	3.54926
841.777	3.34523
845.152	3.20043
848.527	3.39863
851.902	3.45899
855.276	3.59827
858.651	5.9616
862.026	8.78528
865.401	17.8041
868.776	15.8908
872.15	27.2317
875.525	50.0446
878.9	35.3468
882.275	3.89241
885.65	2.26862
889.024	1.72207
892.399	4.01159
895.774	1.86832
899.149	1.77103
902.524	0.505142
905.899	0.985008
909.273	1.59717
912.648	1.50512
916.023	1.42904
919.398	2.09209
922.773	1.77234
926.148	0.801632
929.522	0.066227
932.897	0.63559
936.272	0.975822
939.647	0.324375
943.022	0.369034
946.396	1.29402
949.771	0.485611
953.146	1.43117
956.521	2.18905
959.896	1.81675
963.27	1.58553
966.645	0.867451
970.02	0.386436
973.395	0.654335
976.77	0.032043
980.145	1.81333
983.519	2.04372
986.894	0.633701
990.269	0.187485
993.644	0.729519
997.019	2.03995
1000.39	0.622612
1003.77	0.782375
1007.14	1.03184
1010.52	2.22667
1013.89	3.11283
1017.27	1.30656
1020.64	1.52366
1024.02	1.23588
1027.39	0.873684
1030.77	0.265316
1034.14	0.225079
1037.52	2.47466
1040.89	2.00842
1044.27	1.00681
1047.64	2.46999
1051.02	9.54376
1054.39	7.80684
1057.77	14.5643
1061.14	27.1223
1064.52	36.5755
1067.89	48.423
1071.27	134.076
1074.64	589.663
1078.01	975.095
1081.39	1890.18
1084.76	4306.28
1088.14	3805.93
1091.51	257.66
1094.89	69.5395
1098.26	31.3331
1101.64	18.0618
1105.01	11.3746
1108.39	7.28159
1111.76	4.19147
1115.14	2.01974
1118.51	0.984184
1121.89	1.0702
1125.26	0.021385
1128.64	0.241562
1132.01	0.360474
1135.39	0.546234
1138.76	1.31058
1142.14	0.383698
1145.51	2.34595
1148.88	3.67057
1152.26	4.54369
1155.63	6.09293
1159.01	7.95048
1162.38	10.6931
1165.76	16.2471
1169.13	17.5875
1172.51	18.3343
1175.88	16.824
1179.26	18.6971
1182.63	16.6052
1186.01	19.4131
1189.38	16.9709
1192.76	20.115
1196.13	15.644
1199.51	10.8859
1202.88	10.6846
1206.26	8.90251
1209.63	5.85686
1213.01	4.79332
1216.38	3.53415
1219.76	0.338547
1223.13	0.876389
1226.51	2.10465
1229.88	2.77983
1233.26	4.44191
1236.63	6.07425
1240.01	7.45912
1243.38	6.17505
1246.76	9.19638
1250.13	8.35712
1253.51	3.6539
1256.88	0.506958
1260.25	1.92362
1263.63	3.41098
1267	2.25552
1270.38	1.08759
1273.75	1.7619
1277.13	1.39764
1280.5	3.11505
1283.88	3.78058
