Measurement: Raman, 780 nm, unoriented, Raman Data Processed
Mineral: Barylite
Rruff sample: R060620
Ideal chemistry: BaBe_2_Si_2_O_7_
Locality: Zomba, Malawi
Source: Michael Scott
Description: Colorless long prismatic single crystals associated with aegirine
Measured chemistry: Ba_1.00_Be_2.00_Si_2.00_O_7_ ; Be not measured but estimated by difference and stoichiometry
Raman shift (cm-1)	intensity
95.4604	0
98.8353	12.6562
102.21	4.5896
105.585	2.60693
108.96	19.7704
112.335	146.795
115.709	333.213
119.084	366.257
122.459	597.974
125.834	964.19
129.209	1878.49
132.583	5280.69
135.958	2487.21
139.333	565.746
142.708	522.743
146.083	879.498
149.458	1054.45
152.832	392.667
156.207	69.6867
159.582	6.61011
162.957	0.944824
166.332	9.84155
169.706	22.6303
173.081	56.9075
176.456	100.166
179.831	246.994
183.206	263.654
186.581	367.406
189.955	669.7
193.33	281.912
196.705	217.557
200.08	401.355
203.455	277.289
206.829	83.6272
210.204	52.8501
213.579	19.5815
216.954	14.3224
220.329	18.3791
223.703	25.8748
227.078	48.209
230.453	117.3
233.828	274.69
237.203	79.3169
240.578	15.5459
243.952	7.01233
247.327	4.09863
250.702	1.8479
254.077	6.90955
257.452	27.6644
260.827	75.403
264.201	18.7338
267.576	6.63135
270.951	3.28406
274.326	8.62964
277.701	5.0481
281.075	4.20239
284.45	10.3804
287.825	11.1938
291.2	14.6996
294.575	22.6799
297.95	31.4095
301.324	40.3635
304.699	67.8599
308.074	99.3297
311.449	165
314.824	277.194
318.198	490.998
321.573	772.852
324.948	1139.54
328.323	1758.62
331.698	2699.66
335.072	4142.47
338.447	4028.86
341.822	2193.1
345.197	1065.87
348.572	551.4
351.947	305.655
355.321	184.017
358.696	121.084
362.071	60.8723
365.446	58.0906
368.821	70.9246
372.195	75.1399
375.57	108.588
378.945	222.561
382.32	559.645
385.695	355.952
389.07	48.5327
392.444	10.877
395.819	6.88477
399.194	6.38501
402.569	11.5703
405.944	49.6685
409.318	111.156
412.693	47.3081
416.068	47.3572
419.443	5.83301
422.818	2.34497
426.192	4.02441
429.567	3.34351
432.942	0.837402
436.317	13.2998
439.692	32.0764
443.067	40.9294
446.441	45.0061
449.816	24.7839
453.191	29.2446
456.566	30.9978
459.941	63.4409
463.315	106.327
466.69	63.7419
470.065	40.5615
473.44	28.9304
476.815	23.0835
480.19	13.1301
483.564	10.2678
486.939	7.24121
490.314	1.41357
493.689	9.5581
497.064	4.95386
500.438	1.44409
503.813	1.0083
507.188	6.0022
510.563	11.4937
513.938	0.144043
517.313	0.876465
520.687	0.103027
524.062	1.12671
527.437	9.21167
530.812	8.05957
534.187	18.9568
537.562	36.2798
540.936	24.2339
544.311	2.09228
547.686	5.41943
551.061	15.2256
554.436	10.2207
557.81	15.9492
561.185	21.1314
564.56	28.7339
567.935	35.8418
571.31	45.981
574.684	49.5278
578.059	10.9663
581.434	4.68994
584.809	7.47266
588.184	2.16309
591.558	13.8389
594.933	3.92432
598.308	18.4634
601.683	0.928711
605.058	18.084
608.433	18.3648
611.807	40.1602
615.182	58.1826
618.557	78.9849
621.932	117.699
625.307	150.766
628.682	150.87
632.056	103.925
635.431	61.8242
638.806	48.1235
642.181	23.9189
645.556	12.0342
648.93	15.2739
652.305	20.3013
655.68	19.1826
659.055	49.2495
662.43	66.6992
665.804	148.788
669.179	317.16
672.554	528.704
675.929	859.781
679.304	1504.8
682.679	2620.47
686.053	2576.13
689.428	1055.69
692.803	421.208
696.178	192.028
699.553	92.4741
702.928	46.7349
706.302	30.061
709.677	22.5938
713.052	5.94775
716.427	4.57227
719.802	7.67481
723.176	2.49414
726.551	4.77441
729.926	8.97949
733.301	15.7329
736.676	13.2695
740.051	2.30615
743.425	0.20459
746.8	3.4668
750.175	12.8755
753.55	17.6055
756.925	22.8169
760.299	24.0962
763.674	21.4404
767.049	29.3418
770.424	16.9282
773.799	40.541
777.173	48.5102
780.548	57.1055
783.923	43.4712
787.298	53.4297
790.673	51.8227
794.048	61.9526
797.422	56.2275
800.797	45.6982
804.172	35.9341
807.547	53.7886
810.922	53.917
814.296	35.0322
817.671	56.6851
821.046	55.2207
824.421	57.9683
827.796	47.6714
831.17	35.8516
834.545	29.3486
837.92	34.583
841.295	26.3203
844.67	21.6704
848.045	28.5317
851.419	28.8413
854.794	8.9834
858.169	25.335
861.544	31.2666
864.919	20.1787
868.293	13.6206
871.668	28.1338
875.043	35.917
878.418	28.4019
881.793	30.5508
885.168	60.3765
888.542	46.8218
891.917	41.3193
895.292	13.4556
898.667	3.29981
902.042	11.7417
905.417	5.73438
908.791	6.29736
912.166	13.1465
915.541	26.853
918.916	36.8218
922.291	38.0557
925.665	64.6348
929.04	114.921
932.415	210.988
935.79	288.302
939.165	294.086
942.539	277.668
945.914	391.658
949.289	642.247
952.664	1089.77
956.039	1799.84
959.414	1952.03
962.788	1036.37
966.163	450.125
969.538	239.884
972.913	117.29
976.288	71.6919
979.663	57.291
983.037	70.4981
986.412	44.4658
989.787	32.4761
993.162	25.2949
996.537	22.5918
999.911	17.6489
1003.29	5.29199
1006.66	6.44141
1010.04	19.4761
1013.41	23.0337
1016.78	18.6333
1020.16	5.5918
1023.53	7.87256
1026.91	9.34131
1030.29	24.2759
1033.66	20.5552
1037.03	26.1157
1040.41	10.5068
1043.78	1.3667
1047.16	3.63672
1050.53	14.4224
1053.91	23.2056
1057.28	17.6885
1060.66	23.1001
1064.03	29.6416
1067.41	37.4653
1070.78	37.8838
1074.16	40.3594
1077.53	30.7681
1080.91	27.0542
1084.28	21.4253
1087.66	27.1831
1091.03	32.1753
1094.41	32.0127
1097.78	25.5723
1101.16	19.8696
1104.53	9.33643
1107.91	8.8584
1111.28	4.88037
1114.65	1.18603
1118.03	1.10205
1121.4	9.53418
1124.78	14.5845
1128.15	19.3491
1131.53	18.8013
1134.9	33.5508
1138.28	24.7466
1141.65	34.0772
1145.03	30
1148.4	37.0395
1151.78	34.3594
1155.15	41.2627
1158.53	29.085
1161.9	42.3306
1165.28	48.4634
1168.65	44.1699
1172.03	36.269
1175.4	52.8081
1178.78	47.5781
1182.15	36.7456
1185.53	36.6807
1188.9	48.2178
1192.28	43.4512
1195.65	51.2974
1199.03	43.3516
1202.4	50.2002
1205.78	30.7158
1209.15	26.2915
1212.53	30.0723
1215.9	32.4438
1219.27	12.3994
1222.65	23.605
1226.02	31.394
1229.4	20.48
1232.77	19.5561
1236.15	9.14404
1239.52	2.08203
1242.9	7.28662
1246.27	6.79053
1249.65	0.538086
1253.02	7.26904
1256.4	13.3413
1259.77	19.7393
1263.15	11.064
1266.52	17.6372
1269.9	24.2793
1273.27	13.4746
1276.65	18.4477
1280.02	13.5523
1283.4	17.1885
