Measurement: Raman, 780 nm, unoriented, Raman Data Processed
Mineral: Barytolamprophyllite
Rruff sample: R120087
Ideal chemistry: Na_3_(BaK)Ti_3_(Si_2_O_7_)_2_O_2_(OH)_2_
Locality: Coyote Peak, Orick, Humboldt County, California, USA
Source: Michael Scott
Description: Tabular reddish brown massive, associated with phlogopite, bartonite and R070139 erdite
Raman shift (cm-1)	intensity
134.994	0
137.887	0.283264
140.779	2.9424
143.672	10.6549
146.565	24.1783
149.458	40.4153
152.35	57.1101
155.243	80.6967
158.136	109.441
161.028	147.311
163.921	184.686
166.814	179.005
169.706	126.925
172.599	68.8306
175.492	34.0506
178.385	13.8026
181.277	4.98331
184.17	0.660324
187.063	1.21883
189.955	0.781281
192.848	3.79213
195.741	10.8603
198.633	21.8193
201.526	33.906
204.419	53.6365
207.311	78.2231
210.204	105.412
213.097	114.525
215.99	117.459
218.882	108.994
221.775	93.0418
224.668	74.8745
227.56	58.6464
230.453	44.6341
233.346	35.7981
236.238	29.5441
239.131	27.6093
242.024	25.5465
244.917	24.3968
247.809	22.0062
250.702	17.7769
253.595	11.5842
256.487	5.93277
259.38	0.005096
262.273	6.53803
265.166	8.19136
268.058	8.12666
270.951	5.15613
273.844	2.13992
276.736	10.9566
279.629	21.222
282.522	31.226
285.414	45.3518
288.307	60.9861
291.2	78.1834
294.092	97.6326
296.985	121.084
299.878	147.401
302.771	175.81
305.663	209.241
308.556	237.345
311.449	263.977
314.341	277.369
317.234	276.227
320.127	250.007
323.019	211.043
325.912	169.644
328.805	129.655
331.698	104.694
334.59	91.4582
337.483	89.9146
340.376	84.1811
343.268	80.6888
346.161	73.9644
349.054	67.8307
351.947	59.4851
354.839	54.6208
357.732	48.4267
360.625	46.3075
363.517	44.1577
366.41	44.1078
369.303	43.4854
372.195	42.5563
375.088	48.6549
377.981	59.5586
380.873	74.6548
383.766	100.378
386.659	126.828
389.552	146.038
392.444	152.604
395.337	138.114
398.23	115.267
401.122	100.546
404.015	93.8014
406.908	94.437
409.8	98.6291
412.693	101.62
415.586	100.964
418.479	100.389
421.371	100.509
424.264	95.1463
427.157	79.0212
430.049	59.0782
432.942	34.3184
435.835	10.8071
438.728	4.4687
441.62	10.7559
444.513	11.1831
447.406	5.4343
450.298	2.53558
453.191	13.5196
456.084	20.0275
458.976	23.9971
461.869	22.9297
464.762	23.3531
467.654	24.8285
470.547	23.7412
473.44	21.2603
476.333	19.196
479.225	12.6478
482.118	10.9153
485.011	10.6853
487.903	11.5153
490.796	14.2476
493.689	14.8911
496.582	15.4717
499.474	10.9363
502.367	4.48223
505.26	2.02531
508.152	1.51205
511.045	1.3873
513.938	0.039063
516.83	4.72929
519.723	11.1288
522.616	17.5362
525.509	28.5022
528.401	40.0651
531.294	53.2563
534.187	62.9685
537.079	62.1633
539.972	55.9222
542.865	48.1317
545.757	45.4679
548.65	40.6324
551.543	43.3557
554.436	50.6738
557.328	59.1444
560.221	75.3116
563.114	97.2542
566.006	122.007
568.899	155.84
571.792	196.718
574.684	245.433
577.577	290.852
580.47	309.214
583.362	287.043
586.255	237.315
589.148	192.057
592.041	155.276
594.933	128.29
597.826	109.915
600.719	87.9451
603.611	68.0126
606.504	48.7205
609.397	31.1913
612.29	18.8009
615.182	10.3871
618.075	6.14497
620.968	2.95765
623.86	0.33593
626.753	2.27013
629.646	1.4144
632.538	2.79052
635.431	1.4952
638.324	1.06149
641.217	1.69186
644.109	3.24745
647.002	7.54624
649.895	10.6772
652.787	16.339
655.68	23.6903
658.573	31.339
661.466	41.2523
664.358	53.0595
667.251	67.7327
670.144	84.8746
673.036	105.859
675.929	129.619
678.822	157.489
681.714	183.964
684.607	208.392
687.5	223.481
690.393	221.882
693.285	205.196
696.178	176.681
699.071	142.568
701.963	110.204
704.856	88.1586
707.749	68.3583
710.641	54.4694
713.534	42.4266
716.427	33.947
719.319	27.37
722.212	23.9405
725.105	22.048
727.998	18.0748
730.89	15.6079
733.783	13.5848
736.676	10.5492
739.568	7.58039
742.461	5.29892
745.354	3.16876
748.246	0.994606
751.139	1.14555
754.032	0.255692
756.925	1.28113
759.817	0.54023
762.71	0.740532
765.603	4.99396
768.495	2.6747
771.388	1.92742
774.281	1.70187
777.173	2.42995
780.066	1.17419
782.959	3.21312
785.852	2.00752
788.744	3.79971
791.637	3.37451
794.53	1.20915
797.422	2.64041
800.315	2.50888
803.208	0.085327
806.101	1.05756
808.993	4.76503
811.886	5.67932
814.779	8.51511
817.671	7.37627
820.564	4.93549
823.457	1.29394
826.349	5.03517
829.242	14.2214
832.135	28.6939
835.028	45.8632
837.92	62.7777
840.813	85.6741
843.706	109.317
846.598	135.222
849.491	160.255
852.384	188.662
855.276	207.501
858.169	213.863
861.062	211.883
863.955	209.578
866.847	213.971
869.74	235.618
872.633	279.252
875.525	351.168
878.418	442.399
881.311	551.075
884.203	662.61
887.096	757.295
889.989	815.127
892.881	840.658
895.774	826.472
898.667	785.725
901.56	726.346
904.452	655.459
907.345	580.932
910.238	491.156
913.13	404.909
916.023	328.778
918.916	271.678
921.808	236.297
924.701	213.441
927.594	205.527
930.487	205.424
933.379	203.702
936.272	210.54
939.165	216.747
942.057	223.954
944.95	225.816
947.843	214.365
950.736	182.427
953.628	132.917
956.521	86.7435
959.414	52.9076
962.306	27.6774
965.199	11.7387
968.092	3.0696
970.984	3.55475
973.877	8.01325
976.77	7.80168
979.663	7.34355
982.555	6.3153
985.448	4.06294
988.341	0.566383
991.233	2.35255
994.126	6.48001
997.019	10.9492
999.911	16.7237
1002.8	20.6301
1005.7	27.1303
1008.59	30.97
1011.48	37.8159
1014.38	43.6114
1017.27	48.2181
1020.16	54.4643
1023.05	59.8465
1025.95	65.5745
1028.84	70.8024
1031.73	75.8758
1034.62	80.4838
1037.52	88.1208
1040.41	95.0451
1043.3	104.586
1046.19	119.476
1049.09	133.845
1051.98	153.93
1054.87	171.568
1057.77	183.547
1060.66	187.471
1063.55	177.106
1066.44	155.356
1069.34	127.653
1072.23	93.9989
1075.12	65.736
1078.01	43.132
1080.91	27.5007
1083.8	17.0696
1086.69	9.94409
1089.59	6.32737
1092.48	4.30547
1095.37	1.70168
1098.26	0.821869
1101.16	0.157734
1104.05	0.385387
1106.94	0.453953
1109.83	1.02692
1112.73	0.217453
1115.62	0.270634
1118.51	0.432755
1121.4	1.92699
1124.3	0.663595
1127.19	1.62904
1130.08	1.11776
1132.98	1.43085
1135.87	1.89487
1138.76	1.15035
1141.65	2.80794
1144.55	4.00227
1147.44	2.89479
1150.33	2.18582
1153.22	3.34734
1156.12	2.68431
1159.01	2.1077
1161.9	1.69355
1164.8	0.787823
1167.69	2.48253
1170.58	0.742584
1173.47	1.15084
1176.37	0.137152
1179.26	0.857224
1182.15	1.23518
1185.04	1.2611
1187.94	1.2146
1190.83	0.380251
1193.72	0.382484
1196.62	1.6693
1199.51	1.65138
1202.4	3.19119
1205.29	0.626905
1208.19	0.963833
1211.08	0.451786
1213.97	0.065105
1216.86	0.713898
1219.76	1.26854
1222.65	1.2854
1225.54	0.531885
1228.43	1.23169
1231.33	0.482344
1234.22	1.43144
1237.11	0.710463
1240.01	1.36427
1242.9	0.085529
1245.79	0.639864
1248.68	1.47997
1251.58	0.095364
1254.47	0.471008
1257.36	1.48954
1260.25	1.47314
1263.15	1.47335
1266.04	2.19393
1268.93	0.743267
1271.83	0.523079
1274.72	0.853104
1277.61	0.60059
1280.5	1.35168
1283.4	0.107573
