Measurement: Raman, 532 nm, unoriented, Raman Data Processed
Mineral: Baryte
Rruff sample: R050342
Ideal chemistry: BaSO_4_
Locality: Palos Verdes, Los Angeles County, California, USA
Source: California Institute of Technology
Description: Light brown fragment
Measured chemistry: Ba_1.00_S_1.00_O_4_
Raman shift (cm-1)	intensity
130.441	0
133.333	294.582
136.226	379.048
139.119	495.752
142.012	446.747
144.904	479.647
147.797	504.021
150.69	597.701
153.582	513.653
156.475	385.058
159.368	340.754
162.26	317.273
165.153	275.06
168.046	229.648
170.939	260.351
173.831	242.113
176.724	242.559
179.617	282.245
182.509	151.339
185.402	228.286
188.295	301.291
191.187	120.569
194.08	125.961
196.973	71.5249
199.865	110.193
202.758	10.7026
205.651	59.3735
208.544	20.7783
211.436	5.64111
214.329	26.3896
217.222	16.9341
220.114	20.5317
223.007	17.4541
225.9	24.0708
228.792	17.627
231.685	14.9023
234.578	40.6768
237.471	15.144
240.363	2.78027
243.256	49.4951
246.149	78.8125
249.041	70.6021
251.934	33.6392
254.827	67.5034
257.719	100.174
260.612	55.4258
263.505	8.85156
266.398	38.6895
269.29	139.196
272.183	21.2153
275.076	120.592
277.968	131.409
280.861	178.628
283.754	129.66
286.647	113.393
289.539	68.2207
292.432	87.5312
295.325	111.952
298.217	78.2803
301.11	141.56
304.003	122.981
306.895	138.455
309.788	109.748
312.681	104.75
315.574	95.4228
318.466	38.5322
321.359	136.295
324.252	72.8848
327.144	28.2822
330.037	74.5586
332.93	47.6758
335.822	46.9863
338.715	51.9395
341.608	40.206
344.5	27.3281
347.393	25.3828
350.286	119.135
353.179	103.749
356.071	3.69336
358.964	52.5107
361.857	133.108
364.749	95.9238
367.642	55.2051
370.535	23.2197
373.428	18.5391
376.32	84.2861
379.213	4.00098
382.106	43.7978
384.998	74.6064
387.891	110.548
390.784	33.0635
393.676	50.9932
396.569	1.94629
399.462	37.5029
402.354	21.2051
405.247	25.5645
408.14	69.0322
411.033	88.1426
413.925	44.499
416.818	86.4981
419.711	98.1221
422.603	112.334
425.496	181.933
428.389	187.429
431.281	383.082
434.174	455.167
437.067	829.018
439.96	1180.87
442.852	1935.04
445.745	3322.56
448.638	4662.89
451.53	6195.35
454.423	7022.28
457.316	8595.77
460.209	11379.7
463.101	8513.08
465.994	2970.62
468.887	1295.27
471.779	682.205
474.672	408.218
477.565	285.334
480.457	232.244
483.35	179.29
486.243	134.717
489.135	78.1035
492.028	23.2734
494.921	26.9492
497.814	29.0264
500.706	9.22949
503.599	136.911
506.492	14.1523
509.384	30.6621
512.277	100.156
515.17	40.0176
518.063	35.0127
520.955	24.1738
523.848	73.6797
526.741	50.8037
529.633	51.3086
532.526	72.4814
535.419	40.3096
538.312	117.371
541.204	83.9951
544.097	152.762
546.99	128.817
549.882	48.3232
552.775	109.606
555.668	62.5273
558.56	61.126
561.453	99.7129
564.346	1.34473
567.239	27.3086
570.131	45.7949
573.024	61.3018
575.917	95.5205
578.809	60.792
581.702	92.1367
584.595	139.872
587.487	75.2715
590.38	69.8447
593.273	98.0566
596.165	178.4
599.058	255.829
601.951	333.299
604.843	548.324
607.736	707.031
610.629	1150.24
613.522	1818.91
616.414	2279.68
619.307	1448.69
622.2	896.3
625.092	820.155
627.985	869.011
630.878	748.493
633.77	363.662
636.663	127.794
639.556	101.06
642.449	138.56
645.341	50.6338
648.234	43.7754
651.127	42.7666
654.019	34.541
656.912	75.3389
659.805	74.875
662.697	85.5918
665.59	32.6406
668.483	75.7519
671.376	18.9111
674.268	67.7012
677.161	13.9756
680.054	36.8984
682.946	20.5605
685.839	10.5801
688.732	73.9219
691.625	50.8867
694.517	96.0186
697.41	137.183
700.303	54.6924
703.195	23.0869
706.088	19.2354
708.981	6.55273
711.873	83.9023
714.766	44.7812
717.659	14.0781
720.552	85.0449
723.444	66.8203
726.337	64.5127
729.23	144.203
732.122	92.7832
735.015	5.69238
737.908	21.0869
740.8	88.4824
743.693	107.265
746.586	124.26
749.479	73.0635
752.371	22.6885
755.264	37.5879
758.157	50.6416
761.049	81.8955
763.942	97.8242
766.835	88.2764
769.727	59.0234
772.62	89.1455
775.513	104.522
778.405	80.2705
781.298	34.0029
784.191	105.25
787.084	1.79688
789.976	90.0391
792.869	139.287
795.762	171.293
798.654	92.2324
801.547	81.3857
804.44	27.9678
807.332	141.117
810.225	75.0234
813.118	17.4072
816.011	57.9326
818.903	64.0928
821.796	71.4062
824.689	104.829
827.581	73.3945
830.474	99.3467
833.367	2.98438
836.26	89.6103
839.152	76.459
842.045	73.5029
844.938	76.8281
847.83	32.1182
850.723	94.7852
853.616	32.7793
856.508	78.5752
859.401	130.7
862.294	27.5557
865.187	79.1162
868.079	65.1846
870.972	58.9717
873.865	88.4668
876.757	47.8603
879.65	34.5283
882.543	55.3955
885.435	98.4707
888.328	73.8428
891.221	113.291
894.114	147.788
897.006	72.1768
899.899	76.165
902.792	17.624
905.684	61.7861
908.577	73.3603
911.47	15.0127
914.362	48.4883
917.255	47.0244
920.148	7.40918
923.04	15.3115
925.933	144.056
928.826	8.45508
931.719	10.6435
934.611	12.7041
937.504	41.5098
940.397	18.0068
943.289	2.15332
946.182	4.51953
949.075	32.7852
951.967	1.58398
954.86	109.911
957.753	110.822
960.646	50.7734
963.538	234.948
966.431	256.162
969.324	499.434
972.216	1006.72
975.109	3133.96
978.002	5349.95
980.894	8015.98
983.787	15890.3
986.68	34400.3
989.573	20279.8
992.465	3547.42
995.358	1307.24
998.251	652.681
1001.14	442.419
1004.04	266.907
1006.93	199.685
1009.82	162.95
1012.71	134.046
1015.61	120.686
1018.5	99.8438
1021.39	44.0508
1024.29	9.72559
1027.18	100.347
1030.07	66.0361
1032.96	6.06348
1035.86	72.583
1038.75	90.4336
1041.64	72.9971
1044.53	9.77051
1047.43	34.4756
1050.32	38.335
1053.21	68.4619
1056.11	130.244
1059	56.3486
1061.89	77.167
1064.78	81.4131
1067.68	30.7803
1070.57	43.5605
1073.46	15.5254
1076.35	92.833
1079.25	127.916
1082.14	70.5059
1085.03	13.5996
1087.92	61.1875
1090.82	54.2393
1093.71	79.0869
1096.6	106.606
1099.49	173.191
1102.39	213.475
1105.28	99.583
1108.17	81.8457
1111.07	27.5371
1113.96	15.2266
1116.85	30.7422
1119.74	31.8262
1122.64	48.1816
1125.53	24.1055
1128.42	116.853
1131.32	241.435
1134.21	466.088
1137.1	642.277
1139.99	815.251
1142.89	947.773
1145.78	752.167
1148.67	461.382
1151.56	275.367
1154.46	94.8174
1157.35	138.13
1160.24	117.204
1163.13	147.21
1166.03	27.8945
1168.92	85.1006
1171.81	53.4961
1174.7	41.502
1177.6	102.353
1180.49	104.839
1183.38	43.416
1186.28	8.85352
1189.17	116.84
1192.06	28.584
1194.95	28.2178
1197.85	17.6973
1200.74	83.6348
1203.63	69.6621
1206.53	83.1982
1209.42	25.2383
1212.31	146.124
1215.2	33.3447
1218.1	55.3291
1220.99	39.3154
1223.88	74.2217
1226.77	48.4629
1229.67	122.895
1232.56	78.2012
1235.45	145.481
1238.35	7.83008
1241.24	117.533
1244.13	16.3799
1247.02	51.4072
1249.92	69.1064
1252.81	68.5664
1255.7	81.1074
1258.59	31.0244
1261.49	103.21
1264.38	160.78
1267.27	87.1289
1270.16	142.093
1273.06	84.0693
1275.95	82.2949
1278.84	36.1465
1281.73	0
