Measurement: Raman, 780 nm, unoriented, Raman Data Processed
Mineral: Baryte
Rruff sample: R050335
Ideal chemistry: BaSO_4_
Locality: Bullion Mountains, San Bernardino County, California, USA
Source: California Institute of Technology
Description: Colorless cleavage fragment
Measured chemistry: (Ba_0.95_Sr_0.05_)_Î£=1_S_1.00_O_4_
Raman shift (cm-1)	intensity
92.5234	0
95.8983	62.9148
99.2731	122.488
102.648	62.9945
106.023	21.2615
109.397	9.09456
112.772	4.54507
116.147	0.109825
119.522	1.86469
122.897	0.610847
126.272	1.16696
129.646	7.31523
133.021	12.8895
136.396	21.6867
139.771	28.9136
143.146	43.1235
146.52	59.7319
149.895	93.0625
153.27	132.896
156.645	106.034
160.02	62.8843
163.395	43.9331
166.769	40.2638
170.144	42.8403
173.519	46.0223
176.894	49.2878
180.269	58.5302
183.643	73.2988
187.018	107.422
190.393	132.532
193.768	78.5344
197.143	32.7611
200.518	13.3847
203.892	6.11596
207.267	2.42577
210.642	1.6262
214.017	0.184553
217.392	0.542786
220.766	0.642248
224.141	0.448599
227.516	1.41257
230.891	0.601669
234.266	1.16503
237.641	1.08376
241.015	1.39812
244.39	0.111048
247.765	1.35563
251.14	0.864557
254.515	1.21839
257.889	0.084455
261.264	0.972904
264.639	0.574671
268.014	2.20356
271.389	1.23165
274.764	0.793385
278.138	1.4488
281.513	1.44131
284.888	0.023533
288.263	0.98233
291.638	0.745859
295.012	2.17704
298.387	2.00456
301.762	0.078354
305.137	1.26846
308.512	0.487574
311.887	1.47054
315.261	0.071568
318.636	0.905214
322.011	0.668306
325.386	1.356
328.761	1.59201
332.135	0.118608
335.51	1.26173
338.885	0.73455
342.26	1.28945
345.635	0.329756
349.01	0.885401
352.384	1.72388
355.759	0.050076
359.134	1.90745
362.509	0.59952
365.884	2.71567
369.258	2.59193
372.633	0.891277
376.008	1.18422
379.383	1.78473
382.758	0.437368
386.132	0.255434
389.507	0.496237
392.882	0.139807
396.257	0.847872
399.632	0.547586
403.007	0.146763
406.381	1.98187
409.756	3.31155
413.131	6.1981
416.506	10.5112
419.881	16.0163
423.255	25.6932
426.63	42.7259
430.005	77.5213
433.38	140.787
436.755	245.228
440.13	363.305
443.504	613.967
446.879	927.064
450.254	1369.19
453.629	1834.61
457.004	1888.67
460.378	2591.9
463.753	2223.11
467.128	736.32
470.503	286.081
473.878	144.995
477.252	85.509
480.627	54.4595
484.002	35.4605
487.377	23.2005
490.752	15.0928
494.127	8.98104
497.501	6.93335
500.876	4.68491
504.251	2.0989
507.626	1.69549
511.001	1.04231
514.375	1.15918
517.75	0.79689
521.125	0.255667
524.5	0.015875
527.875	1.19915
531.25	0.602509
534.624	0.654615
537.999	0.935892
541.374	0.786489
544.749	0.560862
548.124	0.253094
551.499	0.054312
554.873	0.51948
558.248	0.968615
561.623	0.297873
564.998	0.183563
568.373	0.086456
571.747	1.86294
575.122	1.17875
578.497	1.94321
581.872	3.87582
585.247	4.9984
588.621	8.67103
591.996	11.7445
595.371	20.5815
598.746	39.0296
602.121	74.888
605.495	102.224
608.87	153.479
612.245	255.909
615.62	460.417
618.995	457.485
622.37	290.335
625.744	296.454
629.119	394.859
632.494	379.51
635.869	161.623
639.244	72.7277
642.619	47.7437
645.993	43.5859
649.368	32.6298
652.743	14.5998
656.118	6.64084
659.493	3.66139
662.867	1.244
666.242	1.33866
669.617	0.216518
672.992	0.470483
676.367	0.477024
679.741	0.015153
683.116	0.046515
686.491	0.550037
689.866	0.240692
693.241	1.72511
696.615	0.622815
699.99	0.04384
703.365	0.885407
706.74	0.60081
710.115	0.604723
713.49	0.904604
716.864	1.06517
720.239	0.450771
723.614	0.396269
726.989	0.928566
730.364	0.11799
733.739	0.592875
737.113	0.811247
740.488	1.50907
743.863	1.60025
747.238	0.480813
750.613	1.63207
753.987	1.71615
757.362	0.560331
760.737	2.68513
764.112	2.3702
767.487	0.460576
770.861	2.10831
774.236	2.33801
777.611	1.85439
780.986	2.68286
784.361	2.82922
787.736	2.51516
791.11	1.65836
794.485	3.82498
797.86	2.3706
801.235	3.67153
804.61	4.02798
807.985	3.82899
811.359	3.18283
814.734	4.09504
818.109	3.9791
821.484	4.1393
824.859	5.00802
828.233	3.40334
831.608	3.35118
834.983	3.31558
838.358	2.46326
841.733	2.98198
845.107	3.32327
848.482	1.88931
851.857	1.4431
855.232	0.519047
858.607	0.273906
861.982	0.227124
865.356	0.091978
868.731	0.042097
872.106	1.20806
875.481	1.47258
878.856	0.308928
882.231	0.017361
885.605	0.441652
888.98	2.98458
892.355	4.16493
895.73	4.49167
899.105	6.55632
902.479	4.33522
905.854	3.51809
909.229	2.82757
912.604	4.37308
915.979	3.61864
919.353	3.27277
922.728	4.49446
926.103	3.63096
929.478	1.25885
932.853	0.71529
936.227	0.44602
939.602	0.726414
942.977	3.47722
946.352	3.23038
949.727	3.92257
953.102	8.33879
956.476	14.9086
959.851	25.4729
963.226	44.5924
966.601	84.5565
969.976	143.105
973.351	418.435
976.725	1285.99
980.1	1717.92
983.475	3085.88
986.85	6194.83
990.225	8970.39
993.599	1187.04
996.974	330.232
1000.35	156.922
1003.72	92.002
1007.1	61.2086
1010.47	43.2233
1013.85	30.4969
1017.22	22.8484
1020.6	16.1075
1023.97	10.4978
1027.35	6.75729
1030.72	4.80457
1034.1	1.23533
1037.47	1.50299
1040.85	1.21499
1044.22	0.467262
1047.6	0.772604
1050.97	0.090332
1054.35	0.192265
1057.72	1.0853
1061.1	0.199577
1064.47	1.59175
1067.85	0.710793
1071.22	0.510002
1074.6	1.64273
1077.97	1.7034
1081.35	3.75109
1084.72	6.32289
1088.09	7.57146
1091.47	12.6564
1094.84	20.6487
1098.22	32.296
1101.59	48.2611
1104.97	51.6013
1108.34	30.5853
1111.72	19.6919
1115.09	19.5158
1118.47	23.4831
1121.84	34.3603
1125.22	53.8088
1128.59	92.0855
1131.97	157.018
1135.34	246.214
1138.72	369.39
1142.09	513.736
1145.47	546.955
1148.84	351.497
1152.22	181.129
1155.59	99.6001
1158.96	62.8393
1162.34	43.9444
1165.71	35.5228
1169.09	26.9955
1172.46	17.5984
1175.84	10.0442
1179.21	5.63476
1182.59	4.85727
1185.96	1.54073
1189.34	1.04869
1192.71	0.448502
1196.09	0.179237
1199.46	1.0491
1202.84	0.394176
1206.21	0.279329
1209.59	1.49802
1212.96	1.32868
1216.34	4.73434
1219.71	0.992762
1223.09	2.83373
1226.46	2.80796
1229.84	1.63044
1233.21	3.28078
1236.59	2.46223
1239.96	4.24596
1243.34	4.43449
1246.71	2.98949
1250.09	1.77205
1253.46	1.40581
1256.84	1.18553
1260.21	0.216806
1263.59	0.448736
1266.96	0.575386
1270.33	0.04751
1273.71	0.942491
1277.08	1.73817
1280.46	0.178348
1283.83	0.62142
