Measurement: Raman, 780 nm, unoriented, Raman Data Processed
Mineral: Barylite
Rruff sample: R060606
Ideal chemistry: BaBe_2_Si_2_O_7_
Locality: Hackmann Valley, Yukspor Mountain, Khibiny, Kola, Russia
Source: Michael Scott
Description: Radiating group of colorless flattened bladed crystals on white microcline.
Measured chemistry: Ba_1.00_Be_2.00_Si_2.00_O_7_ ; trace amounts of Ti; BeO estimated by difference
Raman shift (cm-1)	intensity
116.752	0
120.127	1.08679
123.501	6.55985
126.876	11.9253
130.251	3.13284
133.626	1.7446
137.001	7.56462
140.375	3.30158
143.75	5.71463
147.125	22.0296
150.5	19.8457
153.875	9.46262
157.25	5.24936
160.624	1.0072
163.999	1.49051
167.374	4.3286
170.749	8.87692
174.124	22.574
177.498	42.0424
180.873	20.2962
184.248	21.632
187.623	39.1649
190.998	55.8159
194.373	87.7556
197.747	124.786
201.122	195.052
204.497	281.81
207.872	190.512
211.247	163.984
214.621	75.1644
217.996	26.1923
221.371	9.34617
224.746	2.68018
228.121	0.078484
231.495	1.13931
234.87	1.2219
238.245	2.06177
241.62	0.677925
244.995	2.7409
248.369	5.61012
251.744	11.472
255.119	21.2772
258.494	23.2629
261.869	24.5073
265.244	31.8656
268.618	37.3069
271.993	36.242
275.368	12.1328
278.743	13.7093
282.118	20.8217
285.493	24.5872
288.867	13.8919
292.242	8.22403
295.617	8.12018
298.992	12.2705
302.366	18.4009
305.741	8.02705
309.116	5.73941
312.491	8.44977
315.866	10.0285
319.241	16.856
322.615	29.0169
325.99	42.8933
329.365	29.7759
332.74	9.74118
336.115	2.50142
339.49	1.29739
342.864	1.04962
346.239	0.886017
349.614	0.87706
352.989	11.4172
356.364	27.566
359.738	33.3253
363.113	48.3997
366.488	77.9266
369.863	142.127
373.238	167.288
376.613	58.392
379.987	24.596
383.362	23.8809
386.737	27.1226
390.112	41.7272
393.486	35.9442
396.861	7.15628
400.236	2.99499
403.611	3.03482
406.986	2.66289
410.361	0.362167
413.735	0.088165
417.11	0.535568
420.485	3.86453
423.86	12.279
427.235	30.9246
430.61	32.8397
433.984	22.088
437.359	22.3842
440.734	29.3631
444.109	49.1076
447.484	51.8725
450.858	35.0614
454.233	36.1566
457.608	50.6887
460.983	29.5221
464.358	16.2438
467.733	19.7784
471.107	30.1747
474.482	40.1366
477.857	27.7081
481.232	18.0898
484.606	15.7182
487.981	16.3291
491.356	26.5819
494.731	33.745
498.106	24.2718
501.481	29.6508
504.855	45.5229
508.23	77.855
511.605	119.719
514.98	108.934
518.355	41.6282
521.73	13.7543
525.104	5.1086
528.479	2.12013
531.854	0.64119
535.229	0.615189
538.604	0.372681
541.978	1.25555
545.353	0.839569
548.728	0.17363
552.103	0.273544
555.478	0.118637
558.852	0.49437
562.227	1.57021
565.602	1.73973
568.977	3.6253
572.352	6.19846
575.726	8.09906
579.101	3.80528
582.476	1.8831
585.851	0.158569
589.226	1.03043
592.601	0.184006
595.975	1.12186
599.35	0.276093
602.725	0.657959
606.1	1.78841
609.475	4.634
612.85	3.37454
616.224	4.00298
619.599	2.20738
622.974	3.20566
626.349	3.96384
629.723	3.16335
633.098	3.94901
636.473	3.06183
639.848	3.29514
643.223	3.27681
646.598	3.30711
649.972	4.68469
653.347	4.19426
656.722	2.84547
660.097	4.53633
663.472	7.05206
666.846	14.2786
670.221	32.6919
673.596	60.8363
676.971	93.0369
680.346	152.286
683.721	244.888
687.095	236.727
690.47	111.612
693.845	52.9432
697.22	28.2951
700.595	14.5484
703.97	8.04022
707.344	4.86083
710.719	2.44177
714.094	1.61124
717.469	0.728439
720.843	0.653198
724.218	0.297272
727.593	0.151062
730.968	1.8116
734.343	2.01775
737.718	2.12732
741.092	7.80521
744.467	6.69405
747.842	9.09387
751.217	4.79274
754.592	2.77687
757.966	1.93219
761.341	0.854385
764.716	0.71463
768.091	1.04663
771.466	1.34866
774.841	1.33987
778.215	1.63268
781.59	0.230576
784.965	0.378876
788.34	0.03801
791.715	1.84038
795.089	2.89719
798.464	2.74683
801.839	1.96817
805.214	4.83949
808.589	5.81798
811.963	5.6524
815.338	3.16421
818.713	2.82253
822.088	1.79028
825.463	2.84287
828.838	1.61728
832.212	2.24184
835.587	1.57069
838.962	1.27284
842.337	1.39377
845.712	0.380829
849.087	0.437515
852.461	0.218002
855.836	0.21907
859.211	0.034241
862.586	0.075638
865.961	0.47496
869.335	0.011276
872.71	0.259048
876.085	0.565826
879.46	0.494598
882.835	3.8606
886.209	2.25713
889.584	4.17328
892.959	5.46664
896.334	2.97272
899.709	3.5016
903.083	4.20793
906.458	4.28329
909.833	5.76013
913.208	10.428
916.583	15.4273
919.958	22.391
923.332	31.7916
926.707	44.9456
930.082	64.6382
933.457	62.9029
936.832	42.5825
940.207	44.614
943.581	66.0975
946.956	99.52
950.331	160.635
953.706	231.912
957.081	172.269
960.455	81.6602
963.83	45.7484
967.205	32.7013
970.58	24.1259
973.955	18.0441
977.329	14.1271
980.704	6.91814
984.079	5.96109
987.454	5.42723
990.829	6.31517
994.203	5.61261
997.578	3.87448
1000.95	2.89865
1004.33	2.51573
1007.7	1.22488
1011.08	0.016357
1014.45	0.478241
1017.83	1.4482
1021.2	0.931778
1024.58	0.438538
1027.95	0.079803
1031.33	1.06734
1034.7	0.09021
1038.08	1.17773
1041.45	1.15169
1044.83	1.25778
1048.2	2.58545
1051.58	1.44757
1054.95	6.16531
1058.33	3.17804
1061.7	2.16981
1065.08	3.2274
1068.45	2.55873
1071.82	4.43098
1075.2	5.22893
1078.57	5.4684
1081.95	5.98529
1085.32	5.39072
1088.7	5.93626
1092.07	5.29794
1095.45	1.37508
1098.82	0.743011
1102.2	0.771729
1105.57	0.683517
1108.95	1.87431
1112.32	0.761139
1115.7	3.4077
1119.07	4.72078
1122.45	7.99684
1125.82	6.62415
1129.2	5.00775
1132.57	3.99692
1135.95	4.89949
1139.32	5.55547
1142.69	2.76309
1146.07	1.81824
1149.44	0.317352
1152.82	2.61391
1156.19	1.58872
1159.57	0.956955
1162.94	1.57446
1166.32	0.542694
1169.69	4.05589
1173.07	2.82295
1176.44	1.92262
1179.82	3.18987
1183.19	1.1722
1186.57	1.15541
1189.94	1.19258
1193.32	1.29454
1196.69	1.92258
1200.07	2.35547
1203.44	0.602249
1206.82	1.46462
1210.19	2.0692
1213.57	0.762207
1216.94	2.26295
1220.32	1.90892
1223.69	2.43103
1227.07	1.45392
1230.44	0.207123
1233.82	1.02683
1237.19	1.05527
1240.57	0.353638
1243.94	1.39056
1247.32	1.9492
1250.69	1.26605
1254.06	1.31134
1257.44	0.665817
1260.81	1.77467
1264.19	2.16991
1267.56	1.79648
1270.94	0.22377
1274.31	1.63472
1277.69	0.626755
1281.06	1.14821
