Measurement: Raman, 780 nm, unoriented, Raman Data Processed
Mineral: Baryte
Rruff sample: R050375
Ideal chemistry: BaSO_4_
Locality: unknown
Source: Eugene Schlepp
Description: Pale green tabular crystals
Measured chemistry: Ba_1.00_SO_4_
Raman shift (cm-1)	intensity
137.36	0
140.253	3.28006
143.146	19.5147
146.038	46.7625
148.931	53.6405
151.824	34.0276
154.716	21.0552
157.609	18.4242
160.502	7.63194
163.395	0.346046
166.287	0.232887
169.18	4.27165
172.073	8.246
174.965	11.6092
177.858	16.625
180.751	25.2087
183.643	43.2203
186.536	74.6013
189.429	102.492
192.322	71.9142
195.214	28.8125
198.107	8.90852
201	3.4109
203.892	0.270645
206.785	1.37984
209.678	0.250671
212.571	1.07474
215.463	1.32225
218.356	1.10747
221.249	0.305817
224.141	0.071732
227.034	0.929474
229.927	0.324455
232.819	1.03271
235.712	0.765739
238.605	0.583054
241.498	1.18527
244.39	0.343147
247.283	0.689713
250.176	1.96155
253.068	4.25341
255.961	6.09184
258.854	7.34252
261.746	9.23181
264.639	9.70231
267.532	11.6243
270.425	12.4737
273.317	10.9366
276.21	11.4618
279.103	9.06466
281.995	6.57715
284.888	7.90031
287.781	6.09163
290.673	5.15548
293.566	5.73688
296.459	6.90308
299.351	5.95511
302.244	6.10639
305.137	5.7557
308.03	6.53232
310.922	6.63915
313.815	6.72115
316.708	10.7538
319.6	10.1082
322.493	12.0146
325.386	10.8171
328.279	8.69389
331.171	12.9277
334.064	7.96518
336.957	7.57022
339.849	6.58897
342.742	4.11036
345.635	1.64226
348.527	1.518
351.42	2.0809
354.313	2.01466
357.205	0.3293
360.098	3.18232
362.991	1.97284
365.884	3.85516
368.776	4.24438
371.669	4.38348
374.562	3.91053
377.454	5.41789
380.347	5.74349
383.24	4.27661
386.132	2.339
389.025	2.70604
391.918	2.18102
394.81	0.365944
397.703	1.20386
400.596	0.620438
403.489	0.152496
406.381	0.246918
409.274	0.928299
412.167	1.22669
415.059	2.47891
417.952	6.93433
420.845	11.6234
423.738	22.255
426.63	32.2563
429.523	57.3431
432.416	102.064
435.308	178.149
438.201	262.737
441.094	384.071
443.986	611.814
446.879	909.442
449.772	1349.03
452.665	1789.51
455.557	1648.9
458.45	1650.9
461.343	2161.82
464.235	1505.27
467.128	540.626
470.021	230.334
472.913	123.225
475.806	71.9781
478.699	48.1036
481.592	32.6501
484.484	23.7066
487.377	18.325
490.27	12.8408
493.162	7.36936
496.055	6.32594
498.948	1.18575
501.841	1.92724
504.733	1.80541
507.626	1.96946
510.519	1.10876
513.411	1.7952
516.304	1.48328
519.197	2.494
522.089	0.110474
524.982	0.259186
527.875	3.53516
530.768	1.12261
533.66	0.531776
536.553	1.46931
539.446	0.052078
542.338	0.73597
545.231	2.34835
548.124	0.795303
551.016	0.074707
553.909	0.816704
556.802	0.646706
559.694	2.11974
562.587	0.705376
565.48	0.538086
568.373	0.0121
571.265	0.645439
574.158	0.918221
577.051	0.907364
579.943	0.133873
582.836	1.35535
585.729	2.29261
588.621	4.47811
591.514	5.44572
594.407	10.8851
597.299	18.1564
600.192	37.7297
603.085	58.4803
605.978	85.5357
608.87	131.723
611.763	211.946
614.656	343.221
617.548	423.511
620.441	305.563
623.334	181.885
626.226	111.862
629.119	86.298
632.012	82.5374
634.905	80.8314
637.797	90.763
640.69	115.072
643.583	163.973
646.475	215.803
649.368	176.241
652.261	72.7883
655.154	26.0543
658.046	10.8725
660.939	4.76033
663.832	2.13815
666.724	0.624767
669.617	0.06768
672.51	0.667141
675.402	0.005737
678.295	0.524235
681.188	0.849415
684.081	0.302246
686.973	1.64125
689.866	1.53057
692.759	1.17244
695.651	2.6279
698.544	1.13964
701.437	0.30122
704.329	0.470303
707.222	0.969429
710.115	0.539219
713.008	0.531624
715.9	0.06403
718.793	0.533974
721.686	1.09109
724.578	0.434727
727.471	0.238779
730.364	2.24512
733.256	0.270674
736.149	0.765734
739.042	2.15997
741.934	1.78668
744.827	1.77801
747.72	1.29359
750.613	0.198502
753.505	0.25452
756.398	1.1886
759.291	0.301279
762.183	0.763256
765.076	1.2438
767.969	0.600662
770.861	1.29961
773.754	1.33598
776.647	1.52513
779.54	0.857071
782.432	0.753426
785.325	1.98137
788.218	2.70621
791.11	1.9508
794.003	1.26878
796.896	1.93704
799.788	2.16116
802.681	2.6482
805.574	2.5643
808.467	1.53645
811.359	0.668421
814.252	2.064
817.145	2.85516
820.037	2.3695
822.93	2.04084
825.823	2.16769
828.716	2.64412
831.608	2.42584
834.501	3.76946
837.394	2.01769
840.286	1.3793
843.179	1.88558
846.072	0.902868
848.964	0.95928
851.857	0.67255
854.75	0.950209
857.643	0.867157
860.535	1.06569
863.428	0.946091
866.321	0.013126
869.213	0.385521
872.106	1.19663
874.999	0.848751
877.891	0.192175
880.784	0.179056
883.677	0.09082
886.569	1.60445
889.462	1.83991
892.355	3.45742
895.248	2.38604
898.14	4.2463
901.033	4.27113
903.926	3.12105
906.818	2.29637
909.711	1.86316
912.604	2.14934
915.496	1.90842
918.389	2.24031
921.282	2.63556
924.175	2.04169
927.067	0.575466
929.96	1.74608
932.853	0.202877
935.745	0.498661
938.638	0.14518
941.531	2.23585
944.423	1.71859
947.316	2.21215
950.209	4.26964
953.102	5.29143
955.994	8.58878
958.887	13.5816
961.78	23.5053
964.672	44.3771
967.565	59.5127
970.458	100.371
973.351	274.269
976.243	648.755
979.136	881.87
982.029	1564.6
984.921	3154.52
987.814	7512.37
990.707	3210.93
993.599	592.094
996.492	226.937
999.385	118.292
1002.28	74.9967
1005.17	54.2953
1008.06	38.8555
1010.96	29.6785
1013.85	22.3268
1016.74	18.3604
1019.63	13.3338
1022.53	10.4103
1025.42	8.47601
1028.31	7.29655
1031.2	4.66213
1034.1	4.847
1036.99	0.396038
1039.88	0.248463
1042.78	0.226761
1045.67	1.8854
1048.56	1.59188
1051.45	1.48383
1054.35	0.289055
1057.24	1.66387
1060.13	2.264
1063.02	0.451454
1065.92	0.557693
1068.81	4.09309
1071.7	10.5875
1074.6	17.9592
1077.49	32.3364
1080.38	54.7539
1083.27	73.05
1086.17	52.184
1089.06	23.7817
1091.95	12.5479
1094.84	17.2491
1097.74	27.2094
1100.63	51.3818
1103.52	83.9848
1106.41	68.568
1109.31	25.7076
1112.2	5.957
1115.09	1.2733
1117.98	0.966644
1120.88	0.510803
1123.77	10.148
1126.66	25.0364
1129.56	39.2593
1132.45	75.4474
1135.34	136.114
1138.23	191.469
1141.13	140.136
1144.02	105.257
1146.91	87.0407
1149.81	87.0477
1152.7	91.9476
1155.59	107.763
1158.48	130.687
1161.38	160.731
1164.27	200.079
1167.16	214.107
1170.05	178.033
1172.95	154.813
1175.84	139.156
1178.73	134.251
1181.62	127.84
1184.52	120.931
1187.41	114.314
1190.3	106.234
1193.2	100.323
1196.09	91.6769
1198.98	81.3506
1201.87	74.355
1204.77	59.1131
1207.66	52.1936
1210.55	38.9334
1213.44	33.1107
1216.34	18.5508
1219.23	9.92786
1222.12	2.65912
1225.02	5.73572
1227.91	10.1425
1230.8	3.93317
1233.69	8.90265
1236.59	16.8002
1239.48	26.0659
1242.37	40.8788
1245.26	57.6979
1248.16	61.0486
1251.05	77.4633
1253.94	80.5688
1256.84	79.0841
1259.73	68.8517
1262.62	61.3019
1265.51	51.3939
1268.41	47.5953
1271.3	34.1412
1274.19	25.0008
1277.08	17.874
1279.98	10.0149
1282.87	6.2655
1285.76	0.914307
