Measurement: Raman, 780 nm, unoriented, Raman Data Processed
Mineral: Bassetite
Rruff sample: R080027
Ideal chemistry: Fe^2+^(UO_2_)_2_(PO_4_)_2_8H_2_O
Locality: Arcu su Linnarbu, Capoterra, Cagliari, Sardinia
Source: Mark N. Feinglos, M.D.
Description: Golden brown massive coating with tabular crystals associated with yellowish green uranocircite I
Raman shift (cm-1)	intensity
127.776	0
131.151	0.657837
134.526	0.929657
137.901	3.26797
141.275	3.34091
144.65	0.477509
148.025	10.0089
151.4	4.78925
154.775	12.6664
158.149	17.2251
161.524	24.2874
164.899	24.1039
168.274	32.9591
171.649	43.2779
175.024	57.1669
178.398	72.6702
181.773	103.282
185.148	129.98
188.523	157.499
191.898	186.951
195.272	200.378
198.647	175.808
202.022	147.208
205.397	128.268
208.772	118.457
212.147	111.953
215.521	94.4791
218.896	80.2816
222.271	68.0898
225.646	52.8655
229.021	40.379
232.395	27.5692
235.77	18.976
239.145	13.1932
242.52	10.4153
245.895	3.9227
249.269	5.02158
252.644	0.307343
256.019	2.40976
259.394	0.318634
262.769	1.15338
266.144	4.68277
269.518	13.4503
272.893	22.5405
276.268	29.9927
279.643	48.6459
283.018	55.0274
286.392	71.8594
289.767	73.8995
293.142	80.441
296.517	76.4928
299.892	77.6321
303.267	58.4579
306.641	37.2573
310.016	27.9796
313.391	18.8865
316.766	9.1236
320.141	4.32648
323.515	3.45752
326.89	1.40353
330.265	4.42078
333.64	1.82826
337.015	1.5612
340.39	3.47321
343.764	7.73067
347.139	4.46173
350.514	12.2874
353.889	17.1587
357.264	22.6865
360.638	28.5442
364.013	37.3528
367.388	48.0293
370.763	63.3113
374.138	78.0235
377.512	95.3801
380.887	105.504
384.262	122.938
387.637	135.26
391.012	139.667
394.387	147.419
397.761	138.963
401.136	135.074
404.511	127.447
407.886	114.818
411.261	82.4651
414.635	59.0058
418.01	52.1952
421.385	35.6687
424.76	34.9837
428.135	29.1953
431.51	19.8915
434.884	25.1248
438.259	26.6984
441.634	19.833
445.009	12.5371
448.384	10.8536
451.759	12.4796
455.133	10.5527
458.508	11.6282
461.883	11.4084
465.258	13.9459
468.633	17.5963
472.007	15.895
475.382	15.8076
478.757	13.9312
482.132	14.4396
485.507	8.98348
488.882	2.9671
492.256	4.13826
495.631	0.819168
499.006	1.49532
502.381	2.68506
505.756	0.995422
509.13	0.249222
512.505	0.381256
515.88	3.93999
519.255	3.59682
522.63	3.85014
526.005	4.6684
529.379	6.43016
532.754	5.52673
536.129	9.31181
539.504	16.5059
542.879	16.3358
546.253	15.1675
549.628	21.3778
553.003	23.0027
556.378	22.3342
559.753	18.0672
563.127	17.2351
566.502	12.2119
569.877	5.84586
573.252	8.12399
576.627	3.66097
580.001	8.09219
583.376	2.73715
586.751	3.23969
590.126	0.135818
593.501	6.50249
596.875	0.007034
600.25	5.24632
603.625	7.56143
607	5.77487
610.375	5.30754
613.75	9.98039
617.125	7.08057
620.499	5.98064
623.874	6.34795
627.249	2.25165
630.624	2.86613
633.999	5.7655
637.373	5.45146
640.748	0.032715
644.123	2.78545
647.498	0.324615
650.873	0.507217
654.247	2.50176
657.622	2.83717
660.997	1.84038
664.372	3.7935
667.747	1.14734
671.121	3.07518
674.496	5.6646
677.871	7.23915
681.246	4.27501
684.621	5.45143
687.996	2.57776
691.37	6.14755
694.745	4.75937
698.12	7.40645
701.495	5.08272
704.87	4.47983
708.245	1.09492
711.619	3.75854
714.994	3.37132
718.369	1.91611
721.744	5.29018
725.119	0.602219
728.493	2.23262
731.868	1.56738
735.243	1.55344
738.618	2.99541
741.993	0.659531
745.367	1.808
748.742	2.06483
752.117	5.58148
755.492	5.79004
758.867	8.59317
762.242	9.75427
765.616	17.6027
768.991	19.6553
772.366	33.124
775.741	43.944
779.116	70.7073
782.49	102.749
785.865	145.28
789.24	195.997
792.615	251.543
795.99	296.687
799.365	327.284
802.739	345.293
806.114	351.3
809.489	369.963
812.864	456.679
816.239	543.204
819.614	624.74
822.988	655.814
826.363	637.967
829.738	465.495
833.113	243.934
836.487	134.992
839.862	89.1068
843.237	65.8912
846.612	43.886
849.987	18.7095
853.362	3.17455
856.736	0.3013
860.111	3.1954
863.486	2.44708
866.861	0.902237
870.236	2.46126
873.611	4.86307
876.985	7.89671
880.36	16.0306
883.735	20.8565
887.11	23.7952
890.485	25.7794
893.859	25.3123
897.234	11.8951
900.609	9.63538
903.984	4.00671
907.359	2.41863
910.734	0.353165
914.108	4.61361
917.483	0.595459
920.858	4.14883
924.233	0.25634
927.607	0.302322
930.982	0.247986
934.357	0.559624
937.732	8.3013
941.107	10.4203
944.482	14.3677
947.856	26.3693
951.231	38.6721
954.606	66.1102
957.981	110.634
961.356	182.752
964.731	277.006
968.105	393.518
971.48	522.358
974.855	647.818
978.23	677.888
981.605	603.197
984.979	490.537
988.354	448.752
991.729	438.739
995.104	436.755
998.479	421.221
1001.85	365.966
1005.23	313.224
1008.6	285.868
1011.98	249.653
1015.35	182.671
1018.73	123.693
1022.1	87.8615
1025.48	60.4387
1028.85	33.0366
1032.23	23.0224
1035.6	18.1551
1038.98	9.17574
1042.35	7.92667
1045.73	2.82785
1049.1	6.16953
1052.48	3.56764
1055.85	2.10985
1059.22	1.3057
1062.6	1.7454
1065.97	2.2923
1069.35	2.30629
1072.72	0.030579
1076.1	0.104233
1079.47	1.68977
1082.85	1.16939
1086.22	5.8727
1089.6	0.86219
1092.97	2.65658
1096.35	4.09936
1099.72	0.654144
1103.1	5.95383
1106.47	6.71909
1109.85	0.004166
1113.22	3.03765
1116.6	2.69843
1119.97	4.98943
1123.35	0.061867
1126.72	1.18852
1130.1	3.22064
1133.47	0.400864
1136.85	2.59162
1140.22	2.45641
1143.6	3.739
1146.97	1.35928
1150.35	3.3309
1153.72	0.345009
1157.1	0.019234
1160.47	0.516533
1163.85	0.549667
1167.22	3.2869
1170.59	1.6977
1173.97	1.79488
1177.34	4.3457
1180.72	1.91779
1184.09	3.54998
1187.47	5.23489
1190.84	4.10767
1194.22	0.281555
1197.59	0.87516
1200.97	3.70126
1204.34	3.90459
1207.72	2.91184
1211.09	0.56369
1214.47	1.90166
1217.84	5.17619
1221.22	2.1657
1224.59	2.81358
1227.97	2.22105
1231.34	3.54839
1234.72	3.78021
1238.09	2.57323
1241.46	2.94046
1244.84	3.64466
1248.21	0.083649
1251.59	0.86409
1254.96	4.34711
1258.34	3.46872
1261.71	4.67694
1265.09	5.42381
1268.46	4.05347
1271.84	2.05531
1275.21	4.60086
1278.59	3.14882
1281.96	3.20752
1285.34	0.549553
1288.71	0
