Measurement: Raman, 532 nm, unoriented, Raman Data Processed
Mineral: Bassetite
Rruff sample: R080027
Ideal chemistry: Fe^2+^(UO_2_)_2_(PO_4_)_2_8H_2_O
Locality: Arcu su Linnarbu, Capoterra, Cagliari, Sardinia
Source: Mark N. Feinglos, M.D.
Description: Golden brown massive coating with tabular crystals associated with yellowish green uranocircite I
Raman shift (cm-1)	intensity
137.279	0
140.654	0.30249
144.029	3.14587
147.403	29.5883
150.778	54.6827
154.153	93.095
157.528	125.74
160.903	152.875
164.277	168.078
167.652	196.272
171.027	232.286
174.402	253.465
177.777	252.006
181.151	210.911
184.526	153.079
187.901	94.1406
191.276	77.1355
194.651	58.4921
198.025	28.5717
201.4	48.8708
204.775	58.5189
208.15	43.4373
211.525	42.7748
214.9	9.7926
218.274	9.82104
221.649	4.71777
225.024	21.8084
228.399	41.1493
231.774	62.4296
235.149	91.6931
238.523	83.309
241.898	35.5247
245.273	39.9082
248.648	42.574
252.023	61.2125
255.397	83.1952
258.772	118.762
262.147	169.76
265.522	208.567
268.897	248.893
272.272	300.735
275.646	346.041
279.021	374.689
282.396	340.814
285.771	264.498
289.146	231.077
292.52	160.029
295.895	135.693
299.27	94.6571
302.645	67.8905
306.02	50.8868
309.394	29.1608
312.769	6.18665
316.144	16.2695
319.519	6.47534
322.894	12.0472
326.269	3.16187
329.643	3.54602
333.018	4.12341
336.393	7.64807
339.768	0.478638
343.143	2.46008
346.517	2.51856
349.892	24.2837
353.267	16.2761
356.642	32.6996
360.017	36.3776
363.392	44.3352
366.766	60.2015
370.141	86.1078
373.516	76.1565
376.891	80.2102
380.266	62.9192
383.64	66.0161
387.015	56.6438
390.39	76.7466
393.765	77.3523
397.14	78.7451
400.514	59.223
403.889	53.5203
407.264	37.3826
410.639	35.8544
414.014	20.3
417.389	6.66003
420.763	9.6311
424.138	3.25195
427.513	8.8971
430.888	11.0118
434.263	26.1962
437.637	28.4717
441.012	37.2876
444.387	71.488
447.762	102.484
451.137	145.852
454.512	214.802
457.886	311.56
461.261	420.645
464.636	505.975
468.011	579.742
471.386	520.382
474.76	399.449
478.135	273.104
481.51	173.36
484.885	108.072
488.26	74.7061
491.635	33.5306
495.009	20.8539
498.384	30.1586
501.759	7.34277
505.134	4.96826
508.509	8.48035
511.883	8.52478
515.258	1.15796
518.633	16.8263
522.008	1.18054
525.383	6.03748
528.758	7.93774
532.132	16.4869
535.507	12.5648
538.882	22.8726
542.257	17.9672
545.632	15.3461
549.006	21.5763
552.381	9.70117
555.756	22.4595
559.131	29.5171
562.506	20.8247
565.88	30.7305
569.255	30.6819
572.63	41.2548
576.005	29.3352
579.38	32.0829
582.755	36.6333
586.129	53.0526
589.504	54.2081
592.879	60.5427
596.254	81.1509
599.629	133.441
603.003	184.419
606.378	238.411
609.753	243.404
613.128	163.85
616.503	70.7515
619.878	45.2986
623.252	31.3007
626.627	18.4232
630.002	18.9741
633.377	30.6462
636.752	17.4972
640.126	24.8207
643.501	32.8931
646.876	28.7052
650.251	16.9311
653.626	18.4589
657	3.23718
660.375	6.8136
663.75	8.52954
667.125	14.8286
670.5	3.35742
673.875	10.6132
677.249	7.70142
680.624	24.4145
683.999	4.24402
687.374	3.24939
690.749	8.30725
694.124	7.20789
697.498	23.6737
700.873	17.6315
704.248	16.75
707.623	10.6457
710.998	11.418
714.372	11.7128
717.747	2.72925
721.122	7.39514
724.497	0.761963
727.872	2.48511
731.246	11.3053
734.621	4.55066
737.996	9.2489
741.371	0.685669
744.746	4.42883
748.12	3.32202
751.495	4.39221
754.87	2.41602
758.245	0.470825
761.62	5.65515
764.995	9.36023
768.369	13.4736
771.744	10.3246
775.119	11.6968
778.494	27.2071
781.869	34.0105
785.244	57.7463
788.618	67.9907
791.993	69.1058
795.368	72.6111
798.743	91.1831
802.118	109.89
805.492	137.019
808.867	199.813
812.242	250.215
815.617	341.912
818.992	503.921
822.366	740.836
825.741	1071.86
829.116	1512.52
832.491	2012.55
835.866	2718.07
839.24	3555.1
842.615	3458.89
845.99	1860.12
849.365	815.84
852.74	419.37
856.115	267.227
859.489	187.018
862.864	131.727
866.239	90.2314
869.614	64.4091
872.989	31.9349
876.364	15.7327
879.738	5.13415
883.113	2.08923
886.488	8.81067
889.863	6.61316
893.238	9.77222
896.612	1.91272
899.987	4.45373
903.362	2.66846
906.737	2.43103
910.112	11.3791
913.486	21.8673
916.861	49.78
920.236	80.1954
923.611	115.861
926.986	155.534
930.361	130.472
933.735	67.6097
937.11	51.1564
940.485	38.7699
943.86	14.5884
947.235	10.2507
950.61	3.25171
953.984	8.79688
957.359	10.5676
960.734	38.1846
964.109	85.7808
967.484	148.229
970.858	247.298
974.233	377.476
977.608	557.97
980.983	745.365
984.358	863.59
987.732	990.218
991.107	1189.7
994.482	1296.84
997.857	1136.13
1001.23	848.809
1004.61	598.89
1007.98	408.017
1011.36	257.279
1014.73	167.755
1018.11	112.679
1021.48	88.806
1024.86	89.2134
1028.23	54.6807
1031.61	29.8953
1034.98	28.9651
1038.36	28.2368
1041.73	25.2438
1045.1	7.07288
1048.48	17.5377
1051.85	8.00378
1055.23	3.06763
1058.6	1.73144
1061.98	8.5846
1065.35	2.50232
1068.73	2.51807
1072.1	8.3761
1075.48	9.43408
1078.85	10.5502
1082.23	4.92261
1085.6	14.3314
1088.98	11.5533
1092.35	13.0185
1095.73	7.92224
1099.1	19.5734
1102.48	15.6016
1105.85	19.7239
1109.23	14.4207
1112.6	21.4902
1115.97	17.8434
1119.35	21.0837
1122.72	19.4011
1126.1	17.7927
1129.47	14.9895
1132.85	20.1263
1136.22	14.6104
1139.6	18.7861
1142.97	16.624
1146.35	7.86438
1149.72	10.2133
1153.1	4.88196
1156.47	1.08057
1159.85	9.22742
1163.22	16.3506
1166.6	20.4298
1169.97	17.7576
1173.35	2.9021
1176.72	13.6453
1180.1	2.45227
1183.47	17.1263
1186.85	15.7112
1190.22	23.6392
1193.6	24.424
1196.97	22.1727
1200.35	37.0621
1203.72	42.5924
1207.1	53.4346
1210.47	52.9092
1213.85	48.8708
1217.22	61.2369
1220.6	38.2322
1223.97	44.9775
1227.34	31.2721
1230.72	8.66614
1234.09	17.6584
1237.47	7.82007
1240.84	2.724
1244.22	13.9987
1247.59	7.86267
1250.97	7.61084
1254.34	12.7937
1257.72	5.91309
1261.09	9.55676
1264.47	7.40161
1267.84	17.2877
1271.22	16.0753
1274.59	16.8021
1277.97	0.597412
1281.34	14.2867
1284.72	23.9761
1288.09	21.6262
1291.47	6.06433
1294.84	11.6865
1298.21	13.9973
1301.59	16.3529
1304.96	7.19299
