Measurement: Raman, 532 nm, unoriented, Raman Data Processed
Mineral: Bastnasite-(Ce)
Rruff sample: R060359
Ideal chemistry: CeCO_3_F
Locality: Zagi Mountain, near Hammedabad, Khaffor Dehri, North-West Frontier Province, Pakistan
Source: Herb Obodda
Description: Yellowish-brown pyramidal crystal
Measured chemistry: (Ce_0.54_(La,Pr)_0.23_Nd_0.22_Y_0.01_)_Î£=1_CO_3_F_1.00_
Raman shift (cm-1)	intensity
146.531	0
149.423	2.17676
152.316	234.935
155.209	583.564
158.101	767.229
160.994	902.294
163.887	873.903
166.78	807.175
169.672	1084.82
172.565	1375.45
175.458	1408.43
178.35	909.086
181.243	584.674
184.136	427.792
187.028	515.463
189.921	499.073
192.814	232.228
195.707	34.0029
198.599	109.795
201.492	75.8975
204.385	36.2334
207.277	82.3828
210.17	338.07
213.063	495.65
215.955	721.648
218.848	987.577
221.741	1468.04
224.633	1839.1
227.526	2245.65
230.419	2648.46
233.312	3204.11
236.204	3741.28
239.097	4273.68
241.99	5188.56
244.882	6230.52
247.775	7369.85
250.668	8694.2
253.56	9975.46
256.453	11206.7
259.346	11488.2
262.239	10548.8
265.131	8990.46
268.024	7950.23
270.917	7331.17
273.809	7265.06
276.702	7057.27
279.595	6246.83
282.488	5712.2
285.38	5341.68
288.273	4663.69
291.166	3528.85
294.058	2388.66
296.951	1608.79
299.844	1137.35
302.736	745.34
305.629	416.722
308.522	259.161
311.414	188.887
314.307	21.3232
317.2	13.3213
320.093	74.9951
322.985	62.4023
325.878	22.8867
328.771	22.9268
331.663	61.3291
334.556	134.305
337.449	154.581
340.341	251.478
343.234	278.248
346.127	414.01
349.019	417.703
351.912	405.711
354.805	313.44
357.698	297.014
360.59	247.343
363.483	423.519
366.376	211.038
369.268	320.086
372.161	340.009
375.054	457.692
377.947	726.108
380.839	867.692
383.732	1224.99
386.625	1606.84
389.517	1918.76
392.41	2062.02
395.303	2203.67
398.195	2043.87
401.088	1932.01
403.981	1621.12
406.873	1468.41
409.766	1194.32
412.659	869.676
415.552	704.934
418.444	496.572
421.337	528.656
424.23	348.062
427.122	247.676
430.015	219.363
432.908	95.8994
435.8	153.212
438.693	81.6494
441.586	40.1367
444.479	1.63574
447.371	44.6846
450.264	6.22266
453.157	25.5107
456.049	0.129883
458.942	12.8809
461.835	9.70605
464.727	52.4424
467.62	95.374
470.513	79.0381
473.406	115.388
476.298	33.2812
479.191	106.549
482.084	162.697
484.976	77.374
487.869	125.17
490.762	118.056
493.654	204.702
496.547	112.841
499.44	75.1123
502.332	183.691
505.225	47.0449
508.118	37.3496
511.011	99.8389
513.903	8.46484
516.796	96.3096
519.689	65.8037
522.581	145.557
525.474	92.5615
528.367	170.6
531.26	20.6133
534.152	29.9707
537.045	27.8623
539.938	168.067
542.83	165.28
545.723	202.572
548.616	161.755
551.508	91.6484
554.401	42.6826
557.294	138.523
560.187	73.3389
563.079	171.645
565.972	190.241
568.865	135.222
571.757	185.125
574.65	189.843
577.543	255.564
580.435	278.049
583.328	302.711
586.221	385.722
589.114	436.257
592.006	498.532
594.899	511.218
597.792	485.313
600.684	542.33
603.577	493.566
606.47	405.124
609.362	387.554
612.255	344.198
615.148	210.866
618.04	248.652
620.933	232.523
623.826	118.568
626.719	75.7627
629.611	62.7217
632.504	1.39941
635.397	58.2422
638.289	3.17969
641.182	99.4766
644.075	108.236
646.967	85.5791
649.86	1.73047
652.753	60.1885
655.646	87.3135
658.538	37.9824
661.431	45.9092
664.324	145.869
667.216	57.7978
670.109	128.53
673.002	73.1885
675.894	65.7236
678.787	191.179
681.68	364.647
684.572	378.732
687.465	340.693
690.358	67.4238
693.251	19.168
696.143	129.475
699.036	25.7305
701.929	158.024
704.821	119.954
707.714	43.8115
710.607	38.1025
713.5	170.461
716.392	390.787
719.285	492.707
722.178	786.791
725.07	992.875
727.963	1105.11
730.856	1161.08
733.748	1387.93
736.641	1516.87
739.534	598.224
742.427	197.038
745.319	144.372
748.212	122.059
751.105	161.617
753.997	105.846
756.89	86.6982
759.783	110.941
762.675	111.215
765.568	120.811
768.461	162.897
771.354	149.992
774.246	128.352
777.139	38.6855
780.032	104.159
782.924	125.779
785.817	85.9307
788.71	99.3135
791.602	46.3008
794.495	132.102
797.388	3.51856
800.28	9.07324
803.173	66.4883
806.066	111.478
808.959	7.80078
811.851	72.4336
814.744	71.8848
817.637	132.826
820.529	133.298
823.422	131.647
826.315	39.4365
829.207	12.583
832.1	113.846
834.993	160.577
837.885	140.47
840.778	92.8154
843.671	101.939
846.564	72.8262
849.456	103.756
852.349	114.434
855.242	25.5693
858.134	36.9258
861.027	23.8486
863.92	97.9072
866.812	199.082
869.705	94.8506
872.598	87.6943
875.491	110.759
878.383	50.2578
881.276	63.248
884.169	21.583
887.061	33.3428
889.954	43.791
892.847	67.1533
895.74	94.5459
898.632	7.76074
901.525	30.5273
904.418	41.3525
907.31	109.855
910.203	212.899
913.096	189.207
915.988	183.218
918.881	135.904
921.774	247.909
924.667	179.882
927.559	197.931
930.452	206.837
933.345	268.425
936.237	223.766
939.13	188.009
942.023	159.242
944.915	149.36
947.808	261.167
950.701	156.682
953.593	188.639
956.486	202.644
959.379	134.242
962.271	111.795
965.164	199.062
968.057	175.448
970.95	179.984
973.842	166.663
976.735	136.424
979.628	61.1787
982.52	149.576
985.413	92.4971
988.306	13.9424
991.198	3.72852
994.091	17.9492
996.984	113.253
999.877	166.245
1002.77	5.22461
1005.66	7.91406
1008.55	15.2637
1011.45	60.8506
1014.34	53.0234
1017.23	14.6855
1020.12	31.8896
1023.02	21.6504
1025.91	26.5986
1028.8	4.06348
1031.7	46.3272
1034.59	50.831
1037.48	133.529
1040.37	160.335
1043.27	130.98
1046.16	212.994
1049.05	172.483
1051.94	179.475
1054.84	147.025
1057.73	208.817
1060.62	224.196
1063.52	244.884
1066.41	332.491
1069.3	432.065
1072.19	592.48
1075.09	763.357
1077.98	1211.82
1080.87	2418.41
1083.77	5342.45
1086.66	9262.61
1089.55	13026.4
1092.44	17999
1095.34	23625.7
1098.23	12934.8
1101.12	2717.33
1104.01	1003.84
1106.91	504.132
1109.8	349.499
1112.69	184.071
1115.59	211.295
1118.48	87.6328
1121.37	70.542
1124.26	2.96094
1127.15	80.7178
1130.05	89.208
1132.94	91.3242
1135.83	177.862
1138.73	152.242
1141.62	234.491
1144.51	198.202
1147.4	291.899
1150.3	305.294
1153.19	299.648
1156.08	271.612
1158.97	226.918
1161.87	229.48
1164.76	259.248
1167.65	245.914
1170.55	284.292
1173.44	331.374
1176.33	264.15
1179.22	190.829
1182.12	214.166
1185.01	170.39
1187.9	78.3877
1190.8	102.824
1193.69	10.2285
1196.58	20.9746
1199.47	45.4414
1202.37	46.5332
1205.26	0.948242
1208.15	64.9502
