Measurement: Raman, 514 nm, unoriented, Raman Data Processed
Mineral: Bastnasite-(Ce)
Rruff sample: R060359
Ideal chemistry: CeCO_3_F
Locality: Zagi Mountain, near Hammedabad, Khaffor Dehri, North-West Frontier Province, Pakistan
Source: Herb Obodda
Description: Yellowish-brown pyramidal crystal
Measured chemistry: (Ce_0.54_(La,Pr)_0.23_Nd_0.22_Y_0.01_)_Î£=1_CO_3_F_1.00_
Raman shift (cm-1)	intensity
43.476	0
48.456	21.473
53.434	49.7589
58.408	81.0017
63.38	112.216
68.349	188.312
73.316	154.462
78.279	90.7476
83.24	34.187
88.199	21.2917
93.154	35.9942
98.107	15.6748
103.057	206.618
108.004	724.206
112.949	1565.35
117.891	2309.22
122.83	2401.59
127.767	2249.1
132.7	1687.32
137.631	1365.96
142.56	1061.55
147.485	1048.14
152.408	1302.56
157.328	1481.84
162.246	2099.99
167.16	2767
172.073	1619.88
176.982	1020.63
181.888	793.25
186.792	831.33
191.694	932.509
196.592	708.38
201.488	317.309
206.381	239.283
211.271	195.923
216.159	290.177
221.044	488.452
225.926	874.857
230.806	1196.15
235.683	1807.31
240.557	2498.1
245.429	3716.04
250.298	5565.97
255.164	7683.57
260.027	9481.8
264.888	8812.67
269.746	6227.14
274.601	4837.19
279.454	4067.81
284.304	2503
289.151	1223.76
293.996	582.107
298.838	341.034
303.677	200.529
308.514	276.576
313.348	359.16
318.179	339.83
323.008	207.31
327.834	16.2302
332.657	54.1724
337.478	152.463
342.295	293.757
347.111	643.42
351.923	848.501
356.733	852.061
361.54	736.252
366.345	538.333
371.147	506.316
375.946	531.421
380.743	617.461
385.537	806.282
390.328	984.759
395.116	1290.69
399.902	1458.97
404.686	1180.55
409.466	716.366
414.244	549.409
419.019	457.723
423.792	393.303
428.562	377.215
433.329	343.684
438.094	320.705
442.856	271.948
447.616	256.365
452.372	49.571
457.126	71.8982
461.878	55.4226
466.627	65.8701
471.373	66.4575
476.116	95.5332
480.857	28.822
485.596	97.0149
490.331	306.959
495.064	304.714
499.795	510.075
504.522	596.101
509.247	707.478
513.97	819.423
518.69	948.309
523.407	994.514
528.121	975.637
532.833	1072.32
537.543	1081.52
542.249	1113.69
546.953	1158.34
551.655	1047.86
556.354	1084.3
561.05	972.501
565.743	1021.63
570.434	964.676
575.123	1119.28
579.808	1064.19
584.491	1167.12
589.172	1364.74
593.85	1425.5
598.525	1575.4
603.197	1769.86
607.868	1641.57
612.535	1168.26
617.2	792.07
621.862	599.631
626.522	353.249
631.178	191.966
635.833	133.832
640.485	61.4526
645.134	27.4097
649.78	27.1079
654.424	124.749
659.066	4.68115
663.704	53.7383
668.341	51.0244
672.974	99.7388
677.605	159.089
682.234	261.283
686.859	619.14
691.483	275.13
696.103	114.231
700.721	55.3149
705.337	102.349
709.949	128.864
714.56	79.8662
719.167	130.551
723.772	585.048
728.375	1349.79
732.975	2294.78
737.572	3059.06
742.167	1192.67
746.759	370.772
751.349	241.369
755.936	215.651
760.52	247.463
765.102	117.64
769.681	46.7085
774.258	88.4092
778.832	257.012
783.404	313.181
787.973	297.982
792.539	368.975
797.103	380.256
801.665	272.559
806.223	289.521
810.779	381.165
815.333	348.203
819.884	420.422
824.433	415.192
828.979	510.922
833.522	464.385
838.063	440.532
842.601	518.628
847.137	438.83
851.67	529.441
856.2	382.863
860.729	451.936
865.254	502.174
869.777	641.602
874.297	494.356
878.815	433.377
883.33	505.683
887.843	397.495
892.353	358.805
896.861	474.654
901.366	312.911
905.869	494.402
910.369	293.468
914.866	421.03
919.361	360.644
923.854	435.492
928.344	302.365
932.831	529.611
937.316	443.601
941.798	490.231
946.278	453.475
950.755	291.284
955.23	359.62
959.702	305.459
964.171	294.79
968.638	226.655
973.103	327.921
977.565	150.233
982.025	158.154
986.482	231.092
990.936	115.965
995.388	229.464
999.837	146.53
1004.28	194.968
1008.73	109.364
1013.17	95.1103
1017.61	82.3809
1022.05	27.9531
1026.48	147.033
1030.91	214.283
1035.34	76.3525
1039.77	25.0244
1044.19	162.301
1048.62	82.5449
1053.03	120.546
1057.45	31.9854
1061.87	8.78711
1066.28	93.9561
1070.69	317.528
1075.09	468.494
1079.5	770.848
1083.9	2053.67
1088.3	7593.84
1092.69	24742.3
1097.09	49267.1
1101.48	11444.3
1105.87	1668.16
1110.26	839.077
1114.64	471.291
1119.02	372.826
1123.4	286.179
1127.78	185.71
1132.15	18.9883
1136.53	37.3672
1140.89	85
1145.26	82.7588
1149.63	77.2324
1153.99	27.4854
1158.35	113.96
1162.7	67.9541
1167.06	53.3496
1171.41	63.9141
1175.76	116.665
1180.11	62.5537
1184.45	125.46
1188.79	118.126
1193.13	103.963
1197.47	87.5293
1201.81	220.585
1206.14	229.673
1210.47	130.944
1214.79	69.3897
1219.12	169.004
1223.44	207.668
1227.76	206.738
1232.08	242.855
1236.39	141.127
1240.7	118.303
1245.02	131.892
1249.32	87.0381
1253.63	130.625
1257.93	211.374
1262.23	74.2373
1266.53	150.118
1270.82	65.6445
1275.12	57.5117
1279.41	106.119
1283.69	66.9102
1287.98	31.5225
1292.26	127.939
1296.54	156.233
1300.82	27.6309
1305.1	196.138
1309.37	128.491
1313.64	308.518
1317.91	199.759
1322.17	287.224
1326.44	217.884
1330.7	71.7334
1334.96	289.254
1339.21	226.998
1343.47	283.279
1347.72	338.763
1351.97	167.502
1356.21	256.468
1360.46	223.658
1364.7	221.746
1368.94	11.334
1373.17	122.599
1377.41	88.3877
1381.64	18.5098
1385.87	305.352
1390.1	44.6455
1394.32	353.822
1398.54	300.907
1402.76	324.881
1406.98	570.295
1411.19	548.311
1415.41	606.891
1419.62	506.34
1423.82	864.979
1428.03	1381.19
1432.23	2066.77
1436.43	2745.84
1440.63	2577.49
1444.82	1747.46
1449.02	1159.77
1453.21	750.432
1457.4	726.461
1461.58	582.75
1465.77	671.348
1469.95	638.277
1474.12	394.025
1478.3	372.198
1482.47	313.017
1486.64	279.31
1490.81	73.083
1494.98	21.8232
1499.14	138.412
1503.31	82.2041
1507.47	154.72
1511.62	147.018
1515.78	140.494
1519.93	249.789
1524.08	220.042
1528.23	38.5869
1532.37	207.121
1536.51	87.3398
1540.65	133.086
1544.79	162.721
1548.93	95.6709
1553.06	3.46191
1557.19	83.3613
