Measurement: Raman, 532 nm, unoriented, Raman Data Processed
Mineral: Bastnasite-(La)
Rruff sample: R070142
Ideal chemistry: LaCO_3_F
Locality: Mochalin Log, Kyshtym, Chelyabinsk Oblast', Urals Region, Russia
Source: Michael Scott
Description: Vitreous yellow massive component of a nodule, associated with belovite-(Ce), R070163
Measured chemistry: (La_0.53_Ce_0.44_Nd_0.03_)_Î£=1_CO_3_F_1.00_
Raman shift (cm-1)	intensity
155.003	0
158.378	28.0561
161.752	34.9314
165.127	65.415
168.502	124.293
171.877	91.4587
175.252	91.9988
178.626	51.7957
182.001	36.4062
185.376	125.814
188.751	79.469
192.126	48.5166
195.501	52.8008
198.875	4.57178
202.25	116.614
205.625	279.763
209	499.165
212.375	839.447
215.75	1262.6
219.124	1795.34
222.499	2421.21
225.874	3153.11
229.249	4055.03
232.624	4937.26
235.998	5854.27
239.373	6966.58
242.748	8314.24
246.123	9824.73
249.498	11006
252.873	11465.5
256.247	10696.6
259.622	9563.74
262.997	8206.74
266.372	7210.41
269.747	6088.75
273.121	5011.98
276.496	4104.34
279.871	3403.69
283.246	2734.24
286.621	2082.94
289.995	1630.83
293.37	1106.26
296.745	758.988
300.12	440.848
303.495	245.453
306.87	83.615
310.244	9.90332
313.619	108.064
316.994	84.0364
320.369	19.1404
323.744	70.5281
327.118	107.633
330.493	276.372
333.868	380.679
337.243	469.907
340.618	474.517
343.993	530.524
347.367	555.496
350.742	473.931
354.117	459.117
357.492	447.669
360.867	416.378
364.241	463.019
367.616	550.771
370.991	642.683
374.366	814.932
377.741	995.999
381.116	1260.8
384.49	1437.65
387.865	1599.6
391.24	1462.25
394.615	1367.02
397.99	1177.38
401.365	1027.69
404.739	864.303
408.114	682.923
411.489	599.198
414.864	530.665
418.239	411.735
421.613	360.957
424.988	222.448
428.363	195.836
431.738	125.119
435.113	70.0928
438.488	36.1592
441.862	18.3372
445.237	60.6748
448.612	45.8198
451.987	5.76465
455.361	2.71118
458.736	2.22412
462.111	26.2969
465.486	39.8196
468.861	4.50952
472.236	48.7539
475.611	69.2217
478.985	88.3572
482.36	49.8635
485.735	122.077
489.11	125.791
492.485	129.933
495.859	136.221
499.234	164.842
502.609	138.292
505.984	54.9546
509.359	77.0205
512.734	84.9287
516.108	37.7319
519.483	17.4568
522.858	16.5085
526.233	1.44653
529.607	4.85596
532.982	42.9263
536.357	67.2344
539.732	92.1997
543.107	113.114
546.482	148.65
549.856	186.494
553.231	235.364
556.606	263.365
559.981	286.006
563.356	278.202
566.731	332.553
570.105	451.036
573.48	469.769
576.855	589.701
580.23	670.521
583.605	885.2
586.979	1025.3
590.354	1273.17
593.729	1507.94
597.104	1628.03
600.479	1708.29
603.854	1652.13
607.228	1423.44
610.603	1142.29
613.978	839.356
617.353	623.81
620.728	401.996
624.102	288.655
627.477	223.865
630.852	146.976
634.227	68.1558
637.602	65.6675
640.976	25.2366
644.351	2.65967
647.726	17.4878
651.101	9.47754
654.476	16.4041
657.851	20.647
661.225	49.5269
664.6	97.8272
667.975	53.1548
671.35	75.7385
674.725	97.5786
678.1	143.958
681.474	219.428
684.849	224.453
688.224	89.6318
691.599	14.4377
694.974	18.4485
698.348	97.8789
701.723	109.977
705.098	169.285
708.473	291.83
711.848	451.249
715.222	674.877
718.597	1028.43
721.972	1436.34
725.347	2008.65
728.722	2478.23
732.097	2643.56
735.471	2443.33
738.846	1407.54
742.221	717.631
745.596	386.113
748.971	236.797
752.346	215.617
755.72	114.169
759.095	156.311
762.47	59.4573
765.845	12.7439
769.22	21.7583
772.594	14.835
775.969	37.3057
779.344	44.7036
782.719	65.7224
786.094	25.5371
789.468	27.073
792.843	13.0129
796.218	7.80981
799.593	16.886
802.968	32.1773
806.342	8.3706
809.717	61.6838
813.092	1.98975
816.467	9.06519
819.842	26.9009
823.217	15.2654
826.591	2.19751
829.966	42.3381
833.341	26.5889
836.716	54.2888
840.091	40.9541
843.466	8.28516
846.84	4.58032
850.215	57.0977
853.59	88.1404
856.965	153.293
860.34	143.757
863.715	184.188
867.089	204.244
870.464	168.757
873.839	79.2183
877.214	131.745
880.589	92.5952
883.963	86.5571
887.338	90.8298
890.713	146.07
894.088	129.539
897.463	116.501
900.837	205.246
904.212	196.282
907.587	249.852
910.962	254.111
914.337	237.257
917.712	263.998
921.086	305.555
924.461	299.502
927.836	234.324
931.211	261.783
934.586	285.529
937.96	277.25
941.335	272.853
944.71	230.592
948.085	238.072
951.46	249.437
954.835	197.984
958.209	247.787
961.584	205.992
964.959	194.684
968.334	196.933
971.709	194.013
975.083	129.197
978.458	116.58
981.833	106.431
985.208	93.1812
988.583	82.5151
991.957	21.2192
995.332	55.7954
998.707	21.3794
1002.08	24.8096
1005.46	12.8301
1008.83	8.02539
1012.21	13.8906
1015.58	18.0654
1018.96	11.1553
1022.33	23.9199
1025.71	12.7085
1029.08	29.5508
1032.45	11.0815
1035.83	49.0225
1039.2	50.0884
1042.58	85.6133
1045.95	83.7637
1049.33	83.5523
1052.7	144.331
1056.08	188.091
1059.45	262.87
1062.83	398.65
1066.2	625.821
1069.58	947.952
1072.95	1491.47
1076.33	2582.96
1079.7	4851.61
1083.08	9595.57
1086.45	16562.8
1089.83	21347
1093.2	17850.2
1096.58	7867.66
1099.95	2850.93
1103.33	1210.57
1106.7	664.747
1110.08	441.287
1113.45	295.218
1116.83	169.086
1120.2	113.836
1123.58	95.7192
1126.95	81.4731
1130.33	13.1899
1133.7	16.0601
1137.08	8.79443
1140.45	21.3105
1143.82	30.3848
1147.2	12.0127
1150.57	63.7861
1153.95	34.9536
1157.32	0.442871
1160.7	45.9683
1164.07	27.5498
1167.45	27.7422
1170.82	26.3594
1174.2	54.7476
1177.57	55.6973
1180.95	50.0669
1184.32	58.9902
1187.7	57.1719
1191.07	78.2402
1194.45	33.418
1197.82	28.708
1201.2	61.7974
1204.57	51.8096
1207.95	1.25537
1211.32	48.8213
1214.69	47.0054
1218.07	51.2031
1221.44	44.8101
1224.82	42.5654
1228.19	23.728
1231.57	16.3901
1234.94	68.9878
1238.32	74.1968
1241.69	108.885
1245.07	73.7793
1248.44	69.3872
1251.82	65.9116
1255.19	95.9116
1258.57	130.827
1261.94	110.277
1265.32	79.4868
1268.69	79.9438
1272.07	126.692
1275.44	137.626
1278.82	34.0254
1282.19	40.7798
1285.57	56.3579
1288.94	50.8857
1292.32	37.0371
1295.69	36.0547
1299.07	50.2363
1302.44	67.5547
1305.82	67.5278
1309.19	38.8057
1312.57	14.3623
