Measurement: Raman, 514 nm, unoriented, Raman Data Processed
Mineral: Bastnasite-(Ce)
Rruff sample: R050409
Ideal chemistry: CeCO_3_F
Locality: Machni, near Warsak Dam, Zagi Mountain, North-West Frontier Province, Pakistan
Source: G.R. Rossman
Description: Yellowish brown fragment
Measured chemistry: (Ce_0.54_(La,Pr)_0.25_Nd_0.21_)_Î£=1_CO_3_F_1.00_
Raman shift (cm-1)	intensity
54.266	0
58.464	24.225
62.661	9.939
66.856	18.514
71.048	97.655
75.239	265.676
79.427	380.833
83.614	616.419
87.798	574.487
91.981	680.279
96.161	680.343
100.34	759.025
104.516	855.786
108.691	1400.29
112.864	3160.32
117.034	3186.74
121.203	3375.5
125.369	3012.03
129.534	1536.78
133.696	1083.61
137.857	678.387
142.016	548.386
146.172	590.482
150.327	662.897
154.48	711.723
158.63	1177.01
162.779	1632.77
166.926	1213.03
171.07	1309.76
175.213	1299.98
179.354	745.858
183.493	498.866
187.63	611.745
191.765	669.626
195.898	298.883
200.029	131.439
204.158	131.287
208.285	141.409
212.41	83.787
216.533	193.405
220.654	251.344
224.773	454.833
228.891	723.765
233.006	1140.17
237.119	1534.92
241.231	1678.48
245.34	2223.74
249.448	3299.6
253.553	5384
257.657	7569.88
261.758	7471.18
265.858	5616.88
269.956	4234.93
274.052	4189.3
278.146	3879.98
282.237	2803.94
286.327	2531.16
290.416	2608.62
294.502	1956.59
298.586	1099.84
302.668	652.262
306.749	277.461
310.827	169.907
314.903	16.273
318.978	29.647
323.051	56.926
327.121	7.304
331.19	107.605
335.257	188.396
339.322	314.301
343.385	552.405
347.446	961.615
351.505	1165.08
355.563	1076.09
359.618	816.369
363.672	633.691
367.723	523.028
371.773	421.354
375.821	353.661
379.866	386.959
383.91	600.283
387.952	974.716
391.992	1433.29
396.031	1804.98
400.067	1815.78
404.101	1516.64
408.134	1206.5
412.165	931.333
416.193	680.481
420.22	532.897
424.245	478.604
428.268	379.245
432.289	307.812
436.309	294.295
440.326	233.686
444.342	162.978
448.355	132.161
452.367	63.753
456.377	2.806
460.385	28.712
464.391	9.277
468.395	41.532
472.398	72.765
476.398	53.294
480.397	24.416
484.394	42.372
488.389	50.879
492.382	78.445
496.373	169.717
500.362	200.424
504.349	251.841
508.335	289.165
512.319	298.819
516.3	331.167
520.28	343.186
524.259	407.866
528.235	370.641
532.209	393.81
536.182	355.228
540.152	345.951
544.121	416.699
548.088	425.088
552.053	368.085
556.017	310.547
559.978	343.485
563.938	345.814
567.895	362.272
571.851	326.401
575.805	306.199
579.758	259.663
583.708	311.79
587.657	360.578
591.603	400.025
595.548	352.129
599.491	399.085
603.432	436.617
607.372	413.82
611.309	381.826
615.245	274.307
619.179	203.524
623.111	151.014
627.041	126.13
630.97	94.863
634.896	38.64
638.821	19.836
642.744	2.164
646.665	0.386
650.584	62.616
654.502	12.843
658.418	0.297
662.331	43.918
666.244	123.168
670.154	35.091
674.062	33.637
677.969	79.767
681.874	92.536
685.777	594.985
689.678	145.146
693.577	117.016
697.475	0.455
701.371	8.701
705.265	30.495
709.157	28.873
713.047	36.135
716.936	83.427
720.823	319.689
724.708	442.701
728.591	752.58
732.472	1044.01
736.352	2589.31
740.23	1171.39
744.106	250.247
747.98	146.891
751.853	55.328
755.723	85.559
759.592	71.59
763.459	72.427
767.325	27.936
771.188	81.443
775.05	82.09
778.91	63.031
782.768	27.63
786.625	84.121
790.479	93.022
794.332	144.069
798.183	147.715
802.033	140.22
805.88	111.361
809.726	77.576
813.57	62.764
817.413	92.65
821.253	76.464
825.092	77.703
828.929	140.557
832.764	136.649
836.598	122.291
840.429	173.767
844.259	145.185
848.088	70.071
851.914	159.937
855.739	142.643
859.562	148.682
863.383	171.817
867.203	311.637
871.02	457.861
874.836	353.319
878.65	190.205
882.463	213.151
886.274	148.165
890.083	152.457
893.89	195.417
897.695	169.666
901.499	94.012
905.301	286.428
909.102	258.832
912.9	287.373
916.697	270.438
920.492	305.669
924.285	395.406
928.077	310.206
931.867	314.372
935.655	278.855
939.442	455.518
943.226	375.398
947.009	265.466
950.791	278.779
954.57	251.371
958.348	247.252
962.124	250.473
965.899	223.989
969.671	199.738
973.442	140.664
977.211	197.788
980.979	189.131
984.745	255.692
988.509	212.483
992.271	146.071
996.032	199.729
999.791	181.747
1003.55	113.621
1007.3	159.75
1011.06	146.109
1014.81	228.204
1018.56	184.309
1022.31	108.763
1026.06	169.828
1029.8	111.043
1033.55	117.444
1037.29	127.033
1041.03	185.79
1044.77	237.712
1048.5	120.803
1052.24	123.171
1055.97	171.594
1059.7	167.182
1063.43	260.333
1067.16	230.239
1070.89	305.338
1074.61	550.408
1078.34	500.44
1082.06	701.111
1085.78	1577.94
1089.5	4709.97
1093.21	15490.2
1096.93	52259.5
1100.64	15374
1104.35	2300.57
1108.06	938.315
1111.77	593.204
1115.48	415.225
1119.18	265.494
1122.89	225.467
1126.59	207.678
1130.29	146.201
1133.99	160.788
1137.68	132.694
1141.38	69.454
1145.07	16.509
1148.76	1.558
1152.45	50.531
1156.14	26.241
1159.83	39.371
1163.51	13.694
1167.19	37.502
1170.88	44.471
1174.56	100.79
1178.23	79.188
1181.91	48.703
1185.59	127.256
1189.26	109.88
1192.93	153.592
1196.6	82.358
1200.27	111.155
1203.94	105.002
1207.6	93.92
1211.27	57.891
1214.93	52.892
1218.59	29.938
1222.25	8.943
1225.9	56.152
1229.56	100.32
1233.21	67.555
1236.86	25.611
1240.51	35.876
1244.16	94.201
1247.81	64.85
1251.45	145.995
1255.1	81.451
1258.74	106.18
1262.38	37.404
1266.02	174.905
1269.66	38.438
1273.29	74.922
1276.93	134.341
1280.56	29.702
1284.19	102.013
1287.82	48.005
1291.45	69.122
1295.07	142.146
1298.7	24.29
1302.32	13.652
1305.94	79.714
1309.56	135.327
1313.18	9.665
1316.8	98.334
1320.41	100.619
1324.02	28.052
1327.63	145.27
1331.24	69.618
1334.85	26.008
1338.46	144.45
1342.06	143.948
1345.67	124.396
1349.27	226.426
1352.87	225.138
1356.47	211.551
1360.07	186.488
1363.66	178.552
1367.25	88.896
1370.85	69.855
1374.44	95.475
1378.03	184.704
1381.61	92.933
1385.2	169.221
1388.78	65.477
1392.37	114.758
1395.95	229.932
1399.53	267.35
1403.1	386.717
1406.68	445.338
1410.26	663.595
1413.83	891.746
1417.4	839.92
1420.97	1042.13
1424.54	1395.25
1428.1	2333.17
1431.67	4601.35
1435.23	6241.6
1438.8	4166.95
1442.36	3166.34
1445.91	2165.82
1449.47	1185.39
1453.03	739.95
1456.58	672.81
1460.13	529.084
1463.68	401.388
1467.23	321.918
1470.78	183.612
1474.33	251.13
1477.87	161.523
1481.42	49.345
1484.96	119.527
1488.5	7.855
1492.04	0.725
1495.57	125.432
1499.11	18.396
1502.64	195.856
1506.17	294.126
1509.71	305.367
1513.23	197.612
1516.76	8.778
1520.29	69.11
1523.81	78.658
