Measurement: Raman, 532 nm, unoriented, Raman Data Processed
Mineral: Bastnasite-(Ce)
Rruff sample: R050409
Ideal chemistry: CeCO_3_F
Locality: Machni, near Warsak Dam, Zagi Mountain, North-West Frontier Province, Pakistan
Source: G.R. Rossman
Description: Yellowish brown fragment
Measured chemistry: (Ce_0.54_(La,Pr)_0.25_Nd_0.21_)_Î£=1_CO_3_F_1.00_
Raman shift (cm-1)	intensity
74.6953	0
78.0701	20.897
81.4449	378.48
84.8198	186.433
88.1946	96.7173
91.5694	494.84
94.9442	363.225
98.319	348.357
101.694	360.671
105.069	8.61896
108.444	79.1949
111.818	361.43
115.193	398.957
118.568	657.895
121.943	1270.29
125.317	1601.72
128.692	1350.25
132.067	1562.19
135.442	1580.66
138.817	1686.5
142.192	2069.48
145.566	3145.11
148.941	3791.02
152.316	3746.14
155.691	4148.44
159.066	5432.3
162.44	7061.86
165.815	5493.3
169.19	2951.28
172.565	1803.99
175.94	1439.21
179.315	968.41
182.689	720.432
186.064	622.897
189.439	640.702
192.814	316.576
196.189	23.9594
199.563	85.8279
202.938	170.699
206.313	36.8886
209.688	22.0963
213.063	41.411
216.438	48.425
219.812	518.399
223.187	877.54
226.562	1304.18
229.937	1902.26
233.312	2689.99
236.686	3693.61
240.061	5138.12
243.436	6759.98
246.811	8070.21
250.186	9285.96
253.56	10802.9
256.935	12262.8
260.31	10928.4
263.685	7716.32
267.06	5198.66
270.435	3861.32
273.809	3001.24
277.184	2218.43
280.559	988.227
283.934	384.807
287.309	42.4358
290.683	124.642
294.058	58.3269
297.433	285.787
300.808	512.623
304.183	652.904
307.558	926.146
310.932	810.505
314.307	785.214
317.682	602.944
321.057	189.035
324.432	53.177
327.806	6.08691
331.181	248.394
334.556	568.628
337.931	882.084
341.306	1346.96
344.68	2134.47
348.055	2517.68
351.43	2531.02
354.805	1934.09
358.18	1202.9
361.555	629.699
364.929	384.621
368.304	208.736
371.679	318.508
375.054	468.868
378.429	931.538
381.803	1219.44
385.178	1309.67
388.553	1174.02
391.928	1321.61
395.303	1352.12
398.678	1131.64
402.052	783.748
405.427	419.652
408.802	265.389
412.177	139.824
415.552	61.8562
418.926	63.5772
422.301	153.828
425.676	68.7364
429.051	84.6208
432.426	87.4481
435.8	64.9465
439.175	231.205
442.55	51.3273
445.925	45.8698
449.3	99.1719
452.675	52.5495
456.049	40.0996
459.424	255.014
462.799	168.022
466.174	218.689
469.549	319.132
472.923	80.1577
476.298	237.745
479.673	214.838
483.048	201.143
486.423	278.116
489.798	205.412
493.172	295.637
496.547	237.168
499.922	288.521
503.297	341.928
506.672	271.465
510.046	240.631
513.421	193.594
516.796	55.1702
520.171	48.6718
523.546	49.4959
526.92	30.4155
530.295	20.3237
533.67	149.658
537.045	234.662
540.42	250.543
543.795	143.971
547.169	187.12
550.544	174.925
553.919	32.6573
557.294	148.727
560.669	203.881
564.043	147.253
567.418	145.242
570.793	125.398
574.168	178.503
577.543	164.06
580.918	146.749
584.292	194.043
587.667	172.339
591.042	77.03
594.417	164.923
597.792	227.746
601.166	314.409
604.541	245.891
607.916	167.541
611.291	148.647
614.666	149.821
618.04	86.4791
621.415	35.1505
624.79	72.4612
628.165	9.24458
631.54	210.367
634.915	46.6142
638.289	19.2544
641.664	85.8916
645.039	98.4098
648.414	36.2711
651.789	38.8292
655.163	101.007
658.538	142.549
661.913	199.978
665.288	247.697
668.663	29.3108
672.038	30.037
675.412	142.217
678.787	157.624
682.162	198.665
685.537	416.559
688.912	87.1031
692.286	73.3152
695.661	0.575806
699.036	43.5337
702.411	7.34451
705.786	40.3054
709.16	12.0858
712.535	130.748
715.91	113.266
719.285	358.229
722.66	500.491
726.034	708.82
729.409	704.113
732.784	845.898
736.159	1225.15
739.534	420.929
742.909	39.4131
746.283	156.535
749.658	126.549
753.033	87.1665
756.408	121.132
759.783	150.003
763.158	87.0891
766.532	200.976
769.907	68.3997
773.282	85.4803
776.657	43.5825
780.032	10.5472
783.406	154.183
786.781	90.6278
790.156	66.3926
793.531	210.904
796.906	50.2827
800.28	158.749
803.655	50.5076
807.03	20.8255
810.405	49.386
813.78	137.349
817.154	122.967
820.529	71.7838
823.904	33.9477
827.279	176.83
830.654	70.6579
834.029	2.81496
837.403	11.3347
840.778	106.341
844.153	58.6364
847.528	64.1305
850.903	74.3324
854.278	204.775
857.652	40.3524
861.027	84.7672
864.402	181.402
867.777	198.964
871.152	167.996
874.526	10.2007
877.901	146.96
881.276	184.619
884.651	104.314
888.026	212.609
891.4	101.397
894.775	74.5725
898.15	214.338
901.525	95.6787
904.9	85.0977
908.274	270.375
911.649	203.112
915.024	252.838
918.399	283.608
921.774	327.325
925.149	264.235
928.523	359.929
931.898	151.736
935.273	391.683
938.648	402.608
942.023	236.979
945.398	243.242
948.772	287.82
952.147	256.723
955.522	240.55
958.897	291.81
962.271	219.354
965.646	249.792
969.021	202.88
972.396	199.644
975.771	247.039
979.146	171.983
982.52	115.941
985.895	203.895
989.27	152.301
992.645	21.8633
996.02	65.5399
999.394	45.9793
1002.77	14.3097
1006.14	13.6356
1009.52	14.682
1012.89	122.187
1016.27	43.1644
1019.64	81.371
1023.02	13.1164
1026.39	9.06772
1029.77	17.356
1033.14	31.855
1036.52	41.2807
1039.89	33.2042
1043.27	0.553467
1046.64	31.8636
1050.02	163.445
1053.39	98.2717
1056.77	95.9719
1060.14	176.615
1063.52	91.0818
1066.89	195.968
1070.27	322.627
1073.64	408.177
1077.02	626.968
1080.39	1191.93
1083.77	3538.39
1087.14	6628.33
1090.52	10574.5
1093.89	17794.6
1097.26	15652.6
1100.64	2203.3
1104.01	631.704
1107.39	395.091
1110.76	243.213
1114.14	215.422
1117.51	130.097
1120.89	89.4232
1124.26	63.1055
1127.64	7.65785
1131.01	113.575
1134.39	9.20583
1137.76	18.268
1141.14	54.8013
1144.51	104.114
1147.89	66.4035
1151.26	119.388
1154.64	56.5206
1158.01	72.6168
1161.39	59.4588
1164.76	88.032
1168.13	38.6124
1171.51	90.2379
1174.88	77.5779
1178.26	14.3061
1181.63	190.338
1185.01	11.6133
1188.38	92.4276
1191.76	43.1675
1195.13	174.823
1198.51	81.3966
1201.88	163.08
1205.26	112.552
1208.63	56.9991
1212.01	5.24127
1215.38	15.9055
1218.76	40.0998
1222.13	98.4869
1225.51	28.8222
1228.88	161.17
1232.26	126.44
1235.63	90.5584
1239.01	88.8088
1242.38	111.17
1245.76	76.5331
1249.13	110.235
1252.51	99.2529
1255.88	246.464
1259.26	172.743
1262.63	148.673
1266.01	168.209
1269.38	138.562
1272.76	85.7397
1276.13	177.361
1279.5	134.311
1282.88	178.43
1286.25	185.902
1289.63	175.251
1293	177.144
