Measurement: Raman, 532 nm, unoriented, Raman Data Processed
Mineral: Bastnasite-(Ce)
Rruff sample: R060737
Ideal chemistry: CeCO_3_F
Locality: Zagi Mountain, near Hammedabad, Khaffor Dehri, NW Frontier Provence, Pakistan
Source: Herb Obodda
Description: Reddish-brown fragment
Measured chemistry: (Ce_0.55_Nd_0.27_La_0.18_)_Î£=1_CO_3_F_1.00_
Raman shift (cm-1)	intensity
83.436	0
86.811	63.409
90.185	68.522
93.56	24.614
96.935	3.747
100.31	32.229
103.685	40.202
107.06	26.712
110.434	131.773
113.809	806.231
117.184	1232.84
120.559	2162.26
123.934	2703.82
127.308	1830.96
130.683	1515.96
134.058	1450.58
137.433	1372.07
140.808	1349.68
144.182	1420.42
147.557	1669.62
150.932	1900.14
154.307	2243.73
157.682	3295.05
161.057	2969.39
164.431	2598.09
167.806	1622.4
171.181	1174.33
174.556	1022.21
177.931	988.795
181.305	963.676
184.68	1065.51
188.055	1179.41
191.43	1357.01
194.805	1007.12
198.18	797.997
201.554	753.006
204.929	843.327
208.304	889.776
211.679	815.341
215.054	849.217
218.428	1089.29
221.803	1410.88
225.178	1805.14
228.553	2343.92
231.928	3137.46
235.303	3841.05
238.677	4270.98
242.052	4718.77
245.427	5656.48
248.802	7307.89
252.176	9694.65
255.551	12912.9
258.926	14801
262.301	13654.3
265.676	10839.9
269.051	8858.28
272.425	8189.65
275.8	7627.33
279.175	5767.1
282.55	3937.19
285.925	2849.75
289.299	2116.08
292.674	1580.86
296.049	1215.87
299.424	872.341
302.799	693.203
306.174	515.506
309.548	411.488
312.923	330.202
316.298	248.862
319.673	251.374
323.048	282.662
326.422	376.638
329.797	476.325
333.172	588.979
336.547	839.517
339.922	1115.38
343.297	1551.9
346.671	2026.43
350.046	2350.62
353.421	2191.29
356.796	1765.03
360.171	1422.59
363.545	1106.52
366.92	919
370.295	744.319
373.67	636.583
377.045	647.363
380.419	763.941
383.794	959.864
387.169	1348.43
390.544	1861.23
393.919	2337.6
397.293	2558.91
400.668	2307.4
404.043	1858.29
407.418	1365.71
410.793	987.089
414.168	723.785
417.542	542.106
420.917	404.98
424.292	317.371
427.667	208.406
431.042	130.906
434.417	88.184
437.791	52.383
441.166	28.481
444.541	3.408
447.916	13.535
451.29	57.196
454.665	31.123
458.04	65.179
461.415	50.093
464.79	37.977
468.165	38.114
471.539	27.745
474.914	33.739
478.289	38.84
481.664	36.983
485.039	23.103
488.414	19.552
491.788	17.91
495.163	27.968
498.538	37.838
501.913	32.294
505.288	15.393
508.662	5.158
512.037	13.47
515.412	10.202
518.787	35.184
522.162	9.401
525.536	29.557
528.911	29.198
532.286	20.293
535.661	27.48
539.036	5.309
542.411	6.312
545.785	15.341
549.16	12.837
552.535	31.453
555.91	58.784
559.284	77.788
562.659	98.808
566.034	121.923
569.409	130.499
572.784	180.702
576.159	250.867
579.533	326.881
582.908	426.301
586.283	568.743
589.658	679.806
593.033	776.676
596.407	877.873
599.782	941.183
603.157	973.813
606.532	963.169
609.907	833.344
613.282	607.839
616.656	433.818
620.031	297.847
623.406	188.259
626.781	155.318
630.156	62.056
633.531	57.053
636.905	35.724
640.28	33.017
643.655	29.19
647.03	6.516
650.404	14.376
653.779	24.125
657.154	38.722
660.529	68.902
663.904	126.276
667.279	80.896
670.653	89.271
674.028	117.807
677.403	127.849
680.778	182.251
684.153	497.32
687.528	670.935
690.902	131.857
694.277	25.705
697.652	2.168
701.027	9.713
704.402	9.031
707.776	0.96
711.151	5.455
714.526	80.76
717.901	207.204
721.276	403.145
724.651	723.612
728.025	1615.1
731.4	1484.05
734.775	2479.84
738.15	2849.84
741.524	626.029
744.899	235.061
748.274	99.236
751.649	65.685
755.024	54.713
758.399	98.892
761.773	62.855
765.148	18.242
768.523	24.469
771.898	18.812
775.273	10.191
778.648	17.419
782.022	5.449
785.397	13.473
788.772	4.657
792.147	27.551
795.521	32.832
798.896	15.12
802.271	22.507
805.646	11.014
809.021	23.243
812.396	3.199
815.77	19.605
819.145	22.461
822.52	15.807
825.895	8.144
829.27	3.325
832.644	13.929
836.019	21.603
839.394	6.332
842.769	20.057
846.144	41.186
849.519	12.711
852.893	39.409
856.268	39.731
859.643	88.159
863.018	117.358
866.393	245.202
869.767	238.661
873.142	147.813
876.517	103.414
879.892	122.19
883.267	149.639
886.641	136.939
890.016	168.428
893.391	181.478
896.766	247.999
900.141	236.598
903.516	280.459
906.89	306.986
910.265	315.176
913.64	367.783
917.015	380.968
920.39	424.551
923.764	603.4
927.139	434.654
930.514	451.764
933.889	481.516
937.264	531.555
940.638	528.256
944.013	535.294
947.388	494.186
950.763	470.863
954.138	450.443
957.513	460.703
960.887	421.814
964.262	431.025
967.637	407.165
971.012	354.618
974.387	350.848
977.761	302.738
981.136	247.41
984.511	217.89
987.886	174.795
991.261	168.39
994.635	101.07
998.01	72.692
1001.38	63.95
1004.76	45.644
1008.13	11.753
1011.51	36.823
1014.88	16.412
1018.26	17.746
1021.63	10.679
1025.01	26.673
1028.38	15.954
1031.76	17.293
1035.13	1.023
1038.51	10.335
1041.88	17.48
1045.26	39.029
1048.63	62.246
1052.01	83.456
1055.38	110.874
1058.76	132.457
1062.13	198.745
1065.51	277.664
1068.88	460.038
1072.26	784.153
1075.63	821.016
1079.01	1198.42
1082.38	2331.03
1085.76	5383.7
1089.13	13230.5
1092.51	32482.1
1095.88	77201.8
1099.26	19864.5
1102.63	3970.58
1106	1567.05
1109.38	881.622
1112.75	538.93
1116.13	372.752
1119.5	274.963
1122.88	164.521
1126.25	129.105
1129.63	80.099
1133	54.552
1136.38	29.03
1139.75	2.64
1143.13	34.734
1146.5	0.593
1149.88	3.419
1153.25	5.653
1156.63	30.36
1160	7.268
1163.38	10.317
1166.75	22.398
1170.13	15.006
1173.5	19.306
1176.88	22.472
1180.25	19.648
1183.62	38.153
1187	39.391
1190.38	41.198
1193.75	35.238
1197.12	24.114
1200.5	44.746
1203.87	44.092
1207.25	37.983
1210.62	77.762
1214	46.709
1217.37	61.32
1220.75	88.89
1224.12	68.266
1227.5	64.375
1230.87	72.683
1234.25	39.134
1237.62	70.95
1241	86.114
1244.37	66.714
1247.75	78.957
1251.12	67.331
1254.5	72.039
1257.87	77.439
1261.25	51.91
1264.62	54.943
1267.99	50.811
1271.37	57.738
1274.74	39.634
1278.12	55.576
1281.49	47.025
1284.87	13.1
1288.24	4.889
1291.62	11.896
1294.99	27.11
1298.37	0.514
