Measurement: Raman, 532 nm, unoriented, Raman Data Processed
Mineral: Bastnasite-(Ce)
Rruff sample: R060629
Ideal chemistry: CeCO_3_F
Locality: Pakistan
Source: Gemological Institute of America
Description: Orange gemmy fragment
Measured chemistry: (Ce_0.53_Nd_0.25_La_0.22_)_Î£=1_CO_3_F_1.00_
Raman shift (cm-1)	intensity
137.853	0
140.745	100.287
143.638	285.963
146.531	746.186
149.423	1089.12
152.316	1033.3
155.209	1184.76
158.101	1426.16
160.994	1815.57
163.887	2031.3
166.78	1493.01
169.672	1093.23
172.565	734.7
175.458	620.544
178.35	473.541
181.243	359.335
184.136	345.205
187.028	404.377
189.921	314.833
192.814	191.132
195.707	29.7051
198.599	97.7886
201.492	65.7838
204.385	25.1619
207.277	67.3584
210.17	119.602
213.063	212.296
215.955	347.183
218.848	509.91
221.741	798.505
224.633	1041.37
227.526	1311.35
230.419	1749.86
233.312	2222.01
236.204	2609.5
239.097	3165.45
241.99	3913.44
244.882	4964.59
247.775	5814.59
250.668	6536.44
253.56	7391.99
256.453	8353.91
259.346	8722.4
262.239	8025.73
265.131	6364.13
268.024	4827.31
270.917	3764.27
273.809	3223.43
276.702	2847.69
279.595	2219.14
282.488	1555.17
285.38	1114.09
288.273	855.999
291.166	680.643
294.058	678.366
296.951	596.115
299.844	699.536
302.736	696.212
305.629	485.781
308.522	370.956
311.414	353.168
314.307	99.9141
317.2	35.1809
320.093	39.4231
322.985	91.0464
325.878	64.7368
328.771	86.2727
331.663	238.552
334.556	420.506
337.449	487.406
340.341	706.394
343.234	868.514
346.127	1152.04
349.019	1329.17
351.912	1277.84
354.805	1110.72
357.698	814.579
360.59	582.854
363.483	478.943
366.376	299.785
369.268	295.339
372.161	252.985
375.054	361.266
377.947	465.498
380.839	626.192
383.732	768.237
386.625	1019.39
389.517	1107.82
392.41	1211.33
395.303	1316.25
398.195	1318.39
401.088	1256.34
403.981	921.189
406.873	685.614
409.766	545.514
412.659	267.64
415.552	231.798
418.444	170.097
421.337	172.775
424.23	92.9487
427.122	41.688
430.015	6.97119
432.908	20.0088
435.8	43.9893
438.693	20.2747
441.586	4.62561
444.479	23.8942
447.371	7.99487
450.264	87.9273
453.157	27.542
456.049	18.7899
458.942	58.7958
461.835	23.9773
464.727	71.3871
467.62	113
470.513	64.5237
473.406	74.8221
476.298	71.8788
479.191	17.3749
482.084	141.376
484.976	129.238
487.869	179.326
490.762	123.088
493.654	129.582
496.547	50.0189
499.44	97.6876
502.332	101.592
505.225	97.0464
508.118	104.85
511.011	134.756
513.903	60.8053
516.796	90.0008
519.689	44.8218
522.581	78.7751
525.474	8.87976
528.367	110.886
531.26	15.9342
534.152	17.4271
537.045	71.1683
539.938	71.5154
542.83	2.54199
545.723	94.0436
548.616	83.0073
551.508	12.0718
554.401	46.1904
557.294	13.443
560.187	51.2732
563.079	17.4225
565.972	52.5273
568.865	76.3053
571.757	42.8213
574.65	90.6378
577.543	124.886
580.435	188.054
583.328	166.169
586.221	227.556
589.114	267.935
592.006	294.961
594.899	257.079
597.792	233.093
600.684	280.889
603.577	217.109
606.47	179.193
609.362	161.019
612.255	131.69
615.148	109.3
618.04	161.839
620.933	81.4982
623.826	107.554
626.719	56.3904
629.611	20.1223
632.504	15.5712
635.397	8.09546
638.289	16.808
641.182	33.1495
644.075	35.9314
646.967	10.7267
649.86	18.8571
652.753	71.7071
655.646	46.835
658.538	86.1466
661.431	68.5791
664.324	135.665
667.216	67.6757
670.109	65.8087
673.002	102.178
675.894	88.403
678.787	144.909
681.68	228.713
684.572	265.685
687.465	257.328
690.358	53.625
693.251	12.786
696.143	92.8679
699.036	1.83691
701.929	122.931
704.821	48.3706
707.714	3.12451
710.607	104.091
713.5	85.999
716.392	191.838
719.285	246.637
722.178	478.86
725.07	712.576
727.963	940.496
730.856	952.931
733.748	1100.7
736.641	1265.3
739.534	580.896
742.427	204.846
745.319	110.458
748.212	63.3258
751.105	73.3215
753.997	54.5203
756.89	63.3127
759.783	71.6744
762.675	62.635
765.568	89.1875
768.461	90.5621
771.354	82.1661
774.246	2.29663
777.139	23.1352
780.032	10.8082
782.924	57.2685
785.817	33.2936
788.71	77.6624
791.602	49.5027
794.495	55.8687
797.388	48.6243
800.28	47.4355
803.173	2.53149
806.066	21.2669
808.959	24.0964
811.851	41.3599
814.744	3.10547
817.637	93.321
820.529	58.3977
823.422	31.9334
826.315	36.5432
829.207	84.8098
832.1	12.9275
834.993	66.6174
837.885	43.1936
840.778	15.6233
843.671	48.1414
846.564	7.05835
849.456	38.7041
852.349	58.509
855.242	47.1462
858.134	63.1665
861.027	106.328
863.92	182.372
866.812	175.945
869.705	106.162
872.598	54.154
875.491	18.8496
878.383	33.446
881.276	32.7507
884.169	5.20581
887.061	30.2583
889.954	53.3
892.847	31.8721
895.74	40.668
898.632	27.9036
901.525	71.5911
904.418	42.9168
907.31	69.8359
910.203	74.6724
913.096	84.3318
915.988	91.2375
918.881	64.5818
921.774	57.2581
924.667	117.248
927.559	95.3557
930.452	69.0081
933.345	94.7085
936.237	100.638
939.13	69.9485
942.023	92.8638
944.915	80.7319
947.808	56.2637
950.701	68.2773
953.593	55.0303
956.486	25.0488
959.379	94.2371
962.271	19.0237
965.164	113.897
968.057	51.0442
970.95	99.9253
973.842	54.3184
976.735	29.8267
979.628	28.0676
982.52	64.0293
985.413	34.0662
988.306	24.4544
991.198	91.4456
994.091	23.3301
996.984	49.2693
999.877	64.876
1002.77	7.83154
1005.66	7.19507
1008.55	15.6162
1011.45	51.3076
1014.34	2.07788
1017.23	1.01636
1020.12	43.1714
1023.02	67.9032
1025.91	19.4359
1028.8	4.0061
1031.7	15.1022
1034.59	50.2911
1037.48	36.5735
1040.37	78.738
1043.27	19.0897
1046.16	84.4144
1049.05	95.7617
1051.94	60.3729
1054.84	102.133
1057.73	11.4469
1060.62	69.7767
1063.52	66.5691
1066.41	84.7816
1069.3	162.466
1072.19	208.761
1075.09	306.61
1077.98	468.003
1080.87	929.356
1083.77	2127.84
1086.66	4517.96
1089.55	6943.87
1092.44	10246.9
1095.34	13859.3
1098.23	10773.6
1101.12	2956.99
1104.01	811.967
1106.91	281.782
1109.8	245.539
1112.69	160.079
1115.59	59.1931
1118.48	81.147
1121.37	39.6765
1124.26	45.6633
1127.15	2.66907
1130.05	6.10181
1132.94	30.8406
1135.83	6.41418
1138.73	41.2563
1141.62	12.3323
1144.51	10.9019
1147.4	85.9861
1150.3	33.7932
1153.19	22.9348
1156.08	76.5636
1158.97	26.0406
1161.87	77.8613
1164.76	40.7693
1167.65	38.4215
1170.55	52.8789
1173.44	119.826
1176.33	35.2627
1179.22	31.5601
1182.12	60.6079
1185.01	52.9369
1187.9	7.30652
1190.8	9.60022
1193.69	18.0007
1196.58	32.7654
1199.47	110.12
1202.37	60.6414
1205.26	12.7186
1208.15	63.0847
1211.04	41.2811
1213.94	77.8311
1216.83	105.396
1219.72	65.8473
1222.61	86.8494
1225.51	87.2578
1228.4	138.586
1231.29	80.1274
1234.18	0.838501
1237.08	56.6587
1239.97	106.34
1242.86	60.6915
1245.76	111.983
1248.65	88.0217
1251.54	76.2635
1254.43	119.116
1257.33	60.2727
1260.22	74.3503
1263.11	92.672
1266.01	33.6472
1268.9	6.7854
1271.79	35.4537
1274.68	24.3292
1277.58	36.0417
1280.47	42.0543
1283.36	8.45129
1286.25	56.9632
1289.15	43.4328
