Measurement: Raman, 532 nm, unoriented, Raman Data Processed
Mineral: Bastnasite-(Ce)
Rruff sample: R060550
Ideal chemistry: CeCO_3_F
Locality: Zagni Mountains, Pakistan
Source: Gemological Institute of America
Description: Brown water worn pebble
Measured chemistry: (Ce_0.56_(La,Pr)_0.26_Nd_0.18_)_Î£=1_CO_3_F_1.00_
Raman shift (cm-1)	intensity
98.38	0
101.755	92.692
105.13	0.12
108.505	1165.19
111.879	6137.15
115.254	13772.7
118.629	10475.4
122.004	13918.9
125.379	11942.8
128.753	5736.13
132.128	4279.48
135.503	4585.49
138.878	5469.21
142.253	7504.04
145.628	11314.8
149.002	16636.4
152.377	16412
155.752	18267.5
159.127	28868.2
162.502	46906
165.876	31885.7
169.251	13229.6
172.626	6876.4
176.001	4762.07
179.376	4591.33
182.751	4248.74
186.125	2892.76
189.5	1886.84
192.875	762.761
196.25	121.99
199.625	98.18
202.999	135.911
206.374	15.997
209.749	133.186
213.124	47.617
216.499	255.734
219.874	658.22
223.248	1230.32
226.623	1972.38
229.998	2973.99
233.373	4934.4
236.748	8217.38
240.122	13438.4
243.497	21319.4
246.872	31200.9
250.247	41157.6
253.622	50186
256.997	54331.9
260.371	41692
263.746	24888.3
267.121	14470.1
270.496	9084.04
273.871	6048.59
277.246	4052.82
280.62	2432.57
283.995	1326.81
287.37	608.4
290.745	97.189
294.12	136.819
297.494	174.084
300.869	156.38
304.244	28.373
307.619	230.625
310.994	425.788
314.369	853.092
317.743	1556.52
321.118	2805.23
324.493	4787.88
327.868	7414.77
331.243	10115.4
334.617	13537.6
337.992	18848
341.367	26006.5
344.742	32688.1
348.117	35705.9
351.491	34325.9
354.866	28833.8
358.241	22780.4
361.616	18343.8
364.991	14991.5
368.366	11130.2
371.741	7737.12
375.115	5256.21
378.49	3670.07
381.865	2525.92
385.24	1850.66
388.615	1444.3
391.989	1236.59
395.364	1051.78
398.739	776.38
402.114	543.537
405.489	362.991
408.863	190.253
412.238	140.496
415.613	137.839
418.988	159.052
422.363	202.918
425.738	204.815
429.112	219.881
432.487	136.898
435.862	71.726
439.237	22.354
442.612	18.704
445.987	57.491
449.361	54.12
452.736	68.449
456.111	28.208
459.486	57.85
462.861	10.545
466.235	3.753
469.61	3.041
472.985	39.515
476.36	43.27
479.735	81.815
483.109	91.654
486.484	137.877
489.859	163.859
493.234	184.191
496.609	199.635
499.984	217.868
503.358	241.429
506.733	218.434
510.108	216.421
513.483	174.012
516.858	154.462
520.232	119.232
523.607	81.424
526.982	50.423
530.357	15.049
533.732	19.527
537.107	29.429
540.481	32.675
543.856	42.651
547.231	91.333
550.606	107.246
553.981	125.225
557.356	176.581
560.73	192.829
564.105	274.671
567.48	313.678
570.855	378.58
574.23	505.535
577.604	641.178
580.979	907.535
584.354	1231.51
587.729	1561.99
591.104	1870.55
594.479	2117.94
597.853	2401.54
601.228	2601.45
604.603	2675.49
607.978	2366.35
611.353	1768.9
614.727	1150.5
618.102	726.32
621.477	452.629
624.852	287.425
628.227	170.676
631.602	102.456
634.976	41.402
638.351	1.2
641.726	38.248
645.101	25.519
648.476	3.66
651.851	56.733
655.225	170.392
658.6	417.7
661.975	905.987
665.35	1377.7
668.724	780.201
672.099	573.252
675.474	373.354
678.849	352.97
682.224	623.457
685.599	1682.96
688.973	633.564
692.348	235.921
695.723	73.212
699.098	15.541
702.473	5.497
705.847	6.524
709.222	1.694
712.597	52.456
715.972	109.064
719.347	220.013
722.722	307.235
726.096	383.474
729.471	590.772
732.846	650.112
736.221	1049.03
739.596	525.422
742.971	204.947
746.345	204.708
749.72	253.39
753.095	229.741
756.47	242.175
759.845	230.27
763.219	192.805
766.594	134.07
769.969	109.957
773.344	102.805
776.719	85.214
780.094	68.193
783.468	75.895
786.843	68.889
790.218	71.121
793.593	65.957
796.968	52.937
800.343	209.845
803.717	62.461
807.092	36.982
810.467	8.576
813.842	5.02
817.217	5.293
820.591	10.403
823.966	25.075
827.341	7.305
830.716	8.721
834.091	8.029
837.466	1.064
840.84	12.323
844.215	2.009
847.59	25.243
850.965	14.357
854.34	32.591
857.714	133.193
861.089	340.235
864.464	702.741
867.839	1098.62
871.214	925.117
874.589	220.75
877.963	221.108
881.338	337.659
884.713	273.676
888.088	305.608
891.463	349.173
894.837	456.968
898.212	585.142
901.587	709.771
904.962	861.768
908.337	1049.03
911.711	1153.36
915.086	1231.72
918.461	1300.68
921.836	1290.24
925.211	1336.98
928.586	1264.87
931.96	1215.46
935.335	1183.82
938.71	1094.74
942.085	1079.36
945.46	1014.6
948.834	966.284
952.209	966.091
955.584	972.863
958.959	1004.89
962.334	1021.58
965.709	980.071
969.083	941.325
972.458	847.356
975.833	697.429
979.208	585.947
982.583	480.203
985.958	374.914
989.332	294.279
992.707	219.058
996.082	146.604
999.457	115.114
1002.83	70.367
1006.21	37.058
1009.58	7.074
1012.96	18.764
1016.33	25.966
1019.71	17.554
1023.08	16.917
1026.45	9.154
1029.83	16.165
1033.2	5.912
1036.58	0.363
1039.95	60.551
1043.33	51.027
1046.7	81.148
1050.08	80.125
1053.45	138.498
1056.83	190.543
1060.2	277.609
1063.58	391.773
1066.95	592.305
1070.33	1051.11
1073.7	1337.1
1077.08	1624.68
1080.45	3153.73
1083.83	7548.48
1087.2	19457.5
1090.58	39689
1093.95	80769.6
1097.33	85157.9
1100.7	10479.8
1104.08	3667.71
1107.45	1622.52
1110.83	1038.95
1114.2	647.459
1117.58	454.057
1120.95	307.049
1124.33	210.559
1127.7	157.07
1131.08	89.967
1134.45	52.004
1137.82	18.17
1141.2	1.698
1144.57	15.514
1147.95	2.5
1151.32	10.205
1154.7	6.746
1158.07	6.637
1161.45	18.245
1164.82	5.789
1168.2	7.636
1171.57	23.588
1174.95	34.196
1178.32	26.537
1181.7	80.175
1185.07	59.006
1188.45	69.691
1191.82	85.328
1195.2	120.659
1198.57	121.75
1201.95	111.506
1205.32	101.124
1208.7	99.603
1212.07	103.864
1215.44	118.871
1218.82	121.547
1222.19	138.318
1225.57	111.174
1228.94	111.782
1232.32	110.757
1235.69	67.077
1239.07	79.467
1242.44	93.372
1245.82	69.592
1249.19	99.388
1252.57	80.263
1255.94	80.627
1259.32	76.524
1262.69	36.613
1266.07	20.919
1269.44	27.197
1272.82	12.422
1276.19	14.219
1279.57	2.216
1282.94	22.974
1286.32	26.88
