Measurement: Raman, 780 nm, unoriented, Raman Data Processed
Mineral: Baumhauerite
Rruff sample: R050429
Ideal chemistry: Pb_12_As_16_S_36_
Locality: Binntal, Valais, Switzerland
Source: University of Arizona Mineral Museum
Description: Lead gray metallic with iridescent tarnish and conchoidal fracture
Raman shift (cm-1)	intensity
182.011	0
184.903	8.17969
187.796	13.9802
190.689	18.5148
193.581	31.988
196.474	26.8635
199.367	11.6838
202.26	4.10944
205.152	6.26404
208.045	4.53351
210.938	1.37335
213.83	9.37769
216.723	15.5595
219.616	22.1149
222.508	27.4803
225.401	29.3195
228.294	23.7258
231.187	16.8998
234.079	15.6793
236.972	12.8355
239.865	20.8721
242.757	26.0778
245.65	39.7718
248.543	60.8262
251.435	89.8952
254.328	114.531
257.221	141.171
260.114	164.988
263.006	186.086
265.899	210.8
268.792	249.971
271.684	294.115
274.577	338.78
277.47	382.399
280.363	430.518
283.255	470.483
286.148	503.615
289.041	516.637
291.933	500.13
294.826	465.55
297.719	427.05
300.611	392.394
303.504	354.074
306.397	316.714
309.289	281.009
312.182	242.192
315.075	205.548
317.968	175.776
320.86	149.868
323.753	136.068
326.646	132.338
329.538	135.665
332.431	143.899
335.324	144.217
338.216	139.777
341.109	137.414
344.002	159.803
346.895	211.522
349.787	289.266
352.68	380.969
355.573	470.423
358.465	542.631
361.358	592.173
364.251	612.273
367.144	613.826
370.036	582.024
372.929	535.201
375.822	471.397
378.714	402.526
381.607	337.981
384.5	254.577
387.392	144.607
390.285	55.0966
393.178	5.39008
396.071	13.5092
398.963	19.8493
401.856	19.4668
404.749	14.6065
407.641	8.41526
410.534	2.64535
413.427	6.09609
416.32	12.1899
419.212	19.3575
422.105	26.7933
424.998	35.0883
427.89	41.3212
430.783	46.5889
433.676	53.4648
436.568	59.7368
439.461	64.1258
442.354	68.8855
445.247	73.6938
448.139	76.8057
451.032	79.6269
453.925	80.5605
456.817	75.685
459.71	67.6686
462.603	59.2329
465.495	52.3505
468.388	46.4376
471.281	41.8741
474.173	39.9058
477.066	37.3691
479.959	35.0704
482.852	33.2272
485.744	31.7305
488.637	30.1179
491.53	28.5562
494.422	26.7625
497.315	24.5985
500.208	21.7909
503.101	20.2931
505.993	18.4052
508.886	16.5027
511.779	15.0013
514.671	11.5392
517.564	10.5578
520.457	9.03888
523.349	7.30255
526.242	5.61964
529.135	5.48927
532.028	4.31799
534.92	2.9125
537.813	1.99839
540.706	1.46659
543.598	1.83887
546.491	0.741365
549.384	0.739977
552.277	1.22473
555.169	0.118248
558.062	0.500778
560.955	0.658745
563.847	0.000965
566.74	0.675522
569.633	0.731625
572.525	1.14678
575.418	1.16651
578.311	0.460524
581.203	0.879755
584.096	0.323061
586.989	1.09556
589.882	0.87182
592.774	0.542166
595.667	0.530043
598.56	0.862669
601.452	1.01944
604.345	0.391367
607.238	0.027958
610.13	0.49847
613.023	0.817465
615.916	0.285
618.809	0.520046
621.701	0.160156
624.594	0.248857
627.487	0.609772
630.379	0.173861
633.272	0.062546
636.165	0.383554
639.058	0.839277
641.95	0.663826
644.843	1.77242
647.736	1.45699
650.628	1.85637
653.521	2.26897
656.414	2.35194
659.307	2.64799
662.199	2.61155
665.092	2.58625
667.985	2.74368
670.877	2.90092
673.77	2.50732
676.663	2.45173
679.555	2.4235
682.448	2.46735
685.341	1.84764
688.234	1.60481
691.126	1.10926
694.019	0.828569
696.912	1.07264
699.804	0.641769
702.697	0.237709
705.59	1.16422
708.482	1.32829
711.375	1.44167
714.268	1.71938
717.16	1.79746
720.053	2.06761
722.946	2.62022
725.839	2.53107
728.731	2.80855
731.624	3.0735
734.517	3.14281
737.409	3.11055
740.302	3.18355
743.195	2.70716
746.087	3.08471
748.98	3.17518
751.873	2.77604
754.766	2.46978
757.658	1.449
760.551	1.59955
763.444	1.71845
766.336	1.2441
769.229	0.760042
772.122	0.488142
775.014	0.242515
777.907	0.47542
780.8	0.778014
783.693	0.412325
786.585	0.310497
789.478	0.140319
792.371	0.247927
795.263	0.284426
798.156	0.588941
801.049	0.059376
803.942	0.704926
806.834	0.706879
809.727	0.530231
812.62	0.283979
815.512	0.452256
818.405	1.18001
821.298	0.668435
824.19	0.788288
827.083	0.783181
829.976	0.930579
832.869	0.982602
835.761	0.753196
838.654	0.842306
841.547	0.637332
844.439	0.480917
847.332	0.468726
850.225	0.521033
853.117	0.606862
856.01	0.530047
858.903	0.680698
861.796	0.277278
864.688	0.488886
867.581	0.505701
870.474	0.599511
873.366	0.443306
876.259	0.308219
879.152	0.671679
882.044	0.434402
884.937	0.216756
887.83	0.345578
890.723	0.200567
893.615	0.105721
896.508	0.267552
899.401	0.411424
902.293	0.434921
905.186	0.377311
908.079	0.205136
910.971	0.029517
913.864	0.00949
916.757	0.739705
919.65	0.070793
922.542	0.481039
925.435	0.153314
928.328	0.118056
931.221	0.112679
934.113	0.083511
937.006	0.20907
939.899	0.272645
942.791	0.102668
945.684	0.338579
948.577	0.444417
951.469	0.361605
954.362	0.266723
957.255	0.411048
960.148	0.264398
963.04	0.362262
965.933	0.185749
968.826	0.508167
971.718	0.511443
974.611	0.467504
977.504	0.375364
980.396	0.924782
983.289	0.229961
986.182	0.155011
989.074	0.704614
991.967	0.437155
994.86	0.479239
997.753	0.45886
1000.64	0.536982
1003.54	0.426123
1006.43	0.246586
1009.32	0.375081
1012.22	0.252807
1015.11	0.514063
1018	0.332291
1020.89	0.413419
1023.79	0.41257
1026.68	0.345344
1029.57	0.364619
1032.46	0.223475
1035.36	0.230548
1038.25	0.66881
1041.14	0.163762
1044.04	0.238968
1046.93	0.361016
1049.82	0.150277
1052.71	0.531705
1055.61	0.482287
1058.5	0.259457
1061.39	0.368783
1064.29	0.664138
1067.18	0.569049
1070.07	0.167137
1072.96	0.374833
1075.86	0.269085
1078.75	0.265845
1081.64	0.490409
1084.53	0.704997
1087.43	0.461678
1090.32	0.532015
1093.21	0.259941
1096.1	0.148965
1099	0.410476
1101.89	0.189091
1104.78	0.609578
1107.67	0.843295
1110.57	0.24243
1113.46	0.195993
1116.35	0.375129
1119.25	0.000572
1122.14	0.18046
1125.03	0.54516
1127.92	0.047633
1130.82	0.45798
1133.71	0.339803
1136.6	0.592125
1139.49	0.118153
1142.39	0.35334
1145.28	0.069057
1148.17	0.312032
1151.07	0.275663
1153.96	0.251044
1156.85	0.51951
1159.74	0.516793
1162.64	0.523774
1165.53	0.122583
1168.42	0.236594
1171.32	0.242329
1174.21	0.303871
1177.1	0.248943
1179.99	0.029022
1182.88	0.029837
1185.78	0.141554
1188.67	0.146815
1191.56	0.355798
1194.46	0.34249
1197.35	0.20566
1200.24	0.564357
1203.13	0.177635
1206.03	0.335952
1208.92	0.284234
1211.81	0.468948
1214.7	0.163678
1217.6	0.242985
1220.49	0.512036
1223.38	0.312086
1226.28	0.20124
1229.17	0.328749
1232.06	0.225136
1234.95	0.580825
1237.85	0.406355
1240.74	0.329133
1243.63	0.527093
1246.53	0.354367
1249.42	0.372491
1252.31	0.203838
1255.2	3.90574
1258.1	0.403254
1260.99	0.358388
1263.88	0.094728
1266.77	0.776901
1269.67	0.404515
1272.56	0.303455
1275.45	0.688595
1278.35	2.70199
1281.24	0.180391
