Measurement: Raman, 785 nm, unoriented, Raman Data Processed
Mineral: Baumhauerite-2a
Rruff sample: R070167
Ideal chemistry: Ag_1.5_Pb_22_As_33.5_S_72_
Locality: Cerro de Pasco, Alcides Carri√≥n Province, Pasco department, Peru
Source: Michael Scott
Description: Silver metallic mass of spheroids
Raman shift (cm-1)	intensity
151.201	0
154.093	553.754
156.986	155.414
159.879	99.5898
162.772	1749.21
165.664	4004.93
168.557	5827.84
171.45	7001.58
174.342	7270.6
177.235	7052.86
180.128	7027.16
183.02	7223.67
185.913	7282.44
188.806	7575.26
191.698	7951.48
194.591	8059.74
197.484	8174.15
200.377	8358.09
203.269	8455.41
206.162	8279.86
209.055	8472.95
211.947	8470.52
214.84	8464.39
217.733	8653.02
220.625	8715.66
223.518	8582.26
226.411	8148
229.304	7517.79
232.196	7057.31
235.089	6403.35
237.982	5969.44
240.874	5395.13
243.767	4634.32
246.66	3925.34
249.553	3001.89
252.445	2113.43
255.338	1347.9
258.231	528.977
261.123	29.2383
264.016	377.106
266.909	713.092
269.801	715.262
272.694	659.023
275.587	131.424
278.479	647.195
281.372	1708.46
284.265	3019.6
287.158	4260.56
290.05	5423.39
292.943	6745.66
295.836	7759.05
298.728	8958.35
301.621	10381.2
304.514	12005.4
307.406	13589.1
310.299	15374.4
313.192	16757.1
316.085	18373.7
318.977	19876.8
321.87	21452
324.763	22472.2
327.655	23478.2
330.548	24143.6
333.441	24772.1
336.334	25104.1
339.226	25521.7
342.119	26035.1
345.012	27001.5
347.904	28801.1
350.797	31453.6
353.69	35366.2
356.582	40460.4
359.475	45772.6
362.368	50734.2
365.26	54272.3
368.153	55514.4
371.046	54683.9
373.939	51747.4
376.831	47094.9
379.724	41454.8
382.617	35068.7
385.509	28259.5
388.402	22053.7
391.295	16235.5
394.188	11218.4
397.08	7207.2
399.973	4167.86
402.866	2191.26
405.758	913.757
408.651	64.7734
411.544	230.306
414.436	417.531
417.329	494.75
420.222	371.68
423.115	286.787
426.007	189.974
428.9	56.6289
431.793	80.5942
434.685	153.827
437.578	391.106
440.471	593.388
443.363	670.127
446.256	844.663
449.149	1023.6
452.041	1130.77
454.934	1265.35
457.827	1409.51
460.719	1518.36
463.612	1684.11
466.505	1779.85
469.398	1870.78
472.29	1783.34
475.183	1591.63
478.076	1455.44
480.968	1286.1
483.861	1181.33
486.754	1116.55
489.647	1003.7
492.539	959.878
495.432	919.787
498.325	854.931
501.217	786.658
504.11	717.66
507.003	719.067
509.895	619.665
512.788	530.007
515.681	519.069
518.573	451.572
521.466	388.145
524.359	312.169
527.252	294.06
530.144	233.952
533.037	199.337
535.93	174.301
538.822	114.814
541.715	63.5305
544.608	62.8369
547.5	39.6487
550.393	16.4155
553.286	19.374
556.179	26.0456
559.071	6.79981
561.964	30.0291
564.857	41.7109
567.75	9.72949
570.642	16.9155
573.535	1.08276
576.428	9.34619
579.32	13.5068
582.213	42.48
585.106	22.6113
587.998	10.9087
590.891	8.9126
593.784	13.2546
596.677	3.62524
599.569	7.30151
602.462	31.6868
605.355	4.00879
608.247	12.3162
611.14	5.95581
614.033	11.718
616.925	9.90234
619.818	12.1438
622.711	7.27686
625.604	41.1086
628.496	83.0566
631.389	95.019
634.282	42.4595
637.174	103.904
640.067	96.1218
642.96	98.7053
645.852	127.048
648.745	134.66
651.638	96.4971
654.53	125.198
657.423	107.639
660.316	95.9756
663.209	82.052
666.101	68.9514
668.994	97.6721
671.887	53.846
674.779	129.342
677.672	105.363
680.565	104.773
683.457	84.5005
686.35	104.619
689.243	102.136
692.136	79.8354
695.028	95.1846
697.921	54.4741
700.814	36.825
703.706	63.5564
706.599	63.0671
709.492	47.3599
712.385	8.97656
715.277	26.4451
718.17	29.1514
721.063	31.0832
723.955	79.2937
726.848	39.4653
729.741	51.3975
732.633	28.3735
735.526	62.6885
738.419	28.04
741.312	80.478
744.204	47.2261
747.097	50.8828
749.99	107.242
752.882	86.9294
755.775	45.3379
758.668	54.7327
761.56	46.5276
764.453	43.398
767.346	59.4966
770.239	21.5574
773.131	45.0537
776.024	17.0754
778.917	4.2605
781.809	1.59058
784.702	15.6453
787.595	20.4565
790.487	31.4695
793.38	9.34033
796.273	9.26172
799.165	0.384399
802.058	26.4338
804.951	5.98572
807.843	47.8687
810.736	34.821
813.629	65.1019
816.522	13.1964
819.414	42.9065
822.307	62.8794
825.2	39.7114
828.092	52.5472
830.985	73.3375
833.878	53.0908
836.77	79.5507
839.663	84.9428
842.556	48.0773
845.449	93.5809
848.341	82.9701
851.234	53.7992
854.127	67.4965
857.019	57.8321
859.912	22.9175
862.805	31.298
865.697	56.4164
868.59	49.9797
871.483	38.1957
874.376	44.2513
877.268	46.4315
880.161	49.6733
883.054	69.1856
885.946	51.8572
888.839	73.9502
891.732	74.7256
894.625	42.2434
897.517	50.121
900.41	19.514
903.303	46.2496
906.195	16.634
909.088	23.7184
911.981	9.10156
914.873	25.6176
917.766	1.17358
920.659	12.5676
923.552	23.0998
926.444	4.66772
929.337	39.4087
932.23	5.72925
935.122	7.01697
938.015	18.1034
940.908	45.4884
943.8	20.6635
946.693	26.2842
949.586	20.1644
952.479	53.3596
955.371	41.4633
958.264	68.9829
961.157	53.5159
964.049	66.8966
966.942	85.38
969.835	52.5778
972.727	43.8052
975.62	8.81836
978.513	65.9928
981.405	63.6221
984.298	60.209
987.191	18.1553
990.084	39.1932
992.976	22.2014
995.869	29.3363
998.762	19.3441
1001.65	33.202
1004.55	15.9949
1007.44	33.605
1010.33	40.7738
1013.23	17.2057
1016.12	13.3957
1019.01	2.09558
1021.9	15.3516
1024.8	35.2221
1027.69	23.4274
1030.58	27.3145
1033.47	5.27283
1036.37	20.9117
1039.26	2.45483
1042.15	10.8926
1045.05	4.46252
1047.94	9.64941
1050.83	15.7173
1053.72	18.1744
1056.62	31.7367
1059.51	26.0544
1062.4	22.0479
1065.29	38.038
1068.19	50.8641
1071.08	56.3572
1073.97	33.6699
1076.87	59.892
1079.76	61.8565
1082.65	48.4371
1085.54	51.1669
1088.43	42.5499
1091.33	35.8969
1094.22	39.1279
1097.11	23.2024
1100.01	31.735
1102.9	11.6278
1105.79	8.5459
1108.68	5.90479
1111.58	38.5818
1114.47	18.1462
1117.36	5.31995
1120.26	2.03979
1123.15	23.6647
1126.04	13.3998
1128.93	14.6552
1131.83	21.4523
1134.72	15.0781
1137.61	25.6124
1140.5	22.2023
1143.4	26.6808
1146.29	49.3457
1149.18	113.608
1152.08	91.7185
1154.97	105.388
1157.86	90.0945
1160.75	61.6604
1163.65	68.2598
1166.54	78.1445
1169.43	100.305
1172.32	103.483
1175.22	40.4888
1178.11	90.8315
1181	86.158
1183.89	53.0815
1186.79	43.511
1189.68	67.7361
1192.57	40.4834
1195.46	74.1919
1198.36	38.6289
1201.25	55.8635
1204.14	62.1707
1207.04	18.2034
1209.93	51.4285
1212.82	54.3723
1215.71	39.0842
1218.61	66.5642
1221.5	42.3181
1224.39	10.6274
1227.29	55.6536
1230.18	17.5488
