Measurement: Raman, 532 nm, unoriented, Raman Data Processed
Mineral: Bavenite
Rruff sample: R060065
Ideal chemistry: Ca_4_Be_2_Al_2_Si_9_O_26_(OH)_2_
Locality: Tittling, Bavarian Forest, Bavaria, Germany
Source: University of Arizona Mineral Museum
Description: White radial aggregate of bladed crystals
Measured chemistry: Ca_4.00_Be_2.00_Al_2.00_Si_9.00_O_26_(OH)_2_ ; Be not measured but assumed by stoichiometry
Raman shift (cm-1)	intensity
163.31	0
166.202	2.64554
169.095	4.69296
171.988	11.6008
174.88	8.1857
177.773	9.96835
180.666	12.155
183.558	11.5472
186.451	6.42154
189.344	1.68549
192.237	0.186279
195.129	3.63306
198.022	11.0638
200.915	15.6202
203.807	17.2846
206.7	13.5035
209.593	21.9324
212.485	33.5416
215.378	51.1532
218.271	52.5185
221.163	43.3724
224.056	38.061
226.949	42.3096
229.842	44.4646
232.734	56.809
235.627	45.317
238.52	40.7552
241.412	41.2952
244.305	43.1381
247.198	42.8976
250.09	40.8199
252.983	35.9016
255.876	32.5187
258.769	33.28
261.661	30.621
264.554	30.6307
267.447	27.2352
270.339	25.1574
273.232	25.5886
276.125	29.4604
279.017	35.2325
281.91	35.1392
284.803	28.383
287.696	19.3133
290.588	12.4677
293.481	8.79413
296.374	8.276
299.266	3.81519
302.159	0.114258
305.052	4.03149
307.945	1.80249
310.837	0.589478
313.73	1.23175
316.623	1.49634
319.515	4.27417
322.408	7.28882
325.301	11.1161
328.193	12.3145
331.086	20.7563
333.979	24.9346
336.872	36.5723
339.764	45.9877
342.657	65.7581
345.55	92.0087
348.442	101.615
351.335	68.8677
354.228	35.1652
357.12	18.4602
360.013	11.472
362.906	8.01788
365.798	5.74786
368.691	4.2832
371.584	6.30243
374.477	1.49707
377.369	0.713013
380.262	7.49768
383.155	10.2266
386.047	14.0014
388.94	18.5391
391.833	31.4153
394.726	41.5925
397.618	45.808
400.511	49.6449
403.404	48.2048
406.296	40.743
409.189	26.558
412.082	12.2882
414.974	6.43268
417.867	2.22784
420.76	2.00171
423.652	2.89868
426.545	8.1698
429.438	10.2086
432.331	25.7009
435.223	43.4377
438.116	63.2553
441.009	86.3121
443.901	127.18
446.794	171.57
449.687	178.842
452.579	107.278
455.472	44.0841
458.365	13.6442
461.258	4.41449
464.15	2.92188
467.043	3.60663
469.936	0.200317
472.828	5.7865
475.721	9.5708
478.614	21.5434
481.507	38.2713
484.399	56.815
487.292	82.2928
490.185	113.93
493.077	149.291
495.97	175.519
498.863	199.107
501.755	217.656
504.648	216.567
507.541	182.56
510.433	134.842
513.326	91.4945
516.219	62.2052
519.112	45.8853
522.004	38.6609
524.897	37.2322
527.79	46.9069
530.682	59.9431
533.575	71.4756
536.468	83.9141
539.361	80.1229
542.253	63.1754
545.146	43.3098
548.039	24.9353
550.931	15.5166
553.824	9.90936
556.717	7.44031
559.609	4.81976
562.502	7.03912
565.395	6.11334
568.288	7.15564
571.18	5.77667
574.073	5.68066
576.966	5.50049
579.858	3.42194
582.751	2.48828
585.644	1.13904
588.536	0.844666
591.429	1.15125
594.322	0.791626
597.214	2.05884
600.107	0.112732
603	0.675781
605.893	0.363098
608.785	1.11267
611.678	2.09393
614.571	0.423157
617.463	1.50775
620.356	2.15228
623.249	4.12012
626.141	4.73022
629.034	9.62872
631.927	7.50427
634.819	9.11334
637.712	10.1835
640.605	11.9508
643.498	14.4135
646.39	18.7097
649.283	24.2941
652.176	30.0517
655.068	34.2327
657.961	41.7136
660.854	48.6511
663.746	60.1664
666.639	75.6916
669.532	94.7374
672.425	109.727
675.317	112.274
678.21	95.4147
681.103	79.2358
683.995	57.2258
686.888	35.0477
689.781	21.7968
692.673	14.6998
695.566	8.05493
698.459	2.92188
701.352	2.68726
704.244	2.14526
707.137	0.602173
710.03	3.73541
712.922	4.15387
715.815	8.82111
718.708	11.8536
721.601	14.9533
724.493	15.5621
727.386	19.9851
730.279	20.4215
733.171	19.1367
736.064	12.4075
738.957	11.511
741.849	8.2876
744.742	10.0592
747.635	15.2393
750.528	19.5674
753.42	22.4098
756.313	21.4864
759.206	13.0443
762.098	13.1616
764.991	3.41296
767.884	3.46692
770.776	1.01538
773.669	0.980957
776.562	1.62964
779.455	0.208008
782.347	2.38867
785.24	1.46088
788.133	4.60596
791.025	5.15216
793.918	4.72113
796.811	6.54437
799.703	1.68677
802.596	0.853271
805.489	0.173462
808.381	2.30615
811.274	3.34345
814.167	0.198853
817.06	1.08228
819.952	2.28552
822.845	0.7677
825.738	0.976624
828.63	1.24219
831.523	3.4516
834.416	3.05328
837.308	2.82233
840.201	5.44421
843.094	4.66345
845.987	3.99341
848.879	6.59112
851.772	6.20679
854.665	4.85394
857.557	7.34674
860.45	8.71069
863.343	9.72656
866.236	8.92407
869.128	6.95044
872.021	7.07538
874.914	4.29645
877.806	0.030579
880.699	3.45087
883.592	3.58429
886.484	1.61255
889.377	0.360413
892.27	1.10895
895.163	1.98377
898.055	1.37598
900.948	1.078
903.841	3.2616
906.733	1.17426
909.626	0.244263
912.519	4.24725
915.411	4.47009
918.304	4.17841
921.197	5.30103
924.09	7.37115
926.982	6.9646
929.875	8.69531
932.768	11.4368
935.66	15.729
938.553	18.9295
941.446	23.0864
944.338	28.5151
947.231	24.2787
950.124	22.4539
953.016	17.8249
955.909	16.3392
958.802	12.4575
961.695	4.55035
964.587	3.1236
967.48	1.30835
970.373	1.28082
973.265	0.118591
976.158	0.198853
979.051	0.810913
981.943	8.4646
984.836	14.4471
987.729	18.3262
990.621	28.5909
993.514	35.4139
996.407	38.4511
999.3	54.0994
1002.19	58.4444
1005.09	48.422
1007.98	35.8403
1010.87	26.928
1013.76	22.4477
1016.66	19.0662
1019.55	14.4089
1022.44	14.5631
1025.33	16.1472
1028.23	15.4242
1031.12	15.1715
1034.01	12.5669
1036.9	6.0459
1039.8	4.53503
1042.69	3.09247
1045.58	2.85413
1048.48	5.35187
1051.37	8.66071
1054.26	6.81457
1057.15	7.755
1060.05	11.1705
1062.94	8.05017
1065.83	3.9967
1068.72	0.728821
1071.62	2.08679
1074.51	3.65149
1077.4	4.30365
1080.3	1.40387
1083.19	1.13818
1086.08	3.35303
1088.97	2.94409
1091.87	7.48718
1094.76	10.8347
1097.65	11.4919
1100.54	11.9142
1103.44	12.5037
1106.33	8.40045
1109.22	9.22833
1112.12	3.36658
1115.01	5.03271
1117.9	1.19311
1120.79	1.19238
1123.69	1.08551
1126.58	0.101318
1129.47	1.35266
1132.36	0.186035
1135.26	2.25818
1138.15	3.79755
1141.04	4.19067
1143.93	5.79065
1146.83	3.64307
1149.72	6.41034
1152.61	5.91089
1155.51	6.83008
1158.4	8.00531
1161.29	2.78009
1164.18	3.64453
1167.08	2.06482
1169.97	2.97083
1172.86	0.281982
1175.75	2.71942
1178.65	0.345886
1181.54	1.95123
1184.43	2.01617
1187.33	0.420837
1190.22	2.05548
1193.11	1.78674
1196	2.41235
1198.9	1.66797
1201.79	4.1878
1204.68	4.71716
1207.57	2.73785
1210.47	1.98572
1213.36	2.13525
1216.25	1.94214
1219.14	2.43732
1222.04	2.39099
1224.93	2.69208
1227.82	4.02069
1230.72	3.60431
1233.61	0.043457
1236.5	2.10663
1239.39	0.412231
1242.29	1.54065
1245.18	2.26172
1248.07	3.6507
1250.96	0.289551
1253.86	1.0683
1256.75	2.5722
1259.64	1.11939
1262.54	1.2226
1265.43	4.36798
1268.32	1.73212
1271.21	2.13086
1274.11	2.41107
1277	3.19098
1279.89	0.862366
