Measurement: Raman, 532 nm, unoriented, Raman Data Processed
Mineral: Bavenite
Rruff sample: R060128
Ideal chemistry: Ca_4_Be_2_Al_2_Si_9_O_26_(OH)_2_
Locality: Foot mine, Kings Mountain, Cleveland County, North Carolina, USA
Source: University of Arizona Mineral Museum
Description: White bladed radial aggregate
Measured chemistry: Ca_4.00_Be_2.00_(Al_1.98_Fe^3+^_0.02_)_Î£=2_Si_9.00_O_26_(OH)_2_
Raman shift (cm-1)	intensity
150.046	0
152.939	0.139603
155.832	1.07765
158.724	1.05566
161.617	1.04428
164.51	0.26741
167.403	0.585541
170.295	3.20624
173.188	0.254745
176.081	0.604736
178.973	1.16049
181.866	1.76285
184.759	1.30441
187.651	0.480835
190.544	2.76541
193.437	8.22691
196.329	17.5903
199.222	17.5665
202.115	9.25607
205.008	5.22469
207.9	6.6505
210.793	8.27144
213.686	16.1518
216.578	13.9507
219.471	8.5004
222.364	5.53671
225.256	6.84529
228.149	11.8632
231.042	13.5549
233.935	9.76295
236.827	10.2162
239.72	14.5107
242.613	19.5426
245.505	24.4238
248.398	25.3034
251.291	21.9457
254.184	22.0084
257.076	23.5698
259.969	20.2745
262.862	13.9315
265.754	11.1375
268.647	9.2016
271.54	10.9839
274.433	15.2841
277.325	22.1991
280.218	26.9422
283.111	10.2155
286.003	2.83665
288.896	1.60275
291.789	0.77005
294.681	0.869095
297.574	1.0163
300.467	1.11972
303.36	1.0421
306.252	0.58728
309.145	1.83705
312.038	2.82205
314.93	3.40874
317.823	1.61171
320.716	1.99103
323.608	1.42278
326.501	3.32436
329.394	5.7515
332.287	11.8077
335.179	18.3851
338.072	19.8446
340.965	29.0146
343.857	39.0135
346.75	42.8824
349.643	24.1595
352.536	8.2515
355.428	2.26328
358.321	0.447205
361.214	1.18225
364.106	2.27838
366.999	5.46553
369.892	8.52219
372.784	7.87907
375.677	6.69499
378.57	9.89845
381.462	12.2026
384.355	13.8184
387.248	12.2808
390.141	11.5994
393.033	14.685
395.926	16.0592
398.819	23.9096
401.712	31.8117
404.604	42.2414
407.497	35.9903
410.39	14.9804
413.282	7.67992
416.175	1.81661
419.068	0.310333
421.96	2.30754
424.853	3.45772
427.746	6.30009
430.639	11.6431
433.531	16.3006
436.424	19.6847
439.317	27.747
442.209	47.0065
445.102	60.6983
447.995	59.6539
450.887	24.8415
453.78	6.25424
456.673	1.43396
459.566	0.384567
462.458	1.51296
465.351	0.47406
468.244	0.232697
471.136	1.18098
474.029	6.03195
476.922	13.3182
479.815	25.2224
482.707	41.6157
485.6	55.8936
488.493	85.8019
491.385	95.3284
494.278	95.7239
497.171	81.4663
500.063	71.8168
502.956	62.2286
505.849	53.6333
508.741	39.8554
511.634	25.8873
514.527	16.4251
517.42	12.384
520.312	11.9069
523.205	12.5758
526.098	16.4524
528.99	20.6597
531.883	27.7803
534.776	29.6771
537.669	19.0317
540.561	9.62784
543.454	5.15028
546.347	3.00488
549.239	2.35066
552.132	1.68603
555.025	2.72559
557.918	3.42079
560.81	5.62994
563.703	6.49348
566.596	10.7719
569.488	13.1667
572.381	10.3885
575.274	5.33608
578.166	4.11218
581.059	1.34377
583.952	1.45135
586.845	1.02002
589.737	0.335297
592.63	0.795639
595.523	0.197418
598.415	0.973724
601.308	0.519958
604.201	0.65535
607.093	0.3479
609.986	0.656509
612.879	0.063889
615.771	1.11632
618.664	1.83173
621.557	2.80132
624.45	3.92241
627.342	4.62361
630.235	3.10465
633.128	3.03265
636.02	1.90521
638.913	1.9436
641.806	2.45129
644.699	3.85826
647.591	4.18108
650.484	7.47349
653.377	8.49081
656.269	13.9462
659.162	18.5183
662.055	26.4484
664.947	31.3431
667.84	39.9782
670.733	39.5889
673.626	27.2282
676.518	17.6122
679.411	10.9261
682.304	7.05226
685.197	2.41717
688.089	2.23439
690.982	0.575638
693.875	0.329147
696.767	0.534866
699.66	0.915497
702.553	1.01669
705.445	1.7914
708.338	2.14145
711.231	5.64409
714.124	10.2591
717.016	13.5582
719.909	19.3565
722.802	25.1862
725.694	34.2744
728.587	37.4501
731.48	32.7964
734.372	19.0524
737.265	13.2417
740.158	13.8631
743.051	15.8474
745.943	22.4631
748.836	24.3148
751.729	19.1642
754.621	10.4592
757.514	5.52725
760.407	3.5587
763.299	0.966278
766.192	2.12802
769.085	0.621429
771.977	0.129501
774.87	0.022171
777.763	0.170975
780.656	0.3992
783.548	0.384415
786.441	0.762589
789.334	0.87616
792.226	0.869415
795.119	1.58894
798.012	1.91342
800.905	2.24733
803.797	1.19727
806.69	2.0661
809.583	1.75944
812.475	0.898392
815.368	0.115646
818.261	0.19957
821.154	1.41995
824.046	0.173782
826.939	3.04762
829.832	2.09579
832.724	0.757355
835.617	1.563
838.51	1.33406
841.403	1.67883
844.295	2.66219
847.188	1.02402
850.081	1.3502
852.973	2.71713
855.866	2.99181
858.759	1.99573
861.651	1.34418
864.544	2.01003
867.437	1.9169
870.33	2.13921
873.222	2.076
876.115	0.564743
879.008	1.21417
881.9	0.447845
884.793	1.48344
887.686	0.22052
890.578	0.802338
893.471	1.98962
896.364	1.12942
899.256	0.226074
902.149	1.56604
905.042	0.657074
907.935	0.054001
910.827	1.10413
913.72	2.22179
916.613	1.16016
919.505	1.49896
922.398	1.92677
925.291	2.1366
928.184	0.1586
931.076	0.645554
933.969	1.72401
936.862	1.52101
939.754	1.85204
942.647	3.17413
945.54	3.12015
948.433	2.08763
951.325	2.30821
954.218	1.13007
957.111	0.031952
960.003	0.40892
962.896	0.027664
965.789	0.217224
968.682	0.155197
971.574	2.86974
974.467	2.83318
977.36	5.8968
980.252	7.58563
983.145	11.3998
986.038	13.7381
988.93	14.1724
991.823	16.0478
994.716	20.7951
997.609	26.3491
1000.5	23.9304
1003.39	13.6505
1006.29	7.12174
1009.18	3.25171
1012.07	1.87337
1014.97	2.21629
1017.86	2.15942
1020.75	0.507126
1023.64	0.793808
1026.54	0.662933
1029.43	0.910812
1032.32	0.000122
1035.21	0.940521
1038.11	0.316971
1041	0.165955
1043.89	0.747925
1046.78	1.12421
1049.68	2.9183
1052.57	3.26091
1055.46	4.55
1058.36	4.69684
1061.25	5.1973
1064.14	4.69168
1067.03	5.92564
1069.93	6.00915
1072.82	8.09918
1075.71	3.86958
1078.6	2.56207
1081.5	1.31485
1084.39	2.06046
1087.28	3.24893
1090.17	4.85072
1093.07	6.00993
1095.96	7.73053
1098.85	4.92303
1101.75	4.57367
1104.64	1.24179
1107.53	1.67693
1110.42	0.327255
1113.32	0.766663
1116.21	1.00707
1119.1	1.1738
1121.99	2.01382
1124.89	2.3412
1127.78	2.33716
1130.67	3.75069
1133.57	5.48662
1136.46	5.85268
1139.35	6.30368
1142.24	1.81529
1145.14	1.74037
1148.03	2.60162
1150.92	1.00235
1153.81	1.04002
1156.71	1.08807
1159.6	0.145157
1162.49	0.680298
1165.38	0.829041
1168.28	1.13559
1171.17	0.303833
1174.06	0.369354
1176.96	0.334702
1179.85	1.06306
1182.74	0.616653
1185.63	1.03621
1188.53	1.16548
1191.42	1.37746
1194.31	1.64024
1197.2	1.72659
1200.1	1.62239
1202.99	0.897278
1205.88	2.53351
1208.78	0.830856
1211.67	1.4821
1214.56	0.745117
1217.45	2.05701
1220.35	2.91116
1223.24	1.80399
1226.13	2.01019
1229.03	0.326508
1231.92	2.42173
1234.81	1.9335
1237.7	1.72375
1240.6	0.834442
1243.49	1.52554
1246.38	1.12328
1249.27	0.030151
1252.17	2.35764
1255.06	1.71277
1257.95	2.38205
1260.84	0.98938
1263.74	0.072128
1266.63	2.98672
1269.52	3.14572
1272.41	2.8876
1275.31	2.47176
1278.2	2.4736
1281.09	1.26892
1283.99	2.39719
1286.88	0.912643
1289.77	2.01701
1292.66	1.92183
1295.56	1.25497
1298.45	1.95196
1301.34	0.094772
