Measurement: Raman, 780 nm, unoriented, Raman Data Processed
Mineral: Bavenite
Rruff sample: R060065
Ideal chemistry: Ca_4_Be_2_Al_2_Si_9_O_26_(OH)_2_
Locality: Tittling, Bavarian Forest, Bavaria, Germany
Source: University of Arizona Mineral Museum
Description: White radial aggregate of bladed crystals
Measured chemistry: Ca_4.00_Be_2.00_Al_2.00_Si_9.00_O_26_(OH)_2_ ; Be not measured but assumed by stoichiometry
Raman shift (cm-1)	intensity
163.474	0
166.367	0.68811
169.26	1.9128
172.152	2.40169
175.045	2.53062
177.938	2.91712
180.831	2.44941
183.723	1.48215
186.616	0.127518
189.509	0.347397
192.401	1.04314
195.294	1.81795
198.187	3.68294
201.079	5.18946
203.972	4.55711
206.865	5.14555
209.757	9.6594
212.65	10.5451
215.543	12.1508
218.436	13.1559
221.328	10.3894
224.221	11.7396
227.114	13.0386
230.006	14.4678
232.899	14.3256
235.792	13.2198
238.685	12.4449
241.577	13.6702
244.47	14.0821
247.363	12.9268
250.255	12.4304
253.148	11.4595
256.041	9.96988
258.933	8.89696
261.826	9.66052
264.719	9.03331
267.611	7.52463
270.504	6.5656
273.397	8.36588
276.29	6.58843
279.182	7.40477
282.075	6.46685
284.968	5.54508
287.86	4.07304
290.753	3.91743
293.646	2.5965
296.538	1.36607
299.431	0.409721
302.324	0.195686
305.217	0.652992
308.109	0.299461
311.002	0.148354
313.895	0.078941
316.787	0.240623
319.68	1.07376
322.573	2.24018
325.466	4.73399
328.358	5.92695
331.251	7.80013
334.144	9.87218
337.036	10.8357
339.929	12.8975
342.822	14.9677
345.714	16.9626
348.607	15.0057
351.5	9.23096
354.392	4.45378
357.285	2.38284
360.178	1.64142
363.071	1.68663
365.963	1.84699
368.856	1.08068
371.749	1.10959
374.641	1.20077
377.534	1.37347
380.427	2.59171
383.32	2.74764
386.212	3.84988
389.105	4.98283
391.998	6.53414
394.89	7.14044
397.783	7.26834
400.676	7.1382
403.568	5.80197
406.461	4.33659
409.354	1.9859
412.247	0.265167
415.139	0.250832
418.032	0.837006
420.925	0.533653
423.817	1.61471
426.71	3.67653
429.603	7.28121
432.495	10.8738
435.388	14.4369
438.281	18.5828
441.173	22.3144
444.066	28.2927
446.959	31.8711
449.852	25.0884
452.744	11.0149
455.637	3.47034
458.53	0.104454
461.422	0.100868
464.315	0.889168
467.208	0.315826
470.101	0.489174
472.993	1.46958
475.886	3.35913
478.779	6.41592
481.671	11.2193
484.564	15.1187
487.457	20.093
490.349	25.4426
493.242	30.6634
496.135	33.3608
499.027	36.232
501.92	35.4622
504.813	31.3611
507.705	24.0532
510.598	17.0946
513.491	12.2466
516.384	8.47427
519.276	7.30388
522.169	6.68876
525.062	8.8834
527.955	10.555
530.847	11.4747
533.74	13.4753
536.633	13.8207
539.525	11.425
542.418	7.38627
545.311	5.65996
548.203	2.86015
551.096	2.62176
553.989	2.14836
556.881	0.186882
559.774	1.34475
562.667	0.063156
565.56	0.597336
568.452	0.956001
571.345	1.17366
574.238	0.576424
577.13	0.25029
580.023	0.592827
582.916	0.358368
585.808	0.415482
588.701	0.448227
591.594	0.058235
594.486	0.942467
597.379	0.010315
600.272	0.832771
603.165	0.330627
606.057	0.221992
608.95	0.5755
611.843	0.283638
614.735	0.447693
617.628	0.189476
620.521	1.36547
623.413	0.504295
626.306	1.29776
629.199	2.18774
632.092	2.18845
634.984	2.18716
637.877	3.07746
640.77	2.84307
643.662	4.06111
646.555	4.65063
649.448	4.35461
652.341	6.27372
655.233	7.72163
658.126	8.73375
661.019	10.7895
663.911	13.0915
666.804	16.4093
669.697	17.6846
672.589	19.1871
675.482	17.5925
678.375	15.4932
681.268	10.7964
684.16	6.8946
687.053	4.86883
689.946	2.66018
692.838	1.03613
695.731	1.1258
698.624	1.28191
701.516	0.109749
704.409	0.325432
707.302	0.562675
710.194	0.695709
713.087	1.83178
715.98	1.91421
718.873	1.56342
721.765	2.55186
724.658	4.012
727.551	3.20417
730.443	2.24498
733.336	2.80834
736.229	1.86958
739.121	1.48228
742.014	2.47871
744.907	1.92946
747.8	2.47396
750.692	4.22723
753.585	3.45737
756.478	1.08805
759.37	1.69547
762.263	0.384033
765.156	0.040657
768.048	0.055244
770.941	0.16275
773.834	0.022171
776.727	0.489998
779.619	0.741623
782.512	0.736656
785.405	0.876396
788.297	1.84181
791.19	0.854645
794.083	0.690598
796.976	1.02412
799.868	0.577293
802.761	1.44762
805.654	0.787376
808.546	1.41547
811.439	0.96862
814.332	0.859856
817.224	0.429893
820.117	1.39919
823.01	1.23147
825.903	1.33905
828.795	0.967735
831.688	1.57075
834.581	1.00838
837.473	1.03476
840.366	1.55085
843.259	1.25149
846.151	2.82654
849.044	1.88816
851.937	1.57834
854.83	1.74055
857.722	1.80452
860.615	1.79357
863.508	1.54965
866.4	1.81642
869.293	1.39015
872.186	2.01864
875.078	0.921169
877.971	0.514904
880.864	1.64755
883.756	2.0278
886.649	0.31197
889.542	0.741402
892.435	0.531082
895.327	0.610516
898.22	0.390579
901.113	0.394802
904.005	0.977612
906.898	0.021675
909.791	0.417458
912.683	0.257198
915.576	0.844131
918.469	0.724548
921.362	1.26833
924.254	1.24863
927.147	2.71638
930.04	2.10739
932.932	2.86248
935.825	3.90566
938.718	4.7861
941.611	4.48133
944.503	5.09555
947.396	4.14308
950.289	4.15771
953.181	3.21195
956.074	2.63419
958.967	2.47244
961.859	0.228321
964.752	0.480019
967.645	0.265305
970.538	0.097973
973.43	0.412045
976.323	0.733215
979.216	1.32729
982.108	1.84656
985.001	2.59026
987.894	3.34264
990.786	4.97601
993.679	6.86734
996.572	7.75448
999.465	8.27093
1002.36	7.72636
1005.25	6.43254
1008.14	4.23875
1011.03	4.56509
1013.93	3.35026
1016.82	3.47107
1019.71	2.90466
1022.61	3.19431
1025.5	2.59347
1028.39	3.12785
1031.28	2.16219
1034.18	0.933407
1037.07	0.133556
1039.96	0.742023
1042.86	0.792549
1045.75	0.73727
1048.64	1.50634
1051.53	2.22044
1054.43	1.50239
1057.32	1.65891
1060.21	1.47121
1063.1	0.967548
1066	0.668793
1068.89	0.808544
1071.78	0.001133
1074.67	0.15971
1077.57	0.545193
1080.46	0.373402
1083.35	1.00093
1086.24	0.048229
1089.14	0.82933
1092.03	1.62673
1094.92	1.92551
1097.82	2.26634
1100.71	1.75953
1103.6	1.35874
1106.49	1.3843
1109.39	1.37193
1112.28	0.503986
1115.17	0.081757
1118.07	0.280266
1120.96	0.164074
1123.85	1.02929
1126.74	0.780479
1129.64	0.168159
1132.53	0.754192
1135.42	1.40443
1138.31	1.2557
1141.21	1.4505
1144.1	1.3787
1146.99	1.34932
1149.88	1.13377
1152.78	1.34688
1155.67	0.874115
1158.56	1.40726
1161.46	0.714081
1164.35	0.74865
1167.24	0.167152
1170.13	0.479713
1173.03	0.07378
1175.92	0.240753
1178.81	0.277252
1181.7	0.032738
1184.6	0.080082
1187.49	0.33894
1190.38	0.55331
1193.28	0.46418
1196.17	1.49002
1199.06	0.66951
1201.95	0.704124
1204.85	0.767033
1207.74	0.764809
1210.63	1.18385
1213.52	0.979431
1216.42	1.1053
1219.31	0.782749
1222.2	1.44778
1225.1	0.30867
1227.99	0.56918
1230.88	0.876991
1233.77	0.41016
1236.67	0.748966
1239.56	1.35605
1242.45	1.11694
1245.34	0.815678
1248.24	0.708473
1251.13	1.22734
1254.02	0.864586
1256.91	0.444256
1259.81	1.36017
1262.7	0.824177
1265.59	1.40797
1268.49	0.243744
1271.38	0.939537
1274.27	1.04165
1277.16	1.09834
1280.06	0.298042
