Measurement: Raman, 785 nm, unoriented, Raman Data Processed
Mineral: Bavenite
Rruff sample: R060790
Ideal chemistry: Ca_4_Be_2_Al_2_Si_9_O_26_(OH)_2_
Locality: Londonderry, West Australia, Australia
Source: Michael Scott
Description: Colorless platy aggregate with a hexagonal outline associated with quartz
Measured chemistry: Ca_4.00_Be_2.00_(Al_1.10_Be_0.90_)_Σ=2_Si_9.00_O_26_((OH)_1.10_(H_2_O)_0.90_)_Σ=2_
Raman shift (cm-1)	intensity
156.24	0
159.133	23.8931
162.025	2.09815
164.918	252.867
167.811	352.191
170.704	624.017
173.596	740.363
176.489	430.005
179.382	321.563
182.274	227.367
185.167	137.579
188.06	29.2441
190.952	34.816
193.845	32.7042
196.738	277.904
199.631	301.161
202.523	271.416
205.416	140.802
208.309	100.784
211.201	133.844
214.094	255.069
216.987	240.305
219.88	293.951
222.772	374.935
225.665	453.217
228.558	538.77
231.45	596.704
234.343	500.032
237.236	483.616
240.128	334.895
243.021	244.431
245.914	71.1211
248.806	32.5308
251.699	24.8208
254.592	62.9296
257.485	87.741
260.377	83.5166
263.27	123.504
266.163	82.1243
269.055	95.7443
271.948	44.2488
274.841	193.856
277.733	183.543
280.626	358.907
283.519	354.096
286.412	293.866
289.304	302.872
292.197	228.697
295.09	148.579
297.982	69.0184
300.875	60.6261
303.768	52.4601
306.661	41.1826
309.553	29.7434
312.446	11.92
315.339	64.7321
318.231	21.0934
321.124	30.224
324.017	64.0905
326.909	108.213
329.802	89.04
332.695	184.408
335.587	306.386
338.48	350.682
341.373	657.212
344.266	951.195
347.158	1080.96
350.051	737.296
352.944	431.99
355.836	199.673
358.729	76.9844
361.622	166.321
364.514	227.47
367.407	155.122
370.3	73.3915
373.193	95.0115
376.085	10.294
378.978	6.87585
381.871	16.3795
384.763	17.2489
387.656	38.6858
390.549	132.15
393.442	229.531
396.334	518.99
399.227	709.294
402.12	742.377
405.012	611.32
407.905	389.63
410.798	189.628
413.69	191.278
416.583	197
419.476	158.589
422.368	363.053
425.261	421.306
428.154	542.439
431.047	730.298
433.939	947.85
436.832	1406.62
439.725	2331.23
442.617	3619.02
445.51	4989.12
448.403	4965.76
451.296	2681.3
454.188	1091.91
457.081	459.679
459.974	209.537
462.866	271.825
465.759	195.935
468.652	112.274
471.544	2.23804
474.437	3.77429
477.33	55.1704
480.223	63.8588
483.115	171.758
486.008	481.087
488.901	688.435
491.793	973.212
494.686	1410.23
497.579	2091.08
500.471	2510.57
503.364	2648.71
506.257	2416.41
509.149	1754.58
512.042	1105
514.935	661.542
517.828	407.133
520.72	227.521
523.613	153.101
526.506	63.369
529.398	112.306
532.291	192.827
535.184	331.849
538.077	430.521
540.969	413.174
543.862	169.468
546.755	164.49
549.647	113.265
552.54	79.2404
555.433	76.8668
558.325	21.8689
561.218	2.3042
564.111	36.3281
567.004	76.2635
569.896	0.994385
572.789	65.5664
575.682	61.4665
578.574	35.7245
581.467	37.3408
584.36	6.73901
587.252	55.068
590.145	44.3727
593.038	96.9852
595.931	30.7601
598.823	49.7865
601.716	64.619
604.609	72.578
607.501	4.73193
610.394	135.721
613.287	41.2082
616.179	17.2554
619.072	139.227
621.965	211.139
624.857	310.414
627.75	345.884
630.643	552.962
633.536	474.857
636.428	437.07
639.321	307.645
642.214	270.393
645.106	277.687
647.999	182.26
650.892	276.306
653.784	302.898
656.677	319.199
659.57	212.004
662.463	374.026
665.355	462.619
668.248	688.415
671.141	907.12
674.033	1250.92
676.926	1317.65
679.819	1094.47
682.712	714.289
685.604	461.594
688.497	219.816
691.39	77.6397
694.282	57.58
697.175	44.6749
700.068	71.8151
702.96	28.1556
705.853	18.7222
708.746	20.8245
711.639	14.8884
714.531	2.61255
717.424	119.767
720.317	89.9794
723.209	106.71
726.102	101.865
728.995	112.327
731.887	213.401
734.78	72.1482
737.673	180.47
740.566	173.847
743.458	111.54
746.351	47.1163
749.244	16.2463
752.136	101.495
755.029	104.862
757.922	173.628
760.814	116.411
763.707	100.339
766.6	46.2648
769.492	10.7183
772.385	1.46674
775.278	61.615
778.171	38.4504
781.063	27.3812
783.956	116.193
786.849	17.4957
789.741	58.805
792.634	83.4439
795.527	72.7537
798.419	58.3336
801.312	13.8158
804.205	39.4249
807.098	34.0554
809.99	76.3683
812.883	83.2588
815.776	114.709
818.668	42.7427
821.561	63.4664
824.454	69.1
827.346	11.0737
830.239	64.7548
833.132	100.857
836.024	75.3942
838.917	2.93622
841.81	141.198
844.703	81.4515
847.595	1.14856
850.488	139.003
853.381	105.872
856.273	114.042
859.166	28.9382
862.059	80.6028
864.952	51.1179
867.844	131.845
870.737	67.4109
873.63	85.8335
876.522	77.7694
879.415	73.6303
882.308	65.0861
885.2	14.1227
888.093	119.642
890.986	5.25067
893.879	86.2729
896.771	188.243
899.664	118.504
902.557	35.5315
905.449	89.9611
908.342	144.115
911.235	234.774
914.127	222.284
917.02	187.884
919.913	195.588
922.806	144.489
925.698	259.002
928.591	148.062
931.484	151.501
934.376	171.746
937.269	222.328
940.162	207.527
943.054	199.115
945.947	210.015
948.84	225.817
951.732	205.925
954.625	126.536
957.518	95.4922
960.411	23.7447
963.303	52.1633
966.196	12.605
969.089	82.5291
971.981	80.5059
974.874	61.8066
977.767	9.7196
980.659	10.2492
983.552	17.3271
986.445	111.336
989.338	67.7328
992.23	11.2176
995.123	118.078
998.016	375.885
1000.91	354.068
1003.8	541.219
1006.69	535.408
1009.59	526.385
1012.48	371.821
1015.37	348.709
1018.26	262.07
1021.16	123.826
1024.05	134.594
1026.94	165.761
1029.84	62.7547
1032.73	190.237
1035.62	86.4377
1038.51	47.606
1041.41	18.5339
1044.3	142.12
1047.19	48.3068
1050.08	127.83
1052.98	87.6626
1055.87	68.6119
1058.76	52.1523
1061.65	16.5793
1064.55	18.965
1067.44	135.868
1070.33	145.582
1073.23	222.648
1076.12	209.519
1079.01	292.1
1081.9	336.601
1084.8	194.959
1087.69	389.565
1090.58	372.488
1093.47	228.148
1096.37	435.457
1099.26	426.798
1102.15	410.635
1105.05	332.739
1107.94	151.936
1110.83	221.239
1113.72	144.183
1116.62	40.2488
1119.51	11.5432
1122.4	47.3105
1125.3	132.753
1128.19	45.75
1131.08	119.083
1133.97	98.1351
1136.87	19.0249
1139.76	72.6656
1142.65	220.425
1145.54	103.611
1148.44	47.826
1151.33	83.0468
1154.22	126.27
1157.11	183.42
1160.01	81.2733
1162.9	76.2534
1165.79	95.4388
1168.68	43.1296
1171.58	11.443
1174.47	11.6988
1177.36	34.4141
1180.26	12.4424
1183.15	79.5337
1186.04	3.85376
1188.93	46.236
1191.83	86.7191
1194.72	38.7454
1197.61	85.4101
1200.51	144.71
1203.4	168.321
1206.29	168.127
1209.18	92.6997
1212.08	109.522
1214.97	149.132
1217.86	45.5707
1220.75	94.3996
1223.65	34.3347
1226.54	9.1554
1229.43	93.5179
1232.32	58.9774
1235.22	13.1086
1238.11	73.7164
1241	143.181
1243.89	104.469
1246.79	116.294
1249.68	109.542
1252.57	79.7269
1255.47	106.068
1258.36	64.29
1261.25	94.2593
1264.14	7.94214
1267.04	51.2206
1269.93	221.91
1272.82	0
