Measurement: Raman, 532 nm, unoriented, Raman Data Processed
Mineral: Bavsiite
Rruff sample: R150042
Ideal chemistry: Ba_2_V^4+^_2_O_2_[Si_4_O_12_]
Locality: Gun Claim, Yukon Territory, Canada
Source: Gunnar Farber
Description: Isolated aggregates of blueish crystals with good cleavage, associated with pale grey walstromite, pellyite, diopside, benitoite, suzukiite (R150039) and celsian
Raman shift (cm-1)	intensity
89.7832	0
93.158	24.5021
96.5328	5.5058
99.9077	15.0711
103.282	8.55969
106.657	83.9739
110.032	163.871
113.407	94.6043
116.782	45.655
120.157	4.71735
123.531	22.6035
126.906	59.7015
130.281	127.015
133.656	252.795
137.031	331.128
140.405	195.898
143.78	126.564
147.155	177.715
150.53	292.554
153.905	440.838
157.28	493.563
160.654	588.12
164.029	760.041
167.404	1037.08
170.779	1075.28
174.154	823.76
177.528	493.354
180.903	234.486
184.278	106.603
187.653	68.5431
191.028	73.5365
194.403	126.193
197.777	145.846
201.152	48.7285
204.527	4.48865
207.902	15.6067
211.277	11.6321
214.651	9.34436
218.026	39.0804
221.401	75.3704
224.776	112.697
228.151	129.585
231.525	175.547
234.9	257.363
238.275	381.464
241.65	536.312
245.025	691.495
248.4	738.46
251.774	608.915
255.149	477.261
258.524	382.927
261.899	270.856
265.274	167.858
268.649	112.215
272.023	102.963
275.398	132.77
278.773	171.576
282.148	216.688
285.523	306.618
288.897	444.727
292.272	492.079
295.647	357.188
299.022	287.181
302.397	302.04
305.772	311.613
309.146	231.466
312.521	121.96
315.896	59.3153
319.271	25.6745
322.646	10.0344
326.02	1.78296
329.395	5.27808
332.77	6.41513
336.145	3.59842
339.52	0.917847
342.894	7.93451
346.269	19.746
349.644	31.4699
353.019	50.5229
356.394	60.8882
359.769	59.7672
363.143	48.1739
366.518	50.227
369.893	62.5474
373.268	90.4639
376.643	136.921
380.017	198.222
383.392	238.748
386.767	213.72
390.142	144.939
393.517	72.0033
396.892	23.7318
400.266	1.68073
403.641	9.63333
407.016	7.96155
410.391	8.88858
413.766	20.259
417.14	20.6434
420.515	32.3906
423.89	54.8341
427.265	102.366
430.64	118.719
434.014	84.3039
437.389	61.2592
440.764	64.4413
444.139	61.5117
447.514	40.2135
450.889	28.3195
454.263	40.5053
457.638	80.6834
461.013	132.937
464.388	169.895
467.763	147.121
471.137	114.203
474.512	79.8093
477.887	44.1857
481.262	35.6265
484.637	55.5149
488.012	82.8246
491.386	163.569
494.761	312.84
498.136	491.272
501.511	745.185
504.886	1114.74
508.26	1425.59
511.635	1184.2
515.01	612.299
518.385	281.727
521.76	132.435
525.135	65.9868
528.509	29.0585
531.884	7.64084
535.259	2.33273
538.634	5.87903
542.009	3.57376
545.384	8.21457
548.758	20.4857
552.133	36.9235
555.508	47.5027
558.883	33.7965
562.258	13.7817
565.632	2.70505
569.007	1.81973
572.382	1.32343
575.757	15.7029
579.132	33.4387
582.506	60.7934
585.881	87.8089
589.256	116.001
592.631	127.649
596.006	105.126
599.381	68.098
602.755	40.2311
606.13	22.3215
609.505	16.8842
612.88	13.7341
616.255	9.98282
619.63	8.84274
623.004	5.79605
626.379	0.814087
629.754	2.02719
633.129	0.932617
636.504	2.95847
639.878	1.94797
643.253	0.020111
646.628	5.9808
650.003	15.6639
653.378	12.3129
656.752	6.36529
660.127	6.82507
663.502	16.9485
666.877	24.3958
670.252	36.0983
673.626	60.3821
677.001	89.8763
680.376	122.134
683.751	139.69
687.126	130.559
690.501	112.585
693.875	71.1686
697.25	43.1153
700.625	38.1512
704	31.0779
707.375	40.8862
710.75	50.7079
714.124	58.1774
717.499	55.1688
720.874	47.9965
724.249	48.2028
727.624	46.8319
730.998	37.7939
734.373	34.7969
737.748	38.8691
741.123	44.9185
744.498	65.1469
747.872	90.19
751.247	108.605
754.622	88.2667
757.997	55.4855
761.372	32.478
764.747	20.8295
768.121	12.0983
771.496	12.1969
774.871	11.5631
778.246	11.2443
781.621	15.5403
784.995	14.0395
788.37	11.4211
791.745	7.23291
795.12	3.88501
798.495	1.6308
801.87	1.81561
805.244	6.02286
808.619	5.35001
811.994	2.63702
815.369	1.49643
818.744	2.37802
822.119	3.68253
825.493	2.17157
828.868	2.88458
832.243	5.13123
835.618	3.46539
838.993	3.77753
842.367	2.03815
845.742	7.15228
849.117	7.84686
852.492	12.0671
855.867	14.0286
859.241	16.34
862.616	10.2267
865.991	6.75049
869.366	0.826294
872.741	0.534302
876.115	2.05389
879.49	1.60504
882.865	2.41205
886.24	8.47998
889.615	21.0641
892.99	30.4656
896.364	34.0126
899.739	21.4229
903.114	8.04273
906.489	2.7099
909.864	8.30139
913.239	6.20294
916.613	1.87439
919.988	3.76965
923.363	11.8914
926.738	29.553
930.113	48.2283
933.487	81.5411
936.862	108.513
940.237	136.372
943.612	171.475
946.987	227.643
950.361	299.347
953.736	389.599
957.111	460.687
960.486	510.728
963.861	563.216
967.236	676.581
970.61	849.792
973.985	1022.04
977.36	1121.28
980.735	1035.84
984.11	791.54
987.485	539.963
990.859	332.477
994.234	208.304
997.609	140.683
1000.98	107.67
1004.36	96.5566
1007.73	105.689
1011.11	131.119
1014.48	174.476
1017.86	227.269
1021.23	291.821
1024.61	412.901
1027.98	416.294
1031.36	208.597
1034.73	80.9841
1038.11	36.9821
1041.48	11.9398
1044.86	1.07819
1048.23	0.898376
1051.61	33.9053
1054.98	57.5269
1058.36	185.179
1061.73	301.484
1065.11	25.9957
1068.48	1.87405
1071.86	4.7699
1075.23	6.07327
1078.6	3.52911
1081.98	0.811554
1085.35	10.6161
1088.73	15.7312
1092.1	16.5478
1095.48	24.5617
1098.85	25.9297
1102.23	22.3556
1105.6	21.6905
1108.98	17.76
1112.35	13.9013
1115.73	15.0594
1119.1	16.2274
1122.48	12.8396
1125.85	13.804
1129.23	8.96384
1132.6	7.51172
1135.98	2.5665
1139.35	2.03839
1142.73	1.4834
1146.1	0.016724
1149.48	1.52862
1152.85	0.355988
1156.22	3.07956
1159.6	1.62326
1162.97	0.916382
1166.35	1.34302
1169.72	3.77591
1173.1	1.27664
1176.47	3.31213
1179.85	2.15201
1183.22	4.80057
1186.6	7.15454
1189.97	5.43167
1193.35	4.05399
1196.72	3.34308
1200.1	4.92697
1203.47	3.40588
1206.85	1.36008
1210.22	3.76053
1213.6	1.08417
1216.97	1.15286
1220.35	2.18085
1223.72	1.17862
1227.1	4.0628
1230.47	2.19949
1233.85	4.24191
1237.22	0.141449
1240.6	1.54065
1243.97	4.81357
1247.35	1.41867
1250.72	1.96289
1254.1	0.810608
1257.47	0.746429
1260.85	0.321838
1264.22	3.30215
1267.59	1.20309
1270.97	1.51291
1274.34	3.41391
1277.72	1.22662
1281.09	0.691925
1284.47	4.62595
1287.84	1.36273
1291.22	2.29428
1294.59	5.05167
1297.97	1.21594
1301.34	0.421021
