Measurement: Raman, 780 nm, unoriented, Raman Data Processed
Mineral: Bavsiite
Rruff sample: R150042
Ideal chemistry: Ba_2_V^4+^_2_O_2_[Si_4_O_12_]
Locality: Gun Claim, Yukon Territory, Canada
Source: Gunnar Farber
Description: Isolated aggregates of blueish crystals with good cleavage, associated with pale grey walstromite, pellyite, diopside, benitoite, suzukiite (R150039) and celsian
Raman shift (cm-1)	intensity
104.577	0
107.952	53.999
111.327	89.2643
114.701	82.0703
118.076	31.3336
121.451	4.75385
124.826	12.0334
128.201	34.7908
131.576	91.5282
134.95	188.159
138.325	193.863
141.7	80.1379
145.075	42.0524
148.45	79.5909
151.825	148.633
155.199	202.572
158.574	184.437
161.949	210.289
165.324	289.525
168.698	415.887
172.073	367.472
175.448	210.296
178.823	103.108
182.198	37.432
185.573	3.64053
188.947	0.755646
192.322	12.7662
195.697	46.8677
199.072	62.5663
202.447	20.8781
205.821	2.94919
209.196	6.02127
212.571	0.523438
215.946	10.5773
219.321	22.2559
222.696	37.2756
226.07	46.5574
229.445	45.2973
232.82	52.382
236.195	69.7883
239.57	100.207
242.945	139.54
246.319	182.093
249.694	197.388
253.069	164.877
256.444	135.365
259.818	113.169
263.193	80.7912
266.568	46.7265
269.943	29.218
273.318	19.7632
276.693	19.5177
280.067	25.1135
283.442	30.4296
286.817	42.7407
290.192	61.7449
293.567	67.6091
296.942	62.3279
300.316	68.3997
303.691	87.5788
307.066	97.6215
310.441	71.8472
313.816	39.1359
317.19	18.3035
320.565	9.74672
323.94	6.07735
327.315	1.19354
330.69	0.751236
334.065	3.14914
337.439	1.00703
340.814	2.88635
344.189	1.144
347.564	2.31441
350.938	4.93304
354.313	11.0324
357.688	15.2219
361.063	15.2641
364.438	8.36398
367.813	7.24982
371.187	5.75458
374.562	9.77765
377.937	17.7716
381.312	25.985
384.687	34.0877
388.062	35.9518
391.436	34.6816
394.811	29.8056
398.186	23.4474
401.561	18.2448
404.935	15.0521
408.31	15.4522
411.685	14.0387
415.06	11.206
418.435	10.088
421.81	7.02449
425.184	13.8049
428.559	26.9318
431.934	30.7392
435.309	19.0469
438.684	7.47217
442.058	3.3472
445.433	1.70216
448.808	3.04453
452.183	0.889511
455.558	5.95041
458.933	20.3603
462.307	38.3794
465.682	53.7148
469.057	42.2433
472.432	30.2287
475.807	20.5926
479.182	6.36209
482.556	2.78882
485.931	4.86275
489.306	13.6791
492.681	31.4518
496.055	56.7029
499.43	91.1356
502.805	150.641
506.18	244.69
509.555	341.317
512.93	293.306
516.304	155.049
519.679	74.473
523.054	39.0112
526.429	22.3464
529.804	13.6191
533.178	5.58865
536.553	1.16046
539.928	2.15852
543.303	1.16452
546.678	0.476135
550.053	4.41609
553.427	9.39931
556.802	12.7059
560.177	8.92929
563.552	4.10083
566.927	0.452942
570.302	1.28651
573.676	0.30249
577.051	2.83958
580.426	3.0062
583.801	4.22157
587.176	7.94562
590.55	9.74155
593.925	12.3666
597.3	12.4024
600.675	8.53303
604.05	5.36742
607.424	4.08912
610.799	1.03359
614.174	1.92368
617.549	1.8429
620.924	3.42098
624.298	2.48759
627.673	0.88443
631.048	0.895302
634.423	1.1234
637.798	0.370941
641.173	0.683945
644.547	0.754913
647.922	3.30923
651.297	3.71086
654.672	3.67469
658.047	3.29002
661.421	4.27653
664.796	5.18971
668.171	5.80238
671.546	7.94338
674.921	14.7573
678.295	19.4928
681.67	25.4548
685.045	31.1574
688.42	30.9829
691.795	33.8414
695.17	20.6923
698.544	10.3645
701.919	8.77245
705.294	6.31853
708.669	5.47204
712.044	10.0901
715.418	10.7855
718.793	10.7935
722.168	8.1562
725.543	7.36794
728.918	7.40945
732.293	4.70818
735.667	5.11027
739.042	2.40909
742.417	5.07856
745.792	7.9266
749.167	12.2975
752.541	15.0083
755.916	13.4519
759.291	6.96265
762.666	2.73629
766.041	0.503593
769.415	0.820778
772.79	0.427452
776.165	0.022018
779.54	0.259682
782.915	1.3908
786.29	3.42653
789.664	3.37569
793.039	1.4917
796.414	0.139397
799.789	1.78149
803.164	0.513016
806.538	0.790382
809.913	0.756927
813.288	0.720428
816.663	0.879654
820.038	2.0451
823.413	0.760887
826.787	2.74994
830.162	2.64871
833.537	3.75992
836.912	3.6611
840.287	2.95658
843.661	5.12617
847.036	4.62405
850.411	5.61165
853.786	6.66481
857.161	6.1099
860.535	5.54779
863.91	4.26782
867.285	3.35159
870.66	2.43475
874.035	3.12189
877.409	0.871353
880.784	2.02965
884.159	1.92418
887.534	1.09892
890.909	2.12194
894.284	0.780235
897.658	0.702225
901.033	0.967018
904.408	0.423721
907.783	1.09055
911.158	0.627945
914.533	0.033417
917.907	0.694107
921.282	0.360855
924.657	0.354584
928.032	2.90791
931.407	5.14053
934.781	8.74127
938.156	10.7266
941.531	13.3131
944.906	13.3816
948.281	18.6104
951.655	22.7562
955.03	30.7482
958.405	36.7503
961.78	39.4815
965.155	48.5353
968.529	59.7866
971.904	77.859
975.279	93.6484
978.654	99.6442
982.029	94.4343
985.404	74.9362
988.778	55.7708
992.153	33.5604
995.528	21.1511
998.903	13.9373
1002.28	12.8392
1005.65	11.2312
1009.03	11.2533
1012.4	16.0014
1015.78	21.7929
1019.15	22.4936
1022.53	29.4121
1025.9	36.9112
1029.28	37.3058
1032.65	16.455
1036.03	7.29896
1039.4	3.58797
1042.78	0.791931
1046.15	0.570618
1049.53	5.94072
1052.9	10.3401
1056.28	26.8047
1059.65	75.9698
1063.02	98.9773
1066.4	9.9006
1069.77	0.788452
1073.15	0.153992
1076.52	0.075943
1079.9	1.25764
1083.27	0.500778
1086.65	2.23627
1090.02	1.89943
1093.4	1.8988
1096.77	1.27774
1100.15	0.042999
1103.52	1.00929
1106.9	1.10156
1110.27	1.23248
1113.65	0.750565
1117.02	2.4012
1120.4	1.5573
1123.77	2.35019
1127.15	4.19713
1130.52	8.87608
1133.9	11.1754
1137.27	14.0596
1140.64	18.1702
1144.02	24.0849
1147.39	30.4988
1150.77	37.5209
1154.14	48.8967
1157.52	62.5666
1160.89	74.2218
1164.27	82.9383
1167.64	91.8553
1171.02	96.057
1174.39	94.7115
1177.77	86.1361
1181.14	74.0302
1184.52	57.9885
1187.89	46.1302
1191.27	33.2004
1194.64	25.0927
1198.02	19.7336
1201.39	18.4744
1204.77	11.2082
1208.14	9.4968
1211.52	8.08957
1214.89	5.04475
1218.27	3.68359
1221.64	1.9147
1225.02	0.359879
1228.39	0.57579
1231.77	1.16
1235.14	1.57237
1238.52	0.607758
1241.89	2.74155
1245.26	3.53033
1248.64	5.98685
1252.01	7.33261
1255.39	9.69421
1258.76	10.6559
1262.14	11.2047
1265.51	11.8956
1268.89	9.83783
1272.26	8.79327
1275.64	6.40344
1279.01	3.56186
1282.39	0.431335
