Measurement: Raman, 532 nm, unoriented, Raman Data Processed
Mineral: Bayldonite
Rruff sample: R050670
Ideal chemistry: Cu^2+^_3_Pb^2+^O(As^5+^O_3_OH)_2_(OH)_2_
Locality: Tsumeb mine, Tsumeb, Otavi District, Oshikoto, Namibia
Source: University of Arizona Mineral Museum
Description: Green botryoidal coating asociated with olivenite R050670, malachite balls and azurite
Measured chemistry: Pb_1.00_Cu_3.00_O(As_1.00_O_3_OH)_2_(OH)_2_
Raman shift (cm-1)	intensity
150.046	0
152.939	9.66974
155.832	25.9446
158.724	41.9859
161.617	67.7363
164.51	87.5002
167.403	104.429
170.295	109.213
173.188	107.374
176.081	97.4977
178.973	77.1459
181.866	46.5886
184.759	25.1031
187.651	11.5129
190.544	9.57935
193.437	3.09311
196.329	1.00736
199.222	2.05649
202.115	3.25815
205.008	3.77786
207.9	1.94589
210.793	0.597382
213.686	3.82458
216.578	8.26486
219.471	10.7968
222.364	13.8686
225.256	17.7189
228.149	19.9563
231.042	19.2913
233.935	17.6708
236.827	14.0262
239.72	10.0995
242.613	8.93722
245.505	7.07687
248.398	8.90396
251.291	7.10803
254.184	8.66611
257.076	5.79352
259.969	4.31445
262.862	2.35767
265.754	3.3193
268.647	5.11975
271.54	2.08221
274.433	6.80182
277.325	11.2322
280.218	13.5138
283.111	16.9005
286.003	23.8228
288.896	38.4327
291.789	44.4632
294.681	57.2761
297.574	75.5776
300.467	95.5006
303.36	119.721
306.252	145.983
309.145	173.187
312.038	193.627
314.93	193.826
317.823	180.473
320.716	160.957
323.608	153.207
326.501	147.618
329.394	132.014
332.287	103.91
335.179	75.0826
338.072	51.262
340.965	33.5244
343.857	25.0228
346.75	16.0601
349.643	11.1585
352.536	7.8183
355.428	3.22238
358.321	0.221252
361.214	0.133789
364.106	0.08844
366.999	0.005707
369.892	0.270477
372.784	1.21845
375.677	1.29837
378.57	0.605072
381.462	0.62735
384.355	3.88922
387.248	4.79498
390.141	10.2063
393.033	11.0508
395.926	14.9705
398.819	15.5172
401.712	15.8893
404.604	15.4086
407.497	16.7866
410.39	20.8547
413.282	28.0328
416.175	36.37
419.068	46.7538
421.96	65.135
424.853	84.8988
427.746	86.3663
430.639	66.4291
433.531	37.9881
436.424	16.0706
439.317	9.36707
442.209	6.22311
445.102	1.44266
447.995	0.946808
450.887	0.539795
453.78	1.979
456.673	0.235474
459.566	0.334442
462.458	3.4903
465.351	3.21933
468.244	5.30865
471.136	6.27371
474.029	10.8382
476.922	15.4158
479.815	23.6652
482.707	31.8558
485.6	38.5346
488.493	48.9597
491.385	55.109
494.278	62.0838
497.171	60.0273
500.063	52.1165
502.956	37.2727
505.849	23.4662
508.741	13.5043
511.634	7.92322
514.527	5.39224
517.42	3.11966
520.312	3.10535
523.205	0.684174
526.098	0.026917
528.99	2.48203
531.883	5.07135
534.776	5.40979
537.669	6.90579
540.561	8.54068
543.454	7.01132
546.347	4.64371
549.239	2.28805
552.132	1.30774
555.025	2.19107
557.918	1.94836
560.81	1.14365
563.703	0.45636
566.596	0.54483
569.488	0.163452
572.381	2.96277
575.274	0.304413
578.166	1.50644
581.059	1.18433
583.952	2.86649
586.845	2.23148
589.737	1.92352
592.63	2.96991
595.523	4.13452
598.415	1.89755
601.308	4.7124
604.201	3.21533
607.093	4.42129
609.986	4.71905
612.879	2.5882
615.771	2.17523
618.664	1.79633
621.557	4.62524
624.45	3.84082
627.342	2.52264
630.235	5.16974
633.128	8.4429
636.02	7.44763
638.913	6.84903
641.806	7.56659
644.699	5.45297
647.591	6.80127
650.484	3.92709
653.377	4.38388
656.269	4.38327
659.162	4.81992
662.055	5.09631
664.947	5.89807
667.84	3.16074
670.733	3.47714
673.626	3.96298
676.518	2.71915
679.411	1.91644
682.304	2.52356
685.197	0.487732
688.089	0.232452
690.982	0.517822
693.875	0.159912
696.767	1.20303
699.66	0.338989
702.553	0.299225
705.445	0.340607
708.338	1.02963
711.231	0.917542
714.124	2.5827
717.016	2.14447
719.909	3.3287
722.802	3.46619
725.694	0.88324
728.587	0.281494
731.48	2.11069
734.372	1.61987
737.265	0.097931
740.158	1.88892
743.051	7.41681
745.943	12.8982
748.836	18.6264
751.729	28.4254
754.621	37.7246
757.514	39.4432
760.407	37.7039
763.299	30.7769
766.192	24.6057
769.085	14.2783
771.977	4.70163
774.87	3.66617
777.763	2.02792
780.656	6.95731
783.548	13.9762
786.441	32.5204
789.334	65.6303
792.226	114.103
795.119	176.633
798.012	266.414
800.905	377.046
803.797	449.768
806.69	385.847
809.583	264.636
812.475	177.695
815.368	135.875
818.261	119.856
821.154	130.209
824.046	158.816
826.939	205.292
829.832	271.537
832.724	353.952
835.617	424.786
838.51	409.508
841.403	285.698
844.295	165.75
847.188	94.7721
850.081	54.3353
852.973	33.3795
855.866	20.0932
858.759	11.7786
861.651	6.35306
864.544	3.27454
867.437	0.780914
870.33	2.92624
873.222	1.03787
876.115	2.84
879.008	4.00458
881.9	8.32196
884.793	12.4734
887.686	15.6065
890.578	12.1167
893.471	7.07214
896.364	4.59164
899.256	0.690399
902.149	0.806152
905.042	0.322601
907.935	1.34073
910.827	1.37204
913.72	1.73636
916.613	1.70319
919.505	2.15872
922.398	2.05817
925.291	2.05576
928.184	0.219513
931.076	1.18137
933.969	1.73193
936.862	3.94751
939.754	4.47922
942.647	3.22321
945.54	6.03223
948.433	5.08929
951.325	4.66135
954.218	4.15271
957.111	5.22961
960.003	4.64209
962.896	5.62491
965.789	5.80673
968.682	3.75101
971.574	4.30978
974.467	2.33466
977.36	5.04523
980.252	4.73508
983.145	4.43845
986.038	5.88492
988.93	4.18521
991.823	3.21579
994.716	2.13089
997.609	3.23474
1000.5	4.46094
1003.39	2.99152
1006.29	1.51355
1009.18	2.8801
1012.07	2.55808
1014.97	2.28976
1017.86	1.05481
1020.75	1.58508
1023.64	0.010681
1026.54	2.85666
1029.43	0.311401
1032.32	3.70688
1035.21	2.88571
1038.11	2.45844
1041	3.24002
1043.89	4.35288
1046.78	4.61395
1049.68	4.3212
1052.57	2.15301
1055.46	2.3132
1058.36	6.95892
1061.25	3.95404
1064.14	5.05142
1067.03	3.34705
1069.93	3.99008
1072.82	3.88208
1075.71	1.88434
1078.6	0.189056
1081.5	1.1872
1084.39	0.843719
1087.28	0.838013
1090.17	1.73959
1093.07	3.08356
1095.96	0.714355
1098.85	0.553101
1101.75	3.32419
1104.64	3.01172
1107.53	1.19638
1110.42	1.9032
1113.32	2.48703
1116.21	3.66235
1119.1	0.596466
1121.99	0.62619
1124.89	2.53323
1127.78	2.65326
1130.67	1.66244
1133.57	2.16635
1136.46	1.01541
1139.35	1.80374
1142.24	2.03449
1145.14	0.381897
1148.03	-0.0128983
1150.92	0.395935
1153.81	1.03302
1156.71	0.240082
1159.6	0.950439
1162.49	1.29694
1165.38	1.97031
1168.28	2.15558
1171.17	3.19592
1174.06	4.09842
1176.96	4.28241
1179.85	0.519653
1182.74	0.575714
1185.63	2.98377
1188.53	2.3634
1191.42	0.822723
1194.31	2.74143
1197.2	1.75122
1200.1	2.86066
1202.99	1.87851
1205.88	3.64877
1208.78	4.28583
1211.67	0.786194
1214.56	1.30545
1217.45	2.53525
1220.35	1.55743
1223.24	1.20663
1226.13	1.50043
1229.03	1.37195
1231.92	3.42664
1234.81	2.39481
1237.7	2.43167
1240.6	2.31198
1243.49	0.710175
1246.38	2.92883
1249.27	2.51062
1252.17	1.96912
1255.06	1.44757
1257.95	1.94324
1260.84	1.29535
1263.74	1.56508
1266.63	0.27358
1269.52	1.37851
1272.41	0.243681
1275.31	-0.307997
1278.2	0.131746
1281.09	0.809265
1283.99	2.50446
1286.88	2.056
1289.77	1.72268
1292.66	1.81979
1295.56	2.59634
1298.45	2.17395
1301.34	0.088928
