Measurement: Raman, 532 nm, unoriented, Raman Data Processed
Mineral: Bayldonite
Rruff sample: R110033
Ideal chemistry: Cu^2+^_3_Pb^2+^O(As^5+^O_3_OH)_2_(OH)_2_
Locality: Tsumeb, Namibia
Source: William W Pinch
Description: Bright green tabular crystals associated with azurite, conichalcite, and wulfenite
Raman shift (cm-1)	intensity
157.024	0
159.917	89.7606
162.81	311.872
165.702	616.737
168.595	1074.26
171.488	1577.19
174.381	1882.17
177.273	1732.86
180.166	1165.6
183.059	699.297
185.951	406.241
188.844	242.684
191.737	164.67
194.629	86.0026
197.522	20.8314
200.415	16.5861
203.308	25.4293
206.2	8.61951
209.093	40.4518
211.986	74.6612
214.878	107.754
217.771	149.289
220.664	184.689
223.556	227.964
226.449	247.499
229.342	261.31
232.234	239.093
235.127	186.513
238.02	109.059
240.913	47.8107
243.805	6.29791
246.698	6.15021
249.591	19.0695
252.483	21.4056
255.376	11.8776
258.269	5.38861
261.161	2.47144
264.054	20.237
266.947	39.4946
269.84	74.2839
272.732	118.043
275.625	165.097
278.518	224.638
281.41	305.665
284.303	404.946
287.196	552.61
290.089	748.708
292.981	1028.47
295.874	1403.44
298.767	1908.16
301.659	2464.76
304.552	3003.67
307.445	3580.73
310.337	4204.57
313.23	4650.63
316.123	4561.21
319.015	3980.89
321.908	3463.86
324.801	3272.89
327.694	3188.77
330.586	2892.28
333.479	2275.09
336.372	1589.32
339.264	1030.77
342.157	674.44
345.05	439.837
347.942	295.517
350.835	194.453
353.728	128.103
356.621	82.7273
359.513	47.7998
362.406	26.7764
365.299	5.26147
368.191	4.84857
371.084	11.2654
373.977	6.51434
376.87	3.03662
379.762	8.14807
382.655	39.346
385.548	72.3613
388.44	126.338
391.333	172.217
394.226	218.261
397.118	286.805
400.011	357.082
402.904	419.382
405.796	471.873
408.689	523.809
411.582	693.568
414.475	985.217
417.367	1328.29
420.26	1782.01
423.153	2469.61
426.045	3255.26
428.938	3403.8
431.831	2302.34
434.724	1172.01
437.616	599.48
440.509	319.028
443.402	171.77
446.294	78.4459
449.187	37.1141
452.08	8.73016
454.972	4.25043
457.865	10.4904
460.758	12.9069
463.651	4.60791
466.543	12.1043
469.436	39.312
472.329	71.3377
475.221	126.452
478.114	198.835
481.007	293.479
483.899	405.918
486.792	521.695
489.685	608.676
492.577	644.273
495.47	685.338
498.363	666.171
501.256	528.692
504.148	326.225
507.041	176.325
509.934	80.1372
512.826	38.5876
515.719	8.10318
518.612	6.94132
521.505	16.0605
524.397	5.97894
527.29	21.9325
530.183	59.0508
533.075	93.9664
535.968	148.238
538.861	213.086
541.753	235.454
544.646	184.114
547.539	114.063
550.432	65.8413
553.324	45.5578
556.217	44.9641
559.11	35.7367
562.002	33.4163
564.895	32.846
567.788	31.4245
570.68	38.7474
573.573	40.3867
576.466	41.9965
579.359	49.7048
582.251	55.4359
585.144	62.3812
588.037	68.2952
590.929	74.858
593.822	83.304
596.715	89.4138
599.607	93.5232
602.5	92.169
605.393	89.6056
608.285	95.1737
611.178	97.4891
614.071	95.4226
616.964	101.371
619.856	111.695
622.749	115.406
625.642	126.716
628.534	138.831
631.427	155.25
634.32	173.861
637.212	194.515
640.105	206.601
642.998	194.535
645.891	183.364
648.783	172.596
651.676	161.177
654.569	146.617
657.461	132.967
660.354	116.16
663.247	101.646
666.139	83.7568
669.032	66.1458
671.925	51.4395
674.818	33.6747
677.71	24.2675
680.603	5.67157
683.496	6.08942
686.388	17.0844
689.281	29.6115
692.174	32.8949
695.067	42.4397
697.959	36.4283
700.852	35.4039
703.745	26.9876
706.637	7.4245
709.53	49.9535
712.423	114.406
715.315	187.823
718.208	259.917
721.101	297.06
723.994	301.131
726.886	227.129
729.779	146.327
732.672	84.4446
735.564	87.7889
738.457	158.906
741.35	348.584
744.242	690.039
747.135	1197.16
750.028	1852.34
752.92	2633.11
755.813	3281
758.706	3456.89
761.599	3135.75
764.491	2613.59
767.384	2036.41
770.277	1345.27
773.169	727.262
776.062	322.169
778.955	123.222
781.847	73.1223
784.74	219.214
787.633	655.762
790.526	1623.68
793.418	3462.29
796.311	5961.16
799.204	9240.38
802.096	13651.2
804.989	17257
807.882	15187.7
810.774	9748.51
813.667	6049.1
816.56	4039.4
819.453	3277.71
822.345	3344.42
825.238	4129.51
828.131	5509.56
831.023	7343.44
833.916	9744.73
836.809	11581.8
839.702	10026.2
842.594	5886.85
845.487	2982.76
848.38	1523.1
851.272	796.672
854.165	389.067
857.058	174.297
859.95	53.395
862.843	26.0692
865.736	58.1743
868.629	66.2424
871.521	30.0304
874.414	47.2399
877.307	169.673
880.199	333.642
883.092	527.172
885.985	705.754
888.877	799.496
891.77	700.317
894.663	438.076
897.556	206.918
900.448	53.4349
903.341	15.3452
906.234	30.7668
909.126	33.257
912.019	11.7544
914.912	13.4938
917.804	39.7198
920.697	78.1015
923.59	101.84
926.482	125.237
929.375	146.134
932.268	173.808
935.161	189.48
938.053	161.681
940.946	119.144
943.839	83.2568
946.731	71.3109
949.624	65.8481
952.517	72.5677
955.409	73.8297
958.302	79.7048
961.195	78.2221
964.088	69.1127
966.98	51.1791
969.873	35.3336
972.766	22.1199
975.658	18.5714
978.551	20.7343
981.444	29.2808
984.337	37.2703
987.229	40.7824
990.122	49.6505
993.015	52.6371
995.907	58.116
998.8	54.8614
1001.69	53.6207
1004.59	43.7988
1007.48	41.122
1010.37	26.2386
1013.26	18.3164
1016.16	9.6619
1019.05	6.09894
1021.94	0.905518
1024.83	0.240662
1027.73	1.97958
1030.62	3.02805
1033.51	9.98679
1036.4	27.1322
1039.3	43.294
1042.19	64.3477
1045.08	72.6473
1047.98	86.1443
1050.87	67.5678
1053.76	48.8305
1056.65	33.3088
1059.55	18.3515
1062.44	7.32199
1065.33	7.52567
1068.22	5.93228
1071.12	4.23349
1074.01	12.19
1076.9	11.1719
1079.8	20.8692
1082.69	20.9425
1085.58	22.1443
1088.47	20.5505
1091.37	20.6452
1094.26	21.9072
1097.15	24.823
1100.04	29.5244
1102.94	39.5664
1105.83	51.3791
1108.72	60.1665
1111.62	68.7304
1114.51	59.0918
1117.4	41.3592
1120.29	24.4201
1123.19	12.4435
1126.08	6.28424
1128.97	4.22665
1131.86	1.61675
1134.76	1.94266
1137.65	3.36934
1140.54	6.36693
1143.43	4.44183
1146.33	6.27818
1149.22	1.71692
1152.11	6.66624
1155.01	9.05014
1157.9	10.8686
1160.79	10.2995
1163.68	7.6929
1166.58	7.80934
1169.47	10.6723
1172.36	16.9004
1175.26	20.656
1178.15	25.5385
1181.04	30.2285
1183.93	40.0542
1186.83	38.6784
1189.72	36.4569
1192.61	23.7041
1195.5	10.6276
1198.4	9.15364
1201.29	5.03993
1204.18	6.79045
1207.07	0.491745
1209.97	5.68956
1212.86	11.4465
1215.75	13.2075
1218.64	18.1136
1221.54	23.755
1224.43	32.0211
1227.32	33.7598
1230.22	32.8242
1233.11	30.9472
1236	31.7026
1238.89	31.5357
1241.79	30.2928
1244.68	30.1845
1247.57	32.835
1250.46	32.8653
1253.36	33.3214
1256.25	30.7598
1259.14	22.4011
1262.04	23.2961
1264.93	16.7581
1267.82	11.2611
1270.71	6.49516
1273.61	3.76009
1276.5	2.8503
1279.39	0.479645
1282.29	3.40793
1285.18	5.43068
1288.07	2.93063
1290.96	3.18266
1293.86	4.12428
1296.75	4.75534
1299.64	0.335724
1302.53	0.78186
