Measurement: Raman, 532 nm, unoriented, Raman Data Processed
Mineral: Bazhenovite
Rruff sample: R130224
Ideal chemistry: Ca_8_S_5_(S_2_O_3_)(OH)_12_20H_2_O
Locality: Korkino, Chelyabinsk coal basin, S. Urals, Russia
Source: Rock Currier
Raman shift (cm-1)	intensity
176.143	0
179.035	0.02433
181.928	2.90248
184.821	9.13394
187.713	17.0785
190.606	22.2488
193.499	27.0756
196.392	36.6441
199.284	53.3969
202.177	71.7144
205.07	80.6803
207.962	92.5907
210.855	121.22
213.748	186.43
216.64	258.832
219.533	271.22
222.426	79.9783
225.319	46.9876
228.211	42.0744
231.104	39.018
233.997	40.4984
236.889	40.6217
239.782	40.3184
242.675	45.5733
245.567	45.9419
248.46	37.8337
251.353	25.1743
254.245	20.8652
257.138	21.6463
260.031	19.4601
262.924	15.5812
265.816	14.6713
268.709	10.2699
271.602	8.5011
274.494	7.01732
277.387	4.88509
280.28	2.75624
283.173	1.6476
286.065	1.10016
288.958	1.526
291.851	1.34112
294.743	0.152328
297.636	0.429688
300.529	0.620453
303.421	0.655243
306.314	2.19354
309.207	0.318863
312.099	0.796432
314.992	0.967148
317.885	1.33637
320.778	0.327377
323.67	0.738434
326.563	2.41583
329.456	1.16113
332.348	1.6109
335.241	1.77687
338.134	2.08148
341.027	3.1393
343.919	2.32718
346.812	5.59067
349.705	0.840897
352.597	2.05705
355.49	0.532623
358.383	0.363586
361.276	0.916367
364.168	0.435989
367.061	1.10702
369.954	0.245239
372.846	0.546799
375.739	0.868011
378.632	0.933578
381.524	1.52562
384.417	0.796387
387.31	0.211395
390.202	0.469666
393.095	0.748901
395.988	0.469574
398.881	2.15369
401.773	4.25934
404.666	5.19839
407.559	8.28134
410.451	10.3354
413.344	13.2364
416.237	16.8066
419.13	22.1467
422.022	29.6811
424.915	35.6107
427.808	44.1402
430.7	48.385
433.593	53.7394
436.486	56.134
439.378	54.5236
442.271	45.2886
445.164	39.8648
448.057	36.6924
450.949	40.1274
453.842	42.6368
456.735	54.6472
459.627	73.5677
462.52	93.0683
465.413	126.213
468.305	174.746
471.198	217.136
474.091	187.79
476.983	99.7369
479.876	67.1423
482.769	62.1943
485.662	66.3161
488.554	68.0868
491.447	65.5332
494.34	54.2864
497.232	41.9635
500.125	31.5166
503.018	24.9569
505.911	22.7261
508.803	24.7017
511.696	32.8373
514.589	44.5952
517.481	54.7704
520.374	62.8652
523.267	56.8964
526.159	47.6505
529.052	41.927
531.945	31.3096
534.837	23.7532
537.73	13.7711
540.623	6.37245
543.516	2.24475
546.408	0.101257
549.301	0.019821
552.194	0.775818
555.086	1.78386
557.979	0.078308
560.872	1.82712
563.764	0.635971
566.657	0.622162
569.55	0.442947
572.443	0.527451
575.335	1.02898
578.228	1.44472
581.121	2.20732
584.013	1.38539
586.906	1.75322
589.799	1.47884
592.692	2.04103
595.584	2.21385
598.477	2.73541
601.37	3.05
604.262	3.15321
607.155	3.67604
610.048	4.1465
612.94	4.89847
615.833	4.50314
618.726	4.25191
621.619	5.16392
624.511	6.39581
627.404	4.65338
630.297	6.20805
633.189	8.99478
636.082	12.6408
638.975	16.5509
641.867	21.7673
644.76	27.2716
647.653	34.4871
650.545	37.8477
653.438	36.8814
656.331	28.8388
659.224	18.9573
662.116	11.871
665.009	8.66347
667.902	7.3116
670.794	5.92287
673.687	4.08964
676.58	5.56329
679.472	2.43706
682.365	3.34671
685.258	3.79277
688.151	4.11519
691.043	3.84694
693.936	3.13413
696.829	3.01013
699.721	2.70555
702.614	0.769394
705.507	0.072479
708.399	2.18547
711.292	0.755524
714.185	1.95514
717.078	2.34839
719.97	4.69574
722.863	5.33435
725.756	3.07553
728.648	3.55895
731.541	0.076553
734.434	0.808838
737.327	1.31172
740.219	0.66008
743.112	0.29303
746.005	0.857498
748.897	0.672684
751.79	0.779724
754.683	0.445114
757.575	0.148773
760.468	0.316498
763.361	0.867661
766.254	0.812515
769.146	0.332047
772.039	1.37428
774.932	0.201874
777.824	1.34724
780.717	0.603806
783.61	0.371964
786.502	0.27034
789.395	1.08893
792.288	1.69083
795.181	0.780609
798.073	1.48755
800.966	1.93483
803.859	4.8302
806.751	2.12544
809.644	2.13312
812.537	2.17757
815.429	1.9964
818.322	2.28952
821.215	3.12135
824.107	2.90945
827	3.73219
829.893	2.883
832.786	2.9091
835.678	3.30067
838.571	4.04781
841.464	4.51009
844.356	5.04099
847.249	4.76736
850.142	5.51733
853.034	5.38995
855.927	6.86087
858.82	5.75029
861.713	6.51962
864.605	5.42
867.498	4.95801
870.391	4.34071
873.283	5.06979
876.176	3.32259
879.069	4.10706
881.962	2.27844
884.854	0.526642
887.747	0.029572
890.64	0.422211
893.532	0.077744
896.425	0.073135
899.318	1.11275
902.21	1.11069
905.103	0.415558
907.996	0.739792
910.889	0.346985
913.781	1.28998
916.674	0.502045
919.567	0.01709
922.459	1.13731
925.352	2.11467
928.245	5.56174
931.137	5.99071
934.03	9.89613
936.923	12.3393
939.816	16.8005
942.708	22.0793
945.601	28.142
948.494	37.7026
951.386	47.8971
954.279	59.9028
957.172	84.2753
960.064	103.537
962.957	129.291
965.85	160.895
968.742	180.891
971.635	194.363
974.528	196.499
977.421	190.541
980.313	187.215
983.206	181.381
986.099	177.319
988.991	177.298
991.884	188.676
994.777	228.766
997.669	279.503
1000.56	352.279
1003.46	393.636
1006.35	351.814
1009.24	258.749
1012.13	179.125
1015.03	124.481
1017.92	87.6926
1020.81	63.2497
1023.7	44.9107
1026.6	29.3258
1029.49	20.9441
1032.38	14.7598
1035.28	9.3275
1038.17	5.63915
1041.06	5.18546
1043.95	2.94096
1046.85	0.911102
1049.74	1.23673
1052.63	1.38693
1055.52	0.676819
1058.42	0.021988
1061.31	0.49736
1064.2	1.02389
1067.09	0.441223
1069.99	0.23996
1072.88	0.220001
1075.77	1.39456
1078.66	5.72862
1081.56	10.872
1084.45	18.5352
1087.34	28.0404
1090.24	38.6333
1093.13	49.9887
1096.02	47.69
1098.91	34.1683
1101.81	16.0262
1104.7	7.22006
1107.59	4.05554
1110.48	2.91246
1113.38	1.94298
1116.27	1.14571
1119.16	0.034088
1122.06	1.18187
1124.95	1.54834
1127.84	0.30217
1130.73	1.62711
1133.63	2.48792
1136.52	1.25992
1139.41	0.235489
1142.3	0.637558
1145.2	0.925629
1148.09	2.34613
1150.98	0.581543
1153.88	0.119492
1156.77	0.934616
1159.66	0.290436
1162.55	0.180679
1165.45	0.636551
1168.34	0.465622
1171.23	1.14627
1174.12	0.743561
1177.02	1.37413
1179.91	0.940598
1182.8	2.2616
1185.69	0.804321
1188.59	0.583466
1191.48	1.69095
1194.37	1.11675
1197.27	2.22856
1200.16	2.29078
1203.05	1.95104
1205.94	2.35294
1208.84	3.38383
1211.73	4.91586
1214.62	2.61397
1217.52	1.03464
1220.41	1.28859
1223.3	1.89461
1226.19	2.87914
1229.09	1.32748
1231.98	0.560028
1234.87	1.74823
1237.76	0.050049
1240.66	0.691116
1243.55	0.684433
1246.44	0.593063
1249.33	0.51239
1252.23	1.37563
1255.12	0.067719
1258.01	2.50058
1260.9	1.86826
1263.8	1.9258
1266.69	1.12286
1269.58	0.542084
1272.48	0.376266
1275.37	1.94357
1278.26	1.58426
1281.15	1.76382
1284.05	2.34959
1286.94	0.397821
1289.83	0.177765
1292.72	1.16539
1295.62	1.59213
1298.51	0.393707
1301.4	0.476044
