Measurement: Raman, 780 nm, unoriented, Raman Data Processed
Mineral: Bazhenovite
Rruff sample: R130224
Ideal chemistry: Ca_8_S_5_(S_2_O_3_)(OH)_12_20H_2_O
Locality: Korkino, Chelyabinsk coal basin, S. Urals, Russia
Source: Rock Currier
Raman shift (cm-1)	intensity
135.072	0
137.965	2.80043
140.858	9.59969
143.75	24.5351
146.643	49.2928
149.536	68.7845
152.428	72.2087
155.321	47.3696
158.214	12.1717
161.107	0.332687
163.999	2.6276
166.892	4.57789
169.785	4.95947
172.677	5.93063
175.57	6.08308
178.463	3.4714
181.355	3.13183
184.248	2.3325
187.141	0.452042
190.033	1.43756
192.926	1.85442
195.819	1.36307
198.712	8.72878
201.604	15.845
204.497	19.1279
207.39	27.0681
210.282	38.4603
213.175	60.9118
216.068	82.7176
218.96	105.623
221.853	31.9787
224.746	10.0412
227.638	6.36507
230.531	6.89169
233.424	8.07992
236.317	9.7738
239.209	11.6456
242.102	13.3039
244.995	14.0423
247.887	11.5628
250.78	6.59593
253.673	4.00464
256.565	3.60859
259.458	4.51948
262.351	2.77939
265.244	3.10912
268.136	2.21149
271.029	2.01093
273.922	1.58194
276.814	0.860859
279.707	0.483189
282.6	0.070015
285.493	0.554848
288.385	0.847809
291.278	0.303005
294.171	1.31332
297.063	0.754192
299.956	0.934128
302.849	0.008915
305.741	0.16713
308.634	1.05655
311.527	0.707966
314.42	0.251289
317.312	0.770775
320.205	1.28275
323.098	1.2366
325.99	1.73179
328.883	1.75286
331.776	2.1711
334.668	2.49613
337.561	1.97641
340.454	2.02377
343.346	1.93828
346.239	1.30938
349.132	1.63759
352.024	1.34927
354.917	0.27
357.81	1.05992
360.703	0.65815
363.595	0.162075
366.488	0.056702
369.381	0.244282
372.273	0.180595
375.166	0.077473
378.059	0.339764
380.952	0.788158
383.844	0.044456
386.737	0.80957
389.63	0.098644
392.522	0.316269
395.415	0.488476
398.308	0.252457
401.2	0.679123
404.093	1.34377
406.986	1.76002
409.878	3.06796
412.771	4.33607
415.664	6.17382
418.557	7.23087
421.449	10.9315
424.342	12.6311
427.235	15.2064
430.127	17.8175
433.02	19.6094
435.913	20.077
438.805	21.0312
441.698	19.195
444.591	16.1346
447.484	15.3638
450.376	15.689
453.269	16.7796
456.162	20.8694
459.054	24.5179
461.947	27.8145
464.84	36.7699
467.733	47.6076
470.625	61.4391
473.518	62.1747
476.411	37.8245
479.303	27.1239
482.196	27.0824
485.089	28.7443
487.981	30.989
490.874	30.2269
493.767	26.4371
496.659	21.1679
499.552	15.9549
502.445	13.1698
505.337	12.158
508.23	11.9609
511.123	14.3547
514.016	19.3727
516.908	24.3886
519.801	28.8813
522.694	27.158
525.586	21.267
528.479	17.962
531.372	14.5412
534.264	11.3845
537.157	5.8349
540.05	3.31814
542.943	1.09706
545.835	0.151154
548.728	0.184227
551.621	0.57127
554.513	0.725609
557.406	1.1364
560.299	0.015419
563.192	0.028805
566.084	0.441006
568.977	0.321774
571.87	0.741634
574.762	0.125435
577.655	0.206928
580.548	0.389687
583.44	0.45969
586.333	1.14492
589.226	0.537247
592.119	0.847694
595.011	0.610409
597.904	0.916008
600.797	1.3194
603.689	1.89108
606.582	2.17702
609.475	1.90516
612.367	1.71111
615.26	2.16149
618.153	1.45182
621.045	2.23929
623.938	1.75751
626.831	2.73421
629.723	2.79829
632.616	3.95834
635.509	4.62051
638.402	7.16885
641.294	8.98547
644.187	12.0546
647.08	12.5649
649.972	15.5606
652.865	14.8489
655.758	12.2201
658.65	8.5724
661.543	4.58091
664.436	3.35075
667.329	1.97851
670.221	1.78913
673.114	1.86646
676.007	1.65771
678.899	1.87571
681.792	1.37475
684.685	1.91404
687.577	1.88137
690.47	1.0534
693.363	1.54934
696.256	1.54977
699.148	1.24437
702.041	0.39716
704.934	0.500034
707.826	0.388714
710.719	0.824539
713.612	0.51862
716.505	1.32546
719.397	1.76834
722.29	2.0883
725.183	1.02821
728.075	0.637863
730.968	0.194942
733.861	0.480797
736.753	0.29007
739.646	0.406792
742.539	0.173351
745.432	0.105946
748.324	0.118271
751.217	0.173885
754.11	0.052864
757.002	0.155727
759.895	0.555393
762.788	0.186333
765.68	0.305679
768.573	0.649857
771.466	0.271805
774.359	0.134964
777.251	0.475288
780.144	0.397984
783.037	0.072521
785.929	0.709362
788.822	0.733501
791.715	1.50674
794.607	0.625599
797.5	0.013115
800.393	0.358772
803.285	0.843849
806.178	0.264702
809.071	1.59653
811.963	0.854774
814.856	0.827068
817.749	1.31413
820.642	0.824776
823.534	1.82822
826.427	1.07807
829.32	1.26661
832.212	1.64869
835.105	1.06415
837.998	1.85014
840.89	1.30909
843.783	1.95432
846.676	1.46695
849.569	1.36186
852.461	2.01769
855.354	2.60301
858.247	2.62553
861.139	1.66357
864.032	2.27934
866.925	2.30246
869.817	1.8386
872.71	1.82732
875.603	1.04807
878.495	1.47179
881.388	1.0205
884.281	0.938946
887.174	0.287479
890.066	0.548763
892.959	0.467575
895.852	0.141964
898.744	0.039989
901.637	0.002079
904.53	0.137447
907.423	0.11533
910.315	0.825455
913.208	0.165325
916.101	0.05098
918.993	0.09536
921.886	0.582493
924.779	0.37112
927.671	1.15791
930.564	1.67004
933.457	2.63076
936.35	3.95069
939.242	4.21807
942.135	6.39307
945.028	8.81242
947.92	11.8016
950.813	14.2536
953.706	18.9178
956.598	25.0477
959.491	31.7543
962.384	39.6332
965.277	48.4056
968.169	55.8787
971.062	59.1865
973.955	59.7447
976.847	57.9398
979.74	56.7128
982.633	56.9036
985.525	53.4457
988.418	54.8434
991.311	59.4941
994.203	69.8482
997.096	85.6258
999.989	108.08
1002.88	123.761
1005.77	112.68
1008.67	83.176
1011.56	57.8147
1014.45	39.425
1017.35	27.8807
1020.24	20.0677
1023.13	13.2242
1026.02	9.39693
1028.92	6.7934
1031.81	5.06591
1034.7	4.14438
1037.59	2.24773
1040.49	1.35019
1043.38	0.692093
1046.27	0.112339
1049.16	0.444244
1052.06	0.008232
1054.95	0.503819
1057.84	0.607674
1060.74	0.422462
1063.63	0.920349
1066.52	0.207424
1069.41	0.329792
1072.31	0.030525
1075.2	0.890972
1078.09	1.44151
1080.98	2.9096
1083.88	4.88676
1086.77	8.46643
1089.66	11.5913
1092.56	13.8029
1095.45	14.615
1098.34	10.2482
1101.23	5.12519
1104.13	2.13809
1107.02	1.40226
1109.91	0.83596
1112.8	0.655422
1115.7	0.468906
1118.59	0.653255
1121.48	0.177223
1124.38	0.422085
1127.27	0.642048
1130.16	0.041939
1133.05	0.496422
1135.95	0.225231
1138.84	0.853943
1141.73	1.01538
1144.62	0.959564
1147.52	0.490154
1150.41	1.02607
1153.3	0.831436
1156.19	0.625584
1159.09	0.857552
1161.98	1.30455
1164.87	0.91412
1167.77	1.27069
1170.66	0.491749
1173.55	0.497456
1176.44	0.839172
1179.34	0.588989
1182.23	0.267868
1185.12	0.964111
1188.01	0.734314
1190.91	0.550034
1193.8	1.07066
1196.69	0.589226
1199.59	0.974976
1202.48	0.480293
1205.37	0.930801
1208.26	0.599361
1211.16	0.827209
1214.05	0.545742
1216.94	0.824032
1219.83	0.39703
1222.73	0.581245
1225.62	0.989922
1228.51	0.144981
1231.4	0.335957
1234.3	0.395416
1237.19	0.180695
1240.08	0.009148
1242.97	0.770672
1245.87	0.525459
1248.76	0.27647
1251.65	0.808094
1254.55	0.523701
1257.44	0.448612
1260.33	0.457664
1263.22	0.034584
1266.12	0.078144
1269.01	0.402519
1271.9	0.540138
1274.8	0.774811
1277.69	0.070793
1280.58	0.825676
1283.47	0.231777
