Measurement: Raman, 532 nm, unoriented, Raman Data Processed
Mineral: Beaverite-(Cu)
Rruff sample: R060400
Ideal chemistry: PbCu^2+^Fe^3+^_2_(SO_4_)_2_(OH)_6_
Locality: Utah, USA
Source: American Museum of Natural History
Description: Brownish yellow earthy mass
Raman shift (cm-1)	intensity
156.121	0
159.014	0.484283
161.906	7.75424
164.799	29.4815
167.692	72.0767
170.584	122.246
173.477	143.875
176.37	156.976
179.263	180.414
182.155	201.373
185.048	243.432
187.941	305.584
190.833	376.045
193.726	447.842
196.619	517.324
199.512	572.601
202.404	590.64
205.297	592.358
208.19	571.687
211.082	537.386
213.975	502.446
216.868	460.365
219.761	408.777
222.653	355.287
225.546	295.655
228.439	247.111
231.331	196.94
234.224	163.053
237.117	130.625
240.009	112.471
242.902	96.924
245.795	78.6727
248.688	68.7434
251.58	49.7559
254.473	39.561
257.366	33.8847
260.258	26.0788
263.151	25.8955
266.044	25.8521
268.936	29.0613
271.829	23.2993
274.722	17.7696
277.615	10.3917
280.507	3.34283
283.4	0.335632
286.293	5.6705
289.185	5.7164
292.078	3.84741
294.971	8.17374
297.863	7.03351
300.756	4.15845
303.649	10.9989
306.541	27.2103
309.434	41.4656
312.327	60.092
315.22	72.8854
318.112	80.0163
321.005	78.3089
323.898	69.3513
326.791	58.2781
329.683	48.6146
332.576	36.0865
335.469	24.1655
338.361	19.6245
341.254	16.3298
344.147	7.49087
347.039	8.83926
349.932	8.63895
352.825	5.952
355.717	9.82703
358.61	7.68317
361.503	6.07043
364.396	2.91415
367.288	5.37
370.181	0.771912
373.074	0.772522
375.966	0.15744
378.859	1.06589
381.752	1.48746
384.644	0.332367
387.537	2.57291
390.43	4.11725
393.323	10.3023
396.215	13.2365
399.108	18.6023
402.001	26.9128
404.894	39.594
407.786	48.1657
410.679	69.8687
413.572	92.6548
416.464	119.957
419.357	155.752
422.25	197.432
425.142	243.941
428.035	303.99
430.928	370.022
433.82	443.426
436.713	518.074
439.606	601.932
442.499	648.19
445.391	636.94
448.284	548.874
451.177	416.788
454.069	306.752
456.962	227.72
459.855	177.036
462.748	138.276
465.64	109.201
468.533	83.7493
471.426	61.5581
474.318	38.1006
477.211	24.2785
480.104	9.74274
482.996	2.05566
485.889	5.26975
488.782	7.05157
491.675	8.8783
494.567	7.65125
497.46	3.39838
500.353	2.79404
503.245	3.00412
506.138	11.7987
509.031	20.7243
511.923	39.1376
514.816	55.8725
517.709	74.623
520.602	100.541
523.494	129.151
526.387	160.106
529.28	193.174
532.172	228.606
535.065	272.092
537.958	308.749
540.851	345.635
543.743	380.563
546.636	404.508
549.529	424.333
552.421	431.172
555.314	433.731
558.207	421.48
561.099	406.82
563.992	391.204
566.885	362.288
569.778	341.784
572.67	311.459
575.563	274.82
578.456	245.968
581.348	208.196
584.241	180.968
587.134	156.598
590.027	134.394
592.919	116.594
595.812	107.971
598.705	114.625
601.597	124.467
604.49	144.723
607.383	173.62
610.275	213.464
613.168	272.799
616.061	351.228
618.953	407.143
621.846	369.546
624.739	286.107
627.632	219.141
630.524	162.642
633.417	107.111
636.31	65.0453
639.202	37.7724
642.095	25.6978
644.988	11.0162
647.881	4.84448
650.773	0.117096
653.666	5.38434
656.559	3.23343
659.451	5.4808
662.344	7.99091
665.237	0.036957
668.13	1.70862
671.022	3.31079
673.915	0.434967
676.808	0.933716
679.7	2.2218
682.593	3.22772
685.486	4.45898
688.378	5.50229
691.271	5.76144
694.164	8.50305
697.057	9.8096
699.949	9.08322
702.842	9.83716
705.735	12.6565
708.627	13.5652
711.52	11.1733
714.413	15.929
717.305	11.6459
720.198	12.2769
723.091	10.4388
725.984	9.77472
728.876	9.06668
731.769	8.32855
734.662	8.25763
737.554	7.97555
740.447	7.33371
743.34	6.58823
746.232	4.31555
749.125	6.72885
752.018	5.28583
754.91	5.47913
757.803	4.57043
760.696	6.16458
763.589	5.36157
766.481	5.16898
769.374	3.37103
772.267	5.3089
775.159	4.78451
778.052	0.907959
780.945	1.96185
783.838	4.59293
786.73	0.674805
789.623	2.74423
792.516	0.476227
795.408	0.156372
798.301	0.680939
801.194	0.997101
804.087	1.68991
806.979	1.85037
809.872	1.09735
812.765	1.7341
815.657	0.366882
818.55	0.302094
821.443	0.772278
824.335	3.38944
827.228	2.72562
830.121	1.78061
833.014	1.54837
835.906	5.07547
838.799	4.04257
841.692	5.5303
844.584	7.51807
847.477	8.08756
850.37	10.0634
853.263	10.4695
856.155	14.4907
859.048	13.2489
861.941	12.5194
864.833	14.3276
867.726	15.7505
870.619	16.7527
873.511	17.9236
876.404	17.105
879.297	20.4733
882.189	20.9265
885.082	19.0796
887.975	22.5494
890.868	23.8231
893.76	24.2231
896.653	28.2853
899.546	27.7159
902.438	26.8815
905.331	28.8531
908.224	26.4075
911.116	26.4173
914.009	23.6301
916.902	21.5664
919.795	21.2614
922.687	18.1393
925.58	16.0114
928.473	11.9309
931.365	11.6137
934.258	10.2461
937.151	8.93869
940.044	2.13379
942.936	0.581329
945.829	0.681305
948.722	2.72376
951.614	6.92242
954.507	5.37363
957.4	1.81021
960.293	0.628876
963.185	3.18796
966.078	8.8183
968.971	18.5059
971.863	27.3174
974.756	45.1069
977.649	68.3977
980.541	96.4752
983.434	133.633
986.327	174.63
989.22	221.783
992.112	264.868
995.005	301.734
997.898	328.005
1000.79	349.581
1003.68	325.323
1006.58	232.662
1009.47	146.701
1012.36	102.261
1015.25	76.8588
1018.15	64.4775
1021.04	60.4551
1023.93	58.1704
1026.83	56.9283
1029.72	55.0413
1032.61	60.012
1035.5	58.1242
1038.4	58.2083
1041.29	62.6648
1044.18	61.1806
1047.07	58.9149
1049.97	51.7722
1052.86	46.373
1055.75	36.5532
1058.64	27.0147
1061.54	17.1419
1064.43	12.2045
1067.32	6.33026
1070.21	1.33209
1073.11	3.66211
1076	6.46619
1078.89	9.94458
1081.79	31.3442
1084.68	51.9269
1087.57	79.415
1090.46	111.511
1093.36	144.223
1096.25	176.688
1099.14	196.368
1102.04	208.976
1104.93	207.711
1107.82	199.357
1110.71	179.787
1113.61	146.396
1116.5	117.262
1119.39	95.1547
1122.28	66.1507
1125.18	49.2355
1128.07	29.0469
1130.96	13.1665
1133.86	5.5481
1136.75	3.89478
1139.64	2.22614
1142.53	2.65472
1145.43	0.092285
1148.32	7.84936
1151.21	19.1997
1154.1	23.3468
1157	32.3373
1159.89	37.9587
1162.78	47.9348
1165.67	48.618
1168.57	54.3496
1171.46	52.683
1174.35	53.2196
1177.24	56.859
1180.14	55.7632
1183.03	57.6881
1185.92	56.79
1188.82	56.6535
1191.71	51.8189
1194.6	44.5264
1197.49	42.3878
1200.39	34.2152
1203.28	24.0073
1206.17	15.2892
1209.07	9.43308
1211.96	2.91376
1214.85	0.169006
1217.74	2.13644
1220.64	1.83731
1223.53	1.83475
1226.42	0.368958
1229.31	2.42639
1232.21	6.65869
1235.1	8.52396
1237.99	8.10052
1240.88	9.7056
1243.78	13.5907
1246.67	18.746
1249.56	21.5252
1252.45	24.9165
1255.35	28.2847
1258.24	30.86
1261.13	32.7112
1264.03	27.5632
1266.92	22.0788
1269.81	18.9885
1272.7	17.895
1275.6	16.2292
1278.49	15.1566
1281.38	13.2262
1284.28	10.1016
1287.17	10.5823
1290.06	6.78555
1292.95	4.6203
1295.85	5.62857
1298.74	3.19565
1301.63	2.284
