Measurement: Raman, 785 nm, unoriented, Raman Data Processed
Mineral: Behierite
Rruff sample: R060657
Ideal chemistry: TaBO_4_
Locality: Mount Ibity, Antsirabe, Madagascar
Source: Michael Scott
Description: Gray deformed crystal
Measured chemistry: (Ta_0.84_Nb_0.16_)_Î£=1_BO_4_; B not measured but estimated by difference and charge balance
Raman shift (cm-1)	intensity
121.792	0
124.685	0.774155
127.578	16.0646
130.47	58.8951
133.363	46.107
136.256	4.69382
139.148	7.14423
142.041	10.5829
144.934	73.5443
147.826	150.529
150.719	173.355
153.612	132.198
156.505	105.073
159.397	104.167
162.29	117.15
165.183	132.282
168.075	183.175
170.968	237.12
173.861	243.743
176.753	267.291
179.646	300.348
182.539	359.294
185.431	442.109
188.324	544.844
191.217	635.944
194.11	731.605
197.002	842.756
199.895	947.581
202.788	1073.12
205.68	1148.71
208.573	1029.67
211.466	701.748
214.358	470.521
217.251	348.384
220.144	305.505
223.037	302.515
225.929	301.694
228.822	338.286
231.715	381.435
234.607	430.404
237.5	428.878
240.393	386.346
243.286	316.753
246.178	234.834
249.071	157.697
251.964	115.231
254.856	109.509
257.749	75.8699
260.642	56.5504
263.534	62.6557
266.427	44.9529
269.32	56.7871
272.212	114.183
275.105	159.34
277.998	230.384
280.891	331.044
283.783	469.653
286.676	593.287
289.569	492.847
292.461	252.814
295.354	123.247
298.247	39.8976
301.139	8.62958
304.032	12.8858
306.925	1.92804
309.818	25.6621
312.71	26.7946
315.603	6.62689
318.496	5.85461
321.388	13.6699
324.281	4.59351
327.174	12.837
330.067	42.8916
332.959	66.3615
335.852	96.0615
338.745	118.504
341.637	81.7249
344.53	76.5468
347.423	65.1469
350.315	96.8587
353.208	96.0388
356.101	107.608
358.993	78.4163
361.886	58.6575
364.779	78.0099
367.672	65.0931
370.564	54.7833
373.457	36.0337
376.35	30.9623
379.242	58.419
382.135	3.37146
385.028	3.38422
387.921	14.7741
390.813	8.68341
393.706	4.25348
396.599	7.07544
399.491	2.09802
402.384	12.7056
405.277	17.136
408.169	22.5023
411.062	40.3359
413.955	50.3947
416.848	68.2153
419.74	90.7258
422.633	152.612
425.526	133.375
428.418	208.546
431.311	313.904
434.204	449.304
437.096	678.526
439.989	1073.16
442.882	1632.64
445.774	2325.16
448.667	3305.74
451.56	4381.41
454.452	4891.19
457.345	4094.86
460.238	2657.66
463.131	1621.95
466.023	1031.23
468.916	702.256
471.809	474.323
474.701	327.106
477.594	228.344
480.487	153.659
483.38	127.862
486.272	94.3217
489.165	80.5534
492.058	34.0781
494.95	36.1817
497.843	12.4438
500.736	33.1758
503.628	17.6649
506.521	9.83545
509.414	4.33289
512.307	0.217285
515.199	13.8799
518.092	13.6243
520.985	19.59
523.877	5.46851
526.77	32.9305
529.663	10.0604
532.555	49.3716
535.448	162.272
538.341	284.12
541.234	528.861
544.126	977.514
547.019	1736.78
549.912	2666.64
552.804	4018.95
555.697	6703.89
558.59	10985.8
561.482	13396.6
564.375	8755.15
567.268	4073.78
570.16	2092.69
573.053	1313.81
575.946	900.804
578.839	651.885
581.731	454.348
584.624	356.639
587.517	276.836
590.409	206.062
593.302	145.435
596.195	116.922
599.087	116.232
601.98	92.3273
604.873	68.0169
607.766	45.2366
610.658	3.73517
613.551	27.1331
616.444	2.13501
619.336	17.5901
622.229	6.68365
625.122	0.91095
628.014	4.87268
630.907	2.79901
633.8	0.573181
636.693	21.7353
639.585	1.01917
642.478	24.5456
645.371	29.0958
648.263	6.10382
651.156	4.33289
654.049	2.5697
656.942	14.9788
659.834	33.2628
662.727	34.1121
665.62	10.0375
668.512	23.7049
671.405	23.935
674.298	13.2108
677.19	3.10089
680.083	41.2255
682.976	32.0184
685.869	9.55231
688.761	31.2922
691.654	45.6323
694.547	64.0867
697.439	70.5526
700.332	125.311
703.225	147.255
706.117	203.831
709.01	200.036
711.903	184.474
714.795	113.051
717.688	24.5141
720.581	6.38654
723.474	15.5838
726.366	6.09277
729.259	5.77954
732.152	10.4128
735.044	18.9324
737.937	22.1915
740.83	15.0386
743.722	12.2656
746.615	11.8639
749.508	34.7089
752.401	16.4127
755.293	9.27667
758.186	25.0499
761.079	36.2223
763.971	38.7022
766.864	48.1368
769.757	17.4005
772.649	3.92163
775.542	7.87695
778.435	19.2666
781.328	12.2824
784.22	2.40875
787.113	13.0845
790.006	19.4762
792.898	2.84973
795.791	15.3315
798.684	0.135925
801.576	15.7346
804.469	35.3732
807.362	14.1921
810.255	33.92
813.147	32.6721
816.04	21.186
818.933	30.1562
821.825	33.4453
824.718	81.8466
827.611	135.919
830.503	215.027
833.396	223.031
836.289	133.458
839.182	73.1981
842.074	21.402
844.967	10.7875
847.86	4.93402
850.752	24.6048
853.645	10.5367
856.538	28.0877
859.43	17.1365
862.323	10.386
865.216	36.6414
868.109	37.4009
871.001	68.6672
873.894	101.166
876.787	164.413
879.679	237.236
882.572	386.29
885.465	553.633
888.357	713.753
891.25	745.275
894.143	743.323
897.035	628.889
899.928	459.58
902.821	296.783
905.714	151.351
908.606	63.5837
911.499	9.17102
914.392	27.9854
917.284	38.0127
920.177	8.55847
923.07	2.4845
925.962	55.626
928.855	123.488
931.748	244.253
934.641	384.559
937.533	574.887
940.426	818.505
943.319	1112.02
946.211	1472.22
949.104	1887.8
951.997	2384.85
954.889	3005.95
957.782	3765.29
960.675	4643.36
963.568	5495.63
966.46	6167.54
969.353	6371.44
972.246	5963.97
975.138	5119.16
978.031	4132.94
980.924	3285.02
983.817	2571.56
986.709	2100.52
989.602	1747.58
992.495	1654.63
995.387	1581.32
998.28	1632.29
1001.17	1517.27
1004.07	1244.54
1006.96	882.137
1009.85	649.749
1012.74	488.851
1015.64	367.77
1018.53	317.199
1021.42	235.025
1024.31	163.16
1027.21	138.337
1030.1	73.4768
1032.99	43.9576
1035.88	5.55182
1038.78	20.0011
1041.67	4.35773
1044.56	5.85919
1047.46	8.09943
1050.35	5.28479
1053.24	15.8002
1056.13	4.11188
1059.03	17.488
1061.92	8.50165
1064.81	14.0494
1067.7	33.5148
1070.6	38.5466
1073.49	34.474
1076.38	70.6029
1079.28	54.4383
1082.17	55.4089
1085.06	65.8906
1087.95	59.0449
1090.85	100.432
1093.74	92.1588
1096.63	94.2715
1099.52	88.6637
1102.42	96.4371
1105.31	113.508
1108.2	90.2257
1111.1	115.705
1113.99	91.1497
1116.88	86.6635
1119.77	73.0342
1122.67	72.6672
1125.56	65.1197
1128.45	65.8281
1131.34	53.6622
1134.24	34.2251
1137.13	59.2264
1140.02	22.2542
1142.91	35.2154
1145.81	48.1169
1148.7	23.1703
1151.59	54.2732
1154.49	62.7677
1157.38	12.3265
1160.27	21.0745
1163.16	31.9264
1166.06	23.712
1168.95	29.3007
1171.84	7.45416
1174.73	10.4127
1177.63	18.3941
1180.52	24.0347
1183.41	17.1951
1186.31	7.73309
1189.2	23.5898
1192.09	18.3597
1194.98	23.4082
1197.88	22.3074
1200.77	20.1055
1203.66	14.2179
1206.55	25.1209
1209.45	17.2949
1212.34	24.8353
1215.23	27.0331
1218.12	39.9553
1221.02	34.0076
1223.91	19.0361
1226.8	30.3969
1229.7	29.3108
1232.59	2.15155
1235.48	11.2242
1238.37	19.4512
