Measurement: Raman, 532 nm, unoriented, Raman Data Processed
Mineral: Behierite
Rruff sample: R060657
Ideal chemistry: TaBO_4_
Locality: Mount Ibity, Antsirabe, Madagascar
Source: Michael Scott
Description: Gray deformed crystal
Measured chemistry: (Ta_0.84_Nb_0.16_)_Î£=1_BO_4_; B not measured but estimated by difference and charge balance
Raman shift (cm-1)	intensity
175.252	0
178.144	11.5347
181.037	90.9951
183.93	271.94
186.823	674.512
189.715	1292.27
192.608	1959.11
195.501	2543.67
198.393	3396.82
201.286	4304.1
204.179	4705.99
207.071	4343.48
209.964	2920.41
212.857	1649.82
215.75	1041.83
218.642	748.094
221.535	738.238
224.428	886.114
227.32	1109.81
230.213	1513.72
233.106	1858.7
235.999	1889.1
238.891	1689.29
241.784	1460.47
244.677	1043.85
247.569	787.086
250.462	556.586
253.355	437.157
256.247	315.364
259.14	221.193
262.033	185.773
264.925	167.079
267.818	341.853
270.711	493.392
273.604	879.926
276.496	1317.83
279.389	1870
282.282	2447.74
285.174	2903.51
288.067	2825.13
290.96	1618.15
293.853	669.711
296.745	242.815
299.638	57.8755
302.531	43.3965
305.423	19.3164
308.316	55.0986
311.209	25.8257
314.101	48.2974
316.994	47.3618
319.887	56.0322
322.779	63.0483
325.672	145.057
328.565	128.483
331.458	220.473
334.35	429.294
337.243	598.246
340.136	601.941
343.028	284.934
345.921	339.423
348.814	301.203
351.707	341.731
354.599	380.261
357.492	310.582
360.385	308.453
363.277	273.726
366.17	238.525
369.063	246.509
371.955	140.842
374.848	154.051
377.741	109.682
380.634	37.2017
383.526	22.564
386.419	25.3213
389.312	25.0488
392.204	12.9087
395.097	6.64356
397.99	20.9985
400.882	11.873
403.775	0.448242
406.668	60.6431
409.561	110.793
412.453	176.292
415.346	242.357
418.239	405.06
421.131	568.796
424.024	767.044
426.917	1088.76
429.81	1641.52
432.702	2374.43
435.595	3828.82
438.488	6118.17
441.38	9559.72
444.273	14474.3
447.166	20109.9
450.058	25296.8
452.951	28626.5
455.844	25799.6
458.736	17784.2
461.629	11059.6
464.522	6864.93
467.415	4548.43
470.307	3173.38
473.2	2303.9
476.093	1743.4
478.985	1181.84
481.878	941.224
484.771	713.592
487.663	586.226
490.556	422.222
493.449	269.367
496.342	247.559
499.234	150.704
502.127	181.01
505.02	143.144
507.912	43.6728
510.805	71.1592
513.698	23.334
516.591	86.3018
519.483	17.0527
522.376	34.4043
525.269	54.0029
528.161	60.7598
531.054	113.405
533.947	482.75
536.84	1142.58
539.732	2014.4
542.625	3275.58
545.518	5963.15
548.41	10415.9
551.303	17349.9
554.196	25896.3
557.088	34979.4
559.981	45593.2
562.874	37650.5
565.766	18237.9
568.659	8912.53
571.552	5096.99
574.445	3479.4
577.337	2460.11
580.23	1767.47
583.123	1319.9
586.015	931.84
588.908	695.394
591.801	426.803
594.693	418.696
597.586	267.122
600.479	274.797
603.372	173.227
606.264	115.264
609.157	111.95
612.05	18.4873
614.942	38.791
617.835	13.9521
620.728	22.9199
623.62	8.91895
626.513	52.7217
629.406	25.2373
632.299	0.323242
635.191	83.9492
638.084	75.9531
640.977	147.607
643.869	71.9248
646.762	20.666
649.655	44.8174
652.548	24.2305
655.44	169.725
658.333	68.6699
661.226	116.807
664.118	214.784
667.011	201.198
669.904	188.362
672.796	141.701
675.689	152.968
678.582	209.511
681.475	182.392
684.367	227.849
687.26	222.3
690.153	261.383
693.045	310.065
695.938	404.494
698.831	591.609
701.723	884.119
704.616	1144.75
707.509	1411.14
710.402	1282.77
713.294	784.805
716.187	344.589
719.08	106.7
721.972	42.3779
724.865	17.7773
727.758	46.0478
730.65	21.8896
733.543	8.08301
736.436	22.3496
739.329	21.7998
742.221	45.5879
745.114	33.752
748.007	105.147
750.899	88.1621
753.792	115.216
756.685	128.246
759.577	158.81
762.47	123.606
765.363	143.622
768.256	160.662
771.148	134.825
774.041	98.1269
776.934	74.1416
779.826	106.284
782.719	71.0547
785.612	182.154
788.505	66.3369
791.397	88.4473
794.29	82.5205
797.183	142.32
800.075	119.054
802.968	54.6631
805.861	91.0762
808.753	81.084
811.646	94.6875
814.539	65.2969
817.432	15.9697
820.324	124.256
823.217	339.269
826.11	600.359
829.002	1037.26
831.895	1168.81
834.788	942.22
837.68	390.161
840.573	110.876
843.466	41.5107
846.359	82.0312
849.251	56.2764
852.144	96.6465
855.037	0.351563
857.929	143.551
860.822	175.975
863.715	384.845
866.607	465.633
869.5	805.002
872.393	1192.6
875.285	1805.01
878.178	2775.73
881.071	3951.22
883.964	5320.04
886.856	6630.25
889.749	7506.94
892.642	7334.35
895.534	6354.3
898.427	4843.21
901.32	3368.53
904.212	2189.1
907.105	1303.76
909.998	610.807
912.891	153.263
915.783	11.456
918.676	175.955
921.569	92.5215
924.462	31.7402
927.354	363.72
930.247	992.736
933.14	1788.98
936.032	2855.13
938.925	4112.41
941.818	5800.48
944.71	7697.02
947.603	10169.6
950.496	13095
953.389	16740.4
956.281	20959.9
959.174	26154.7
962.067	31248.5
964.959	35237.5
967.852	36938.3
970.745	35565.3
973.637	31530.6
976.53	26346.9
979.423	21163.9
982.316	17152.8
985.208	14544.1
988.101	13118.9
990.994	13010.4
993.886	13579.9
996.779	14063.3
999.672	13680.7
1002.56	11601.5
1005.46	8715.93
1008.35	6109.14
1011.24	4332.16
1014.13	3180.99
1017.03	2318.61
1019.92	1709.36
1022.81	1089.49
1025.71	719.823
1028.6	417.317
1031.49	218.769
1034.38	153.035
1037.28	0.237305
1040.17	49.8115
1043.06	91.0361
1045.95	68.9639
1048.85	6.86914
1051.74	96.3193
1054.63	82.9356
1057.53	30.3477
1060.42	22.9766
1063.31	44.5498
1066.2	97.71
1069.1	135.035
1071.99	226.394
1074.88	232.207
1077.78	267.58
1080.67	402.259
1083.56	420.14
1086.45	473.777
1089.35	538.028
1092.24	607.622
1095.13	651.929
1098.02	653.031
1100.92	657.231
1103.81	627.687
1106.7	692.386
1109.59	732.53
1112.49	618.827
1115.38	574.158
1118.27	491.848
1121.16	362.918
1124.06	425.517
1126.95	390.572
1129.84	307.31
1132.74	307.44
1135.63	292.604
1138.52	304.802
1141.41	303.173
1144.31	216.744
1147.2	231.784
1150.09	277.929
1152.98	167.076
1155.88	202.778
1158.77	232.739
1161.66	266.853
1164.56	162.895
1167.45	254.488
1170.34	78.2334
1173.23	129.519
1176.13	43.2705
1179.02	99.7793
1181.91	224.912
1184.81	136.481
1187.7	96.0156
1190.59	37.1562
1193.48	81.9356
1196.38	23.5146
1199.27	17.0879
1202.16	12.0498
1205.05	6.71973
1207.95	65.0586
1210.84	40.2842
1213.73	11.4258
1216.62	38.5684
1219.52	53.1807
1222.41	90.6592
1225.3	58.415
1228.19	75.5117
1231.09	103.226
1233.98	58.1191
1236.87	104.783
1239.77	113.821
1242.66	129.541
1245.55	190.253
1248.44	84.9609
1251.34	68.8144
1254.23	101.769
1257.12	116.138
1260.02	126.124
1262.91	135.067
1265.8	100.76
1268.69	115.175
1271.59	66.2344
1274.48	115.147
1277.37	122.878
1280.26	166.807
1283.16	97.8115
1286.05	57.2744
1288.94	46.127
1291.84	128.416
1294.73	107.426
1297.62	8.8916
1300.51	76.6269
1303.4	125.356
1306.3	1.36426
1309.19	135.624
1312.08	73.6953
