Measurement: Raman, 780 nm, unoriented, Raman Data Processed
Mineral: Behoite
Rruff sample: R060659
Ideal chemistry: Be(OH)_2_
Locality: Mont St. Hilaire, Quebec, Canada
Source: Michael Scott
Description: Tan colored reticulated groups
Raman shift (cm-1)	intensity
145.37	0
148.262	0.406052
151.155	0.93866
154.048	0.801208
156.94	0.844696
159.833	1.09157
162.726	0.38205
165.619	0.097717
168.511	0.148788
171.404	0.58873
174.297	0.018173
177.189	1.12875
180.082	1.10934
182.975	1.21959
185.868	1.78358
188.76	1.64688
191.653	1.45084
194.546	2.27513
197.438	1.99718
200.331	2.4539
203.224	3.56229
206.117	5.45186
209.009	7.63133
211.902	6.46347
214.795	4.32179
217.687	4.12437
220.58	5.73746
223.473	3.32593
226.365	2.40112
229.258	2.52649
232.151	1.5728
235.043	1.45169
237.936	2.79121
240.829	2.44029
243.722	3.57121
246.614	3.99815
249.507	4.15228
252.4	3.81178
255.292	4.07294
258.185	4.32088
261.078	4.85266
263.971	5.52885
266.863	6.68744
269.756	6.25308
272.649	9.30922
275.541	8.94594
278.434	9.17091
281.327	6.0739
284.219	3.45312
287.112	1.51262
290.005	0.185867
292.897	0.285309
295.79	0.406784
298.683	0.919006
301.576	1.15895
304.468	0.360901
307.361	0.159653
310.254	0.477203
313.147	0.478226
316.039	1.65918
318.932	3.40105
321.825	5.04718
324.717	8.34772
327.61	16.1195
330.503	27.7107
333.395	31.7663
336.288	33.1941
339.181	40.9868
342.074	46.4084
344.966	57.0036
347.859	68.3115
350.752	41.6064
353.644	9.5856
356.537	3.49651
359.43	2.23242
362.322	1.73898
365.215	1.56589
368.108	3.88774
371	8.85202
373.893	14.4382
376.786	26.007
379.679	42.1479
382.571	57.3923
385.464	74.9064
388.357	89.8883
391.249	106.078
394.142	123.23
397.035	133.276
399.928	125.371
402.82	97.7723
405.713	63.8963
408.606	42.6904
411.498	24.6051
414.391	15.8067
417.284	12.4978
420.176	8.79791
423.069	9.45859
425.962	10.098
428.854	10.5101
431.747	10.7858
434.64	12.7468
437.533	15.6679
440.425	18.9882
443.318	22.6883
446.211	22.4677
449.103	16.067
451.996	12.1265
454.889	14.6699
457.781	14.4581
460.674	12.7577
463.567	6.44876
466.46	2.09874
469.352	0.216629
472.245	0.727173
475.138	0.741425
478.031	0.560257
480.923	0.273331
483.816	0.069916
486.709	0.432358
489.601	0.660233
492.494	0.127075
495.387	0.408829
498.279	0.260071
501.172	0.548996
504.065	0.656509
506.957	0.728104
509.85	0.345673
512.743	1.33589
515.636	0.860428
518.528	1.85986
521.421	2.16531
524.314	2.44376
527.206	2.21764
530.099	2.53632
532.992	2.05165
535.885	2.57538
538.777	1.90344
541.67	2.43016
544.563	3.20967
547.455	2.26257
550.348	2.89069
553.241	2.02873
556.133	1.80179
559.026	0.628845
561.919	1.35223
564.812	0.147217
567.704	0.438965
570.597	0.871796
573.49	1.12758
576.382	1.27077
579.275	0.976501
582.168	1.42111
585.06	4.23184
587.953	3.60362
590.846	5.47847
593.739	5.71597
596.631	6.45937
599.524	4.66176
602.417	5.53015
605.309	4.92415
608.202	4.12
611.095	2.2634
613.987	1.58289
616.88	1.30452
619.773	0.403488
622.665	1.37317
625.558	0.046326
628.451	0.409027
631.344	0.449677
634.236	0.743774
637.129	0.172348
640.022	0.486969
642.914	0.919617
645.807	1.20854
648.7	1.01514
651.593	1.42665
654.485	1.99194
657.378	2.23257
660.271	2.11598
663.163	2.28291
666.056	3.3997
668.949	4.04344
671.841	3.76123
674.734	5.77263
677.627	5.02142
680.52	6.04791
683.412	4.994
686.305	6.0049
689.198	4.47612
692.09	5.48991
694.983	3.23
697.876	3.46294
700.769	3.81358
703.661	3.46258
706.554	3.44253
709.447	2.59659
712.339	1.81435
715.232	0.959457
718.125	0.237259
721.017	0.343628
723.91	0.262253
726.803	0.261368
729.696	0.294357
732.588	0.379196
735.481	0.604385
738.374	1.16032
741.266	1.99077
744.159	2.61557
747.052	3.47685
749.944	4.75021
752.837	5.50583
755.73	5.43692
758.623	6.42812
761.515	6.5943
764.408	7.11493
767.301	9.28151
770.193	10.4108
773.086	10.0133
775.979	7.20692
778.871	5.68556
781.764	3.92529
784.657	2.63266
787.55	1.65437
790.442	0.361221
793.335	0.296753
796.228	0.082397
799.12	0.147125
802.013	0.204514
804.906	0.136688
807.798	0.248199
810.691	1.64627
813.584	1.40495
816.477	1.58229
819.369	1.45499
822.262	2.93211
825.155	1.04835
828.047	2.75606
830.94	3.22614
833.833	2.35216
836.726	1.9642
839.618	1.80627
842.511	3.50658
845.404	2.73634
848.296	2.51476
851.189	1.69553
854.082	1.75722
856.974	2.64912
859.867	1.18089
862.76	1.55601
865.653	2.71394
868.545	1.28236
871.438	1.50513
874.331	2.31413
877.223	1.27835
880.116	1.64654
883.009	1.55496
885.901	2.41193
888.794	2.68974
891.687	1.31569
894.58	2.43918
897.472	2.95351
900.365	3.95976
903.258	4.78396
906.15	3.64794
909.043	3.13847
911.936	3.80943
914.828	2.61051
917.721	2.12044
920.614	3.34
923.506	1.55167
926.399	0.186279
929.292	0.364075
932.185	0.628227
935.077	0.208961
937.97	0.379013
940.863	0.016106
943.755	0.273392
946.648	0.291481
949.541	0.295235
952.434	0.012604
955.326	0.005463
958.219	0.191841
961.112	0.466553
964.004	0.471703
966.897	0.42907
969.79	0.478752
972.683	0.58046
975.575	0.580475
978.468	0.352676
981.361	0.28907
984.253	0.008598
987.146	0.427597
990.039	0.367332
992.931	0.072678
995.824	0.600342
998.717	0.404259
1001.61	0.943604
1004.5	1.24856
1007.39	1.08305
1010.29	0.981056
1013.18	1.60629
1016.07	2.84779
1018.97	3.67192
1021.86	5.14432
1024.75	6.16657
1027.64	7.263
1030.54	8.38293
1033.43	9.36915
1036.32	10.1058
1039.21	10.9729
1042.11	11.5829
1045	12.9441
1047.89	14.2142
1050.79	16.8531
1053.68	17.9096
1056.57	18.8975
1059.46	18.6277
1062.36	16.8554
1065.25	10.6849
1068.14	8.11466
1071.03	5.49704
1073.93	4.99143
1076.82	3.26289
1079.71	1.901
1082.61	1.35143
1085.5	1.76654
1088.39	0.534607
1091.28	0.715019
1094.18	0.983376
1097.07	1.02499
1099.96	0.922638
1102.85	0.33744
1105.75	0.355568
1108.64	0.525688
1111.53	0.369881
1114.42	0.058456
1117.32	1.07827
1120.21	0.073257
1123.1	1.2548
1126	0.113968
1128.89	2.22694
1131.78	0.653519
1134.67	1.25265
1137.57	1.64857
1140.46	1.13607
1143.35	2.15659
1146.24	1.47098
1149.14	0.996681
1152.03	2.16846
1154.92	1.66612
1157.82	1.19474
1160.71	1.42302
1163.6	1.13481
1166.49	0.704254
1169.39	0.683998
1172.28	2.2064
1175.17	0.897346
1178.06	0.748741
1180.96	1.32364
1183.85	0.379944
1186.74	0.666077
1189.63	0.05983
1192.53	0.700768
1195.42	0.654594
1198.31	0.110077
1201.21	1.47952
1204.1	0.351227
1206.99	2.05994
1209.88	0.660614
1212.78	0.229927
1215.67	0.658081
1218.56	0.423508
1221.45	0.545952
1224.35	0.036133
1227.24	1.14542
1230.13	0.5793
1233.03	0.436127
1235.92	0.400429
1238.81	1.2085
1241.7	1.00196
1244.6	0.544052
1247.49	1.11292
1250.38	0.150406
1253.28	0.654633
1256.17	1.30272
1259.06	0.485809
1261.95	0.5578
1264.85	0.250626
1267.74	2.3027
1270.63	2.14474
1273.52	0.484039
1276.42	1.06717
1279.31	2.5026
1282.2	0.028404
