Measurement: Raman, 780 nm, unoriented, Raman Data Processed
Mineral: Behoite
Rruff sample: R130229
Ideal chemistry: Be(OH)_2_
Locality: Clear Creek pegmatite, Burnet County, Texas, USA
Source: Rock Currier
Description: Colorless vitreous pseudo-octahedral crystals and intergrown clusters
Raman shift (cm-1)	intensity
94.4526	0
97.8274	69.6221
101.202	30.7266
104.577	0.889648
107.952	31.8652
111.327	44.7129
114.701	90.7705
118.076	130.02
121.451	159.418
124.826	251.773
128.201	352.132
131.576	459.977
134.95	342.35
138.325	144.774
141.7	52.8076
145.075	11.081
148.45	19.7695
151.825	6.76172
155.199	22.7852
158.574	34.876
161.949	39.543
165.324	30.5361
168.698	36.6191
172.073	27.7715
175.448	13.4033
178.823	33.1338
182.198	39.1416
185.573	47.9629
188.947	42.6738
192.322	12.3389
195.697	9.29883
199.072	0.682617
202.447	1.22461
205.821	22.2754
209.196	23.9268
212.571	18.9922
215.946	24.8438
219.321	23.3623
222.696	38.9746
226.07	50.1152
229.445	66.0537
232.82	80.4111
236.195	82.3838
239.57	78.667
242.945	71.6328
246.319	61.3467
249.694	36.9141
253.069	42.2207
256.444	26.4873
259.818	44.5166
263.193	67.7217
266.568	104.181
269.943	155.171
273.318	213.027
276.693	251.384
280.067	225.352
283.442	196.09
286.817	134.174
290.192	76.1719
293.567	33.5352
296.942	24.4678
300.316	29.8027
303.691	1.42871
307.066	22.833
310.441	16.4092
313.816	12.4453
317.19	13.2539
320.565	8.74902
323.94	22.9131
327.315	51.5967
330.69	118.453
334.065	194.849
337.439	298.409
340.814	478.481
344.189	796.519
347.564	1173.78
350.938	681.806
354.313	151.127
357.688	74.9209
361.063	75.666
364.438	59.0645
367.813	52.4297
371.187	59.624
374.562	118.196
377.937	253.893
381.312	423.328
384.687	711.473
388.062	1037.2
391.436	1496.04
394.811	2045.05
398.186	2386.46
401.561	2122.19
404.935	1462.85
408.31	870.05
411.685	500.596
415.06	299.379
418.435	205.131
421.81	212.326
425.184	213.81
428.559	235.973
431.934	268.206
435.309	307.62
438.684	342.416
442.058	439.565
445.433	459.571
448.808	308.344
452.183	213.853
455.558	262.775
458.933	268.784
462.307	144.494
465.682	47.2988
469.057	9.26758
472.432	10.0205
475.807	14.209
479.182	37.1904
482.556	7.00293
485.931	6.8291
489.306	19.459
492.681	22.0234
496.055	22.8896
499.43	19.9346
502.805	21.6182
506.18	33.6172
509.555	56.2842
512.93	38.2969
516.304	38.8897
519.679	47.0127
523.054	32.8799
526.429	47.0674
529.804	29.1543
533.178	18.8711
536.553	6.26562
539.928	24.2588
543.303	30.2471
546.678	26.8965
550.053	27.3027
553.427	22.4219
556.802	9.03906
560.177	4.44824
563.552	9.55957
566.927	16.9238
570.302	30.9785
573.676	44.3633
577.051	44.4619
580.426	48.9463
583.801	59.5293
587.176	64.9356
590.55	72.2481
593.925	98.5469
597.3	113.883
600.675	110.066
604.05	102.328
607.424	64.6367
610.799	54.5727
614.174	48.1006
617.549	19.4102
620.924	4.72217
624.298	0.166016
627.673	8.05664
631.048	0.97998
634.423	2.17529
637.798	13.5102
641.173	11.1191
644.547	25.0181
647.922	20.624
651.297	12.9922
654.672	15.7139
658.047	40.6362
661.421	47.6099
664.796	76.6338
668.171	72.6914
671.546	83.3906
674.921	92.188
678.295	116.4
681.67	123.733
685.045	119.991
688.42	119.253
691.795	100.773
695.17	82.1973
698.544	78.7656
701.919	72.2456
705.294	79.9463
708.669	80.6123
712.044	60.7466
715.418	64.7505
718.793	46.7432
722.168	19.2139
725.543	0.855957
728.918	16.2607
732.293	3.96582
735.667	48.7651
739.042	49.7803
742.417	62.0215
745.792	72.5107
749.167	82.2881
752.541	95.7686
755.916	91.1611
759.291	66.77
762.666	80.4248
766.041	93.1152
769.415	127.68
772.79	126.007
776.165	102.572
779.54	59.7315
782.915	28.6748
786.29	12.7334
789.664	3.34668
793.039	7.15869
796.414	0.861816
799.789	3.28955
803.164	6.03271
806.538	34.6953
809.913	34.2075
813.288	18.0347
816.663	29.5474
820.038	33.6919
823.413	28.7725
826.787	37.1299
830.162	29.3398
833.537	31.2251
836.912	27.4507
840.287	34.7886
843.661	34.3613
847.036	47.1567
850.411	34.021
853.786	37.4155
857.161	31.5654
860.535	30.9439
863.91	39.2188
867.285	28.7666
870.66	30.1846
874.035	27.7471
877.409	25.0303
880.784	28.0278
884.159	40.3892
887.534	53.5825
890.909	40.2593
894.284	47.8101
897.658	24.6821
901.033	34.8071
904.408	29.6079
907.783	34.5669
911.158	28.9814
914.533	22.7895
917.907	17.7432
921.282	26.8779
924.657	15.7251
928.032	8.0708
931.407	5.72754
934.781	0.572754
938.156	5.27441
941.531	13.7705
944.906	1.25
948.281	1.30566
951.655	1.68555
955.03	3.00928
958.405	4.72266
961.78	16.4971
965.155	25.4204
968.529	10.5024
971.904	5.86377
975.279	3.85742
978.654	2.12158
982.029	0.475586
985.404	13.9819
988.778	0.380859
992.153	1.62353
995.528	13.7012
998.903	14.044
1002.28	12.9927
1005.65	29.4033
1009.03	24.9458
1012.4	32.0435
1015.78	38.9243
1019.15	54.2783
1022.53	54.6582
1025.9	80.4463
1029.28	88.4214
1032.65	117.511
1036.03	149.699
1039.4	169.556
1042.78	210.398
1046.15	246.673
1049.53	315.485
1052.9	361.693
1056.28	376.59
1059.65	330.763
1063.02	274.635
1066.4	208.163
1069.77	121.047
1073.15	86.999
1076.52	61.7251
1079.9	53.0659
1083.27	38.438
1086.65	31.645
1090.02	15.3823
1093.4	0.220215
1096.77	1.23438
1100.15	4.49365
1103.52	10.1753
1106.9	6.13135
1110.27	32.9351
1113.65	3.64307
1117.02	10.313
1120.4	0.980469
1123.77	3.70166
1127.15	8.79395
1130.52	1.79883
1133.9	7.81201
1137.27	9.19336
1140.64	20.9512
1144.02	7.28027
1147.39	10.9927
1150.77	15.666
1154.14	3.80908
1157.52	3.48389
1160.89	5.98486
1164.27	2.02148
1167.64	9.97852
1171.02	13.894
1174.39	20.6953
1177.77	27.041
1181.14	35.2085
1184.52	49.8852
1187.89	35.6157
1191.27	63.8818
1194.64	65.9233
1198.02	90.3286
1201.39	97.7515
1204.77	97.9253
1208.14	103.663
1211.52	106.653
1214.89	114.603
1218.27	91.3027
1221.64	74.2905
1225.02	63.2578
1228.39	55.6289
1231.77	37.2607
1235.14	28.958
1238.52	9.32324
1241.89	5.19385
1245.26	8.39648
1248.64	20.5024
1252.01	30.3852
1255.39	57.6299
1258.76	63.1191
1262.14	81.5903
1265.51	66.2495
1268.89	51.3047
1272.26	30.7983
1275.64	20.2446
1279.01	2.20117
1282.39	8.8794
