Measurement: Raman, 532 nm, unoriented, Raman Data Processed
Mineral: Behoite
Rruff sample: R130229
Ideal chemistry: Be(OH)_2_
Locality: Clear Creek pegmatite, Burnet County, Texas, USA
Source: Rock Currier
Description: Colorless vitreous pseudo-octahedral crystals and intergrown clusters
Raman shift (cm-1)	intensity
90.2653	0
93.6401	335.672
97.0149	224.555
100.39	54.6338
103.765	26.3364
107.139	121.682
110.514	393.747
113.889	687.846
117.264	1001.17
120.639	1177.67
124.013	1436.16
127.388	1733.49
130.763	2100.66
134.138	2059.67
137.513	1266.09
140.888	785.894
144.262	520.687
147.637	415.31
151.012	359.069
154.387	325.706
157.762	296.017
161.137	247.453
164.511	225.707
167.886	212.501
171.261	165.737
174.636	144.827
178.011	127.835
181.385	94.543
184.76	84.0439
188.135	83.7978
191.51	84.1963
194.885	69.9141
198.26	61.5772
201.634	73.2451
205.009	115.418
208.384	135.968
211.759	153.638
215.133	130.269
218.508	111.045
221.883	96.3584
225.258	66.3379
228.633	23.7383
232.008	31.1162
235.382	11.9492
238.757	10.3018
242.132	26.3232
245.507	14.1572
248.882	2.51074
252.256	14.9453
255.631	35.7002
259.006	88.2402
262.381	114.697
265.756	194.801
269.131	282.254
272.505	477.252
275.88	615.124
279.255	510.025
282.63	377.359
286.005	187.103
289.38	114.941
292.754	49.7451
296.129	1.15625
299.504	29.1289
302.879	39.5078
306.254	45.7315
309.628	18.6367
313.003	17.9014
316.378	7.96387
319.753	0.761719
323.128	95.1172
326.502	211.08
329.877	449.732
333.252	848.077
336.627	1211.34
340.002	1793.37
343.377	2963.8
346.751	4602.04
350.126	3497.29
353.501	809.433
356.876	274.945
360.251	262.916
363.625	222.426
367	166.036
370.375	194.485
373.75	400.399
377.125	814.006
380.5	1460.16
383.874	2428.47
387.249	3664.88
390.624	5272.17
393.999	7185.11
397.374	8765.34
400.748	8292.76
404.123	5993.16
407.498	3636.79
410.873	2125.72
414.248	1334.64
417.623	975.847
420.997	835.184
424.372	756.305
427.747	791.871
431.122	854.737
434.497	960.408
437.872	1084.62
441.246	1295.33
444.621	1462.07
447.996	1188.49
451.371	839.174
454.745	957.396
458.12	1172.18
461.495	803.4
464.87	249.765
468.245	43.9853
471.62	1.25586
474.994	41.4824
478.369	75.7266
481.744	57.9385
485.119	18.6934
488.494	35.4824
491.868	28.5107
495.243	11.4688
498.618	18.6787
501.993	37.5176
505.368	31.4443
508.743	59.7236
512.117	84.1201
515.492	82.6807
518.867	88.7822
522.242	109.712
525.617	111.431
528.991	103.8
532.366	125.677
535.741	123.641
539.116	101.769
542.491	130.46
545.866	179.08
549.24	201.4
552.615	150.64
555.99	35.6377
559.365	50.0049
562.74	55.3398
566.115	30.9404
569.489	38.5557
572.864	81.4902
576.239	124.137
579.614	183.523
582.989	197.459
586.363	271.469
589.738	317.157
593.113	347.693
596.488	352.435
599.863	354.425
603.237	344.894
606.612	266.023
609.987	213.539
613.362	140.508
616.737	63.9102
620.112	12.6621
623.486	1.99805
626.861	17.0742
630.236	14.3672
633.611	27.541
636.986	14.4277
640.361	0.173828
643.735	34.1211
647.11	60.2754
650.485	108.549
653.86	152.35
657.235	159.58
660.609	209.947
663.984	286.176
667.359	342.346
670.734	396.471
674.109	461.297
677.484	499.631
680.858	584.156
684.233	582.824
687.608	535.947
690.983	431.252
694.357	334.193
697.732	326.234
701.107	319.891
704.482	343.83
707.857	351.685
711.232	293.935
714.606	266.488
717.981	211.541
721.356	156.18
724.731	134.215
728.106	148.377
731.481	125.916
734.855	218.258
738.23	348.691
741.605	468.754
744.98	566.086
748.355	595.174
751.729	569.969
755.104	480.992
758.479	439.041
761.854	545.67
765.229	674.471
768.604	803.41
771.978	901.078
775.353	802.938
778.728	541.705
782.103	333.818
785.478	250.084
788.852	115.981
792.227	19.5039
795.602	19.3887
798.977	47.9121
802.352	18.4336
805.726	25.416
809.101	58.7988
812.476	37.0137
815.851	66.7207
819.226	91.1445
822.601	92.3262
825.975	26.6836
829.35	3.6543
832.725	6.9082
836.1	28.2891
839.475	91.1152
842.85	115.994
846.224	137.408
849.599	85.0781
852.974	79.0234
856.349	98.834
859.724	119.139
863.098	97.5156
866.473	38.0566
869.848	42.7129
873.223	81.5449
876.598	30.5469
879.972	39.2109
883.347	25.0527
886.722	39.5703
890.097	85.4941
893.472	137.424
896.847	133.932
900.221	153.059
903.596	150.373
906.971	141.725
910.346	131.607
913.721	107.644
917.096	96.6856
920.47	71.5176
923.845	74.3555
927.22	49.4375
930.595	5.74805
933.97	12.4609
937.344	25.2012
940.719	22.5664
944.094	45.543
947.469	49.0098
950.844	22.0762
954.218	26.4121
957.593	20.6016
960.968	24.8574
964.343	48.1094
967.718	125.328
971.092	98.9297
974.467	102.211
977.842	97.2422
981.217	109.127
984.592	144.068
987.967	142.69
991.341	128.006
994.716	86.9394
998.091	98.8691
1001.47	136.076
1004.84	123.83
1008.22	151.693
1011.59	179.387
1014.97	252.762
1018.34	300.045
1021.72	354.856
1025.09	466.578
1028.46	626.875
1031.84	705.043
1035.21	831.666
1038.59	965.053
1041.96	1147.67
1045.34	1412.75
1048.71	1710.4
1052.09	2056.46
1055.46	2223.73
1058.84	2086.39
1062.21	1734.02
1065.59	1275.93
1068.96	875.469
1072.34	540.068
1075.71	351.428
1079.09	229.111
1082.46	142.08
1085.84	88.2793
1089.21	56.4062
1092.59	26.2891
1095.96	2.88477
1099.34	7.16992
1102.71	0.667969
1106.09	0.191406
1109.46	15.209
1112.84	27.4766
1116.21	33.502
1119.58	51.416
1122.96	40.1055
1126.33	9.36133
1129.71	14.6836
1133.08	20.4707
1136.46	19.7363
1139.83	44.3418
1143.21	59.9219
1146.58	47.6387
1149.96	40.2578
1153.33	81.8828
1156.71	96.5742
1160.08	70.4688
1163.46	48.8281
1166.83	28.1816
1170.21	53.8438
1173.58	57.1094
1176.96	78.1856
1180.33	64.0352
1183.71	73.5371
1187.08	102.478
1190.46	107.59
1193.83	91.0859
1197.2	85.6738
1200.58	36.1504
1203.95	34.8672
1207.33	57.0273
1210.7	50.0039
1214.08	19.2012
1217.45	34.1875
1220.83	71.5449
1224.2	83.3379
1227.58	9.30859
1230.95	8.83203
1234.33	5.37695
1237.7	3.77734
1241.08	40.3164
1244.45	65.8516
1247.83	87.0449
1251.2	114.293
1254.58	94.4707
1257.95	130.807
1261.33	91.5019
1264.7	37.5469
1268.08	23.5195
1271.45	20.8555
1274.83	49.3184
1278.2	95.8203
1281.58	31.8477
1284.95	53.6465
1288.33	50.0547
1291.7	35.1992
1295.08	45.4766
1298.45	30.2363
1301.83	0
