Measurement: Raman, 532 nm, unoriented, Raman Data Processed
Mineral: Behoite
Rruff sample: R060659
Ideal chemistry: Be(OH)_2_
Locality: Mont St. Hilaire, Quebec, Canada
Source: Michael Scott
Description: Tan colored reticulated groups
Raman shift (cm-1)	intensity
145.005	0
148.38	4.31329
151.755	1.1463
155.129	6.47607
158.504	6.50659
161.879	7.04779
165.254	7.56989
168.629	9.03094
172.003	6.98541
175.378	7.78809
178.753	8.94775
182.128	10.1581
185.503	10.7686
188.877	10.2817
192.252	14.0944
195.627	17.4375
199.002	24.5839
202.377	32.3964
205.752	44.9861
209.126	53.8002
212.501	46.6381
215.876	29.7565
219.251	30.0153
222.626	31.0627
226	17.7304
229.375	5.34741
232.75	2.58575
236.125	1.84924
239.5	2.76178
242.875	4.34338
246.249	9.05408
249.624	11.9278
252.999	13.8829
256.374	17.7664
259.749	24.115
263.123	31.599
266.498	45.7666
269.873	64.2502
273.248	93.9462
276.623	105.938
279.998	79.4131
283.372	46.7385
286.747	14.7059
290.122	2.84106
293.497	2.45404
296.872	3.47784
300.247	6.18054
303.621	5.03076
306.996	2.99988
310.371	2.55426
313.746	0.91394
317.12	3.37683
320.495	8.77106
323.87	22.3117
327.245	47.6453
330.62	113.042
333.995	168.311
337.369	238.925
340.744	351.809
344.119	574.097
347.494	774.644
350.869	306.461
354.243	59.9321
357.618	23.2036
360.993	24.3239
364.368	16.7337
367.743	17.3879
371.118	34.7967
374.492	85.8849
377.867	170.396
381.242	305.561
384.617	486.93
387.992	719.383
391.366	1010.84
394.741	1329.03
398.116	1479.11
401.491	1225.11
404.866	796.048
408.241	474.412
411.615	282.032
414.99	175.136
418.365	121.709
421.74	95.0627
425.115	92.2623
428.49	100.139
431.864	119.373
435.239	147.779
438.614	201.098
441.989	261.29
445.364	256.175
448.738	165.262
452.113	139.459
455.488	173.672
458.863	180.294
462.238	92.5592
465.613	27.5643
468.987	3.64685
472.362	1.45209
475.737	4.41248
479.112	5.75647
482.486	2.84961
485.861	2.13495
489.236	2.17981
492.611	0.474915
495.986	1.40967
499.361	2.67584
502.735	5.40161
506.11	5.39008
509.485	8.95099
512.86	11.1616
516.235	15.4665
519.61	16.5349
522.984	20.6467
526.359	28.2523
529.734	27.4503
533.109	29.8551
536.484	33.9849
539.859	36.751
543.233	40.5684
546.608	40.8334
549.983	34.7408
553.358	20.405
556.732	13.8816
560.107	9.85431
563.482	9.62854
566.857	7.07629
570.232	12.9822
573.607	15.9821
576.981	15.2075
580.356	22.0608
583.731	25.1614
587.106	36.2109
590.481	42.0214
593.856	49.4533
597.23	56.8185
600.605	58.6818
603.98	56.032
607.355	43.7331
610.73	33.9516
614.104	21.3923
617.479	7.81372
620.854	2.04834
624.229	2.89624
627.604	1.78314
630.979	0.958801
634.353	1.68481
637.728	3.23212
641.103	2.6424
644.478	1.50494
647.852	2.65076
651.227	9.40106
654.602	16.1749
657.977	20.3458
661.352	25.233
664.727	31.4782
668.101	36.2049
671.476	48.0962
674.851	53.3358
678.226	63.8643
681.601	74.1401
684.976	72.7242
688.35	60.7955
691.725	50.4689
695.1	46.2378
698.475	49.1127
701.85	46.0358
705.224	47.0211
708.599	41.9406
711.974	31.8209
715.349	25.7629
718.724	15.5491
722.098	8.75
725.473	4.99597
728.848	2.6947
732.223	5.77454
735.598	11.1133
738.973	25.3534
742.347	36.1875
745.722	56.8295
749.097	74.7336
752.472	82.6125
755.847	77.5122
759.221	75.3202
762.596	85.5211
765.971	106.024
769.346	126.69
772.721	130.704
776.096	102.018
779.47	68.9062
782.845	43.7396
786.22	26.1445
789.595	8.81128
792.97	6.06335
796.345	4.85901
799.719	1.44226
803.094	1.30273
806.469	0.959839
809.844	0.067139
813.219	0.074585
816.593	2.31982
819.968	3.68372
823.343	5.41894
826.718	7.23462
830.093	12.0735
833.467	17.6632
836.842	19.3243
840.217	21.7522
843.592	21.7192
846.967	18.9156
850.342	17.4048
853.716	15.0002
857.091	21.3038
860.466	14.8962
863.841	16.5073
867.216	12.1429
870.591	12.413
873.965	10.4316
877.34	5.77759
880.715	4.89062
884.09	4.5481
887.465	6.80225
890.839	10.9597
894.214	11.4261
897.589	13.5338
900.964	16.0931
904.339	20.8407
907.713	20.1717
911.088	22.3395
914.463	18.3213
917.838	14.0579
921.213	10.3478
924.587	12.9656
927.962	6.59912
931.337	5.38794
934.712	4.48792
938.087	3.177
941.462	2.20007
944.836	1.32288
948.211	2.71411
951.586	1.72864
954.961	1.47961
958.336	4.12964
961.711	1.80664
965.085	0.187256
968.46	2.10828
971.835	1.71265
975.21	0.285767
978.585	3.86926
981.959	8.62817
985.334	6.30652
988.709	6.7771
992.084	7.09753
995.459	6.99487
998.833	10.6965
1002.21	12.7047
1005.58	11.1092
1008.96	18.4777
1012.33	22.3175
1015.71	27.9166
1019.08	37.1833
1022.46	47.131
1025.83	61.4484
1029.21	77.4305
1032.58	89.2681
1035.96	102.365
1039.33	119.571
1042.71	148.347
1046.08	180.357
1049.46	224.436
1052.83	262.897
1056.2	281.048
1059.58	254.986
1062.95	200.132
1066.33	141.467
1069.7	94.6085
1073.08	57.0688
1076.45	40.0045
1079.83	23.788
1083.2	16.7527
1086.58	9.57959
1089.95	1.00183
1093.33	1.61145
1096.7	0.234009
1100.08	3.00684
1103.45	1.43372
1106.83	3.51953
1110.2	1.16821
1113.58	1.04956
1116.95	0.875366
1120.33	4.19458
1123.7	4.4165
1127.08	2.2616
1130.45	1.29883
1133.83	6.18469
1137.2	10.0666
1140.58	7.60559
1143.95	7.89038
1147.33	7.17285
1150.7	10.4213
1154.08	10.7447
1157.45	5.37268
1160.83	2.38001
1164.2	6.08313
1167.57	5.73059
1170.95	1.76465
1174.32	2.24853
1177.7	0.965332
1181.07	0.475952
1184.45	0.150391
1187.82	0.033081
1191.2	0.757935
1194.57	2.80359
1197.95	3.77002
1201.32	6.01721
1204.7	2.24988
1208.07	0.709473
1211.45	4.66443
1214.82	8.92432
1218.2	7.15991
1221.57	8.36389
1224.95	6.75891
1228.32	7.17578
1231.7	5.20715
1235.07	3.71814
1238.44	3.9823
1241.82	3.62183
1245.19	5.21179
1248.57	5.73755
1251.94	6.11182
1255.32	3.80627
1258.69	3.97119
1262.07	2.47461
1265.44	3.60938
1268.82	15.016
1272.19	3.10803
1275.57	8.44543
1278.94	6.61328
1282.32	4.41382
1285.69	4.40991
1289.07	6.50635
1292.44	5.4082
1295.82	2.72498
1299.19	0.146973
1302.57	0.80835
