Measurement: Raman, 532 nm, unoriented, Raman Data Processed
Mineral: Behoite
Rruff sample: R130230
Ideal chemistry: Be(OH)_2_
Locality: Rode Ranch pegmatite, Llano County, Texas, USA
Source: Rock Currier
Description: Colorless vitreous pseudo-octahedral crystals in a yellow crust on brown gadolinite
Raman shift (cm-1)	intensity
89.7832	0
93.158	177.157
96.5328	120.826
99.9077	63.1626
103.282	1.68506
106.657	19.0151
110.032	115.668
113.407	149.025
116.782	269.212
120.157	324.18
123.531	388.623
126.906	460.503
130.281	490.534
133.656	400.251
137.031	226.423
140.405	179.797
143.78	93.4219
147.155	72.3281
150.53	54.5007
153.905	52.208
157.28	47.3767
160.654	21.4463
164.029	26.3801
167.404	18.1008
170.779	22.2007
174.154	19.4194
177.528	23.8181
180.903	30.9011
184.278	41.5549
187.653	58.4985
191.028	65.4519
194.403	58.7417
197.777	85.6023
201.152	110.054
204.527	140.292
207.902	180.485
211.277	202.874
214.651	215.047
218.026	192.092
221.401	169.368
224.776	142.86
228.151	82.0808
231.525	10.2082
234.9	7.9021
238.275	3.08984
241.65	13.696
245.025	27.6904
248.4	23.7331
251.774	44.5293
255.149	59.6169
258.524	106.992
261.899	134.1
265.274	201.026
268.649	278.475
272.023	387.564
275.398	436.683
278.773	442.732
282.148	385.055
285.523	188.58
288.897	115.326
292.272	93.4758
295.647	34.958
299.022	10.6897
302.397	15.405
305.772	27.2617
309.146	22.833
312.521	18.5586
315.896	10.75
319.271	3.92529
322.646	30.0403
326.02	90.7849
329.395	210.031
332.77	398.381
336.145	584.506
339.52	835.422
342.894	1312.29
346.269	1967.85
349.644	1654.9
353.019	456.029
356.394	123.648
359.769	71.7119
363.143	88.7661
366.518	93.2344
369.893	108.673
373.268	222.515
376.643	453.884
380.017	825.396
383.392	1356.33
386.767	2028.22
390.142	2852.01
393.517	3791.14
396.892	4475.98
400.266	4240.71
403.641	3130.31
407.016	2000.71
410.391	1250.76
413.766	839.827
417.14	625.819
420.515	552.234
423.89	516.378
427.265	552.543
430.64	643.59
434.014	746.097
437.389	929.403
440.764	1282.15
444.139	1606.76
447.514	1383.58
450.889	847.631
454.263	744.611
457.638	747.759
461.013	470.28
464.388	169.916
467.763	52.1304
471.137	2.79394
474.512	19.1138
477.887	31.8345
481.262	26.937
484.637	5.80518
488.012	0.661133
491.386	9.63623
494.761	15.959
498.136	3.29639
501.511	9.22461
504.886	14.7119
508.26	12.4102
511.635	25.3608
515.01	29.2944
518.385	42.7456
521.76	39.8477
525.135	51.4585
528.509	49.8496
531.884	78.6992
535.259	92.9316
538.634	89.8979
542.009	114.408
545.384	149.755
548.758	198.324
552.133	163.075
555.508	93.7656
558.883	67.7124
562.258	64.9009
565.632	49.897
569.007	67.3101
572.382	75.1582
575.757	116.161
579.132	152.13
582.506	195.525
585.881	254.393
589.256	297.24
592.631	335.369
596.006	366.331
599.381	355.967
602.755	303.668
606.13	247.403
609.505	186.523
612.88	124.303
616.255	73.1689
619.63	37.4639
623.004	16.3135
626.379	7.58496
629.754	11.4663
633.129	7.54346
636.504	10.0645
639.878	11.415
643.253	3.26904
646.628	24.8115
650.003	41.2383
653.378	75.3462
656.752	80.4038
660.127	110.821
663.502	151.562
666.877	180.394
670.252	217.747
673.626	247.234
677.001	282.44
680.376	299.595
683.751	324.34
687.126	314.865
690.501	318.507
693.875	307.062
697.25	311.265
700.625	308.344
704	276.607
707.375	241.973
710.75	185.67
714.124	136.428
717.499	93.3691
720.874	89.0396
724.249	87.0947
727.624	110.737
730.998	136.083
734.373	163.653
737.748	190.815
741.123	174.323
744.498	133.838
747.872	117.765
751.247	133.44
754.622	129.126
757.997	162.844
761.372	222.48
764.747	289.631
768.121	372.945
771.496	391.613
774.871	344.405
778.246	239.828
781.621	135.53
784.995	79.3574
788.37	34.2803
791.745	7.43213
795.12	18.5435
798.495	23.1641
801.87	14.9844
805.244	3.73926
808.619	20.4463
811.994	32.3359
815.369	32.8018
818.744	57.4297
822.119	100.139
825.493	98.7676
828.868	136.054
832.243	152.081
835.618	193.977
838.993	263.982
842.367	318.394
845.742	351.452
849.117	352.66
852.492	336.207
855.867	300.021
859.241	285.625
862.616	263.201
865.991	244.312
869.366	228.129
872.741	246.404
876.115	219.963
879.49	208.509
882.865	204.441
886.24	191.938
889.615	214.82
892.99	228.112
896.364	216.606
899.739	214.957
903.114	183.696
906.489	151.789
909.864	117.656
913.239	85.7842
916.613	65.2519
919.988	54.8408
923.363	42.9243
926.738	22.3506
930.113	13.9683
933.487	18.1387
936.862	5.01221
940.237	6.55762
943.612	4.77441
946.987	6.81201
950.361	4.05957
953.736	7.42871
957.111	12.6777
960.486	17.3213
963.861	13.3852
967.236	22.334
970.61	19.5674
973.985	27.2954
977.36	31.9424
980.735	45.0249
984.11	53.0977
987.485	63.5469
990.859	61.4346
994.234	58.3589
997.609	64.5967
1000.98	83.7495
1004.36	86.3897
1007.73	96.9463
1011.11	130.743
1014.48	170.328
1017.86	210.429
1021.23	245.98
1024.61	297.459
1027.98	381.818
1031.36	436.382
1034.73	515.566
1038.11	595.911
1041.48	730.957
1044.86	891.422
1048.23	1042.63
1051.61	1200.09
1054.98	1236.29
1058.36	1096.44
1061.73	879.995
1065.11	630.328
1068.48	430.855
1071.86	258.652
1075.23	173.015
1078.6	95.2974
1081.98	47.6592
1085.35	35.6397
1088.73	17.8267
1092.1	4.22217
1095.48	3.08935
1098.85	6.05957
1102.23	11.8345
1105.6	2.90967
1108.98	16.5132
1112.35	24.188
1115.73	25.2871
1119.1	20.8384
1122.48	25.9092
1125.85	0.48291
1129.23	3.60644
1132.6	1.29248
1135.98	18.1489
1139.35	21.8164
1142.73	25.4614
1146.1	23.6773
1149.48	13.9287
1152.85	16.9922
1156.22	25.9331
1159.6	15.0254
1162.97	1.30908
1166.35	4.56494
1169.72	3.91162
1173.1	16.1797
1176.47	26.8311
1179.85	22.3901
1183.22	27.9956
1186.6	44.5581
1189.97	28.1094
1193.35	35.4497
1196.72	47.4326
1200.1	28.9551
1203.47	22.3262
1206.85	36.2119
1210.22	35.5864
1213.6	17.7651
1216.97	29.5474
1220.35	34.5869
1223.72	27.1733
1227.1	10.3691
1230.47	5.99658
1233.85	12.5713
1237.22	14.5801
1240.6	18.1309
1243.97	22.9912
1247.35	23.0049
1250.72	41.1065
1254.1	28.2207
1257.47	52.7988
1260.85	24.4111
1264.22	23.2998
1267.59	13.4785
1270.97	13.3789
1274.34	18.0996
1277.72	4.74805
1281.09	2.61328
1284.47	9.47363
1287.84	24.667
1291.22	26.4141
1294.59	19.9033
1297.97	1.71582
1301.34	1.16406
