Measurement: Raman, 532 nm, unoriented, Raman Data Processed
Mineral: Bellingerite
Rruff sample: R050607
Ideal chemistry: Cu_3_(IO_3_)_6_2H_2_O
Locality: Chuquicamata, Chile
Source: University of Arizona Mineral Museum
Description: Bluish green prismatic crystals
Raman shift (cm-1)	intensity
149.934	0
152.826	234.113
155.719	1613.73
158.612	2996.94
161.504	2662.54
164.397	3015.6
167.29	4981.42
170.183	5540.31
173.075	2818.8
175.968	2097.35
178.861	2279.2
181.753	2942.68
184.646	3841.61
187.539	2801.89
190.431	1669.58
193.324	938.379
196.217	36.3245
199.109	358.036
202.002	447.037
204.895	239.65
207.788	314.4
210.68	1334.18
213.573	1948.73
216.466	1581.37
219.358	1807.33
222.251	3149.29
225.144	5405.46
228.036	6873.32
230.929	6050.07
233.822	6064.11
236.715	7935.44
239.607	9777.43
242.5	8237.11
245.393	4548.75
248.286	2797.3
251.178	2745.12
254.071	3859.36
256.964	5502.39
259.856	7227.28
262.749	8420.07
265.642	9369.84
268.534	10450.7
271.427	9600.26
274.32	6047.52
277.212	2782.73
280.105	999.594
282.998	281.672
285.891	160.737
288.783	422.565
291.676	1105.46
294.569	2188.3
297.461	3567.02
300.354	4180.74
303.247	3711.31
306.14	3533.33
309.032	4550.9
311.925	7072.59
314.818	11060.7
317.71	14128.1
320.603	11819.3
323.496	7555.84
326.389	5481.33
329.281	5466.66
332.174	6709.15
335.067	7965.22
337.959	7338.02
340.852	5661.76
343.745	4971.47
346.637	5370.58
349.53	6008.92
352.423	5950.75
355.315	4827.15
358.208	3292.81
361.101	2701.97
363.994	2287.13
366.886	793.55
369.779	261.553
372.672	519.522
375.565	413.776
378.457	9.58887
381.35	642.953
384.243	1668.39
387.135	3279.3
390.028	5404.9
392.921	8098.08
395.813	11563.7
398.706	15597.8
401.599	18405.3
404.491	17033
407.384	12063.3
410.277	7334.17
413.17	4214.77
416.062	2378.07
418.955	1419.24
421.848	854.318
424.74	515.213
427.633	347.59
430.526	104.882
433.418	64.0259
436.311	77.0515
439.204	85.8391
442.097	312.287
444.989	630.272
447.882	1059.33
450.775	1644.54
453.667	2358.22
456.56	3256.42
459.453	4405.36
462.346	6110.74
465.238	8558.04
468.131	11709.7
471.024	15552.4
473.916	19442.6
476.809	21935.9
479.702	21078.2
482.594	16972.4
485.487	12345.2
488.38	8943.18
491.273	6874.74
494.165	5760.63
497.058	5034.71
499.951	4249.97
502.843	3283.76
505.736	2303.76
508.629	1566.45
511.522	1079.99
514.414	726.262
517.307	474.729
520.2	313.211
523.092	180.26
525.985	82.7203
528.878	32.1368
531.77	12.7632
534.663	27.5951
537.556	19.2106
540.448	14.2302
543.341	2.82971
546.234	8.53296
549.127	52.4829
552.019	82.1857
554.912	113.757
557.805	158.59
560.697	218.767
563.59	253.029
566.483	303.667
569.376	327.231
572.268	363.043
575.161	375.007
578.054	373.172
580.946	416.394
583.839	422.191
586.732	444.815
589.625	452.887
592.517	456.03
595.41	496.447
598.303	536.939
601.195	586.945
604.088	650.526
606.981	707.504
609.874	777.044
612.766	855.36
615.659	888.612
618.552	892.768
621.444	857.331
624.337	823.517
627.23	742.644
630.122	673.043
633.015	574.449
635.908	482.76
638.801	411.42
641.693	297.302
644.586	239.196
647.479	142.299
650.371	62.0527
653.264	6.66333
656.157	75.4976
659.049	154.913
661.942	252.109
664.835	301.347
667.727	331.526
670.62	360.853
673.513	277.765
676.406	155.065
679.298	73.479
682.191	385.69
685.084	851.413
687.976	1506.35
690.869	2522.99
693.762	4206.49
696.654	6965.94
699.547	12349.9
702.44	21909.2
705.333	35769.1
708.225	55727.1
711.118	80944.6
714.011	101201
716.904	91492.3
719.796	64644.2
722.689	41582.8
725.582	21565.8
728.474	11015.6
731.367	6959.19
734.26	6484.93
737.152	8470
740.045	12409
742.938	16617.1
745.831	17893.2
748.723	16703
751.616	13405.8
754.509	11408.1
757.401	11065
760.294	11973.5
763.187	14023
766.08	17377.5
768.972	22304.3
771.865	28852.5
774.758	36911.3
777.65	46460.4
780.543	58356.5
783.436	69887.9
786.328	73952.6
789.221	71444.1
792.114	62763.1
795.006	49198.3
797.899	42478.3
800.792	39572.1
803.685	33082.8
806.577	22449.6
809.47	12995.6
812.363	7025.35
815.255	3851.04
818.148	2041.99
821.041	969.566
823.933	351.029
826.826	35.2371
829.719	270.113
832.612	338.333
835.504	390.073
838.397	373.286
841.29	297.414
844.182	212.204
847.075	113.673
849.968	32.0142
852.861	71.4646
855.753	186.739
858.646	281.75
861.539	378.143
864.431	456.602
867.324	539.574
870.217	624.55
873.11	699.443
876.002	789.867
878.895	858.195
881.788	945.61
884.68	1009.79
887.573	1054.9
890.466	1053.8
893.358	1033.25
896.251	949.721
899.144	869.152
902.037	794.028
904.929	729.786
907.822	668.522
910.715	621.053
913.607	613.722
916.5	584.328
919.393	561.912
922.285	555.831
925.178	531.325
928.071	529.112
930.964	548.737
933.856	511.656
936.749	494.338
939.642	469.147
942.534	459.116
945.427	423.193
948.32	402.656
951.212	379.561
954.105	357.632
956.998	315.691
959.891	298.131
962.783	299.284
965.676	266.263
968.569	220.628
971.461	210.069
974.354	182.22
977.247	186.761
980.139	156.571
983.032	128.232
985.925	127.55
988.818	99.725
991.71	93.3154
994.603	76.0161
997.496	61.2741
1000.39	61.805
1003.28	36.5005
1006.17	30.0991
1009.07	12.5405
1011.96	14.9869
1014.85	10.0002
1017.75	11.3786
1020.64	13.4764
1023.53	4.06024
1026.42	0.990051
1029.32	3.12302
1032.21	12.2608
1035.1	10.9938
1037.99	12.5209
1040.89	12.0962
1043.78	5.87723
1046.67	7.20657
1049.56	5.9393
1052.46	3.98004
1055.35	5.49408
1058.24	3.31558
1061.13	0.871857
1064.03	7.11533
1066.92	11.294
1069.81	14.1324
1072.71	0.298096
1075.6	12.0247
1078.49	6.89996
1081.38	8.29449
1084.28	9.29663
1087.17	1.7175
1090.06	0.442261
1092.95	8.20044
1095.85	0.618683
1098.74	4.15787
1101.63	1.815
1104.53	12.4759
1107.42	16.289
1110.31	17.0614
1113.2	14.2364
1116.1	22.8277
1118.99	11.2315
1121.88	24.3636
1124.78	30.3442
1127.67	37.8085
1130.56	23.2898
1133.45	25.8441
1136.35	11.0515
1139.24	19.8761
1142.13	35.5667
1145.02	31.8173
1147.92	44.9592
1150.81	23.1073
1153.7	24.4316
1156.59	26.0774
1159.49	24.1763
1162.38	17.7432
1165.27	19.1478
1168.16	25.3503
1171.06	20.5598
1173.95	16.2625
1176.84	22.9177
1179.74	10.7209
1182.63	20.5198
1185.52	13.2404
1188.41	20.5009
1191.31	23.0328
1194.2	30.5505
1197.09	9.40439
1199.98	16.5249
1202.88	16.7118
1205.77	24.05
1208.66	22.636
1211.56	3.22079
1214.45	9.01492
1217.34	7.96133
1220.23	13.6515
1223.13	4.6351
1226.02	5.24786
1228.91	2.70667
1231.81	4.09168
1234.7	3.62357
1237.59	17.3599
1240.48	17.2248
1243.38	5.06644
1246.27	13.4581
1249.16	20.4193
1252.05	22.5432
1254.95	11.6798
1257.84	19.5231
1260.73	35.4929
1263.62	62.4662
1266.52	33.5197
1269.41	23.5513
1272.3	16.3707
1275.19	26.3248
1278.09	23.3997
1280.98	23.3708
1283.87	24.0138
1286.77	13.5467
1289.66	13.7744
1292.55	17.9983
1295.44	3.76135
1298.34	7.36697
1301.23	7.84256
