Measurement: Raman, 532 nm, unoriented, Raman Data Processed
Mineral: Belovite-(Ce)
Rruff sample: R070163
Ideal chemistry: NaCeSr_3_(PO_4_)_3_F
Locality: Mochalin Log, Kyshtym, Chelyabinsk Oblast', Urals Region, Russia
Source: Michael Scott
Description: Brownish red vitreous massive, associated with bastnasite-(La), R070142; 785 Raman signal was overwhelmed by fluorescence and is not posted.
Raman shift (cm-1)	intensity
157.895	0
161.27	37.8733
164.645	14.2559
168.02	69.8516
171.395	55.7463
174.769	53.8816
178.144	59.5095
181.519	43.291
184.894	126.307
188.269	125.158
191.644	143.791
195.018	155.941
198.393	196.621
201.768	201.584
205.143	225.66
208.518	303.52
211.893	259.908
215.267	251.984
218.642	325.373
222.017	278.828
225.392	252.956
228.767	191.809
232.141	259.197
235.516	307.465
238.891	260.221
242.266	320.143
245.641	335.053
249.015	343.432
252.39	386.207
255.765	397.331
259.14	456.235
262.515	481.25
265.889	520.549
269.264	571.984
272.639	602.2
276.014	590.458
279.389	624.848
282.764	647.661
286.138	659.023
289.513	642.871
292.888	594.051
296.263	552.238
299.638	443.291
303.012	408.89
306.387	366.181
309.762	274.207
313.137	195.386
316.512	156.408
319.887	125.32
323.261	86.3845
326.636	50.7612
330.011	10.7349
333.386	1.98682
336.761	33.613
340.135	31.1553
343.51	29.7576
346.885	11.5784
350.26	2.2439
353.635	66.2461
357.01	161.342
360.384	246.265
363.759	399.206
367.134	543.276
370.509	691.947
373.884	853.204
377.258	1000.2
380.633	1035.27
384.008	1045.56
387.383	1065.71
390.758	1071.28
394.132	1048.56
397.507	1060.37
400.882	1016.49
404.257	898.982
407.632	880.833
411.007	858.603
414.381	829.918
417.756	735.742
421.131	610.56
424.506	570.826
427.881	490.127
431.255	405.986
434.63	352.394
438.005	276.477
441.38	231.643
444.755	179.339
448.13	116.226
451.504	99.6775
454.879	69.1096
458.254	63.0791
461.629	14.6177
465.003	32.4922
468.378	43.2219
471.753	15.8711
475.128	31.7366
478.503	11.385
481.878	34.1848
485.252	39.5627
488.627	64.2935
492.002	46.9514
495.377	97.3101
498.752	179.291
502.127	231.364
505.501	273.93
508.876	360.863
512.251	462.799
515.626	545.986
519	635.036
522.375	697.253
525.75	747.3
529.125	711.826
532.5	589.125
535.875	491.759
539.249	347.932
542.624	277.748
545.999	232.453
549.374	202.582
552.749	198.131
556.124	160.5
559.498	130.344
562.873	109.703
566.248	118.892
569.623	93.8852
572.998	97.6458
576.372	61.8907
579.747	13.2541
583.122	3.02747
586.497	9.71338
589.872	8.68677
593.246	31.6675
596.621	19.2452
599.996	23.5292
603.371	38.596
606.746	32.4367
610.12	81.9862
613.495	83.106
616.87	70.4661
620.245	71.7499
623.62	52.8629
626.995	63.0879
630.369	56.3999
633.744	62.9369
637.119	63.8016
640.494	56.4353
643.869	69.6844
647.244	40.6967
650.618	39.7626
653.993	53.6832
657.368	22.8259
660.743	29.8867
664.117	35.5917
667.492	25.0427
670.867	32.3396
674.242	46.9552
677.617	68.2308
680.992	69.8317
684.366	95.6252
687.741	81.0377
691.116	62.1736
694.491	62.3776
697.866	49.3683
701.24	73.6617
704.615	39.3488
707.99	46.1293
711.365	63.777
714.74	59.9636
718.115	58.6641
721.489	85.2307
724.864	74.9273
728.239	103.305
731.614	101.917
734.989	106.17
738.363	123.349
741.738	93.3188
745.113	105.124
748.488	98.83
751.863	80.0101
755.237	51.8461
758.612	61.8223
761.987	67.3151
765.362	33.3453
768.737	40.6577
772.112	16.2098
775.486	41.6553
778.861	1.58032
782.236	15.8861
785.611	17.7686
788.986	18.8391
792.361	43.5167
795.735	45.1628
799.11	18.8224
802.485	6.57471
805.86	60.1656
809.235	88.095
812.609	175.581
815.984	319.396
819.359	518.159
822.734	762.236
826.109	1090.05
829.483	1509.09
832.858	2036.79
836.233	2649.18
839.608	3198
842.983	3708.37
846.357	3993.39
849.732	3984.64
853.107	3799.99
856.482	3330.2
859.857	2749.37
863.231	2301.83
866.606	1800.98
869.981	1373.41
873.356	1047.05
876.731	778.317
880.106	619.3
883.48	437.086
886.855	363.903
890.23	322.264
893.605	258.433
896.98	233.138
900.355	250.779
903.729	207.158
907.104	185.615
910.479	165.722
913.854	165.993
917.229	197.109
920.603	175.357
923.978	197.684
927.353	161.882
930.728	202.037
934.103	247.005
937.477	296.515
940.852	374.483
944.227	402.718
947.602	472.716
950.977	511.093
954.351	502.202
957.726	425.187
961.101	358.745
964.476	265.7
967.851	163.403
971.226	99.1738
974.6	39.1782
977.975	7.01428
981.35	7.2832
984.725	25.3524
988.1	9.19324
991.475	7.02454
994.849	5.6084
998.224	28.2643
1001.6	14.6204
1004.97	7.04651
1008.35	14.7493
1011.72	10.7906
1015.1	12.9248
1018.47	64.7944
1021.85	39.3988
1025.22	29.7167
1028.6	40.9247
1031.97	61.8225
1035.35	66.5414
1038.72	70.2797
1042.1	85.5796
1045.47	72.9359
1048.85	83.0715
1052.22	75.484
1055.6	72.3905
1058.97	67.1578
1062.35	89.04
1065.72	94.6056
1069.1	80.5404
1072.47	76.3136
1075.85	87.3269
1079.22	76.6805
1082.59	93.62
1085.97	54.5955
1089.34	80.6818
1092.72	48.7059
1096.09	57.6312
1099.47	46.2255
1102.84	19.2118
1106.22	5.31519
1109.59	30.0709
1112.97	21.6515
1116.34	35.986
1119.72	37.7416
1123.09	49.6752
1126.47	18.2308
1129.84	39.7328
1133.22	29.9092
1136.59	18.2104
1139.97	28.7855
1143.34	22.2978
1146.72	12.1992
1150.09	12.4815
1153.47	48.1766
1156.84	13.9351
1160.21	15.8231
1163.59	4.69537
1166.96	24.8146
1170.34	8.03088
1173.71	16.7865
1177.09	24.6984
1180.46	9.40204
1183.84	28.8654
1187.21	15.1356
1190.59	0.98938
1193.96	31.2162
1197.34	20.8686
1200.71	19.5347
1204.09	27.4352
1207.46	9.38208
1210.84	15.0752
1214.21	36.598
1217.59	23.8451
1220.96	23.8009
1224.34	18.2521
1227.71	3.06482
1231.09	32.8204
1234.46	15.6632
1237.84	29.2607
1241.21	1.20081
1244.59	11.743
1247.96	31.2499
1251.34	28.0901
1254.71	15.0269
1258.09	30.0104
1261.46	45.6204
1264.83	7.84265
1268.21	7.39099
1271.58	19.4373
1274.96	32.2787
1278.33	4.51587
1281.71	18.0874
1285.08	20.506
1288.46	13.8876
1291.83	34.829
1295.21	2.71094
1298.58	34.8404
1301.96	19.4496
1305.33	16.8806
1308.71	15.9707
1312.08	48.3511
1315.46	21.9846
