Measurement: Raman, 532 nm, unoriented, Raman Data Processed
Mineral: Benitoite
Rruff sample: R050332
Ideal chemistry: BaTiSi_3_O_9_
Locality: Benitoite Gem mine, Santa Rita Peak, San Benito County, California, USA
Source: California Institute of Technology
Description: Pale blue fragment
Measured chemistry: Ba_1.00_Ti_1.00_Si_3.00_O_9_
Raman shift (cm-1)	intensity
102.96	0.289843
106.335	8.6113
109.71	10.5984
113.085	18.5596
116.459	33.377
119.834	64.3366
123.209	99.385
126.584	23.3983
129.959	1.82581
133.333	3.4442
136.708	2.72034
140.083	12.2911
143.458	41.772
146.833	64.7092
150.208	82.4889
153.582	116.707
156.957	183.979
160.332	324.464
163.707	252.514
167.082	23.2804
170.456	12.5905
173.831	15.3725
177.206	2.62578
180.581	42.2772
183.956	178.077
187.331	247.352
190.705	317.562
194.08	434.027
197.455	723.237
200.83	1332.45
204.205	882.583
207.579	765.287
210.954	974.894
214.329	1459.47
217.704	2201.68
221.079	1692.25
224.453	680.187
227.828	439.383
231.203	529.708
234.578	360.449
237.953	125.034
241.328	118.645
244.702	179.182
248.077	299.223
251.452	459.073
254.827	637.996
258.202	881.696
261.577	1224.86
264.951	1461.9
268.326	1156.5
271.701	633.078
275.076	335.503
278.451	192.939
281.825	117.25
285.2	67.7367
288.575	35.2199
291.95	14.8568
295.325	2.95417
298.7	2.0651
302.074	4.97166
305.449	4.24186
308.824	5.83966
312.199	3.76125
315.574	2.63493
318.948	0.799789
322.323	1.84231
325.698	7.89749
329.073	32.704
332.448	71.4081
335.822	99.1515
339.197	152.626
342.572	301.296
345.947	578.869
349.322	422.458
352.697	490.391
356.071	817.663
359.446	1149.55
362.821	1346.56
366.196	1640.45
369.571	2232.1
372.945	1736.69
376.32	734.454
379.695	453.681
383.07	401.734
386.445	430.018
389.82	565.235
393.194	772.042
396.569	703.897
399.944	316.899
403.319	140.966
406.694	73.8878
410.068	42.3712
413.443	24.7861
416.818	14.779
420.193	9.42361
423.568	4.10899
426.942	6.94888
430.317	0.301056
433.692	2.58331
437.067	5.96142
440.442	6.61892
443.817	5.03424
447.191	3.34729
450.566	13.6966
453.941	26.3951
457.316	50.0055
460.691	89.0029
464.065	112.331
467.44	53.8914
470.815	21.0401
474.19	13.0351
477.565	6.42597
480.94	1.26514
484.314	0.636093
487.689	14.5696
491.064	36.0378
494.439	64.4841
497.814	111.895
501.188	148.658
504.563	138.037
507.938	84.7752
511.313	76.3248
514.688	112.336
518.063	199.802
521.437	350.909
524.812	531.309
528.187	815.624
531.562	1203.87
534.937	1385.12
538.312	902.143
541.686	417.033
545.061	201.728
548.436	105.911
551.811	69.274
555.186	77.4617
558.56	202.635
561.935	440.301
565.31	656.739
568.685	1260.44
572.06	2115.3
575.434	2456.59
578.809	622.925
582.184	201.866
585.559	93.267
588.934	51.93
592.308	29.6095
595.683	16.7952
599.058	6.23261
602.433	0.664696
605.808	3.96481
609.183	5.5669
612.557	4.96837
615.932	3.70258
619.307	1.65083
622.682	12.0148
626.057	32.0011
629.432	66.2616
632.806	112.963
636.181	148.86
639.556	123.251
642.931	78.9845
646.306	55.8056
649.68	41.9464
653.055	35.1217
656.43	29.2486
659.805	24.8275
663.18	20.632
666.554	15.6844
669.929	10.8522
673.304	7.56405
676.679	5.20064
680.054	4.12667
683.428	4.94207
686.803	4.72046
690.178	3.71112
693.553	3.62294
696.928	2.83181
700.303	2.82914
703.677	2.04205
707.052	2.28689
710.427	0.396412
713.802	0.179539
717.177	0.19183
720.552	0.010483
723.926	0.014561
727.301	0.981991
730.676	1.58789
734.051	3.16457
737.426	4.42753
740.8	8.08813
744.175	8.70061
747.55	9.42177
750.925	8.16225
754.3	6.57108
757.674	7.20272
761.049	6.80719
764.424	8.92228
767.799	8.74089
771.174	9.06001
774.549	9.02839
777.923	10.3078
781.298	11.646
784.673	13.7664
788.048	15.4018
791.423	15.4049
794.798	15.4145
798.172	13.5241
801.547	10.76
804.922	8.06684
808.297	7.38897
811.672	4.88312
815.046	4.81639
818.421	2.40966
821.796	0.339325
825.171	1.02232
828.546	2.06889
831.92	1.76509
835.295	2.6987
838.67	2.08024
842.045	1.06359
845.42	1.34503
848.795	0.393021
852.169	0.610222
855.544	1.25749
858.919	1.85647
862.294	1.06168
865.669	1.79095
869.043	3.06143
872.418	6.5787
875.793	10.7496
879.168	15.0754
882.543	20.6669
885.918	30.3325
889.292	39.8635
892.667	49.9644
896.042	68.0635
899.417	91.6066
902.792	128.252
906.166	181.506
909.541	264.247
912.916	381.807
916.291	549.474
919.666	851.515
923.04	1373.48
926.415	2032.84
929.79	2818.2
933.165	3730.46
936.54	3667.48
939.915	2449.38
943.289	1771.15
946.664	1845.82
950.039	1595.34
953.414	834.998
956.789	449.226
960.163	274.245
963.538	177.747
966.913	122.667
970.288	84.7717
973.663	57.3824
977.038	37.1874
980.412	22.3789
983.787	13.6069
987.162	5.16479
990.537	0.656845
993.912	2.12669
997.287	3.87172
1000.66	3.01626
1004.04	2.2283
1007.41	0.664063
1010.79	1.82352
1014.16	5.9608
1017.53	8.34028
1020.91	7.81741
1024.29	2.88094
1027.66	0.494881
1031.04	1.18518
1034.41	2.32704
1037.78	9.16115
1041.16	23.4136
1044.53	49.4628
1047.91	89.4027
1051.28	144.511
1054.66	204.599
1058.03	208.006
1061.41	136.636
1064.78	72.563
1068.16	38.2546
1071.53	22.5669
1074.91	14.8719
1078.28	12.9361
1081.66	13.9377
1085.03	22.1621
1088.41	32.3312
1091.78	43.7252
1095.16	43.2987
1098.53	32.8991
1101.91	22.9699
1105.28	17.8503
1108.65	13.8547
1112.03	11.5047
1115.4	10.5306
1118.78	7.92121
1122.15	7.51156
1125.53	6.19194
1128.9	4.4728
1132.28	3.30397
1135.65	3.46134
1139.03	1.44059
1142.4	0.588413
1145.78	0.635319
1149.15	0.276588
1152.53	0.704124
1155.9	0.23521
1159.28	0.070534
1162.65	0.34234
1166.03	0.396336
1169.4	0.214745
1172.78	0.60421
1176.15	0.769472
1179.53	2.23936
1182.9	3.58974
1186.28	5.95389
1189.65	7.64766
1193.03	10.306
1196.4	15.9014
1199.78	15.9068
1203.15	17.8477
1206.53	18.9228
1209.9	17.3711
1213.28	18.1599
1216.65	17.2796
1220.02	15.8535
1223.4	12.9782
1226.77	10.2922
1230.15	6.9265
1233.52	4.70266
1236.9	2.41944
1240.27	2.1425
1243.65	1.01799
1247.02	0.546572
1250.4	0.110485
1253.77	0.518879
1257.15	0.148987
1260.52	0.250771
1263.9	0.060474
1267.27	1.06978
1270.65	1.02491
1274.02	0.879416
1277.4	1.33395
1280.77	1.63845
1284.15	1.44258
1287.52	1.32399
1290.9	1.38028
1294.27	1.57218
1297.64	0.580191
1301.02	0.508009
1304.39	0.249573
