Measurement: Raman, 532 nm, unoriented, Raman Data Processed
Mineral: Benitoite
Rruff sample: R050320
Ideal chemistry: BaTiSi_3_O_9_
Locality: San Benito County, California, USA
Source: American Museum of Natural History
Description: Blue fragment
Measured chemistry: Ba_1.00_Ti_1.00_(Si_2.99_Al_0.01_)_Î£=3_O_9_
Raman shift (cm-1)	intensity
100.549	0
103.924	0.117567
107.299	0.468573
110.674	4.38058
114.049	12.7027
117.424	14.7646
120.798	39.1358
124.173	43.2355
127.548	4.72532
130.923	0.359081
134.298	1.07488
137.673	12.3979
141.047	48.7909
144.422	83.441
147.797	110.255
151.172	151.588
154.547	222.069
157.921	411.845
161.296	623.643
164.671	126.182
168.046	19.0075
171.421	3.47504
174.796	7.77297
178.17	2.31529
181.545	21.0235
184.92	55.1709
188.295	74.5293
191.67	119.402
195.044	193.232
198.419	394.402
201.794	642.01
205.169	273.549
208.544	292.04
211.918	443.162
215.293	784.692
218.668	1133.08
222.043	645.699
225.418	266.131
228.792	214.294
232.167	312.057
235.542	139.69
238.917	70.7755
242.292	86.1191
245.667	122.651
249.041	189.253
252.416	271.319
255.791	371.677
259.166	520.466
262.541	711.476
265.916	761.213
269.29	511.464
272.665	270.926
276.04	145.502
279.415	84.2629
282.79	48.6759
286.164	30.4955
289.539	12.2354
292.914	5.20866
296.289	1.24519
299.664	2.15934
303.038	4.43586
306.413	3.04835
309.788	2.23297
313.163	1.57758
316.538	1.16816
319.913	2.6067
323.287	5.89539
326.662	12.1866
330.037	43.7342
333.412	62.5921
336.787	95.809
340.161	143.421
343.536	274.301
346.911	504.006
350.286	308.295
353.661	382.762
357.036	443.122
360.41	616.613
363.785	899.544
367.16	1128.47
370.535	1354.16
373.91	911.799
377.284	434.821
380.659	257.32
384.034	208.735
387.409	222.808
390.784	305.577
394.159	409.871
397.533	308.309
400.908	125.328
404.283	58.9293
407.658	32.4892
411.033	19.5645
414.407	8.60282
417.782	5.56013
421.157	2.04631
424.532	0.049446
427.907	2.4678
431.281	3.34144
434.656	2.81738
438.031	5.00544
441.406	3.51588
444.781	3.00112
448.156	5.96061
451.53	14.9001
454.905	34.4273
458.28	60.1153
461.655	59.7743
465.03	41.2803
468.404	50.7413
471.779	77.0902
475.154	96.3748
478.529	85.3319
481.904	58.3781
485.279	49.2451
488.653	55.0764
492.028	48.8211
495.403	44.2155
498.778	58.9809
502.153	69.1692
505.527	50.1916
508.902	22.7045
512.277	24.2531
515.652	47.476
519.027	96.7328
522.402	169.682
525.776	262.979
529.151	418.339
532.526	603.41
535.901	626.069
539.276	335.2
542.65	141.907
546.025	61.9819
549.4	26.8745
552.775	17.9908
556.15	39.1242
559.525	150.501
562.899	244.155
566.274	405.779
569.649	784.232
573.024	1395.55
576.399	1126.06
579.774	247.801
583.148	88.5451
586.523	38.2409
589.898	19.4636
593.273	10.3797
596.648	3.49978
600.022	1.22585
603.397	1.59663
606.772	2.40556
610.147	2.18923
613.522	1.01389
616.896	1.89177
620.271	0.196445
623.646	1.05155
627.021	0.398052
630.396	5.65228
633.77	10.7782
637.145	16.1098
640.52	17.5385
643.895	16.0026
647.27	15.1212
650.645	12.9878
654.019	11.6583
657.394	10.9477
660.769	10.8339
664.144	11.3767
667.519	9.89195
670.894	7.21809
674.268	7.39876
677.643	5.53921
681.018	4.82507
684.393	4.36395
687.768	2.45227
691.142	2.63266
694.517	3.2565
697.892	2.1865
701.267	1.98271
704.642	2.45406
708.016	1.29668
711.391	1.76983
714.766	0.511337
718.141	1.6437
721.516	1.54887
724.891	2.31545
728.265	3.41088
731.64	7.39357
735.015	12.1991
738.39	15.8225
741.765	22.9184
745.139	26.7679
748.514	27.2196
751.889	23.4317
755.264	19.935
758.639	18.3444
762.014	17.2108
765.388	10.5437
768.763	7.25227
772.138	6.35887
775.513	3.99303
778.888	6.51213
782.263	5.20677
785.637	6.01044
789.012	6.03618
792.387	7.86006
795.762	6.57364
799.136	5.32562
802.511	5.11921
805.886	1.7986
809.261	3.7356
812.636	1.93399
816.011	3.53255
819.385	1.99961
822.76	1.30835
826.135	0.104603
829.51	0.163834
832.885	0.201328
836.26	1.42228
839.634	0.82576
843.009	0.057846
846.384	0.422688
849.759	0.4804
853.134	1.14059
856.508	1.65825
859.883	0.066959
863.258	1.61562
866.633	2.50529
870.008	3.32439
873.383	5.77267
876.757	8.47604
880.132	12.9578
883.507	17.6949
886.882	26.279
890.257	37.9212
893.631	49.4977
897.006	69.5766
900.381	103.452
903.756	149.685
907.131	217.61
910.505	307.262
913.88	371.306
917.255	407.519
920.63	565.875
924.005	852.729
927.38	1146.32
930.754	1451.76
934.129	1784.23
937.504	1578.75
940.879	1006.05
944.254	794.751
947.629	864.681
951.003	651.507
954.378	331.408
957.753	182.533
961.128	111.442
964.503	73.1932
967.877	45.4913
971.252	29.0086
974.627	16.8018
978.002	9.58164
981.377	2.17048
984.751	0.094933
988.126	3.52816
991.501	2.63134
994.876	3.35445
998.251	6.56704
1001.63	13.7522
1005	28.9995
1008.38	32.1554
1011.75	29.4989
1015.12	36.7612
1018.5	38.272
1021.87	31.5344
1025.25	20.8303
1028.62	12.9568
1032	8.8432
1035.37	6.66999
1038.75	3.54767
1042.12	8.29519
1045.5	12.7932
1048.87	20.8827
1052.25	32.5557
1055.62	49.6837
1059	49.5472
1062.37	28.6884
1065.75	14.9782
1069.12	5.76163
1072.5	1.1358
1075.87	0.019836
1079.25	0.091476
1082.62	0.386673
1086	0.922508
1089.37	2.25169
1092.75	6.70736
1096.12	11.1484
1099.49	13.0649
1102.87	12.0207
1106.24	6.79313
1109.62	4.87061
1112.99	3.04874
1116.37	3.38454
1119.74	3.5294
1123.12	3.41404
1126.49	3.51941
1129.87	2.50501
1133.24	1.34487
1136.62	3.05523
1139.99	2.76985
1143.37	0.583504
1146.74	0.627514
1150.12	0.122105
1153.49	0.410013
1156.87	0.290998
1160.24	0.227615
1163.62	0.339563
1166.99	0.511448
1170.37	1.19225
1173.74	0.299789
1177.12	0.932653
1180.49	0.873896
1183.87	1.67607
1187.24	2.44247
1190.62	2.13397
1193.99	4.4081
1197.37	4.3734
1200.74	4.85071
1204.12	5.01039
1207.49	5.62499
1210.86	4.8276
1214.24	4.72582
1217.61	5.34976
1220.99	4.48195
1224.36	2.70381
1227.74	3.1784
1231.11	2.40497
1234.49	2.52074
1237.86	0.917984
1241.24	0.953722
1244.61	1.21666
1247.99	0.851049
1251.36	0.827122
1254.74	0.754999
1258.11	0.011339
1261.49	0.633696
1264.86	1.29101
1268.24	0.531656
1271.61	1.76167
1274.99	1.86974
1278.36	1.03176
1281.73	2.25854
1285.11	1.30062
1288.48	0.95351
1291.86	1.81507
1295.23	1.11936
1298.61	0.013136
1301.98	0.408356
