Measurement: Raman, 514 nm, unoriented, Raman Data Processed
Mineral: Benitoite
Rruff sample: R050332
Ideal chemistry: BaTiSi_3_O_9_
Locality: Benitoite Gem mine, Santa Rita Peak, San Benito County, California, USA
Source: California Institute of Technology
Description: Pale blue fragment
Measured chemistry: Ba_1.00_Ti_1.00_Si_3.00_O_9_
Raman shift (cm-1)	intensity
52.866	0
57.065	33.53
61.262	24.678
65.458	15.482
69.651	17.538
73.842	214.444
78.031	296.006
82.218	178.554
86.404	167.017
90.587	181.631
94.768	230.787
98.947	230.889
103.124	293.316
107.3	572.796
111.473	1235.33
115.644	1125.79
119.813	622.961
123.981	541.646
128.146	319.7
132.309	257.003
136.47	273.424
140.63	368.192
144.787	479.073
148.942	915.301
153.096	2605.05
157.247	7285.98
161.396	11616.4
165.544	3659.34
169.689	1033.24
173.833	446.689
177.974	251.541
182.114	287.805
186.251	299.481
190.387	395.569
194.52	845.064
198.652	1941.96
202.782	1941.24
206.909	835.899
211.035	1341.93
215.159	3325.32
219.281	5358.02
223.4	2760.01
227.518	1869.22
231.634	2332.5
235.748	1867.83
239.86	1945.5
243.97	2317.03
248.079	3164.31
252.185	4951.73
256.289	8744.85
260.391	16010.1
264.492	23994.7
268.59	20248.7
272.687	10571.6
276.781	5418.65
280.874	3103.51
284.964	1913.7
289.053	1238.83
293.14	914.276
297.225	663.026
301.308	488.061
305.389	383.374
309.468	347.964
313.545	312.828
317.62	298.961
321.693	201.35
325.765	213.975
329.834	250.817
333.902	405.859
337.967	1142.09
342.031	4933.51
346.093	11831.7
350.153	8841.88
354.21	7069.84
358.267	4719.97
362.321	5621.27
366.373	5898.74
370.423	9789.38
374.471	10576.2
378.518	5368.26
382.563	1960.49
386.605	1102.05
390.646	1351.93
394.685	1930.16
398.722	1159.74
402.757	440.651
406.79	112.873
410.821	4.611
414.851	53.898
418.878	65.224
422.904	78.69
426.927	100.343
430.949	99.234
434.969	57.34
438.987	60.542
443.003	24.85
447.018	68.796
451.03	187.532
455.041	277.366
459.049	731.295
463.056	1558.31
467.061	1902.42
471.064	2917.6
475.065	4273.86
479.064	3851.19
483.062	2085.59
487.057	1090.06
491.051	741.58
495.043	730.16
499.032	874.792
503.02	1081.47
507.007	1067.2
510.991	1221.38
514.973	1564.47
518.954	2113.58
522.933	3250.97
526.91	6127.24
530.885	14435
534.858	24559.5
538.829	16684.6
542.799	7667.49
546.766	3637.21
550.732	2192.84
554.696	1664.44
558.658	1636.97
562.618	2256.25
566.576	5696.24
570.533	24182.5
574.488	63598
578.44	23711.5
582.391	6718.37
586.341	2854.83
590.288	1688.6
594.233	1128.13
598.177	795.459
602.119	603.445
606.059	489.418
609.997	400.956
613.933	313.474
617.868	273.97
621.801	202.443
625.731	185.892
629.66	111.316
633.588	80.715
637.513	83.3
641.437	179.434
645.358	181.753
649.278	115.044
653.196	146.307
657.113	140.542
661.027	80.75
664.94	76.928
668.851	15.069
672.76	34.151
676.667	9.184
680.572	30.156
684.476	18.072
688.378	2.094
692.278	50.574
696.176	15.887
700.072	7.498
703.967	12.28
707.86	27.236
711.751	53.403
715.64	8.844
719.527	30.541
723.413	30.48
727.297	17.372
731.179	16.166
735.059	116.076
738.937	306.133
742.814	653.374
746.689	963.807
750.562	872.397
754.433	475.104
758.303	270.937
762.17	154.831
766.036	118.744
769.901	128.677
773.763	130.631
777.624	103.797
781.482	102.611
785.339	170.641
789.195	191.7
793.048	185.79
796.9	220.914
800.75	153.074
804.598	138.271
808.445	131.508
812.289	153.786
816.132	71.109
819.973	79.479
823.813	52.915
827.65	88.585
831.486	66.212
835.32	35.902
839.152	51.971
842.983	119.96
846.812	130.506
850.639	173.343
854.464	144.727
858.288	180.02
862.11	147.812
865.93	185.14
869.748	185.876
873.564	266.175
877.379	230.17
881.192	346.909
885.004	407.678
888.813	610.18
892.621	744.836
896.427	1054.62
900.232	1456.51
904.034	2263.53
907.835	4038.65
911.634	6752.89
915.432	7146.25
919.227	6536.71
923.021	10041.3
926.813	15950
930.604	15990.8
934.393	18410.7
938.18	16411.7
941.965	9243.9
945.749	7589.17
949.53	8746.56
953.311	5078.06
957.089	2517.68
960.866	1554.42
964.641	971.288
968.414	628.28
972.185	476.394
975.955	403.629
979.723	323.995
983.49	254.219
987.254	161.839
991.017	96.583
994.779	108.484
998.538	119.861
1002.3	95.101
1006.05	196.476
1009.81	433.804
1013.56	975.844
1017.31	1894.54
1021.06	2138.09
1024.81	1631.5
1028.55	1055.64
1032.3	672.503
1036.04	452.364
1039.78	313.512
1043.52	295.5
1047.26	319.532
1050.99	643.15
1054.73	1256.75
1058.46	1789.94
1062.19	1404.17
1065.92	779.446
1069.65	425.778
1073.37	272.16
1077.1	177.583
1080.82	162.045
1084.54	163.558
1088.26	204.242
1091.97	300.838
1095.69	457.445
1099.4	317.193
1103.12	180.882
1106.83	103.394
1110.54	48.958
1114.24	34.584
1117.95	1.006
1121.65	13.801
1125.35	49.802
1129.06	18.281
1132.75	34.541
1136.45	72.261
1140.15	69.964
1143.84	23.738
1147.53	6.409
1151.22	22.917
1154.91	45.278
1158.6	42.763
1162.28	37.217
1165.97	28.966
1169.65	45.021
1173.33	13.429
1177.01	16.212
1180.69	1.073
1184.36	16.062
1188.04	1.094
1191.71	44.535
1195.38	50.146
1199.05	70.929
1202.71	119.392
1206.38	128.935
1210.04	107.327
1213.71	101.717
1217.37	118.019
1221.03	158.233
1224.68	128.838
1228.34	113.058
1231.99	85.185
1235.65	91.067
1239.3	83.887
1242.95	101.425
1246.59	71.892
1250.24	48.846
1253.88	45.487
1257.53	26.054
1261.17	26.197
1264.81	106.357
1268.45	88.89
1272.08	82.802
1275.72	72.485
1279.35	113.943
1282.98	87.466
1286.61	70.775
1290.24	108.847
1293.87	107.722
1297.49	80.252
1301.11	106.49
1304.73	84.374
1308.36	94.766
1311.97	105.754
1315.59	157.457
1319.2	65.664
1322.82	91.659
1326.43	70.888
1330.04	77.096
1333.65	72.528
1337.26	48.677
1340.86	33.833
1344.47	105.868
1348.07	58.785
1351.67	54.583
1355.27	26.269
1358.87	62.838
1362.46	17.298
1366.06	0.334
1369.65	69.957
1373.24	7.808
1376.83	7.384
1380.42	46.528
1384	37.185
1387.59	26.297
1391.17	12.248
1394.75	24.165
1398.33	6.464
1401.91	21.637
1405.49	22.724
1409.06	10.274
1412.64	18.391
1416.21	15.726
1419.78	8.312
1423.35	13.821
1426.91	31.307
1430.48	36.131
1434.05	89.56
1437.61	41.977
1441.17	93.4
1444.73	114.099
1448.29	91.673
1451.84	113.79
1455.4	137.68
1458.95	125.131
1462.5	103.999
1466.05	99.155
1469.6	167.617
1473.15	146.916
1476.69	163.651
1480.24	152.919
1483.78	199.172
1487.32	141.712
1490.86	155.128
1494.39	140.686
1497.93	114.681
1501.46	137.224
1505	103.44
1508.53	52.455
1512.06	33.802
1515.59	5.909
1519.11	32.454
