Measurement: Raman, 780 nm, unoriented, Raman Data Processed
Mineral: Benitoite
Rruff sample: R050320
Ideal chemistry: BaTiSi_3_O_9_
Locality: San Benito County, California, USA
Source: American Museum of Natural History
Description: Blue fragment
Measured chemistry: Ba_1.00_Ti_1.00_(Si_2.99_Al_0.01_)_Î£=3_O_9_
Raman shift (cm-1)	intensity
100.719	0
104.094	2.16304
107.469	7.51957
110.844	22.8547
114.219	33.1663
117.594	29.8263
120.968	36.6566
124.343	21.4767
127.718	0.873684
131.093	3.32176
134.468	0.973629
137.842	15.952
141.217	48.2272
144.592	59.384
147.967	79.2477
151.342	114.301
154.716	165.725
158.091	262.696
161.466	343.041
164.841	73.336
168.216	11.7363
171.591	0.969131
174.965	3.40319
178.34	1.56489
181.715	20.1183
185.09	25.8376
188.465	35.5747
191.839	56.8397
195.214	95.3293
198.589	175.186
201.964	244.696
205.339	125.509
208.714	146.742
212.088	209.495
215.463	318.508
218.838	402.905
222.213	230.473
225.588	109.393
228.962	91.1401
232.337	123.771
235.712	56.9755
239.087	30.1575
242.462	35.4086
245.837	51.8445
249.211	73.8802
252.586	101.088
255.961	128.863
259.336	172.883
262.711	223.047
266.085	226.018
269.46	153.807
272.835	79.6444
276.21	41.7891
279.585	21.5466
282.959	12.9316
286.334	5.95864
289.709	4.04595
293.084	0.223011
296.459	0.746815
299.834	1.89739
303.208	1.38836
306.583	2.06447
309.958	0.31472
313.333	0.645821
316.708	1.25838
320.082	2.25783
323.457	4.42938
326.832	9.85484
330.207	22.8753
333.582	27.7774
336.957	40.7381
340.331	59.6676
343.706	102.036
347.081	175.603
350.456	144.506
353.831	186.441
357.205	217.634
360.58	284.789
363.955	381.686
367.33	417.393
370.705	450.288
374.079	316.459
377.454	168.634
380.829	108.197
384.204	90.9404
387.579	96.1736
390.954	117.485
394.328	146.525
397.703	109.611
401.078	47.323
404.453	21.4464
407.828	11.6921
411.202	7.83271
414.577	3.51764
417.952	1.15524
421.327	1.27751
424.702	1.12059
428.077	0.951036
431.451	1.7945
434.826	1.96959
438.201	0.596153
441.576	1.13704
444.951	3.45359
448.325	5.38839
451.7	12.2039
455.075	22.108
458.45	35.227
461.825	32.5357
465.2	22.2771
468.574	25.7921
471.949	34.2531
475.324	41.8103
478.699	37.7768
482.074	28.9459
485.449	26.6544
488.823	27.5077
492.198	26.3244
495.573	22.994
498.948	26.0688
502.323	30.3987
505.697	19.5168
509.072	9.00839
512.447	9.81565
515.822	18.2535
519.197	37.0402
522.572	55.1318
525.946	78.3164
529.321	116.681
532.696	163.14
536.071	159.033
539.446	85.8148
542.82	34.5868
546.195	13.8857
549.57	5.26204
552.945	4.29595
556.32	23.4519
559.694	66.5412
563.069	85.6345
566.444	133.558
569.819	222.773
573.194	418.661
576.568	325.484
579.943	75.2684
583.318	23.9828
586.693	11.208
590.068	5.01578
593.443	0.094242
596.817	0.149147
600.192	0.327135
603.567	1.27565
606.942	0.790041
610.317	1.12915
613.692	0.810041
617.066	0.422871
620.441	0.139418
623.816	0.418413
627.191	0.136976
630.566	1.54716
633.94	0.693289
637.315	1.51881
640.69	1.23085
644.065	2.424
647.44	2.6116
650.814	3.29457
654.189	3.62033
657.564	3.35872
660.939	3.17787
664.314	3.15636
667.688	2.57965
671.063	2.73868
674.438	3.1849
677.813	3.2841
681.188	3.28561
684.563	1.86569
687.937	1.68554
691.312	1.55246
694.687	1.51445
698.062	0.720306
701.437	1.07896
704.812	1.64474
708.186	1.05278
711.561	1.18491
714.936	1.42159
718.311	0.622112
721.686	1.11657
725.06	1.03485
728.435	2.08719
731.81	3.34681
735.185	5.02659
738.56	7.1368
741.934	9.08205
745.309	9.15722
748.684	10.285
752.059	7.10025
755.434	7.81099
758.809	7.28109
762.183	6.70702
765.558	3.85771
768.933	3.22011
772.308	2.18457
775.683	2.04691
779.058	2.15617
782.432	1.67779
785.807	2.60177
789.182	1.83622
792.557	2.30089
795.932	1.48342
799.306	2.18606
802.681	1.65224
806.056	1.3712
809.431	0.868353
812.806	0.603611
816.181	0.452215
819.555	0.492424
822.93	0.76363
826.305	0.063728
829.68	0.096029
833.055	0.546125
836.429	0.620136
839.804	0.484985
843.179	0.374149
846.554	0.52968
849.929	0.872602
853.303	0.197821
856.678	0.076918
860.053	0.797083
863.428	0.358416
866.803	0.100014
870.178	1.41611
873.552	2.54511
876.927	3.38457
880.302	3.51499
883.677	6.5015
887.052	9.31547
890.427	13.3121
893.801	20.0495
897.176	28.5642
900.551	38.3259
903.926	55.0258
907.301	75.9216
910.675	106.433
914.05	128.076
917.425	146.143
920.8	202.047
924.175	286.887
927.549	363.342
930.924	425.32
934.299	492.532
937.674	417.082
941.049	280.973
944.423	232.223
947.798	234.747
951.173	170.177
954.548	87.6003
957.923	48.0089
961.298	30.5145
964.672	18.0493
968.047	12.0474
971.422	5.70812
974.797	3.36923
978.172	1.69507
981.546	0.430584
984.921	0.13327
988.296	1.93747
991.671	0.303818
995.046	0.342516
998.42	1.55613
1001.79	5.17004
1005.17	8.8632
1008.54	9.76752
1011.92	8.67792
1015.29	8.46506
1018.67	10.5574
1022.04	7.57799
1025.42	5.87146
1028.79	3.45579
1032.17	1.85903
1035.54	2.02732
1038.92	0.165222
1042.29	1.19467
1045.67	1.53475
1049.04	0.031986
1052.42	2.98349
1055.79	3.59798
1059.17	3.93703
1062.54	2.08075
1065.92	1.01126
1069.29	0.043062
1072.67	0.530772
1076.04	0.200159
1079.42	1.43007
1082.79	1.04378
1086.17	3.49106
1089.54	5.49658
1092.91	7.16914
1096.29	8.76812
1099.66	10.1189
1103.04	9.93437
1106.41	7.68626
1109.79	7.00062
1113.16	5.4926
1116.54	4.53581
1119.91	3.16496
1123.29	3.83722
1126.66	3.53633
1130.04	1.97348
1133.41	2.35725
1136.79	1.75836
1140.16	1.19238
1143.54	0.531631
1146.91	1.46004
1150.29	0.419695
1153.66	0.86873
1157.04	0.668591
1160.41	0.301478
1163.79	0.088416
1167.16	0.042565
1170.54	0.153645
1173.91	0.169105
1177.29	0.95945
1180.66	0.560061
1184.04	0.68929
1187.41	0.96178
1190.79	0.748575
1194.16	1.22037
1197.54	1.53784
1200.91	2.26838
1204.28	1.44221
1207.66	1.84767
1211.03	1.13793
1214.41	1.11389
1217.78	1.40848
1221.16	1.84227
1224.53	1.42307
1227.91	0.610468
1231.28	0.701273
1234.66	0.9147
1238.03	0.198279
1241.41	0.12481
1244.78	0.866604
1248.16	0.080388
1251.53	0.480142
1254.91	0.975466
1258.28	0.469227
1261.66	0.213758
1265.03	0.699441
1268.41	0.732958
1271.78	0.509829
1275.16	0.424242
1278.53	0.544109
1281.9	0.431723
1285.28	0.584967
