Measurement: Raman, 514 nm, unoriented, Raman Data Processed
Mineral: Benitoite
Rruff sample: R050320
Ideal chemistry: BaTiSi_3_O_9_
Locality: San Benito County, California, USA
Source: American Museum of Natural History
Description: Blue fragment
Measured chemistry: Ba_1.00_Ti_1.00_(Si_2.99_Al_0.01_)_Î£=3_O_9_
Raman shift (cm-1)	intensity
87.798	0
91.981	39.564
96.161	9.629
100.34	2.877
104.516	69.146
108.691	132.815
112.864	143.481
117.034	297.498
121.203	287.722
125.369	228.328
129.534	62.72
133.696	82.481
137.857	123.321
142.016	270.944
146.172	463.057
150.327	1082.45
154.48	3563.97
158.63	8342.48
162.779	6045.9
166.926	1855.15
171.07	444.239
175.213	178.034
179.354	189.717
183.493	122.245
187.63	139.366
191.765	235.701
195.898	621.283
200.029	741.135
204.158	421.272
208.285	451.698
212.41	1103.41
216.533	1772.42
220.654	1403.71
224.773	1096.28
228.891	1156.11
233.006	1227.22
237.119	1331.59
241.231	1695.23
245.34	2320.13
249.448	3278.61
253.553	5443.02
257.657	10052.4
261.758	17120
265.858	18759.5
269.956	11698.9
274.052	6158.72
278.146	3351.78
282.237	2063.42
286.327	1278.17
290.416	896.344
294.502	663.887
298.586	553.771
302.668	350.964
306.749	285.443
310.827	252.183
314.903	243.169
318.978	199.384
323.051	191.813
327.121	202.737
331.19	295.267
335.257	594.268
339.322	2035.44
343.385	8662.77
347.446	9228.24
351.505	3979.85
355.563	5153.61
359.618	11302.5
363.672	10799.6
367.723	5788.79
371.773	3366.13
375.821	1832.63
379.866	985.307
383.91	516.18
387.952	577.159
391.992	699.314
396.031	697.685
400.067	323.253
404.101	113.005
408.134	2.966
412.165	12.951
416.193	26.821
420.22	12.649
424.245	42.518
428.268	8.524
432.289	51.559
436.309	58.684
440.326	21.22
444.342	71.795
448.355	210.609
452.367	488.512
456.377	1509.5
460.385	3143.57
464.391	2226.71
468.395	954.92
472.398	607.196
476.398	413.561
480.397	378.955
484.394	342.403
488.389	581.902
492.382	900.448
496.373	1347.04
500.362	1482.67
504.349	1222.34
508.335	1082.05
512.319	1202.64
516.3	1517.68
520.28	2133.52
524.259	3865.2
528.235	8049.65
532.209	16147.8
536.182	17061
540.152	9063.88
544.121	4132.79
548.088	2321.8
552.053	1553.56
556.017	1333.73
559.978	1526.9
563.938	2823.32
567.895	9747.26
571.851	38271.4
575.805	37665
579.758	10649.1
583.708	3761.77
587.657	1874.14
591.603	1203.51
595.548	897.98
599.491	598.223
603.432	463.015
607.372	394.57
611.309	387.958
615.245	330.612
619.179	206.097
623.111	191.556
627.041	109.988
630.97	50.392
634.896	94.767
638.821	95.112
642.744	141.161
646.665	162.713
650.584	132.968
654.502	155.192
658.418	157.384
662.331	84.544
666.244	59.672
670.154	86.76
674.062	60.784
677.969	5.851
681.874	4.813
685.777	104.306
689.678	58.023
693.577	35.385
697.475	99.998
701.371	41.251
705.265	24.565
709.157	88.578
713.047	56.099
716.936	74.396
720.823	49.161
724.708	27.832
728.591	43.238
732.472	2.382
736.352	81.521
740.23	153.525
744.106	201.657
747.98	148.854
751.853	197.165
755.723	142.578
759.592	179.029
763.459	369.479
767.325	556.931
771.188	393.384
775.05	159.842
778.91	106.305
782.768	131.774
786.625	162.224
790.479	122.712
794.332	197.211
798.183	193.725
802.033	104.252
805.88	62.796
809.726	92.358
813.57	75.941
817.413	91.544
821.253	71.172
825.092	32.969
828.929	8.614
832.764	19.939
836.598	21.662
840.429	68.108
844.259	41.649
848.088	134.976
851.914	203.162
855.739	128.156
859.562	142.712
863.383	84.262
867.203	146.834
871.02	159.625
874.836	157.78
878.65	165.6
882.463	252.371
886.274	381.485
890.083	514.174
893.89	652.454
897.695	906.843
901.499	1363.33
905.301	2193.07
909.102	3791.58
912.9	5691.32
916.697	5181.15
920.492	6258.06
924.285	10695
928.077	11598.1
931.867	9921.27
935.655	9651.5
939.442	6470.8
943.226	4192.2
947.009	4408.67
950.791	3534.23
954.57	2005.97
958.348	1084.61
962.124	632.43
965.899	499.38
969.671	243.425
973.442	205.553
977.211	204.772
980.979	95.052
984.745	91.478
988.509	54.504
992.271	294.561
996.032	621.531
999.791	651.563
1003.55	515.086
1007.3	320.165
1011.06	288.306
1014.81	418.962
1018.56	506.09
1022.31	423.386
1026.06	246.114
1029.8	181.907
1033.55	143.337
1037.29	178.933
1041.03	196.28
1044.77	238.752
1048.5	228.608
1052.24	712.048
1055.97	1112.33
1059.7	1188.99
1063.43	887.081
1067.16	456.696
1070.89	267.001
1074.61	168.388
1078.34	174.85
1082.06	208.294
1085.78	165.503
1089.5	338.018
1093.21	626.765
1096.93	815.44
1100.64	892.276
1104.35	465.09
1108.06	305.606
1111.77	153.613
1115.48	168.769
1119.18	93.78
1122.89	44.417
1126.59	0.656
1130.29	137.917
1133.99	23.059
1137.68	31.816
1141.38	16.195
1145.07	23.394
1148.76	20.044
1152.45	19.491
1156.14	5.522
1159.83	53.874
1163.51	28.339
1167.19	29.234
1170.88	42.886
1174.56	19.758
1178.23	19.041
1181.91	64.523
1185.59	66.377
1189.26	66.568
1192.93	132.566
1196.6	19.246
1200.27	109.736
1203.94	153.303
1207.6	92.588
1211.27	49.685
1214.93	88.638
1218.59	97.027
1222.25	49.725
1225.9	51.28
1229.56	131.705
1233.21	104.076
1236.86	76.222
1240.51	139.787
1244.16	47.648
1247.81	73.729
1251.45	99.63
1255.1	100.023
1258.74	141.27
1262.38	43.173
1266.02	109.391
1269.66	60.021
1273.29	63.299
1276.93	71.387
1280.56	82.119
1284.19	5.163
1287.82	87.888
1291.45	108.303
1295.07	117.35
1298.7	88.732
1302.32	94.462
1305.94	106.208
1309.56	36.899
1313.18	129.753
1316.8	61.665
1320.41	167.144
1324.02	111.926
1327.63	48.605
1331.24	99.836
1334.85	105.231
1338.46	82.471
1342.06	107.818
1345.67	157.195
1349.27	43.282
1352.87	77.286
1356.47	84.86
1360.07	6.56
1363.66	146.21
1367.25	131.704
1370.85	156.352
1374.44	62.467
1378.03	113.31
1381.61	50.202
1385.2	120.903
1388.78	114.386
1392.37	49.038
1395.95	61.545
1399.53	127.731
1403.1	103.203
1406.68	45.098
1410.26	52.091
1413.83	120.877
1417.4	179.545
1420.97	58.675
1424.54	119.923
1428.1	81.734
1431.67	8.07
1435.23	162.947
1438.8	88.194
1442.36	172.01
1445.91	145.233
1449.47	238.264
1453.03	279.059
1456.58	114.806
1460.13	240.501
1463.68	210.769
1467.23	234.954
1470.78	241.746
1474.33	315.688
1477.87	208.51
1481.42	373.055
1484.96	298.631
1488.5	378.349
1492.04	226.779
1495.57	240.953
1499.11	290.936
1502.64	43.192
1506.17	200.932
1509.71	186.817
1513.23	187.03
1516.76	110.239
1520.29	74.224
