Measurement: Raman, 532 nm, unoriented, Raman Data Processed
Mineral: Benstonite
Rruff sample: R050484
Ideal chemistry: Ba_6_Ca_6_Mg(CO_3_)_13_
Locality: Minerva #1 mine, Cave-in-Rock, Hardin County, Illinois, USA
Source: California Institute of Technology
Description: Colorless fragment
Measured chemistry: lighter phase: (Ba_5.77_Sr_0.23_)_Σ=6_Ca_6.00_(Mg_0.90_Ca_0.10_)_Σ=1_(CO_3_)_13_ ; darker phase: (Ba_5.75_Sr_0.25_)_Σ=6_Ca_6.00_(Mg_0.86_Ca_0.14_)_Σ=1_(CO_3_)_13_ ; C estimated by difference
Raman shift (cm-1)	intensity
147.416	0
150.308	0.353638
153.201	3.18762
156.094	7.58633
158.986	29.2144
161.879	66.334
164.772	106.75
167.664	119.344
170.557	132.323
173.45	152.045
176.343	154.444
179.235	138.42
182.128	113.309
185.021	81.5028
187.913	42.7388
190.806	8.90506
193.699	8.05212
196.591	7.16708
199.484	13.8533
202.377	41.8822
205.269	70.7196
208.162	94.3551
211.055	108.176
213.948	128.107
216.84	155.713
219.733	198.499
222.626	253.988
225.518	319.17
228.411	371.229
231.304	414.215
234.196	466.23
237.089	508.581
239.982	488.139
242.875	396.129
245.767	290.219
248.66	227.275
251.553	192.864
254.445	180.29
257.338	186.745
260.231	203.363
263.123	224.707
266.016	260.391
268.909	307.535
271.802	359.294
274.694	392.374
277.587	376.437
280.48	308.038
283.372	225.605
286.265	155.149
289.158	103.264
292.05	69.5878
294.943	45.8266
297.836	31.3156
300.729	19.9932
303.621	13.2044
306.514	9.34146
309.407	7.24974
312.299	5.53941
315.192	2.11208
318.085	0.811203
320.978	2.62093
323.87	2.99133
326.763	3.15476
329.656	2.68785
332.548	1.2695
335.441	0.035919
338.334	0.183777
341.226	1.69981
344.119	2.99222
347.012	3.77263
349.904	6.27737
352.797	7.43308
355.69	9.64771
358.583	9.73458
361.475	10.1845
364.368	12.8195
367.261	11.2003
370.153	13.401
373.046	13.8037
375.939	12.0673
378.832	12.9261
381.724	11.4462
384.617	10.376
387.51	9.06302
390.402	7.92552
393.295	6.75555
396.188	8.11409
399.08	6.23914
401.973	5.5033
404.866	5.09007
407.759	4.62353
410.651	5.01227
413.544	4.59204
416.437	4.77763
419.329	3.4989
422.222	4.36197
425.115	4.04745
428.007	2.94579
430.9	1.87309
433.793	2.74382
436.685	2.5583
439.578	2.12769
442.471	2.94186
445.364	1.20628
448.256	2.04457
451.149	1.64209
454.042	1.40819
456.934	0.519684
459.827	0.966797
462.72	1.43147
465.613	0.444504
468.505	0.469833
471.398	0.81456
474.291	0.416962
477.183	0.690567
480.076	0.24263
482.969	0.072372
485.861	0.251343
488.754	0.917191
491.647	0.298584
494.539	0.173676
497.432	0.388184
500.325	0.344879
503.218	0.471634
506.11	0.855957
509.003	1.6131
511.896	0.370148
514.788	0.818542
517.681	0.092484
520.574	0.334045
523.466	0.683594
526.359	0.457794
529.252	0.703781
532.145	2.14149
535.037	1.95038
537.93	0.40387
540.823	0.037308
543.715	1.19041
546.608	0.200577
549.501	0.928345
552.394	0.671234
555.286	0.82576
558.179	0.843124
561.072	1.20284
563.964	1.30133
566.857	0.305023
569.75	0.999237
572.642	1.79442
575.535	1.85593
578.428	1.30542
581.321	1.48962
584.213	1.80776
587.106	2.55238
589.999	1.47902
592.891	1.61685
595.784	2.17123
598.677	0.137634
601.569	0.387009
604.462	1.54446
607.355	1.34668
610.247	2.04414
613.14	1.87788
616.033	0.532242
618.926	0.690247
621.818	0.42424
624.711	0.39209
627.604	0.061218
630.496	0.954391
633.389	0.233704
636.282	0.830734
639.174	0.984634
642.067	0.900238
644.96	0.700439
647.852	0.640457
650.745	0.513626
653.638	1.94475
656.531	1.03755
659.423	1.33449
662.316	1.19072
665.209	1.65366
668.101	2.61586
670.994	6.79436
673.887	14.5822
676.779	31.6127
679.672	62.4219
682.565	115.295
685.458	191.721
688.35	247.979
691.243	235.862
694.136	146.429
697.028	86.8155
699.921	86.1516
702.814	81.1263
705.707	96.6149
708.599	148.44
711.492	207.692
714.385	248.891
717.277	145.625
720.17	78.8004
723.063	36.0255
725.955	17.0756
728.848	9.21176
731.741	6.0499
734.634	4.33347
737.526	3.64441
740.419	3.40018
743.312	2.2906
746.204	0.674591
749.097	0.243805
751.99	0.432312
754.882	0.395218
757.775	0.051208
760.668	0.121185
763.561	1.40311
766.453	1.50003
769.346	0.480377
772.239	0.974976
775.131	1.31575
778.024	1.81735
780.917	0.474335
783.809	1.54231
786.702	1.43648
789.595	0.107147
792.487	1.32429
795.38	2.14761
798.273	1.33667
801.166	0.282761
804.058	1.27901
806.951	1.91299
809.844	1.56818
812.736	0.788055
815.629	1.15553
818.522	0.232239
821.415	0.40303
824.307	0.858994
827.2	0.464996
830.093	0.822083
832.985	1.2997
835.878	2.10216
838.771	1.43074
841.663	0.477127
844.556	1.66099
847.449	1.93709
850.342	1.49612
853.234	1.70447
856.127	1.82341
859.02	2.80011
861.912	3.65724
864.805	8.97266
867.698	13.9322
870.591	27.4782
873.483	40.5495
876.376	16.5507
879.269	5.52957
882.161	2.86186
885.054	0.552994
887.947	0.031952
890.839	0.915115
893.732	2.44333
896.625	0.343475
899.518	0.266617
902.41	1.14964
905.303	1.59943
908.196	1.49582
911.088	1.31963
913.981	1.22531
916.874	2.25542
919.766	1.64329
922.659	1.68164
925.552	2.62016
928.444	2.05788
931.337	2.00893
934.23	0.903473
937.123	2.17487
940.015	2.03966
942.908	2.36688
945.801	1.19008
948.693	2.46088
951.586	1.6548
954.479	2.39421
957.371	1.41055
960.264	1.1454
963.157	2.91763
966.05	2.05174
968.942	0.97226
971.835	0.446976
974.728	0.801926
977.62	1.39325
980.513	0.567108
983.406	0.602448
986.298	0.214111
989.191	0.144165
992.084	0.365906
994.977	0.467285
997.869	0.061829
1000.76	0.670929
1003.65	1.10257
1006.55	0.008728
1009.44	0.887207
1012.33	0.253601
1015.23	0.791992
1018.12	0.051392
1021.01	1.08508
1023.9	1.96353
1026.8	2.60324
1029.69	1.25473
1032.58	1.45062
1035.47	2.09775
1038.37	3.42899
1041.26	5.77051
1044.15	8.62173
1047.05	10.6915
1049.94	16.5527
1052.83	23.9947
1055.72	27.4842
1058.62	43.2658
1061.51	91.1641
1064.4	227.469
1067.29	466.396
1070.19	1113.56
1073.08	1935.99
1075.97	1385.27
1078.87	1669.39
1081.76	2088.96
1084.65	1195.88
1087.54	1037.53
1090.44	1436.14
1093.33	1833.96
1096.22	1765.24
1099.11	1864.35
1102.01	1214.33
1104.9	385.33
1107.79	128.274
1110.68	51.1935
1113.58	25.7245
1116.47	14.9019
1119.36	9.89444
1122.26	5.33151
1125.15	3.02438
1128.04	2.53867
1130.93	2.11771
1133.83	1.77463
1136.72	3.18247
1139.61	1.49542
1142.5	0.195068
1145.4	0.346893
1148.29	0.972076
1151.18	0.260376
1154.08	0.407928
1156.97	0.442749
1159.86	0.449188
1162.75	0.572662
1165.65	0.274719
1168.54	0.550232
1171.43	0.156128
1174.32	1.2049
1177.22	1.58316
1180.11	1.28275
1183	0.930023
1185.89	1.69205
1188.79	2.66928
1191.68	0.823914
1194.57	1.93851
1197.47	2.48148
1200.36	1.65991
1203.25	4.47546
1206.14	3.14819
1209.04	2.66251
1211.93	0.94751
1214.82	2.7262
1217.71	4.54562
1220.61	4.3396
1223.5	3.56543
1226.39	2.82062
1229.29	2.93103
1232.18	2.04541
1235.07	0.41571
1237.96	0.580017
1240.86	3.63382
1243.75	0.235382
1246.64	1.63309
1249.53	2.28293
1252.43	1.53479
1255.32	0.094604
1258.21	0.046661
1261.11	0.378693
1264	1.8533
1266.89	1.08078
1269.78	3.12695
1272.68	1.80789
1275.57	1.77695
1278.46	3.00324
1281.35	0.877319
1284.25	2.2937
1287.14	2.55304
1290.03	4.07636
1292.92	1.82932
1295.82	0.973755
1298.71	2.59625
1301.6	1.62793
