Measurement: Raman, 780 nm, unoriented, Raman Data Processed
Mineral: Benstonite
Rruff sample: R050484
Ideal chemistry: Ba_6_Ca_6_Mg(CO_3_)_13_
Locality: Minerva #1 mine, Cave-in-Rock, Hardin County, Illinois, USA
Source: California Institute of Technology
Description: Colorless fragment
Measured chemistry: lighter phase: (Ba_5.77_Sr_0.23_)_Σ=6_Ca_6.00_(Mg_0.90_Ca_0.10_)_Σ=1_(CO_3_)_13_ ; darker phase: (Ba_5.75_Sr_0.25_)_Σ=6_Ca_6.00_(Mg_0.86_Ca_0.14_)_Σ=1_(CO_3_)_13_ ; C estimated by difference
Raman shift (cm-1)	intensity
146.816	0
149.709	5.61057
152.601	6.81046
155.494	0.286072
158.387	2.40022
161.28	12.1884
164.172	22.7356
167.065	27.6799
169.958	35.8227
172.85	51.1802
175.743	56.9804
178.636	55.3073
181.529	46.7817
184.421	34.6194
187.314	20.6852
190.207	6.19869
193.099	1.74876
195.992	3.15807
198.885	0.012451
201.777	9.93228
204.67	20.9725
207.563	32.8877
210.456	43.9609
213.348	51.6333
216.241	65.0034
219.134	81.7439
222.026	105.123
224.919	129.113
227.812	152.999
230.704	179.534
233.597	204.293
236.49	232.91
239.382	232.378
242.275	191.787
245.168	143.847
248.061	109.316
250.953	89.9157
253.846	76.814
256.739	73.0848
259.631	73.4658
262.524	74.9923
265.417	83.209
268.31	93.1506
271.202	112.485
274.095	127.694
276.988	129.904
279.88	112.225
282.773	85.637
285.666	60.0114
288.558	40.7923
291.451	28.6629
294.344	19.5384
297.237	14.8959
300.129	10.4191
303.022	7.43482
305.915	7.75901
308.807	5.68372
311.7	7.16617
314.593	5.03289
317.486	2.34157
320.378	0.915844
323.271	0.500015
326.164	0.880573
329.056	1.43637
331.949	1.09692
334.842	0.822433
337.734	1.01049
340.627	0.910658
343.52	0.273352
346.413	0.426411
349.305	0.94067
352.198	1.93354
355.091	1.69444
357.983	2.84698
360.876	2.8796
363.769	2.75358
366.661	3.23926
369.554	3.97709
372.447	4.25201
375.339	4.34645
378.232	3.45664
381.125	4.47467
384.018	3.41084
386.91	3.82101
389.803	2.72528
392.696	1.73854
395.588	1.93955
398.481	1.8376
401.374	1.16592
404.267	1.1581
407.159	1.49571
410.052	1.16437
412.945	1.47111
415.837	2.514
418.73	1.44652
421.623	1.05564
424.515	1.04743
427.408	1.44422
430.301	1.15346
433.193	0.628128
436.086	0.857681
438.979	0.895168
441.872	0.971207
444.764	1.05112
447.657	0.803291
450.55	0.106773
453.442	1.08501
456.335	0.198538
459.228	0.019112
462.121	0.161493
465.013	0.49239
467.906	0.05294
470.799	0.00078
473.691	0.165819
476.584	0.451349
479.477	0.544827
482.37	0.468687
485.262	0.113901
488.155	0.563272
491.048	0.019268
493.94	0.027744
496.833	0.01807
499.726	0.72435
502.618	0.153397
505.511	0.130714
508.404	0.258165
511.296	0.081717
514.189	0.030474
517.082	0.561806
519.975	0.108805
522.867	0.183125
525.76	0.100399
528.653	0.189861
531.545	0.367195
534.438	0.122513
537.331	0.369671
540.223	0.473068
543.116	0.469521
546.009	0.808487
548.902	0.71084
551.794	0.0913442
554.687	0.807641
557.58	0.630259
560.472	0.177677
563.365	0.411682
566.258	0.16246
569.15	0.80998
572.043	0.292343
574.936	0.408699
577.829	0.580223
580.721	0.735634
583.614	0.870815
586.507	0.671028
589.399	0.622555
592.292	0.268816
595.185	0.344597
598.078	0.15766
600.97	0.448183
603.863	0.173525
606.756	0.51845
609.648	0.42231
612.541	0.299294
615.434	0.048624
618.327	0.395788
621.219	0.298542
624.112	0.558666
627.005	0.030191
629.897	0.635517
632.79	0.569471
635.683	0.085169
638.575	0.118929
641.468	0.312035
644.361	0.03196
647.254	0.021353
650.146	0.681408
653.039	0.167603
655.932	0.080006
658.824	0.930342
661.717	0.437994
664.61	1.40451
667.502	1.9181
670.395	4.63616
673.288	9.93012
676.181	19.478
679.073	30.5212
681.966	55.5596
684.859	108.841
687.751	165.658
690.644	174.361
693.537	111.789
696.429	59.523
699.322	55.9871
702.215	47.7135
705.107	46.2992
708	66.9687
710.893	110.081
713.786	146.12
716.678	94.1972
719.571	52.2945
722.464	25.8031
725.356	10.9139
728.249	6.11715
731.142	4.17693
734.034	2.42296
736.927	1.59662
739.82	1.48102
742.713	1.01657
745.605	0.145611
748.498	0.318178
751.391	0.38842
754.283	0.080627
757.176	0.091221
760.069	0.148886
762.962	0.280172
765.854	0.065317
768.747	0.067593
771.64	0.505796
774.532	0.02486
777.425	0.47444
780.318	0.058319
783.21	0.021545
786.103	0.137663
788.996	0.129225
791.889	0.073658
794.781	0.211861
797.674	0.036409
800.567	0.515997
803.459	0.654167
806.352	0.682402
809.245	0.721697
812.138	0.664158
815.03	0.331953
817.923	0.574667
820.816	0.190517
823.708	0.704508
826.601	0.100538
829.494	0.84803
832.386	0.869047
835.279	0.445511
838.172	0.84091
841.064	0.527382
843.957	1.34912
846.85	0.782881
849.743	1.16864
852.635	1.44426
855.528	1.40694
858.421	1.30713
861.313	1.87805
864.206	2.49491
867.099	3.67953
869.991	7.5782
872.884	13.8895
875.777	8.76265
878.67	2.1441
881.562	1.96899
884.455	0.858376
887.348	0.993071
890.24	0.559249
893.133	0.320148
896.026	0.213757
898.918	0.070618
901.811	0.351569
904.704	0.369958
907.597	0.479276
910.489	0.274577
913.382	0.285181
916.275	0.126085
919.168	0.595933
922.06	0.435413
924.953	0.245131
927.846	0.27255
930.738	0.301945
933.631	0.311496
936.524	0.387156
939.416	0.462961
942.309	1.12769
945.202	0.83437
948.095	0.555699
950.987	0.820744
953.88	1.12614
956.773	1.11291
959.665	1.26413
962.558	0.706198
965.451	0.677616
968.343	0.787594
971.236	0.690113
974.129	0.118414
977.021	0.282122
979.914	0.32228
982.807	0.182646
985.7	0.080883
988.592	0.131782
991.485	0.353872
994.378	0.08283
997.27	0.017838
1000.16	0.06942
1003.06	0.294333
1005.95	0.05916
1008.84	0.130238
1011.73	0.045301
1014.63	0.099152
1017.52	0.053629
1020.41	0.014627
1023.3	0.924129
1026.2	0.77636
1029.09	0.53628
1031.98	1.03425
1034.88	1.5251
1037.77	2.0425
1040.66	2.74118
1043.55	3.03095
1046.45	4.09438
1049.34	7.01655
1052.23	12.082
1055.12	14.4014
1058.02	24.4413
1060.91	56.4379
1063.8	104.045
1066.69	188.613
1069.59	449.909
1072.48	1038.67
1075.37	738.845
1078.27	832.018
1081.16	1138.49
1084.05	759.802
1086.94	552.066
1089.84	715.877
1092.73	969.935
1095.62	939.757
1098.52	1002.5
1101.41	799.745
1104.3	281.696
1107.19	91.7319
1110.09	35.5976
1112.98	16.7096
1115.87	9.60006
1118.76	5.67082
1121.66	3.80249
1124.55	1.80361
1127.44	1.39233
1130.34	0.995329
1133.23	0.686619
1136.12	0.432803
1139.01	0.361233
1141.91	0.047057
1144.8	0.271522
1147.69	0.260388
1150.58	0.066641
1153.48	0.080344
1156.37	0.01954
1159.26	0.288017
1162.15	0.186901
1165.05	0.173841
1167.94	0.380407
1170.83	0.27446
1173.72	0.729598
1176.62	0.021893
1179.51	0.246147
1182.4	0.243443
1185.3	0.476492
1188.19	0.357526
1191.08	0.883461
1193.97	1.16822
1196.87	0.43509
1199.76	0.949307
1202.65	1.04304
1205.55	0.967697
1208.44	1.16093
1211.33	1.2273
1214.22	0.852476
1217.12	0.788569
1220.01	0.7583
1222.9	0.488038
1225.79	1.07324
1228.69	0.650246
1231.58	0.691755
1234.47	0.879044
1237.37	0.670098
1240.26	0.573002
1243.15	0.449363
1246.04	0.469851
1248.93	0.0481
1251.83	0.437979
1254.72	0.760116
1257.61	0.414969
1260.51	0.546399
1263.4	0.514844
1266.29	0.859392
1269.18	0.991935
1272.08	0.135386
1274.97	0.028756
1277.86	0.101885
1280.76	0.241573
1283.65	1.06265
1286.54	0.097891
