Measurement: Raman, 780 nm, unoriented, Raman Data Processed
Mineral: Benyacarite
Rruff sample: R130130
Ideal chemistry: KTiMn^2+^_2_Fe^3+^_2_(PO_4_)_4_OF15H_2_O
Locality: El Criollo Mine, Cerro Blanco, Tanti, Punilla, CÃ³rdoba, Argentina
Source: Don Doell (small piece), Rock Currier (large piece)
Description: Pale yellow crystals, associated with reddish strengite, and light yellow to pale purple phosphosiderite.
Raman shift (cm-1)	intensity
116.27	0
119.644	1.57883
123.019	7.35468
126.394	9.6449
129.769	15.4615
133.144	9.13266
136.518	3.23642
139.893	0.680389
143.268	3.70783
146.643	10.2738
150.018	14.2408
153.393	13.5411
156.767	4.56158
160.142	0.226807
163.517	3.04703
166.892	0.638794
170.267	5.07407
173.642	11.7952
177.016	16.2885
180.391	19.9644
183.766	18.3015
187.141	11.5382
190.516	7.8967
193.89	7.57736
197.265	9.1409
200.64	15.5855
204.015	24.3211
207.39	35.2866
210.764	50.5469
214.139	67.865
217.514	76.8047
220.889	86.0002
224.264	88.5235
227.638	82.0578
231.013	63.2761
234.388	48.2306
237.763	32.5346
241.138	22.0535
244.513	15.0773
247.887	14.5287
251.262	12.0328
254.637	9.74899
258.012	9.4956
261.387	5.0918
264.762	4.57309
268.136	2.18091
271.511	1.11603
274.886	1.28723
278.261	0.505066
281.635	3.53519
285.01	10.9064
288.385	16.8487
291.76	28.9277
295.135	37.0508
298.51	49.9584
301.884	62.0618
305.259	72.6713
308.634	80.3475
312.009	89.7173
315.384	104.291
318.759	112.267
322.133	117.088
325.508	118.02
328.883	119.526
332.258	119.036
335.633	115.909
339.007	105.22
342.382	88.0186
345.757	68.2469
349.132	46.7449
352.507	29.3763
355.882	18.9695
359.256	11.0838
362.631	7.59607
366.006	8.50757
369.381	11.6483
372.755	9.69952
376.13	9.51837
379.505	6.3464
382.88	0.57016
386.255	2.24149
389.63	4.68451
393.004	1.89671
396.379	1.97365
399.754	5.29489
403.129	12.6917
406.504	19.7568
409.878	27.3051
413.253	30.4283
416.628	29.956
420.003	30.8326
423.378	31.8137
426.753	32.7191
430.127	37.8577
433.502	44.5516
436.877	52.3736
440.252	63.1106
443.627	69.5963
447.001	72.7912
450.376	71.8778
453.751	68.1962
457.126	68.5811
460.501	69.536
463.875	74.9866
467.25	83.9462
470.625	95.8623
474	107.834
477.375	115.32
480.75	112.515
484.124	105.284
487.499	85.1525
490.874	66.6556
494.249	48.2521
497.624	32.8543
500.998	19.8362
504.373	10.705
507.748	4.3633
511.123	0.319366
514.498	0.905045
517.873	3.15356
521.247	2.10425
524.622	0.511459
527.997	0.174713
531.372	1.90498
534.747	1.43322
538.121	1.42579
541.496	3.37852
544.871	4.31859
548.246	6.78431
551.621	9.58317
554.995	11.9087
558.37	14.8297
561.745	19.2176
565.12	24.9761
568.495	30.1244
571.87	31.7116
575.244	36.5512
578.619	39.8873
581.994	45.4188
585.369	51.4941
588.744	59.0414
592.119	63.6983
595.493	66.9021
598.868	67.2032
602.243	64.7718
605.618	55.8712
608.993	45.0598
612.367	34.2554
615.742	26.3704
619.117	21.4683
622.492	16.9998
625.867	14.0603
629.241	11.244
632.616	10.4759
635.991	7.7551
639.366	5.41177
642.741	4.98158
646.115	4.29519
649.49	5.20493
652.865	5.13331
656.24	6.36266
659.615	7.95971
662.99	8.8432
666.364	8.54951
669.739	9.33066
673.114	9.19486
676.489	7.41119
679.864	7.56337
683.239	6.68829
686.613	6.05331
689.988	5.70886
693.363	4.22631
696.738	2.9099
700.112	1.56197
703.487	0.073936
706.862	1.74663
710.237	3.43039
713.612	3.80808
716.987	5.94697
720.361	4.58308
723.736	4.06067
727.111	2.49687
730.486	1.25616
733.861	3.01488
737.236	9.46338
740.61	15.644
743.985	26.2684
747.36	37.9749
750.735	51.2101
754.11	68.2949
757.484	88.8699
760.859	110.08
764.234	132.935
767.609	155.524
770.984	175.361
774.359	188.68
777.733	196.597
781.108	199.253
784.483	195.301
787.858	193.072
791.232	192.269
794.607	197.986
797.982	212.62
801.357	237.294
804.732	280.844
808.107	327.75
811.481	379.774
814.856	435.7
818.231	488.019
821.606	536.6
824.981	575.225
828.356	602.791
831.73	613.723
835.105	604.006
838.48	569.553
841.855	509.127
845.23	431.292
848.604	350.64
851.979	272.088
855.354	203.131
858.729	148.34
862.104	102.362
865.479	67.403
868.853	43.2007
872.228	25.0268
875.603	10.5177
878.978	3.82469
882.352	1.64426
885.727	4.94747
889.102	5.13804
892.477	6.12901
895.852	5.45181
899.227	2.7897
902.601	1.9388
905.976	0.061089
909.351	0.392448
912.726	2.98044
916.101	6.72727
919.476	10.6095
922.85	17.8769
926.225	27.3454
929.6	43.318
932.975	66.0297
936.35	97.0938
939.724	137.717
943.099	184.061
946.474	229.026
949.849	258.123
953.224	261.657
956.598	243.684
959.973	219.12
963.348	197.912
966.723	184.213
970.098	174.494
973.472	173.11
976.847	175.348
980.222	176.739
983.597	173.603
986.972	162.152
990.347	147.413
993.721	134.524
997.096	124.424
1000.47	120.165
1003.85	120.724
1007.22	127.465
1010.6	129.854
1013.97	126.593
1017.35	108.937
1020.72	80.9476
1024.1	52.9945
1027.47	31.3376
1030.84	18.5643
1034.22	9.06985
1037.59	3.23405
1040.97	0.274986
1044.34	1.56072
1047.72	1.97867
1051.09	1.9735
1054.47	1.09483
1057.84	0.099869
1061.22	1.33437
1064.59	1.70999
1067.97	0.278091
1071.34	0.482819
1074.72	1.12963
1078.09	1.3002
1081.47	2.04513
1084.84	3.40289
1088.22	4.64984
1091.59	5.7327
1094.97	6.22559
1098.34	6.68613
1101.71	9.3469
1105.09	7.17049
1108.46	7.50465
1111.84	9.13501
1115.21	10.5084
1118.59	12.5301
1121.96	16.4725
1125.34	19.4277
1128.71	21.9489
1132.09	21.4598
1135.46	19.6068
1138.84	15.9313
1142.21	12.1263
1145.59	9.04858
1148.96	6.74381
1152.34	4.43581
1155.71	2.26926
1159.09	1.38994
1162.46	0.186676
1165.84	0.161293
1169.21	0.596786
1172.59	0.332794
1175.96	0.351715
1179.34	5.07938
1182.71	9.18479
1186.09	12.7658
1189.46	18.4782
1192.84	23.4108
1196.21	30.8006
1199.59	36.3604
1202.96	40.5251
1206.34	43.8601
1209.71	46.415
1213.08	46.5648
1216.46	44.6727
1219.83	39.1107
1223.21	32.737
1226.58	23.319
1229.96	10.0029
1233.33	2.38811
1236.71	2.32472
1240.08	4.3062
1243.46	1.12073
1246.83	12.8528
1250.21	26.5344
1253.58	46.387
1256.96	67.4472
1260.33	84.2382
1263.71	88.0857
1267.08	90.0215
1270.46	76.2224
1273.83	55.0435
1277.21	32.0671
1280.58	8.29507
1283.95	0
