Measurement: Raman, 532 nm, unoriented, Raman Data Processed
Mineral: Benyacarite
Rruff sample: R130130
Ideal chemistry: KTiMn^2+^_2_Fe^3+^_2_(PO_4_)_4_OF15H_2_O
Locality: El Criollo Mine, Cerro Blanco, Tanti, Punilla, CÃ³rdoba, Argentina
Source: Don Doell (small piece), Rock Currier (large piece)
Description: Pale yellow crystals, associated with reddish strengite, and light yellow to pale purple phosphosiderite.
Raman shift (cm-1)	intensity
212.301	0
215.194	10.7297
218.087	35.4136
220.98	53.9509
223.872	66.9242
226.765	69.0438
229.658	57.3124
232.55	38.9406
235.443	22.6109
238.336	9.10419
241.228	4.10626
244.121	3.2467
247.014	0.278259
249.906	2.45273
252.799	3.2431
255.692	0.024567
258.585	1.42938
261.477	0.490601
264.37	1.53394
267.263	3.73181
270.155	1.13385
273.048	2.66721
275.941	1.97781
278.834	3.78409
281.726	11.743
284.619	17.2371
287.512	26.8621
290.404	37.335
293.297	45.5723
296.19	53.9147
299.082	67.79
301.975	73.6979
304.868	82.0601
307.76	86.6103
310.653	91.0564
313.546	101.612
316.439	115.864
319.331	124.657
322.224	122.128
325.117	125.748
328.009	128.112
330.902	125.418
333.795	125.262
336.688	119.799
339.58	108.059
342.473	92.6833
345.366	72.7141
348.258	51.0008
351.151	32.3769
354.044	18.9794
356.936	7.91901
359.829	4.50247
362.722	6.0701
365.615	9.67532
368.507	17.469
371.4	21.7538
374.293	24.1037
377.185	23.0243
380.078	18.7136
382.971	5.87958
385.863	3.91284
388.756	7.06128
391.649	1.79056
394.541	3.1796
397.434	0.883301
400.327	12.0069
403.22	14.6127
406.112	24.7496
409.005	34.6668
411.898	42.3817
414.79	41.6207
417.683	41.5589
420.576	40.7254
423.469	41.0335
426.361	48.2326
429.254	52.4676
432.147	60.0735
435.039	72.7792
437.932	85.9864
440.825	101.123
443.717	113.652
446.61	120.517
449.503	121.035
452.396	119.911
455.288	113.213
458.181	109.856
461.074	106.069
463.966	113.451
466.859	123.133
469.752	138.067
472.644	153.235
475.537	167.805
478.43	174.41
481.322	171.231
484.215	156.848
487.108	135.1
490.001	108.898
492.893	83.1153
495.786	61.9839
498.679	44.118
501.571	28.8324
504.464	18.7103
507.357	9.82077
510.25	4.53499
513.142	1.16362
516.035	2.1324
518.928	3.78854
521.82	3.37582
524.713	1.37173
527.606	0.487778
530.498	0.981812
533.391	2.3008
536.284	2.71951
539.177	2.6106
542.069	2.75778
544.962	5.27718
547.855	6.95773
550.747	9.52118
553.64	12.7642
556.533	15.8731
559.425	21.5844
562.318	26.2142
565.211	32.6186
568.104	38.5211
570.996	43.9524
573.889	48.8344
576.782	52.9852
579.674	55.1261
582.567	58.9735
585.46	64.9253
588.352	71.4327
591.245	77.6696
594.138	85.5778
597.03	88.7263
599.923	88.726
602.816	84.3996
605.709	74.8647
608.601	63.4807
611.494	54.4023
614.387	39.3664
617.279	33.3409
620.172	29.2159
623.065	24.2455
625.957	20.0803
628.85	15.3092
631.743	13.3091
634.636	12.3954
637.528	8.79216
640.421	7.68565
643.314	7.20705
646.206	6.75349
649.099	7.88106
651.992	7.88769
654.885	8.26623
657.777	10.4855
660.67	11.8585
663.563	14.3037
666.455	15.8373
669.348	15.5743
672.241	14.0685
675.133	15.2932
678.026	14.5333
680.919	13.1664
683.812	12.223
686.704	11.1942
689.597	10.9539
692.49	9.9547
695.382	7.27151
698.275	4.91786
701.168	1.74011
704.06	0.048248
706.953	2.97096
709.846	3.86836
712.739	6.24467
715.631	7.93286
718.524	7.74675
721.417	6.22557
724.309	6.02728
727.202	5.05493
730.095	1.85928
732.987	1.97083
735.88	11.066
738.773	18.3535
741.665	28.2428
744.558	47.6529
747.451	59.3945
750.344	81.2704
753.236	106.085
756.129	130.395
759.022	158.839
761.914	194.382
764.807	229.33
767.7	264.491
770.592	292.279
773.485	315.702
776.378	333.622
779.271	340.31
782.163	338.352
785.056	330.659
787.949	323.515
790.841	318.863
793.734	321.251
796.627	333.07
799.519	356.635
802.412	398.47
805.305	456.161
808.198	526.184
811.09	602.329
813.983	687.096
816.876	770.782
819.768	852.227
822.661	929.098
825.554	990.903
828.447	1041.6
831.339	1066.83
834.232	1070.21
837.125	1036.88
840.017	969.74
842.91	870.149
845.803	751.409
848.695	622.687
851.588	497.068
854.481	394.869
857.374	294.986
860.266	217.351
863.159	154.625
866.052	105.875
868.944	68.5162
871.837	41.7778
874.73	21.3936
877.622	7.97778
880.515	0.682953
883.408	6.70804
886.301	9.29866
889.193	5.77264
892.086	9.01482
894.979	9.97745
897.871	7.32892
900.764	4.43932
903.657	1.78641
906.549	1.50386
909.442	4.63118
912.335	7.83414
915.227	11.7498
918.12	18.7621
921.013	26.263
923.906	56.5025
926.798	59.0518
929.691	84.4476
932.584	119.001
935.476	170.451
938.369	238.308
941.262	320.104
944.154	412.205
947.047	505.22
949.94	563.84
952.833	575.173
955.725	546.868
958.618	506.881
961.511	462.779
964.403	424.506
967.296	394.663
970.189	381.274
973.082	375.256
975.974	373.823
978.867	381.593
981.76	374.947
984.652	365.273
987.545	339.159
990.438	304.431
993.33	270.126
996.223	244.513
999.116	225.858
1002.01	212.109
1004.9	202.205
1007.79	198.935
1010.69	186.65
1013.58	173.66
1016.47	154.19
1019.37	126.145
1022.26	90.5528
1025.15	62.3945
1028.04	42.8349
1030.94	25.64
1033.83	13.7632
1036.72	5.38756
1039.61	0.151733
1042.51	3.64558
1045.4	2.80981
1048.29	3.75529
1051.18	2.64384
1054.08	1.52101
1056.97	0.832748
1059.86	1.84717
1062.76	3.40138
1065.65	3.37492
1068.54	2.47911
1071.43	3.90042
1074.33	1.89069
1077.22	1.68033
1080.11	2.45915
1083	4.29246
1085.9	6.48131
1088.79	7.92601
1091.68	8.32675
1094.58	10.9386
1097.47	11.4286
1100.36	12.1539
1103.25	13.0061
1106.15	12.8696
1109.04	12.1883
1111.93	13.7114
1114.82	14.4365
1117.72	18.1021
1120.61	26.9686
1123.5	27.5707
1126.39	32.974
1129.29	35.2405
1132.18	37.2662
1135.07	35.9667
1137.96	33.1697
1140.86	28.8926
1143.75	23.0539
1146.64	20.413
1149.54	16.9334
1152.43	15.5505
1155.32	11.3062
1158.21	8.11548
1161.11	5.3074
1164	2.52487
1166.89	1.18198
1169.79	0.070557
1172.68	0.42186
1175.57	0.649033
1178.46	0.516006
1181.36	0.735443
1184.25	0.639412
1187.14	0.411163
1190.03	0.377701
1192.93	0.428726
1195.82	0.849716
1198.71	1.39004
1201.61	4.70452
1204.5	3.47883
1207.39	2.21699
1210.28	3.67319
1213.18	2.90447
1216.07	3.20348
1218.96	3.70499
1221.85	2.95966
1224.75	3.82434
1227.64	4.18017
1230.53	5.23041
1233.42	3.87049
1236.32	3.1086
1239.21	3.4853
1242.1	3.37446
1244.99	2.95987
1247.89	2.98341
1250.78	2.92474
1253.67	2.18694
1256.57	2.75153
1259.46	2.09243
1262.35	2.53845
1265.24	1.44327
1268.14	0.971985
1271.03	1.8077
1273.92	0.601936
1276.82	0.552277
1279.71	2.399
1282.6	1.04534
1285.49	1.04991
1288.39	0.849907
1291.28	1.1309
1294.17	0.65876
1297.06	0.078682
1299.96	1.04238
