Measurement: Raman, 780 nm, unoriented, Raman Data Processed
Mineral: Beraunite
Rruff sample: R060464
Ideal chemistry: Fe^2+^Fe^3+^_5_(PO_4_)_4_(OH)_5_6H_2_O
Locality: York mine, Polk County, Arkansas, USA
Source: Michael Scott
Description: Brownish-red fractured-looking aggregate associated with balls of kidwellite
Measured chemistry: (Fe^2+^_0.85_Mn^2+^_0.15_)_Σ=1_Fe^3+^_5.00_(P_1.00_O_4_)_4_(OH)_5_·5.50H_2_O; H_2_O by difference; (OH) by charge balance
Raman shift (cm-1)	intensity
155.691	0
158.584	4.97189
161.477	0.468018
164.369	4.72174
167.262	8.94742
170.155	13.8728
173.047	24.4518
175.94	34.2249
178.833	45.0839
181.726	59.581
184.618	73.7007
187.511	81.8056
190.404	92.9914
193.296	98.8833
196.189	101.737
199.082	99.5465
201.974	90.8771
204.867	82.3058
207.76	76.6803
210.652	67.1431
213.545	60.9602
216.438	54.9354
219.331	51.779
222.223	40.9979
225.116	34.4384
228.009	29.5378
230.901	20.7614
233.794	15.4312
236.687	10.1805
239.579	4.58191
242.472	2.6088
245.365	2.62765
248.257	3.88153
251.15	2.73074
254.043	0.569427
256.936	9.37561
259.828	14.7929
262.721	29.0614
265.614	43.4788
268.506	55.5899
271.399	68.5181
274.292	78.704
277.185	85.0985
280.077	89.85
282.97	89.2837
285.863	83.7835
288.755	75.0356
291.648	68.9906
294.541	64.1488
297.433	58.576
300.326	53.0407
303.219	50.1491
306.111	44.6114
309.004	42.7783
311.897	31.7503
314.79	26.5038
317.682	19.8413
320.575	14.3783
323.468	13.422
326.36	10.3886
329.253	9.66513
332.146	5.63148
335.038	4.44106
337.931	0.025986
340.824	1.8591
343.717	2.89494
346.609	0.225632
349.502	1.07765
352.395	2.95709
355.287	3.76094
358.18	4.91681
361.073	4.6182
363.965	10.3858
366.858	12.347
369.751	20.1419
372.644	25.7305
375.536	33.915
378.429	38.7089
381.322	45.293
384.214	49.9212
387.107	52.4302
390	47.1972
392.892	45.736
395.785	39.4167
398.678	28.1405
401.57	21.612
404.463	13.6212
407.356	8.31937
410.249	3.87401
413.141	2.07149
416.034	1.50705
418.927	3.74467
421.819	0.17926
424.712	0.133545
427.605	0.368195
430.498	5.44026
433.39	5.6763
436.283	9.02103
439.176	14.7208
442.068	17.8958
444.961	24.3908
447.854	30.6986
450.746	34.1195
453.639	38.2604
456.532	39.9822
459.425	42.2152
462.317	37.7641
465.21	34.4559
468.103	32.6301
470.995	29.4783
473.888	22.3638
476.781	17.5023
479.673	18.3681
482.566	16.7289
485.459	11.5356
488.351	10.4616
491.244	8.7541
494.137	10.4331
497.029	7.48025
499.922	5.10698
502.815	3.64925
505.708	1.49988
508.6	0.505859
511.493	2.06647
514.386	2.20404
517.278	1.48904
520.171	0.42984
523.064	0.615417
525.957	2.69142
528.849	1.68999
531.742	5.25557
534.635	8.74593
537.527	14.1982
540.42	20.0568
543.313	31.5419
546.205	41.2363
549.098	49.4745
551.991	60.3311
554.884	67.7074
557.776	75.9603
560.669	74.4384
563.562	77.4905
566.454	67.9108
569.347	57.8559
572.24	49.7418
575.132	40.2539
578.025	32.7654
580.918	22.611
583.811	14.0685
586.703	12.6323
589.596	12.5464
592.489	7.70363
595.381	8.84949
598.274	2.60197
601.167	1.17729
604.059	2.62457
606.952	0.606155
609.845	3.72128
612.737	1.29025
615.63	0.100388
618.523	2.5481
621.416	2.56007
624.308	4.02646
627.201	4.08562
630.094	7.58461
632.986	5.29494
635.879	7.57256
638.772	8.60848
641.664	15.0299
644.557	13.699
647.45	18.3039
650.342	18.1459
653.235	20.1702
656.128	22.8749
659.021	23.578
661.913	25.063
664.806	21.4853
667.699	21.9902
670.591	22.4062
673.484	21.1733
676.377	14.896
679.269	11.0134
682.162	9.34514
685.055	7.59241
687.948	6.68608
690.84	4.73682
693.733	2.9916
696.626	3.54684
699.518	0.119888
702.411	2.59624
705.304	1.10978
708.197	2.77712
711.089	3.88253
713.982	1.85449
716.875	0.368576
719.767	0.367035
722.66	1.50608
725.553	2.23888
728.445	4.08083
731.338	0.162941
734.231	0.660347
737.124	2.25446
740.016	2.47158
742.909	3.51202
745.802	0.709511
748.694	2.81663
751.587	3.30488
754.48	2.62486
757.372	5.22462
760.265	0.50457
763.158	3.10816
766.051	3.41898
768.943	1.45171
771.836	3.72705
774.729	3.68613
777.621	0.881256
780.514	3.56715
783.407	2.47103
786.299	2.37914
789.192	2.73981
792.085	1.30318
794.977	2.50877
797.87	3.76884
800.763	0.206161
803.655	3.23729
806.548	2.43838
809.441	3.10666
812.334	2.15356
815.226	1.91843
818.119	4.47211
821.012	1.51911
823.904	3.41032
826.797	3.80729
829.69	1.04846
832.582	4.90534
835.475	5.1185
838.368	4.59639
841.261	3.68395
844.153	3.54907
847.046	4.38851
849.939	2.87783
852.831	3.78428
855.724	4.64402
858.617	3.57558
861.51	3.76163
864.402	4.22375
867.295	2.60487
870.188	3.41715
873.08	3.34845
875.973	2.22952
878.866	2.81882
881.758	2.16453
884.651	4.42253
887.544	0.76416
890.437	0.475723
893.329	0.575317
896.222	1.11076
899.115	0.954041
902.007	0.025795
904.9	1.82739
907.793	0.352737
910.685	0.854324
913.578	1.45141
916.471	3.13912
919.364	2.78803
922.256	3.49767
925.149	4.65765
928.042	4.34663
930.934	6.7643
933.827	3.24738
936.72	4.69967
939.612	0.141182
942.505	2.92626
945.398	0.906044
948.29	1.69625
951.183	1.31196
954.076	1.18349
956.968	0.339127
959.861	1.53159
962.754	2.31711
965.647	2.53748
968.539	6.30943
971.432	8.60451
974.325	13.0284
977.217	14.0563
980.11	14.5623
983.003	16.356
985.895	19.1586
988.788	16.0481
991.681	16.4201
994.574	14.2069
997.466	13.0155
1000.36	11.5453
1003.25	9.73233
1006.14	7.81782
1009.04	9.98281
1011.93	11.1223
1014.82	11.6692
1017.72	12.0092
1020.61	14.8793
1023.5	11.5426
1026.39	14.6934
1029.29	14.3572
1032.18	13.7422
1035.07	16.0006
1037.96	16.0128
1040.86	16.0647
1043.75	17.97
1046.64	18.546
1049.54	16.561
1052.43	15.05
1055.32	10.6068
1058.21	9.05991
1061.11	7.1348
1064	3.68867
1066.89	4.65195
1069.78	0.940056
1072.68	3.24616
1075.57	2.71258
1078.46	0.629799
1081.35	4.19387
1084.25	0.093674
1087.14	0.471046
1090.03	1.22005
1092.92	1.45184
1095.82	0.077194
1098.71	1.45204
1101.6	0.731438
1104.5	2.33035
1107.39	0.262993
1110.28	3.19068
1113.17	0.647339
1116.07	4.01079
1118.96	4.67391
1121.85	5.45988
1124.74	5.83593
1127.64	8.60391
1130.53	11.0582
1133.42	10.1697
1136.32	12.4869
1139.21	11.7214
1142.1	14.8345
1144.99	11.5558
1147.89	9.82091
1150.78	9.70483
1153.67	7.7927
1156.57	5.85142
1159.46	2.45384
1162.35	3.69646
1165.24	3.62455
1168.13	3.78683
1171.03	0.737862
1173.92	1.05618
1176.81	0.440887
1179.71	2.10711
1182.6	3.14687
1185.49	0.657066
1188.38	2.53328
1191.28	2.77364
1194.17	1.40431
1197.06	1.53514
1199.95	0.877251
1202.85	2.55066
1205.74	1.76219
1208.63	1.75391
1211.53	2.71629
1214.42	2.9782
1217.31	3.76607
1220.2	3.21439
1223.1	4.43089
1225.99	2.94823
1228.88	3.93407
1231.78	1.36861
1234.67	2.81938
1237.56	2.77161
1240.45	2.31439
1243.35	2.58484
1246.24	5.97823
1249.13	3.15521
1252.02	3.43104
1254.92	3.6487
1257.81	1.43498
1260.7	0.647766
1263.59	2.04791
1266.49	1.4733
1269.38	3.25892
1272.27	2.27674
1275.16	0.147949
1278.06	2.22559
1280.95	4.35184
1283.84	0.012947
