Measurement: Raman, 785 nm, unoriented, Raman Data Processed
Mineral: Beraunite
Rruff sample: R060696
Ideal chemistry: Fe^2+^Fe^3+^_5_(PO_4_)_4_(OH)_5_6H_2_O
Locality: Three Oak Gap, Shady, Polk County, Arkansas, USA
Source: Bob Jenkins
Description: Reddish brown bladed crystals in radial aggregates
Measured chemistry: (Fe^2+^_0.98_Mn_0.02_)_Σ=1_Fe^3+^_5.00_(P_1.00_O_4_)_4_(OH)_5_·6H_2_O
Raman shift (cm-1)	intensity
159.615	0
162.507	117.427
165.4	337.581
168.293	402.946
171.185	294.415
174.078	78.2681
176.971	6.87012
179.863	107.702
182.756	492.911
185.649	1206.95
188.542	2176.38
191.434	3463.56
194.327	4631.36
197.22	4865.47
200.112	3861.65
203.005	2298.27
205.898	1038.88
208.79	453.696
211.683	479.995
214.576	938.342
217.469	1873.79
220.361	2980.3
223.254	4355.87
226.147	5257.07
229.04	5684.89
231.932	5597.34
234.825	5176.84
237.718	4630.53
240.61	4195.38
243.503	3749.86
246.396	3467.4
249.288	2974.73
252.181	2093.1
255.074	1111.11
257.966	371.918
260.859	97.5933
263.752	225.057
266.645	4.44238
269.537	441.882
272.43	1235.85
275.323	2432.37
278.215	3629.83
281.108	4655.86
284.001	4899.41
286.893	4383.03
289.786	3447.52
292.679	2634.57
295.572	2199.57
298.464	1996.07
301.357	1773.55
304.25	1561.1
307.142	1443.14
310.035	1254.39
312.928	985.793
315.82	769.367
318.713	456.3
321.606	317.001
324.499	262.242
327.391	562.591
330.284	667.003
333.177	587.964
336.069	498.742
338.962	298.379
341.855	104.623
344.747	70.0459
347.64	52.1782
350.533	101.607
353.426	66.5776
356.318	54.0693
359.211	260.932
362.104	345.793
364.996	619.152
367.889	853.009
370.782	954.244
373.674	991.393
376.567	988.042
379.46	1035.14
382.353	1247.96
385.245	1747.94
388.138	2434.22
391.031	3174.2
393.923	3700.65
396.816	3729.65
399.709	3322.89
402.602	2654.56
405.494	2061.28
408.387	1522.33
411.28	1145.72
414.172	867.73
417.065	715.337
419.958	676.462
422.85	705.126
425.743	884.601
428.636	878.293
431.529	1045.75
434.421	1257.28
437.314	1399.52
440.207	1695.75
443.099	1765.38
445.992	1952.94
448.885	2013.05
451.777	2048.03
454.67	2016.89
457.563	1866.88
460.456	1637.37
463.348	1505.41
466.241	1159.02
469.134	770.248
472.026	516.03
474.919	304.488
477.812	121.727
480.704	81.5019
483.597	7.64722
486.49	12.3425
489.383	78.7978
492.275	76.8757
495.168	80.9292
498.061	133.485
500.953	134.202
503.846	131.787
506.739	199.649
509.631	175.179
512.524	105.749
515.417	95.6694
518.31	32.0481
521.202	1.7981
524.095	23.6958
526.988	115.412
529.88	63.5247
532.773	102.551
535.666	22.5459
538.558	147.702
541.451	345.511
544.344	683.004
547.237	1127.36
550.129	1829.48
553.022	2764.2
555.915	3899.91
558.807	5107.92
561.7	6018.15
564.593	6031.8
567.485	5195.84
570.378	4067.18
573.271	3222.34
576.164	2538.65
579.056	2074.82
581.949	1610.73
584.842	1340.95
587.734	1087.19
590.627	732.585
593.52	618.2
596.412	652.336
599.305	627.485
602.198	582.119
605.091	574.864
607.983	477.611
610.876	399.485
613.769	295.85
616.661	246.322
619.554	164.196
622.447	37.7073
625.339	2.76538
628.232	16.5039
631.125	12.0366
634.018	106.931
636.91	132.815
639.803	204.215
642.696	313.12
645.588	461.163
648.481	565.283
651.374	790.486
654.266	1030.73
657.159	1291.53
660.052	1531.4
662.945	1865.64
665.837	2128.28
668.73	2435.39
671.623	2644.49
674.515	2866.65
677.408	2807.57
680.301	2739.12
683.193	2568
686.086	2258.93
688.979	1939.67
691.872	1692.36
694.764	1264.31
697.657	1028.54
700.55	741.418
703.442	725.889
706.335	410.249
709.228	330.507
712.12	214.761
715.013	153.095
717.906	165.321
720.799	73.5815
723.691	61.1886
726.584	50.5062
729.477	39.4016
732.369	23.0564
735.262	58.7778
738.155	3.6311
741.047	13.3648
743.94	20.248
746.833	77.4399
749.726	0.468018
752.618	2.08545
755.511	47.6277
758.404	34.5658
761.296	90.6956
764.189	100.496
767.082	61.8467
769.974	89.3966
772.867	72.5023
775.76	89.7747
778.653	111.881
781.545	135.342
784.438	144.092
787.331	70.3088
790.223	115.475
793.116	73.0693
796.009	119.958
798.901	137.548
801.794	90.4402
804.687	108.432
807.58	74.0044
810.472	120.205
813.365	74.8234
816.258	112.919
819.15	94.0782
822.043	59.4109
824.936	78.2932
827.828	44.5558
830.721	27.8575
833.614	7.26086
836.507	37.1043
839.399	18.3352
842.292	5.68457
845.185	126.461
848.077	8.58606
850.97	70.4664
853.863	93.8851
856.755	78.5565
859.648	51.0986
862.541	65.3704
865.434	49.1707
868.326	74.4431
871.219	58.285
874.112	27.796
877.004	72.7647
879.897	94.0138
882.79	25.3416
885.682	85.0765
888.575	66.9013
891.468	62.5164
894.361	18.9469
897.253	62.4613
900.146	23.7078
903.039	16.0306
905.931	8.75476
908.824	34.9395
911.717	35.1472
914.61	149.578
917.502	72.5967
920.395	241.742
923.288	271.354
926.18	423.2
929.073	376.269
931.966	315.722
934.859	179.659
937.751	61.8668
940.644	22.2441
943.537	39.0884
946.429	49.8503
949.322	124.115
952.215	22.0957
955.107	150.892
958	282.969
960.893	474.19
963.786	506.618
966.678	664.992
969.571	799.69
972.464	1096.29
975.356	1515.72
978.249	2064.83
981.142	2808.68
984.034	3356.2
986.927	3776
989.82	4076.13
992.713	4125.35
995.605	4137.65
998.498	4015.55
1001.39	3873.23
1004.28	3690.42
1007.18	3500.37
1010.07	3125
1012.96	2728.14
1015.85	2235.91
1018.75	1668.91
1021.64	1170.13
1024.53	879.767
1027.42	738.109
1030.32	673.02
1033.21	616.675
1036.1	584.647
1039	714.205
1041.89	757.183
1044.78	808.882
1047.67	1094.56
1050.57	1203.47
1053.46	1442.12
1056.35	1516.35
1059.24	1597.12
1062.14	1448.28
1065.03	1230.76
1067.92	975.073
1070.82	818.211
1073.71	681.934
1076.6	539.914
1079.49	465.008
1082.39	291.249
1085.28	272.32
1088.17	97.522
1091.06	6.2135
1093.96	45.4928
1096.85	14.2833
1099.74	65.5204
1102.63	14.9217
1105.53	15.744
1108.42	45.4249
1111.31	177.511
1114.21	310.881
1117.1	416.286
1119.99	465.7
1122.88	720.57
1125.78	803.668
1128.67	796.624
1131.56	755.77
1134.45	732.037
1137.35	678.794
1140.24	718.609
1143.13	869.89
1146.03	917.279
1148.92	1128.68
1151.81	1235.86
1154.7	1134.09
1157.6	1072.19
1160.49	861.361
1163.38	496.63
1166.28	379.943
1169.17	189.895
1172.06	89.7032
1174.95	20.0085
1177.85	9.79846
1180.74	43.3594
1183.63	35.0394
1186.52	38.2623
1189.42	3.37695
1192.31	17.0225
1195.2	3.2279
1198.09	78.2425
1200.99	86.6591
1203.88	14.6506
1206.77	35.0071
1209.66	4.67987
1212.56	100.535
1215.45	42.7471
1218.34	116.391
1221.24	205.773
1224.13	198.001
1227.02	188.638
1229.91	235.645
1232.81	179.897
1235.7	129.115
1238.59	91.0784
1241.48	59.4762
1244.38	54.2902
1247.27	83.4379
1250.16	96.8944
1253.06	33.6867
1255.95	48.8875
1258.84	52.9839
1261.73	93.43
1264.63	76.6228
1267.52	67.9574
1270.41	2.98187
