Measurement: Raman, 532 nm, unoriented, Raman Data Processed
Mineral: Bergslagite
Rruff sample: R060243
Ideal chemistry: CaBeAs^5+^O_4_(OH)
Locality: Langban mine dump, Langban, Filipstad, Varmland, Sweden
Source: Michael Scott
Description: Colorless crystalline crust with reddish-brown massive tilasite and black aegirine
Measured chemistry: Ca_1.00_Be_1.00_As_1.00_O_4_(OH) ; Be not analyzed but estimated by stoichiometry
Raman shift (cm-1)	intensity
173.805	0
176.698	230.191
179.591	1069.5
182.483	1492.34
185.376	1640.35
188.269	2903.43
191.162	4435.71
194.054	4788.34
196.947	3091.21
199.84	2155.92
202.732	1746.61
205.625	1582.59
208.518	1946.48
211.411	2497.49
214.303	2440.05
217.196	1437.82
220.089	414.001
222.981	74.4619
225.874	257.149
228.767	135.306
231.659	34.8486
234.552	370.84
237.445	1055.96
240.338	1689.24
243.23	2378.8
246.123	3360.66
249.016	4518.2
251.908	6239.25
254.801	8668.43
257.694	11105
260.587	11873.6
263.479	9236.67
266.372	6304.46
269.265	4560.8
272.157	3431.56
275.05	2891.86
277.943	2473.74
280.835	2042.57
283.728	1575.65
286.621	1035.63
289.514	769.785
292.406	484.969
295.299	340.623
298.192	53.916
301.084	99.9336
303.977	80.5019
306.87	3.53516
309.762	178.051
312.655	361.969
315.548	375.51
318.44	548.959
321.333	1047.36
324.226	1958.34
327.119	3372
330.011	5205.78
332.904	6598.41
335.797	8378.71
338.689	9599.85
341.582	9300.64
344.475	7976.35
347.368	7022.78
350.26	5973.92
353.153	5415.08
356.046	6035.97
358.938	7716.02
361.831	9743.74
364.724	10192.6
367.616	7905.11
370.509	5590.45
373.402	4296.6
376.295	4378.56
379.187	5269.12
382.08	6728.81
384.973	8555.95
387.865	9232.68
390.758	8710.4
393.651	6607.51
396.543	4249.58
399.436	2254.97
402.329	1302.01
405.221	785.848
408.114	494.652
411.007	251.697
413.9	21.4785
416.792	153.018
419.685	262.693
422.578	196.746
425.47	43.3555
428.363	395.199
431.256	994.539
434.149	1502.76
437.041	1836.64
439.934	988.637
442.827	295.773
445.719	190.643
448.612	340.275
451.505	1114.77
454.397	2285.89
457.29	4232.56
460.183	6660.02
463.076	8895.54
465.968	8600.29
468.861	5310.69
471.754	2108.01
474.646	786.924
477.539	476.344
480.432	536.463
483.325	1081.79
486.217	1869.3
489.11	3069.96
492.003	4528.15
494.895	5915.27
497.788	6667.67
500.681	5818.58
503.573	3114.04
506.466	1080.18
509.359	315.973
512.251	49.4824
515.144	28.7793
518.037	225.857
520.93	776.309
523.822	1333.18
526.715	2256.94
529.608	3412.05
532.5	4606.65
535.393	6484.02
538.286	8797.85
541.178	10654.7
544.071	10328.3
546.964	7676.93
549.857	5288.36
552.749	4023.97
555.642	3514.28
558.535	3599.64
561.427	3394.51
564.32	2661.64
567.213	1602.42
570.106	1109.99
572.998	690.144
575.891	583.197
578.784	475.56
581.676	439.918
584.569	506.504
587.462	592.506
590.354	646.703
593.247	580.018
596.14	440.387
599.033	347.117
601.925	219.092
604.818	96.9551
607.711	130.43
610.603	106.836
613.496	16.8066
616.389	134.033
619.281	108.1
622.174	112.492
625.067	30.2754
627.96	134.334
630.852	86.0449
633.745	89.0078
636.638	404.603
639.53	329.721
642.423	370.926
645.316	361.578
648.208	448.883
651.101	585.293
653.994	739.459
656.886	833.059
659.779	992.947
662.672	1267.24
665.565	1720.03
668.457	2272.58
671.35	2969.38
674.243	3657.77
677.135	3645.93
680.028	3428.13
682.921	2592.08
685.814	2270.86
688.706	2200.12
691.599	2205.76
694.492	2257.56
697.384	2275.39
700.277	2317.61
703.17	2220.19
706.062	2031.64
708.955	1766.38
711.848	1748.16
714.741	1516.25
717.633	1268.75
720.526	1101.82
723.419	807.602
726.311	527.383
729.204	488.039
732.097	392.236
734.99	387.107
737.882	278.457
740.775	238.168
743.668	136.644
746.56	157.389
749.453	188.285
752.346	361.315
755.238	383.123
758.131	286.285
761.024	72.582
763.917	87.8516
766.809	156.268
769.702	88.3887
772.595	88.2481
775.487	138.219
778.38	13.9141
781.273	122.34
784.165	24.5215
787.058	259.756
789.951	360.385
792.844	432.051
795.736	604.559
798.629	929.896
801.522	1173.77
804.414	1742.54
807.307	2612.3
810.2	4125.87
813.092	6134.35
815.985	8643.32
818.878	11738.9
821.771	14000
824.663	16215.7
827.556	19667.7
830.449	21470.6
833.341	17770.4
836.234	15007.4
839.127	19447.2
842.019	32389.2
844.912	50660.5
847.805	72259.9
850.698	83141.6
853.59	49233.7
856.483	22607
859.376	13996.5
862.268	11713
865.161	12458.1
868.054	14909.1
870.947	17905.8
873.839	21010
876.732	17525.3
879.625	8658.51
882.517	4138.49
885.41	2506.36
888.303	1524.06
891.195	992.803
894.088	661.688
896.981	368.072
899.874	63.082
902.766	17.6484
905.659	124.74
908.552	186.373
911.444	243.562
914.337	275.522
917.23	41.5039
920.122	17.4688
923.015	112.379
925.908	207.025
928.801	389.697
931.693	799.789
934.586	1181.37
937.479	1803.23
940.371	2869.03
943.264	3940.28
946.157	5118.55
949.049	6446.32
951.942	7653.48
954.835	7874.16
957.727	7461.53
960.62	7573.64
963.513	8139.97
966.406	9087.73
969.298	10223.5
972.191	10021.9
975.084	7654.39
977.976	5069.69
980.869	3647.64
983.762	3170.64
986.654	2724.06
989.547	2870.4
992.44	2841.1
995.333	2841.48
998.225	2759.24
1001.12	2249.23
1004.01	1705.34
1006.9	1282.19
1009.8	959.584
1012.69	733.4
1015.58	681.326
1018.47	639.797
1021.37	605.756
1024.26	635.803
1027.15	804.521
1030.05	1048.94
1032.94	1733.44
1035.83	2795.94
1038.72	3828.03
1041.62	4732.1
1044.51	4146.67
1047.4	2568.31
1050.29	1110.7
1053.19	663.742
1056.08	259.76
1058.97	101.039
1061.87	102.969
1064.76	89.6621
1067.65	96.4883
1070.54	34.2793
1073.44	86.6074
1076.33	42.5312
1079.22	2.77734
1082.11	63.916
1085.01	5.00977
1087.9	109.219
1090.79	107.107
1093.68	174.922
1096.58	230.889
1099.47	176.342
1102.36	218.303
1105.26	305.789
1108.15	356.496
1111.04	436.393
1113.93	436.359
1116.83	559.953
1119.72	471.158
1122.61	478.777
1125.5	610.727
1128.4	585.969
1131.29	440.285
1134.18	440.82
1137.08	431.107
1139.97	378.602
1142.86	356.357
1145.75	255.148
1148.65	216.963
1151.54	181.152
1154.43	25.5312
1157.32	162.906
1160.22	125.777
1163.11	30.9082
1166	4.08789
1168.89	99.2031
1171.79	114.672
1174.68	142.307
1177.57	67.9199
1180.47	118.697
1183.36	99.4356
1186.25	9.41992
1189.14	107.262
1192.04	82.2715
1194.93	5.45703
1197.82	56.668
1200.71	106.393
1203.61	16.7012
1206.5	29.4902
1209.39	107.674
1212.29	170.828
1215.18	50.6973
1218.07	86.8867
1220.96	226.383
1223.86	244.133
1226.75	193.475
1229.64	281.512
1232.53	231.963
1235.43	328.594
1238.32	355.994
1241.21	261.543
1244.11	433.144
1247	261.904
1249.89	553.473
1252.78	383.344
1255.68	578.496
1258.57	505.938
1261.46	525.324
1264.35	552.371
1267.25	457.438
1270.14	473.565
1273.03	361.412
1275.92	370.338
1278.82	276.978
1281.71	358.875
1284.6	421.701
1287.49	240.051
1290.39	142.492
1293.28	164.088
1296.17	223.42
1299.07	129.631
1301.96	184.852
1304.85	39.1855
1307.74	170.41
1310.64	45.0371
