Measurement: Raman, 780 nm, unoriented, Raman Data Processed
Mineral: Berlinite
Rruff sample: R130243
Ideal chemistry: AlPO_4_
Locality: Buranga pegmatite, Gatumba District, Western Province, Rwanda
Source: Rock Currier
Description: Massive white to gray vitreous, associated with lazulite, muscovite and apatite.
Raman shift (cm-1)	intensity
102.166	0
105.541	36.5999
108.916	67.2208
112.291	27.2381
115.666	69.5957
119.041	142.112
122.415	50.7283
125.79	3.03261
129.165	1.20389
132.54	1.0612
135.915	0.302822
139.29	6.45717
142.664	13.0597
146.039	22.1057
149.414	26.7296
152.789	38.3434
156.163	61.0765
159.538	107.68
162.913	162.669
166.288	81.2324
169.663	1.87838
173.038	3.82542
176.412	4.68642
179.787	16.1456
183.162	29.3847
186.537	46.7624
189.912	73.9916
193.286	114.235
196.661	154.09
200.036	157.643
203.411	191.725
206.786	257.642
210.161	341.896
213.535	416.516
216.91	437.864
220.285	433.632
223.66	416.495
227.035	359.885
230.409	292
233.784	227.163
237.159	166.195
240.534	126.513
243.909	99.309
247.284	75.2641
250.658	54.2027
254.033	37.1112
257.408	24.6605
260.783	16.48
264.158	11.7731
267.532	6.48041
270.907	3.64307
274.282	0.952736
277.657	0.362829
281.032	0.928253
284.406	1.18176
287.781	1.41274
291.156	0.117292
294.531	1.1846
297.906	3.23289
301.281	6.02284
304.655	9.63843
308.03	8.77421
311.405	3.59775
314.78	0.160898
318.155	0.253498
321.529	0.023512
324.904	1.70389
328.279	4.84941
331.654	10.0272
335.029	22.2536
338.404	20.5784
341.778	7.91101
345.153	2.9572
348.528	0.853333
351.903	0.646446
355.278	1.84345
358.652	5.69911
362.027	10.614
365.402	18.3165
368.777	32.2806
372.152	74.5415
375.526	91.0018
378.901	71.2994
382.276	33.6078
385.651	4.00316
389.026	0.689962
392.401	1.89789
395.775	1.64869
399.15	1.29791
402.525	6.17178
405.9	11.784
409.275	21.3077
412.649	39.248
416.024	66.9338
419.399	75.3757
422.774	48.7316
426.149	35.5737
429.524	44.1757
432.898	73.6197
436.273	148.817
439.648	232.384
443.023	113.982
446.398	137.934
449.772	198.339
453.147	314.376
456.522	544.101
459.897	975.407
463.272	1106.88
466.647	561.394
470.021	261.67
473.396	131.089
476.771	84.4818
480.146	65.8055
483.521	44.1094
486.895	27.3032
490.27	18.562
493.645	12.3473
497.02	7.16015
500.395	4.09794
503.769	2.08862
507.144	0.050932
510.519	0.574549
513.894	0.483662
517.269	0.659636
520.644	0.68866
524.018	0.334511
527.393	1.13384
530.768	2.18829
534.143	3.98575
537.518	6.27191
540.892	4.6797
544.267	1.19043
547.642	0.147688
551.017	1.45664
554.392	2.37578
557.766	5.25846
561.141	10.1347
564.516	18.8829
567.891	17.782
571.266	5.55968
574.64	1.06629
578.015	0.132169
581.39	0.158523
584.765	0.417566
588.14	0.131531
591.515	0.387162
594.889	0.484868
598.264	0.332057
601.639	0.416909
605.014	0.607568
608.389	0.733361
611.764	0.76811
615.138	1.21323
618.513	1.3237
621.888	1.41973
625.263	1.5946
628.638	1.97061
632.012	2.74159
635.387	3.51487
638.762	4.48432
642.137	5.4082
645.512	7.62438
648.886	10.6389
652.261	12.3392
655.636	8.9139
659.011	5.05291
662.386	3.09813
665.76	1.62599
669.135	1.05439
672.51	0.762692
675.885	0.207265
679.26	0.609315
682.635	0.735128
686.009	0.76827
689.384	1.28221
692.759	2.08494
696.134	2.95497
699.509	3.98762
702.884	4.78175
706.258	3.34859
709.633	1.95859
713.008	2.56495
716.383	4.41155
719.758	4.68128
723.132	4.95187
726.507	6.6455
729.882	6.79099
733.257	4.18616
736.632	2.42171
740.006	1.24968
743.381	1.33065
746.756	1.85499
750.131	1.52409
753.506	0.624574
756.88	0.107327
760.255	0.114645
763.63	0.213838
767.005	0.079171
770.38	0.01756
773.755	0.075311
777.129	0.104593
780.504	0.134769
783.879	0.03186
787.254	0.276917
790.629	0.001508
794.003	0.244409
797.378	0.134629
800.753	0.001309
804.128	0.224226
807.503	0.275178
810.878	0.483004
814.252	0.215829
817.627	0.387325
821.002	0.104994
824.377	0.612183
827.752	0.563701
831.126	0.554723
834.501	0.765885
837.876	1.01794
841.251	0.798377
844.626	1.016
848	1.0943
851.375	1.24848
854.75	1.06828
858.125	1.39402
861.5	1.49533
864.875	1.58314
868.249	1.85963
871.624	2.04587
874.999	2.18901
878.374	2.1384
881.749	1.88384
885.123	1.38765
888.498	1.24908
891.873	1.1726
895.248	0.854509
898.623	0.589154
901.997	0.354269
905.372	0.552838
908.747	0.220482
912.122	0.705196
915.497	0.433129
918.872	0.469381
922.246	0.531117
925.621	0.147019
928.996	0.433987
932.371	0.741116
935.746	0.572843
939.12	0.52014
942.495	1.03196
945.87	0.980677
949.245	0.896681
952.62	0.552269
955.995	0.536874
959.369	0.378704
962.744	0.222162
966.119	0.071612
969.494	0.14353
972.869	0.02697
976.243	0.009921
979.618	0.236417
982.993	0.421788
986.368	0.964282
989.743	1.00028
993.117	0.435721
996.492	0.289288
999.867	0.664872
1003.24	1.02873
1006.62	1.6556
1009.99	2.74552
1013.37	1.63936
1016.74	1.60276
1020.12	1.57602
1023.49	1.75451
1026.87	1.70936
1030.24	1.45622
1033.62	0.73011
1036.99	0.270453
1040.37	0.108167
1043.74	0.124002
1047.12	0.117818
1050.49	0.027515
1053.86	0.07027
1057.24	0.462752
1060.61	0.452029
1063.99	1.26025
1067.36	1.94505
1070.74	3.07845
1074.11	5.2849
1077.49	5.75961
1080.86	7.12808
1084.24	11.3847
1087.61	19.8158
1090.99	34.7972
1094.36	63.2854
1097.74	119.626
1101.11	211.124
1104.49	302.189
1107.86	391.296
1111.24	525.933
1114.61	343.697
1117.99	130.151
1121.36	57.1282
1124.73	30.5226
1128.11	18.8992
1131.48	12.4279
1134.86	7.30668
1138.23	4.24547
1141.61	2.49581
1144.98	1.40429
1148.36	0.455989
1151.73	0.563291
1155.11	0.308818
1158.48	0.004479
1161.86	0.096599
1165.23	0.054587
1168.61	0.281215
1171.98	0.041995
1175.36	0.116199
1178.73	0.212724
1182.11	0.135836
1185.48	0.290013
1188.86	0.122202
1192.23	0.263804
1195.61	0.688137
1198.98	1.35051
1202.36	2.08207
1205.73	2.99956
1209.11	4.30974
1212.48	6.31271
1215.86	9.50769
1219.23	14.0601
1222.61	20.0757
1225.98	27.7032
1229.35	34.9087
1232.73	34.7013
1236.1	25.4618
1239.48	17.9469
1242.85	15.3377
1246.23	12.0408
1249.6	8.2901
1252.98	5.24376
1256.35	2.90715
1259.73	1.78122
1263.1	1.0823
1266.48	0.624671
1269.85	0.114165
1273.23	0.274445
1276.6	0.01122
1279.98	0.223096
1283.35	0.03781
