Measurement: Raman, 532 nm, unoriented, Raman Data Processed
Mineral: Berlinite
Rruff sample: R130243
Ideal chemistry: AlPO_4_
Locality: Buranga pegmatite, Gatumba District, Western Province, Rwanda
Source: Rock Currier
Description: Massive white to gray vitreous, associated with lazulite, muscovite and apatite.
Raman shift (cm-1)	intensity
103.282	0
106.657	57.7251
110.032	88.2633
113.407	41.9662
116.782	134.977
120.157	272.978
123.531	79.0846
126.906	3.89293
130.281	2.02
133.656	1.38541
137.031	0.317383
140.405	12.5637
143.78	19.4325
147.155	37.572
150.53	49.6341
153.905	71.4354
157.28	115.519
160.654	216.878
164.029	351.309
167.404	129.184
170.779	1.59015
174.154	6.35333
177.528	3.46674
180.903	21.0805
184.278	42.5324
187.653	70.1481
191.028	113.588
194.403	185.913
197.777	248.056
201.152	235.571
204.527	284.845
207.902	394.439
211.277	537.798
214.651	659.391
218.026	693.081
221.401	698.786
224.776	669.676
228.151	567.646
231.525	457.166
234.9	353.545
238.275	257.989
241.65	197.768
245.025	155.413
248.4	118.875
251.774	83.6814
255.149	57.9782
258.524	39.5599
261.899	26.2028
265.274	16.8961
268.649	9.92583
272.023	5.61277
275.398	1.90237
278.773	0.128292
282.148	1.28171
285.523	2.39896
288.897	1.1954
292.272	0.226429
295.647	2.82489
299.022	8.92677
302.397	17.2947
305.772	25.9428
309.146	22.6768
312.521	10.7925
315.896	3.87074
319.271	0.649597
322.646	0.479553
326.02	1.93152
329.395	5.03495
332.77	9.71934
336.145	22.2326
339.52	16.5465
342.894	4.92521
346.269	1.3932
349.644	0.267567
353.019	1.72175
356.394	0.693611
359.769	5.74104
363.143	17.4994
366.518	36.4792
369.893	70.8029
373.268	149.564
376.643	187.677
380.017	253.628
383.392	73.9906
386.767	9.02404
390.142	2.06308
393.517	3.30562
396.892	0.510696
400.266	7.8597
403.641	25.7611
407.016	48.7305
410.391	86.8759
413.766	165.567
417.14	282.84
420.515	256.801
423.89	142.786
427.265	129.924
430.64	171.381
434.014	327.935
437.389	703.956
440.764	947.315
444.139	227.292
447.514	208.501
450.889	320.087
454.263	530.862
457.638	1009.26
461.013	1838
464.388	1838.99
467.763	795.921
471.137	369.783
474.512	211.811
477.887	169.01
481.262	152.115
484.637	89.783
488.012	52.6584
491.386	31.6408
494.761	19.8568
498.136	10.6074
501.511	4.6456
504.886	0.038605
508.26	1.72576
511.635	2.83653
515.01	1.87266
518.385	0.424515
521.76	0.614811
525.135	2.48831
528.509	6.68921
531.884	11.8267
535.259	19.1877
538.634	29.1017
542.009	21.8534
545.384	7.57868
548.758	4.77653
552.133	7.91356
555.508	15.6698
558.883	27.1918
562.258	51.1679
565.632	88.1571
569.007	66.531
572.382	18.399
575.757	5.16531
579.132	0.827988
582.506	0.021629
585.881	0.29579
589.256	0.401047
592.631	0.288462
596.006	0.368755
599.381	0.330803
602.755	0.131771
606.13	0.434935
609.505	1.49594
612.88	1.63132
616.255	1.88417
619.63	2.76924
623.004	2.52659
626.379	3.2424
629.754	3.92021
633.129	4.55343
636.504	6.39112
639.878	8.95626
643.253	13.232
646.628	18.7069
650.003	26.0999
653.378	29.2582
656.752	20.2314
660.127	11.1924
663.502	5.72074
666.877	3.30268
670.252	1.80145
673.626	1.06751
677.001	1.05786
680.376	1.0279
683.751	2.07093
687.126	4.00449
690.501	6.63491
693.875	10.2725
697.25	13.4012
700.625	17.4168
704	20.3922
707.375	13.2752
710.75	8.98444
714.124	11.6839
717.499	16.9311
720.874	13.4374
724.249	11.5128
727.624	13.5658
730.998	12.1494
734.373	6.6859
737.748	3.71957
741.123	3.48678
744.498	3.90222
747.872	5.59553
751.247	4.94319
754.622	1.77133
757.997	0.335026
761.372	0.441803
764.747	1.00431
768.121	0.121923
771.496	0.131763
774.871	0.081375
778.246	0.473251
781.621	0.247026
784.995	0.147528
788.37	0.247156
791.745	0.294294
795.12	0.036619
798.495	0.108467
801.87	0.89542
805.244	0.29674
808.619	0.379864
811.994	0.453869
815.369	0.607306
818.744	0.99626
822.119	1.21927
825.493	1.06717
828.868	1.32599
832.243	2.14741
835.618	2.33542
838.993	2.29669
842.367	2.32206
845.742	2.83497
849.117	2.48542
852.492	3.2621
855.867	3.42851
859.241	3.62629
862.616	3.91825
865.991	4.04953
869.366	5.15186
872.741	5.86111
876.115	6.24109
879.49	5.80485
882.865	4.50532
886.24	3.71754
889.615	3.46832
892.99	2.64888
896.364	1.88524
899.739	1.66072
903.114	1.00308
906.489	1.20895
909.864	0.93387
913.239	1.54924
916.613	1.7087
919.988	1.58932
923.363	1.36219
926.738	0.94219
930.113	1.33965
933.487	1.46386
936.862	1.68796
940.237	1.57251
943.612	1.26839
946.987	2.16844
950.361	1.78549
953.736	2.14723
957.111	1.87404
960.486	0.890472
963.861	0.087038
967.236	0.359356
970.61	0.466976
973.985	0.883808
977.36	0.23781
980.735	0.82089
984.11	1.65486
987.485	3.253
990.859	3.61051
994.234	2.14624
997.609	2.03199
1000.98	2.47243
1004.36	4.39384
1007.73	7.16965
1011.11	9.19463
1014.48	7.83036
1017.86	4.96052
1021.23	4.82923
1024.61	5.43592
1027.98	5.91065
1031.36	4.70876
1034.73	1.85405
1038.11	0.361645
1041.48	0.364719
1044.86	1.0942
1048.23	0.652378
1051.61	1.17585
1054.98	0.037785
1058.36	0.201122
1061.73	0.951176
1065.11	2.34166
1068.48	5.1783
1071.86	9.87704
1075.23	14.4243
1078.6	15.0116
1081.98	20.7614
1085.35	31.1356
1088.73	53.4257
1092.1	94.0255
1095.48	171.697
1098.85	331.814
1102.23	593.837
1105.6	854.318
1108.98	1191.54
1112.35	1626.19
1115.73	909.279
1119.1	350.873
1122.48	164.427
1125.85	92.4637
1129.23	61.2294
1132.6	38.4096
1135.98	22.9975
1139.35	13.5077
1142.73	7.95459
1146.1	3.95279
1149.48	1.66102
1152.85	0.562292
1156.22	0.421841
1159.6	0.650875
1162.97	0.554174
1166.35	0.169668
1169.72	0.17823
1173.1	0.001192
1176.47	1.2222
1179.85	0.603319
1183.22	0.453932
1186.6	1.01135
1189.97	1.86848
1193.35	2.86194
1196.72	4.14698
1200.1	6.65735
1203.47	10.0679
1206.85	14.9926
1210.22	22.2616
1213.6	33.3671
1216.97	48.169
1220.35	71.4065
1223.72	100.56
1227.1	138.469
1230.47	173.123
1233.85	163.564
1237.22	119.889
1240.6	89.4364
1243.97	77.3528
1247.35	61.5667
1250.72	41.2165
1254.1	25.0018
1257.47	15.4386
1260.85	9.32725
1264.22	5.56724
1267.59	3.50564
1270.97	2.03237
1274.34	0.974077
1277.72	0.641752
1281.09	0.082302
1284.47	0.249693
1287.84	0.19422
1291.22	0.553951
1294.59	0.457639
1297.97	0.496814
1301.34	0.001696
