Measurement: Raman, 532 nm, unoriented, Raman Data Processed
Mineral: Bermanite
Rruff sample: R130057
Ideal chemistry: Mn^2+^Mn^3+^_2_(PO_4_)_2_(OH)_2_4H_2_O
Locality: Tip Top mine, Custer, South Dakota, USA
Source: Thomas A. Loomis
Description: Dark red plates
Raman shift (cm-1)	intensity
188.678	0
191.57	6.73355
194.463	13.8334
197.356	14.3579
200.249	11.5829
203.141	10.955
206.034	8.55426
208.927	15.3419
211.819	17.841
214.712	17.7607
217.605	11.7796
220.497	6.19088
223.39	0.950638
226.283	2.03837
229.175	1.44631
232.068	0.59063
234.961	2.94527
237.854	4.79585
240.746	4.85643
243.639	7.01688
246.532	10.3683
249.424	12.8181
252.317	19.0027
255.21	26.3517
258.103	31.9007
260.995	33.9864
263.888	37.947
266.781	40.3373
269.673	38.7572
272.566	34.5004
275.459	26.085
278.351	16.9402
281.244	10.866
284.137	6.47361
287.029	3.79481
289.922	1.61373
292.815	1.94665
295.708	3.41602
298.6	7.67874
301.493	13.3413
304.386	24.4741
307.278	37.2914
310.171	55.9673
313.064	79.508
315.957	103.647
318.849	127.728
321.742	145.329
324.635	154.992
327.527	145.624
330.42	133.102
333.313	120.008
336.205	107.834
339.098	95.3072
341.991	80.4547
344.884	65.1094
347.776	51.7609
350.669	39.1576
353.562	28.7636
356.454	20.0944
359.347	12.56
362.24	7.71295
365.132	3.51276
368.025	0.619148
370.918	0.806168
373.81	2.02545
376.703	2.06395
379.596	1.72477
382.489	0.926834
385.381	0.286201
388.274	1.36279
391.167	2.1327
394.059	2.86359
396.952	3.85669
399.845	8.09611
402.738	10.431
405.63	18.2175
408.523	24.4143
411.416	32.6188
414.308	37.3364
417.201	36.5262
420.094	31.1783
422.986	25.8876
425.879	25.2321
428.772	27.4749
431.664	31.5338
434.557	37.9895
437.45	46.8243
440.343	60.6868
443.235	76.9752
446.128	96.0738
449.021	116.137
451.913	131.71
454.806	140.621
457.699	136.314
460.591	127.202
463.484	121.907
466.377	125.028
469.27	138.294
472.162	150.78
475.055	148.777
477.948	133.135
480.84	116.352
483.733	108.298
486.626	103.9
489.519	93.8548
492.411	77.8319
495.304	57.7482
498.197	44.1696
501.089	33.741
503.982	29.756
506.875	25.1773
509.767	19.3324
512.66	15.0349
515.553	9.46383
518.446	5.71312
521.338	2.13087
524.231	0.040165
527.124	0.861313
530.016	1.28621
532.909	1.63047
535.802	2.19432
538.694	1.43025
541.587	0.139301
544.48	2.58488
547.372	4.28655
550.265	8.51853
553.158	11.7574
556.051	17.1206
558.943	22.5301
561.836	30.4375
564.729	39.639
567.621	51.4432
570.514	65.765
573.407	82.3573
576.299	95.4228
579.192	101.236
582.085	100.603
584.978	94.0434
587.87	83.3586
590.763	73.4652
593.656	62.185
596.548	53.4739
599.441	46.508
602.334	39.921
605.226	37.1698
608.119	35.2561
611.012	33.3921
613.905	33.0203
616.797	31.9007
619.69	30.4661
622.583	27.3495
625.475	23.223
628.368	19.0547
631.261	15.7375
634.154	11.9895
637.046	9.71994
639.939	6.20172
642.832	5.46987
645.724	3.3306
648.617	1.81682
651.51	1.35886
654.402	1.23898
657.295	1.26101
660.188	0.592384
663.081	0.148624
665.973	0.621754
668.866	1.35162
671.759	0.442379
674.651	0.48341
677.544	0.036186
680.437	0.219761
683.329	0.194893
686.222	0.070198
689.115	0.022068
692.008	0.324142
694.9	0.03257
697.793	0.083622
700.686	0.041351
703.578	0.844555
706.471	0.112171
709.364	0.937534
712.256	0.058899
715.149	0.077579
718.042	0.492237
720.934	0.116871
723.827	0.839813
726.72	0.728138
729.613	0.703396
732.505	0.731163
735.398	0.651196
738.291	1.40739
741.183	0.839329
744.076	1.10339
746.969	0.856174
749.861	0.923912
752.754	0.090084
755.647	0.633442
758.54	0.434666
761.432	0.46175
764.325	0.092083
767.218	0.67672
770.11	0.392643
773.003	0.180828
775.896	0.624653
778.788	0.094437
781.681	0.141735
784.574	0.717045
787.467	1.61177
790.359	0.83474
793.252	0.727787
796.145	0.378857
799.037	1.5611
801.93	1.45321
804.823	1.98109
807.716	2.3474
810.608	1.91171
813.501	2.14912
816.394	2.1988
819.286	3.13828
822.179	2.79854
825.072	3.11009
827.964	3.30112
830.857	3.97026
833.75	3.7066
836.643	3.70532
839.535	3.84769
842.428	2.93113
845.321	4.45119
848.213	4.15351
851.106	3.87852
853.999	4.32412
856.891	4.97011
859.784	4.83511
862.677	4.67785
865.569	5.23483
868.462	5.60149
871.355	6.58213
874.248	6.41472
877.14	6.05577
880.033	5.45618
882.926	5.20829
885.818	4.27879
888.711	3.61274
891.604	2.84325
894.496	2.48543
897.389	1.62672
900.282	2.0969
903.175	1.37191
906.067	0.433708
908.96	0.182079
911.853	0.177708
914.745	0.691463
917.638	0.305565
920.531	1.1326
923.423	0.181221
926.316	0.071468
929.209	0.883301
932.102	1.02615
934.994	0.894531
937.887	1.17179
940.78	0.005478
943.672	0.592216
946.565	1.98062
949.458	3.13002
952.351	4.05615
955.243	6.27393
958.136	8.68474
961.029	11.7818
963.921	15.9754
966.814	23.7054
969.707	31.6696
972.599	40.2261
975.492	44.6842
978.385	47.7136
981.278	54.8152
984.17	73.5492
987.063	111.661
989.956	155.873
992.848	175.577
995.741	169.468
998.634	161.118
1001.53	133.393
1004.42	84.2459
1007.31	48.3074
1010.21	30.8812
1013.1	20.8856
1015.99	12.3077
1018.88	7.6514
1021.77	4.8388
1024.67	2.49193
1027.56	1.08498
1030.45	0.1791
1033.35	0.23011
1036.24	0.348606
1039.13	0.381306
1042.02	0.671612
1044.92	0.059891
1047.81	0.244488
1050.7	0.401573
1053.6	0.789597
1056.49	0.764557
1059.38	0.801136
1062.27	0.243076
1065.17	0.480667
1068.06	1.23183
1070.95	2.35506
1073.84	2.37262
1076.74	2.88071
1079.63	5.29285
1082.52	5.05811
1085.41	6.28015
1088.31	7.67754
1091.2	8.88134
1094.09	9.26897
1096.99	9.72945
1099.88	11.0151
1102.77	14.1803
1105.66	17.1555
1108.56	21.146
1111.45	27.4198
1114.34	33.6707
1117.23	43.0686
1120.13	54.5825
1123.02	70.1943
1125.91	89.6263
1128.81	111.298
1131.7	135.445
1134.59	164.802
1137.48	185.952
1140.38	183.417
1143.27	156.975
1146.16	128.729
1149.05	103.819
1151.95	86.2466
1154.84	67.4377
1157.73	50.1035
1160.62	36.8012
1163.52	26.5004
1166.41	19.1971
1169.3	13.921
1172.2	9.78987
1175.09	7.02754
1177.98	5.92386
1180.87	4.67395
1183.77	3.1312
1186.66	1.57746
1189.55	0.935772
1192.44	1.3415
1195.34	1.23878
1198.23	0.020935
1201.12	0.554127
1204.02	0.303619
1206.91	0.279335
1209.8	0.398731
1212.69	0.115681
1215.59	0.02264
1218.48	0.477814
1221.37	0.385826
1224.26	0.167522
1227.16	0.611652
1230.05	0.202164
1232.94	0.152016
1235.84	0.655891
1238.73	0.768337
1241.62	0.548183
1244.51	0.816299
1247.41	0.534283
1250.3	1.23446
1253.19	1.56188
1256.08	1.50828
1258.98	1.28278
1261.87	1.26722
1264.76	1.46387
1267.65	1.0861
1270.55	1.89976
1273.44	1.71756
1276.33	0.45108
1279.23	0.417149
1282.12	0.794823
1285.01	0.710381
1287.9	0.638569
1290.8	0.644848
1293.69	0.471222
1296.58	0.379211
1299.47	0.184101
