Measurement: Raman, 780 nm, unoriented, Raman Data Processed
Mineral: Bermanite
Rruff sample: R130057
Ideal chemistry: Mn^2+^Mn^3+^_2_(PO_4_)_2_(OH)_2_4H_2_O
Locality: Tip Top mine, Custer, South Dakota, USA
Source: Thomas A. Loomis
Description: Dark red plates
Raman shift (cm-1)	intensity
100.36	0
103.735	2.32452
107.109	12.1967
110.484	25.5092
113.859	50.984
117.234	74.7624
120.609	89.707
123.984	70.6079
127.358	44.5347
130.733	33.6363
134.108	24.9441
137.483	16.0568
140.858	9.05113
144.232	6.99087
147.607	5.29423
150.982	4.42948
154.357	4.01792
157.732	1.24402
161.107	0.363228
164.481	1.83315
167.856	1.42659
171.231	1.29863
174.606	0.274349
177.981	1.07803
181.355	3.33193
184.73	5.29811
188.105	7.26593
191.48	8.7905
194.855	10.2765
198.229	10.645
201.604	11.4476
204.979	13.9066
208.354	17.783
211.729	18.7805
215.103	17.1073
218.478	12.5771
221.853	10.8909
225.228	8.15988
228.603	6.71386
231.978	5.71058
235.352	3.26301
238.727	3.84724
242.102	5.09082
245.477	8.24256
248.852	10.586
252.226	11.4235
255.601	11.606
258.976	13.5996
262.351	17.1793
265.726	19.0089
269.101	19.3675
272.475	15.295
275.85	8.2523
279.225	1.99474
282.6	0.35318
285.975	0.95517
289.349	0.010609
292.724	3.79545
296.099	8.00777
299.474	15.863
302.849	27.4894
306.224	44.1202
309.598	66.4172
312.973	93.3453
316.348	121.293
319.723	142.943
323.098	149.928
326.472	141.035
329.847	124.81
333.222	104.558
336.597	86.8577
339.972	69.5633
343.346	52.3456
346.721	36.8745
350.096	26.0555
353.471	15.9652
356.846	9.6812
360.221	5.0994
363.595	2.02712
366.97	0.291046
370.345	0.635509
373.72	1.36286
377.095	0.875839
380.469	0.47883
383.844	0.248999
387.219	1.22597
390.594	1.18793
393.969	1.17587
397.344	2.49155
400.718	4.25232
404.093	7.86536
407.468	12.9411
410.843	18.0233
414.217	19.4163
417.592	16.0953
420.967	11.4236
424.342	7.79584
427.717	6.25357
431.092	6.49029
434.466	6.7746
437.841	9.30466
441.216	13.1546
444.591	18.1864
447.966	24.3426
451.341	30.73
454.715	34.0131
458.09	35.1603
461.465	36.9943
464.84	43.7955
468.215	56.7706
471.589	66.6234
474.964	63.5116
478.339	52.2906
481.714	45.1707
485.089	42.916
488.463	38.4988
491.838	29.2826
495.213	19.4282
498.588	12.3928
501.963	9.06104
505.337	5.86368
508.712	4.05948
512.087	2.98854
515.462	1.23459
518.837	0.659454
522.212	0.093699
525.586	0.225203
528.961	0.435009
532.336	0.200794
535.711	0.253888
539.086	0.609735
542.46	1.62888
545.835	2.49579
549.21	5.06662
552.585	7.73818
555.96	10.8462
559.335	14.0738
562.709	17.6896
566.084	21.2115
569.459	25.6903
572.834	32.715
576.209	40.9742
579.583	45.2335
582.958	42.5057
586.333	36.5759
589.708	29.7578
593.083	24.676
596.457	20.4377
599.832	16.5281
603.207	14.9068
606.582	12.6843
609.957	10.8934
613.332	9.78036
616.706	8.30192
620.081	6.71962
623.456	5.75966
626.831	4.66725
630.206	3.67118
633.58	2.46374
636.955	1.89263
640.33	1.69004
643.705	0.860174
647.08	0.840566
650.455	0.413701
653.829	0.23175
657.204	0.084758
660.579	0.007258
663.954	0.071194
667.329	0.084713
670.703	0.198325
674.078	0.050094
677.453	0.002438
680.828	0.174829
684.203	0.149807
687.577	0.099523
690.952	0.092554
694.327	0.265883
697.702	0.206113
701.077	0.114052
704.452	0.49262
707.826	0.249545
711.201	0.253249
714.576	0.252168
717.951	0.307166
721.326	0.439749
724.7	0.395194
728.075	0.429976
731.45	0.290919
734.825	0.168712
738.2	0.327575
741.574	0.382917
744.949	0.554624
748.324	0.19444
751.699	0.106141
755.074	0.183829
758.449	0.0189
761.823	0.317589
765.198	0.199959
768.573	0.117133
771.948	0.467443
775.323	0.431939
778.697	0.101762
782.072	0.555696
785.447	0.656918
788.822	0.488228
792.197	0.221711
795.572	0.47268
798.946	0.756382
802.321	0.795617
805.696	0.39306
809.071	0.822865
812.446	0.733949
815.82	0.929292
819.195	0.909907
822.57	0.809596
825.945	1.03657
829.32	1.00571
832.694	1.319
836.069	0.93181
839.444	1.29219
842.819	0.950011
846.194	1.141
849.569	1.36626
852.943	1.42399
856.318	0.998956
859.693	1.1692
863.068	1.53866
866.443	1.65817
869.817	1.80658
873.192	1.42172
876.567	1.60208
879.942	1.31963
883.317	1.27656
886.692	0.707726
890.066	0.89667
893.441	0.400229
896.816	0.693251
900.191	0.425676
903.566	0.424085
906.94	0.036023
910.315	0.0766
913.69	0.174857
917.065	0.042159
920.44	0.086848
923.814	0.042458
927.189	0.016263
930.564	0.202021
933.939	0.085253
937.314	0.513744
940.689	0.906963
944.063	0.670082
947.438	1.28405
950.813	1.6831
954.188	2.20171
957.563	3.34007
960.937	5.09326
964.312	6.84625
967.687	9.61874
971.062	12.5637
974.437	13.9208
977.812	13.1182
981.186	14.0221
984.561	19.6557
987.936	32.1993
991.311	38.0882
994.686	37.5788
998.06	40.7531
1001.43	32.0625
1004.81	17.0285
1008.18	9.6677
1011.56	5.4239
1014.93	3.42924
1018.31	1.9172
1021.68	1.10929
1025.06	0.539834
1028.43	0.433397
1031.81	0.342073
1035.18	0.39593
1038.56	0.088006
1041.93	0.177195
1045.31	0.211652
1048.68	0.026308
1052.06	0.052551
1055.43	0.374246
1058.81	0.121012
1062.18	0.200747
1065.56	0.448513
1068.93	0.446477
1072.31	0.708619
1075.68	1.65316
1079.06	1.67069
1082.43	2.56728
1085.81	2.93397
1089.18	3.6098
1092.56	3.6331
1095.93	3.55506
1099.31	4.61799
1102.68	5.85963
1106.05	7.53499
1109.43	10.4643
1112.8	13.7349
1116.18	17.0745
1119.55	22.0677
1122.93	30.1726
1126.3	42.0335
1129.68	57.9915
1133.05	81.7672
1136.43	100.362
1139.8	95.6401
1143.18	70.9005
1146.55	48.5255
1149.93	33.8235
1153.3	23.3466
1156.68	16.0412
1160.05	10.7725
1163.43	7.87447
1166.8	5.70844
1170.18	4.05701
1173.55	2.92654
1176.93	2.34807
1180.3	1.96518
1183.67	1.30133
1187.05	0.594271
1190.42	0.587378
1193.8	0.164703
1197.17	0.159576
1200.55	0.191819
1203.92	0.088382
1207.3	0.248806
1210.67	0.170341
1214.05	0.10782
1217.42	0.015064
1220.8	0.007553
1224.17	0.083614
1227.55	0.324212
1230.92	0.146448
1234.3	0.159611
1237.67	0.470003
1241.05	0.376901
1244.42	0.89612
1247.8	0.760692
1251.17	0.546562
1254.55	0.671677
1257.92	0.723088
1261.3	0.623693
1264.67	0.308666
1268.05	0.38413
1271.42	0.611779
1274.8	0.942469
1278.17	0.451313
1281.55	0.090271
