Measurement: Raman, 780 nm, unoriented, Raman Data Processed
Mineral: Bertossaite
Rruff sample: R060666
Ideal chemistry: Li_2_CaAl_4_(PO_4_)_4_(OH)_4_
Locality: Buranga, Rwanda
Source: Michael Scott
Description: Pale pink massive
Measured chemistry: (Li_1.86_Na_0.14_)_Σ=2_(Ca_0.90_Mn_0.06_Mg_0.04_)_Σ=1_(Al_3.90_Fe^3+^_0.10_)_Σ=4_(P_1.00_O_4_)_4_((OH)_3.06_F_0.94_)_Σ=4_; H_2_O assumed by stoichiometry; Li estimated by difference; OH estimated by charge balance
Raman shift (cm-1)	intensity
95.4169	0
98.7917	5.05933
102.166	7.6897
105.541	7.5791
108.916	32.2607
112.291	15.6304
115.666	8.59692
119.041	2.09619
122.415	2.58496
125.79	28.4539
129.165	28.6506
132.54	52.2273
135.915	65.687
139.29	103.097
142.664	158.07
146.039	138.146
149.414	79.6306
152.789	43.9793
156.163	34.5625
159.538	33.3252
162.913	50.3135
166.288	56.0864
169.663	70.0942
173.038	60.9653
176.412	24.1008
179.787	9.80566
183.162	1.24902
186.537	4.02686
189.912	0.983398
193.286	0.863037
196.661	0.595215
200.036	0.010986
203.411	4.10156
206.786	0.3125
210.161	0.39624
213.535	0.972656
216.91	4.74951
220.285	10.8225
223.66	21.9802
227.035	33.2349
230.409	52.6148
233.784	70.519
237.159	96.9065
240.534	124.628
243.909	133.761
247.284	104.206
250.658	58.3591
254.033	35.6184
257.408	33.2395
260.783	34.7356
264.158	39.0588
267.532	39.8694
270.907	37.9431
274.282	37.7322
277.657	35.5957
281.032	45.6299
284.406	60.044
287.781	62.1521
291.156	61.4424
294.531	43.387
297.906	30.2131
301.281	19.4568
304.655	16.3015
308.03	11.7268
311.405	20.9331
314.78	39.2913
318.155	48.3394
321.529	76.4607
324.904	107.194
328.279	160.666
331.654	213.933
335.029	223.413
338.404	172.9
341.778	119.271
345.153	70.7488
348.528	35.7495
351.903	22.1631
355.278	15.1177
358.652	14.4697
362.027	18.2019
365.402	19.9368
368.777	28.2244
372.152	24.9082
375.526	14.813
378.901	13.0953
382.276	0.190308
385.651	7.60522
389.026	2.26135
392.401	2.96826
395.775	0.468262
399.15	5.802
402.525	3.27368
405.9	11.9113
409.275	16.6981
412.649	19.0765
416.024	27.472
419.399	37.1914
422.774	56.295
426.149	71.9634
429.524	93.0492
432.898	111.862
436.273	129.188
439.648	145.019
443.023	139.384
446.398	109.879
449.772	95.8278
453.147	80.555
456.522	68.9504
459.897	69.6414
463.272	65.7284
466.647	56.9435
470.021	44.7703
473.396	21.0404
476.771	3.20154
480.146	5.2207
483.521	6.51355
486.895	2.23755
490.27	5.229
493.645	3.29736
497.02	2.18909
500.395	3.6991
503.769	0.962036
507.144	13.7935
510.519	21.998
513.894	30.1743
517.269	28.463
520.644	34.8318
524.018	32.4948
527.393	29.9755
530.768	20.4817
534.143	20.833
537.518	17.8955
540.892	19.856
544.267	13.9165
547.642	10.7404
551.017	6.74158
554.392	4.23132
557.766	2.03528
561.141	2.8031
564.516	1.88855
567.891	1.29578
571.266	2.24548
574.64	0.226563
578.015	3.69714
581.39	1.27551
584.765	5.62646
588.14	12.2649
591.515	20.6521
594.889	36.9036
598.264	59.1794
601.639	85.3856
605.014	120.37
608.389	123.669
611.764	103.376
615.138	86.6692
618.513	77.4423
621.888	76.8386
625.263	78.7468
628.638	77.5707
632.012	74.0012
635.387	79.3029
638.762	76.2576
642.137	71.3359
645.512	59.3079
648.886	50.227
652.261	47.752
655.636	51.6844
659.011	61.1405
662.386	58.3641
665.76	56.2769
669.135	50.9812
672.51	36.8693
675.885	24.9285
679.26	16.3494
682.635	4.15332
686.009	4.2876
689.384	2.95264
692.759	0.046997
696.134	4.06104
699.509	2.59802
702.884	1.03711
706.258	1.1875
709.633	5.98218
713.008	8.51916
716.383	7.87293
719.758	7.7168
723.132	3.88086
726.507	3.3081
729.882	0.827637
733.257	2.61353
736.632	5.55261
740.006	5.22498
743.381	2.70569
746.756	1.02747
750.131	3.39783
753.506	3.28699
756.88	4.06226
760.255	1.33923
763.63	0.276733
767.005	0
770.38	1.86462
773.755	1.98584
777.129	1.90161
780.504	3.28845
783.879	0.011963
787.254	0.777344
790.629	3.80432
794.003	0.500122
797.378	7.54016
800.753	3.97424
804.128	2.65515
807.503	8.1167
810.878	7.14343
814.252	6.13245
817.627	6.43774
821.002	8.23486
824.377	9.06396
827.752	8.35803
831.126	10.7078
834.501	9.60083
837.876	10.2424
841.251	15.4888
844.626	13.3565
848	15.9175
851.375	12.5808
854.75	14.3168
858.125	14.5856
861.5	16.9804
864.875	13.7321
868.249	11.0265
871.624	16.1765
874.999	14.4734
878.374	10.9833
881.749	14.2112
885.123	14.3626
888.498	17.6022
891.873	14.0428
895.248	10.1066
898.623	5.86511
901.997	4.37878
905.372	6.48718
908.747	1.45642
912.122	0.305298
915.497	0.957275
918.872	2.43079
922.246	5.22436
925.621	0.343506
928.996	1.82605
932.371	0.851074
935.746	3.03198
939.12	6.34717
942.495	9.96606
945.87	20.4458
949.245	28.4331
952.62	39.7695
955.995	51.0271
959.369	64.6722
962.744	71.2061
966.119	89.5332
969.494	81.8771
972.869	69.8166
976.243	77.0245
979.618	101.272
982.993	130.034
986.368	169.742
989.743	212.88
993.117	248.755
996.492	255.507
999.867	227.787
1003.24	181.625
1006.62	146.683
1009.99	128.541
1013.37	118.273
1016.74	116.737
1020.12	124.555
1023.49	134.144
1026.87	153.95
1030.24	155.887
1033.62	144.59
1036.99	111.564
1040.37	70.7288
1043.74	45.4688
1047.12	28.8463
1050.49	20.0926
1053.86	11.6925
1057.24	4.01721
1060.61	0.846436
1063.99	3.24866
1067.36	1.88037
1070.74	3.66394
1074.11	1.15259
1077.49	6.10998
1080.86	11.467
1084.24	26.9995
1087.61	45.1018
1090.99	42.4772
1094.36	39.5071
1097.74	45.1265
1101.11	55.759
1104.49	70.1718
1107.86	65.4536
1111.24	44.9179
1114.61	22.8691
1117.99	9.81091
1121.36	4.6593
1124.73	1.54761
1128.11	2.63867
1131.48	8.52319
1134.86	4.73877
1138.23	13.4628
1141.61	22.6744
1144.98	33.3357
1148.36	44.6786
1151.73	51.6611
1155.11	67.2163
1158.48	81.2856
1161.86	81.1783
1165.23	54.2395
1168.61	33.1163
1171.98	20.9508
1175.36	14.054
1178.73	12.6536
1182.11	11.5643
1185.48	9.6665
1188.86	4.28918
1192.23	5.84631
1195.61	5.67212
1198.98	6.43152
1202.36	3.20923
1205.73	2.76502
1209.11	3.41394
1212.48	2.28943
1215.86	0.342896
1219.23	0.172974
1222.61	0.339478
1225.98	1.13184
1229.35	2.80859
1232.73	2.51135
1236.1	13.3035
1239.48	2.61182
1242.85	1.06116
1246.23	3.55133
1249.6	3.32861
1252.98	2.65509
1256.35	6.49329
1259.73	4.41571
1263.1	2.87347
1266.48	2.98206
1269.85	1.4577
1273.23	0.325562
1276.6	3.29358
1279.98	0.072876
1283.35	1.49622
