Measurement: Raman, 785 nm, unoriented, Raman Data Processed
Mineral: Berthierite
Rruff sample: R070177
Ideal chemistry: FeSb_2_S_4_
Locality: Baia Sprie mine (Felsöbánya mine), Baia Sprie (Felsöbánya), Maramures County, Romania
Source: Michael Scott
Description: A mass of parallel silver gray metallic prismatic striated crystals
Measured chemistry: darker phase: (Fe_0.97_Mn_0.03_)_Σ=1_(Sb_1.99_As_0.01_)_Σ=2_S_4.00_ ; lighter phase (bottom): Sb_2.00_S_3.00_ (stibnite)
Raman shift (cm-1)	intensity
157.468	0
160.361	16.0007
163.254	176.371
166.146	123.979
169.039	33.374
171.932	81.9814
174.824	43.5859
177.717	24.2952
180.61	36.8396
183.502	39.0195
186.395	44.2966
189.288	206.28
192.181	161.318
195.073	191.784
197.966	79.7124
200.859	16.5173
203.751	66.8765
206.644	61.1233
209.537	50.0559
212.429	68.887
215.322	142.779
218.215	242.202
221.108	387.169
224	540.365
226.893	586.015
229.786	718.663
232.678	780.255
235.571	818.782
238.464	805.701
241.357	896.469
244.249	893.868
247.142	916.417
250.035	1104.77
252.927	1234.55
255.82	1448.35
258.713	1712.43
261.605	1847.77
264.498	1844.62
267.391	1800.89
270.284	1904.76
273.176	2100.23
276.069	2228.96
278.962	2211.79
281.854	2051.79
284.747	1833.19
287.64	1551.31
290.532	1430.43
293.425	1488.17
296.318	1698.09
299.211	1954.9
302.103	2064.86
304.996	2212.19
307.889	2202.76
310.781	1975.51
313.674	1325.9
316.567	660.04
319.459	271.784
322.352	109.28
325.245	126.948
328.137	208.622
331.03	370.141
333.923	570.018
336.816	780.104
339.708	962.553
342.601	1097.05
345.494	1127.36
348.386	990.037
351.279	730.512
354.172	397.177
357.065	211.192
359.957	72.7521
362.85	10.8171
365.743	44.2522
368.635	58.8449
371.528	76.0253
374.421	31.8461
377.313	23.2145
380.206	1.10339
383.099	10.8545
385.991	59.3201
388.884	78.0311
391.777	71.6877
394.67	90.7494
397.562	105.107
400.455	128.909
403.348	139.383
406.24	156.21
409.133	168.031
412.026	186.167
414.918	207.548
417.811	220.153
420.704	243.34
423.597	237.522
426.489	223.54
429.382	191.898
432.275	158.224
435.167	154.615
438.06	126.523
440.953	123.633
443.846	114.98
446.738	123.483
449.631	98.7642
452.524	101.419
455.416	96.5749
458.309	83.801
461.202	84.5012
464.094	86.5123
466.987	71.5222
469.88	66.0707
472.772	64.2334
475.665	52.0636
478.558	74.3958
481.451	67.5354
484.343	69.3099
487.236	44.288
490.129	50.187
493.021	51.1434
495.914	43.6511
498.807	43.9507
501.7	32.991
504.592	26.8044
507.485	40.535
510.378	25.3607
513.27	35.5607
516.163	31.692
519.056	26.9056
521.948	24.1953
524.841	0.660828
527.734	19.5277
530.626	9.93402
533.519	1.7399
536.412	14.6738
539.305	16.0863
542.197	6.52603
545.09	9.73392
547.983	5.96429
550.875	7.05469
553.768	3.65073
556.661	9.66275
559.553	1.15808
562.446	8.94879
565.339	6.36441
568.232	8.65512
571.124	15.9814
574.017	34.9978
576.91	24.7537
579.802	24.4343
582.695	29.2848
585.588	23.9798
588.481	16.3984
591.373	48.2526
594.266	13.095
597.159	47.7863
600.051	31.5131
602.944	31.6507
605.837	12.2736
608.729	32.4304
611.622	8.71265
614.515	18.4308
617.408	3.25378
620.3	13.1415
623.193	0.584595
626.086	5.0719
628.978	20.8491
631.871	4.24857
634.764	1.5885
637.656	7.41745
640.549	4.55124
643.442	22.85
646.335	12.385
649.227	11.9797
652.12	19.0418
655.013	8.2645
657.905	6.53931
660.798	10.5172
663.691	18.3468
666.583	28.2422
669.476	14.6912
672.369	23.3123
675.261	29.1679
678.154	28.2371
681.047	17.4436
683.94	16.4132
686.832	23.7415
689.725	29.0786
692.618	15.715
695.51	17.4679
698.403	24.8347
701.296	8.02844
704.188	21.6386
707.081	6.87
709.974	6.62534
712.867	8.90402
715.759	17.0197
718.652	20.595
721.545	28.9675
724.437	4.68567
727.33	19.7071
730.223	25.1084
733.115	29.415
736.008	11.1023
738.901	22.2896
741.794	14.0222
744.686	17.4807
747.579	30.587
750.472	19.7627
753.364	14.911
756.257	22.04
759.15	24.0855
762.043	18.3136
764.935	26.2895
767.828	17.2371
770.721	28.6587
773.613	29.7876
776.506	24.813
779.399	28.1535
782.291	15.6596
785.184	3.10616
788.077	13.0453
790.97	6.22433
793.862	25.3744
796.755	13.3687
799.648	9.82312
802.54	2.44473
805.433	13.5261
808.326	16.5279
811.218	36.505
814.111	21.7763
817.004	9.23877
819.896	19.4687
822.789	12.1905
825.682	6.98274
828.575	11.0597
831.467	7.88248
834.36	27.1664
837.253	11.9838
840.145	24.0747
843.038	5.62444
845.931	12.2182
848.823	5.62567
851.716	28.073
854.609	32.5041
857.502	25.6478
860.394	0.179474
863.287	13.8599
866.18	6.28633
869.072	6.638
871.965	11.243
874.858	16.1911
877.75	6.49207
880.643	18.9582
883.536	10.702
886.429	26.1329
889.321	4.74258
892.214	6.8522
895.107	0.084335
898	2.83177
900.892	20.002
903.785	19.0558
906.678	5.78644
909.57	7.83861
912.463	7.82117
915.356	16.5662
918.248	22.3411
921.141	6.35701
924.034	17.8176
926.927	23.3266
929.819	12.0548
932.712	13.2027
935.605	6.43904
938.497	3.51135
941.39	0.998123
944.283	20.0218
947.175	8.94046
950.068	31.0962
952.961	19.2574
955.854	16.2029
958.746	4.12167
961.639	20.7699
964.532	16.4056
967.424	13.7099
970.317	5.55551
973.21	19.1993
976.102	2.27399
978.995	15.2693
981.888	11.516
984.78	25.1605
987.673	14.975
990.566	0.766663
993.459	1.65064
996.351	19.5753
999.244	41.766
1002.14	17.3223
1005.03	15.4131
1007.92	26.4255
1010.82	4.60814
1013.71	21.1557
1016.6	1.64929
1019.49	3.34206
1022.39	10.6817
1025.28	27.1944
1028.17	25.5097
1031.06	22.21
1033.96	5.40153
1036.85	8.73918
1039.74	19.3233
1042.63	20.5084
1045.53	15.9778
1048.42	9.52608
1051.31	9.75987
1054.2	3.39474
1057.1	19.7777
1059.99	2.50156
1062.88	0.201935
1065.78	17.4698
1068.67	23.318
1071.56	17.0556
1074.45	7.56828
1077.35	17.3918
1080.24	22.4665
1083.13	31.2427
1086.03	33.4468
1088.92	16.6957
1091.81	16.0349
1094.7	15.3647
1097.6	12.251
1100.49	30.1956
1103.38	0.439926
1106.27	14.4375
1109.17	22.5686
1112.06	27.9715
1114.95	5.45583
1117.85	27.6558
1120.74	11.5392
1123.63	25.9432
1126.52	31.1157
1129.42	37.6751
1132.31	14.1646
1135.2	36.9693
1138.09	21.8479
1140.99	18.8422
1143.88	7.37709
1146.77	33.8332
1149.66	13.6849
1152.56	10.2434
1155.45	10.56
1158.34	21.815
1161.23	14.3285
1164.13	2.32867
1167.02	9.41339
1169.91	16.4926
1172.81	29.273
1175.7	18.5674
1178.59	18.4085
1181.48	29.7009
1184.38	31.6834
1187.27	24.7032
1190.16	23.7928
1193.06	23.3686
1195.95	21.0535
1198.84	28.3717
1201.73	5.80633
1204.63	29.3651
1207.52	16.1438
1210.41	29.2436
1213.3	35.1383
1216.2	7.37183
1219.09	7.57848
1221.98	32.2584
1224.88	0.030991
