Measurement: Raman, 780 nm, unoriented, Raman Data Processed
Mineral: Berthierine
Rruff sample: R110177
Ideal chemistry: (Fe^2+^,Fe^3+^,Al)_3_(Si,Al)_2_O_5_(OH)_4_
Locality: DeMix quarry, Mont St-Hilaire, Quebec
Source: Donald Doell
Description: Hexagonal prisms, with gray transparent terminations. We sample the terminations.
Raman shift (cm-1)	intensity
187.063	0
189.955	4.16882
192.848	2.06287
195.741	10.1924
198.633	17.7546
201.526	19.2369
204.419	24.5497
207.311	34.3337
210.204	42.7529
213.097	50.4467
215.99	59.5874
218.882	75.6149
221.775	86.5157
224.668	107.692
227.56	123.293
230.453	145.651
233.346	164.114
236.238	185.311
239.131	207.234
242.024	227.537
244.917	253.547
247.809	274.99
250.702	286.623
253.595	300.782
256.487	295.504
259.38	293.16
262.273	280.786
265.166	259.343
268.058	235.646
270.951	211.877
273.844	183.675
276.736	153.136
279.629	141.228
282.522	124.29
285.414	113.827
288.307	95.7401
291.2	95.6497
294.092	92.8453
296.985	77.4155
299.878	70.1577
302.771	50.7723
305.663	36.154
308.556	22.9892
311.449	15.6078
314.341	8.04016
317.234	0.616638
320.127	5.17523
323.019	6.00134
325.912	12.2996
328.805	2.7793
331.698	4.57825
334.59	4.45526
337.483	12.3689
340.376	22.1617
343.268	34.1227
346.161	47.8591
349.054	61.6661
351.947	78.0382
354.839	89.774
357.732	116.191
360.625	133.84
363.517	156.526
366.41	182.691
369.303	212.784
372.195	241.733
375.088	256.019
377.981	257.267
380.873	246.92
383.766	217.145
386.659	197.292
389.552	167.485
392.444	152.833
395.337	131.313
398.23	105.589
401.122	88.2674
404.015	76.9644
406.908	59.6812
409.8	38.5852
412.693	30.9345
415.586	24.1622
418.479	23.7755
421.371	25.2049
424.264	25.3909
427.157	34.6865
430.049	44.459
432.942	47.9642
435.835	56.3308
438.728	62.9237
441.62	66.5635
444.513	73.103
447.406	61.4529
450.298	55.6711
453.191	47.4841
456.084	37.5563
458.976	31.0382
461.869	19.3762
464.762	18.334
467.654	13.0012
470.547	7.79547
473.44	7.10187
476.333	0.230896
479.225	0.032227
482.118	0.938416
485.011	4.28204
487.903	3.64807
490.796	3.10065
493.689	3.64612
496.582	5.69385
499.474	0.815674
502.367	1.94977
505.26	10.7816
508.152	11.1576
511.045	11.6128
513.938	20.1359
516.83	18.9716
519.723	13.1277
522.616	22.8526
525.509	12.6645
528.401	18.6036
531.294	15.0732
534.187	9.56476
537.079	8.1076
539.972	6.04077
542.865	6.44037
545.757	3.04871
548.65	1.04016
551.543	0.880066
554.436	0.32019
557.328	2.02142
560.221	0.148438
563.114	1.16464
566.006	1.24661
568.899	0.499756
571.792	2.88184
574.684	4.64551
577.577	0.977417
580.47	2.92212
583.362	1.18823
586.255	5.08789
589.148	4.50662
592.041	5.92462
594.933	7.49618
597.826	8.12604
600.719	6.43954
603.611	10.4445
606.504	5.69116
609.397	10.6807
612.29	6.08408
615.182	15.7886
618.075	18.8777
620.968	19.524
623.86	31.1826
626.753	33.2902
629.646	45.9481
632.538	46.6364
635.431	62.3739
638.324	79.9369
641.217	89.8968
644.109	106.258
647.002	122.572
649.895	141.308
652.787	150.598
655.68	161
658.573	165.303
661.466	156.571
664.358	148.342
667.251	140.023
670.144	128.149
673.036	109.124
675.929	108.637
678.822	93.4661
681.714	83.5151
684.607	64.945
687.5	59.0321
690.393	47.4843
693.285	34.7266
696.178	26.2171
699.071	24.7
701.963	23.7701
704.856	12.1658
707.749	10.3384
710.641	7.23575
713.534	10.8796
716.427	6.24539
719.319	4.29642
722.212	4.47855
725.105	4.13223
727.998	2.48267
730.89	0.176086
733.783	5.0256
736.676	3.56183
739.568	3.05588
742.461	0.182434
745.354	5.68802
748.246	1.17206
751.139	5.3291
754.032	0.066223
756.925	1.8009
759.817	0.678894
762.71	4.96497
765.603	2.13562
768.495	6.8591
771.388	1.96231
774.281	7.79727
777.173	2.23566
780.066	5.07767
782.959	3.57947
785.852	4.77872
788.744	2.33673
791.637	2.52158
794.53	2.95996
797.422	4.77222
800.315	5.51874
803.208	6.25067
806.101	9.1943
808.993	9.71139
811.886	5.05905
814.779	12.7079
817.671	13.0222
820.564	12.3277
823.457	7.19684
826.349	6.50516
829.242	3.4913
832.135	2.75326
835.028	4.10953
837.92	4.76425
840.813	6.14197
843.706	3.79217
846.598	5.22513
849.491	6.47119
852.384	6.39658
855.276	7.24231
858.169	7.35846
861.062	7.54523
863.955	6.71341
866.847	6.60422
869.74	3.4151
872.633	3.74966
875.525	6.1365
878.418	6.32895
881.311	7.94113
884.203	1.59836
887.096	5.04511
889.989	8.8291
892.881	4.95532
895.774	8.01361
898.667	0.358337
901.56	0.21283
904.452	6.07779
907.345	8.27737
910.238	0.679779
913.13	4.81574
916.023	5.86011
918.916	6.44812
921.808	2.46921
924.701	4.65631
927.594	6.47958
930.487	5.52731
933.379	1.10516
936.272	1.58099
939.165	0.492126
942.057	2.52954
944.95	5.99548
947.843	0.8927
950.736	4.94742
953.628	6.62436
956.521	5.47821
959.414	2.78464
962.306	3.61441
965.199	3.05563
968.092	5.35941
970.984	0.647552
973.877	3.83572
976.77	5.26572
979.663	0.099274
982.555	5.72574
985.448	3.82401
988.341	3.57458
991.233	0.672028
994.126	1.00546
997.019	3.96372
999.911	2.88211
1002.8	4.58322
1005.7	4.27225
1008.59	4.42825
1011.48	6.1409
1014.38	7.31607
1017.27	8.54983
1020.16	4.07758
1023.05	4.57428
1025.95	4.22824
1028.84	4.91113
1031.73	4.96936
1034.62	6.19104
1037.52	5.64172
1040.41	4.56638
1043.3	4.91736
1046.19	4.9455
1049.09	5.95105
1051.98	3.99207
1054.87	5.99988
1057.77	7.14307
1060.66	7.62122
1063.55	5.56342
1066.44	7.19037
1069.34	3.6456
1072.23	4.85947
1075.12	8.19357
1078.01	6.16565
1080.91	4.47241
1083.8	6.79288
1086.69	4.80585
1089.59	4.08817
1092.48	0.672638
1095.37	4.9397
1098.26	3.97501
1101.16	3.97873
1104.05	3.6445
1106.94	0.021942
1109.83	2.07739
1112.73	5.92419
1115.62	3.33398
1118.51	3.84576
1121.4	1.24359
1124.3	1.52573
1127.19	1.4812
1130.08	7.9801
1132.98	0.188385
1135.87	4.8508
1138.76	2.36752
1141.65	4.99036
1144.55	4.74496
1147.44	4.65588
1150.33	5.39401
1153.22	7.73639
1156.12	6.00827
1159.01	1.23843
1161.9	11.9693
1164.8	7.41122
1167.69	9.94162
1170.58	6.99542
1173.47	9.70676
1176.37	11.0857
1179.26	12.317
1182.15	11.796
1185.04	5.70273
1187.94	6.57996
1190.83	8.41098
1193.72	10.9614
1196.62	12.9815
1199.51	7.88065
1202.4	8.70691
1205.29	9.1282
1208.19	8.18341
1211.08	7.9595
1213.97	4.12686
1216.86	10.5945
1219.76	7.50015
1222.65	7.92117
1225.54	6.04059
1228.43	9.8638
1231.33	10.8591
1234.22	7.53424
1237.11	5.03375
1240.01	4.77634
1242.9	7.60657
1245.79	1.41818
1248.68	6.84049
1251.58	0.079773
1254.47	0.528961
1257.36	4.50333
1260.25	4.71744
1263.15	0.854614
1266.04	1.79578
1268.93	4.63818
1271.83	4.15323
1274.72	0.465393
1277.61	0.043182
1280.5	2.1954
1283.4	3.27689
