Measurement: Raman, 780 nm, unoriented, Raman Data Processed
Mineral: Bertrandite
Rruff sample: R110025
Ideal chemistry: Be_4_Si_2_O_7_(OH)_2_
Locality: Foote mine, Kings Mountain, North Carolina, USA
Description: Colorless bladed crystals associated with lithiophilite R100096
Raman shift (cm-1)	intensity
141.71	0
144.602	0.231094
147.495	0.067245
150.388	0.547028
153.281	1.8237
156.173	0.255249
159.066	0.972702
161.959	1.80392
164.851	8.79208
167.744	9.30958
170.637	10.0813
173.53	14.6598
176.422	17.6564
179.315	21.5526
182.208	33.4912
185.1	34.4082
187.993	33.3
190.886	27.9785
193.778	33.0366
196.671	40.401
199.564	46.2153
202.457	63.6988
205.349	80.4775
208.242	27.756
211.135	16.9195
214.027	16.4284
216.92	15.024
219.813	18.5197
222.705	22.9825
225.598	30.9448
228.491	40.4884
231.383	26.3335
234.276	13.2328
237.169	11.5016
240.061	14.9189
242.954	11.1836
245.847	5.12039
248.74	1.99233
251.632	1.93152
254.525	1.12736
257.418	0.168701
260.31	0.770432
263.203	0.136566
266.096	0.0308
268.988	0.279205
271.881	0.124832
274.774	1.44166
277.667	0.501518
280.559	1.80319
283.452	3.18884
286.345	1.91053
289.237	2.92622
292.13	4.17026
295.023	2.88165
297.916	7.19179
300.808	5.0235
303.701	0.867485
306.594	2.11098
309.486	1.09507
312.379	1.57861
315.272	0.451515
318.164	0.144669
321.057	0.643761
323.95	1.98038
326.842	2.7651
329.735	2.53706
332.628	3.56005
335.521	1.86832
338.413	2.13083
341.306	3.64455
344.199	4.19991
347.091	6.48302
349.984	8.51657
352.877	9.07027
355.769	6.84515
358.662	8.80683
361.555	4.30975
364.447	2.09136
367.34	0.586517
370.233	0.358551
373.126	0.811737
376.018	0.40152
378.911	0.259926
381.804	1.95829
384.696	0.940399
387.589	0.547478
390.482	1.6418
393.375	0.852524
396.267	0.074875
399.16	1.37168
402.053	0.429901
404.945	0.851166
407.838	0.118484
410.731	1.27634
413.623	1.3332
416.516	2.54734
419.409	2.05811
422.301	1.19947
425.194	1.38976
428.087	1.60358
430.98	0.963341
433.872	0.526054
436.765	1.37462
439.658	0.166908
442.55	0.020233
445.443	0.418816
448.336	3.17241
451.228	1.19813
454.121	1.84445
457.014	0.035263
459.907	0.661118
462.799	0.468651
465.692	0.958916
468.585	0.015663
471.477	0.287605
474.37	0.15419
477.263	0.634529
480.156	1.67405
483.048	0.96257
485.941	2.15569
488.834	1.63081
491.726	2.98533
494.619	3.02551
497.512	3.29591
500.404	2.17747
503.297	2.37101
506.19	1.26266
509.082	1.69831
511.975	0.03511
514.868	2.0537
517.761	1.14776
520.653	2.28039
523.546	1.73912
526.439	2.56389
529.331	1.54715
532.224	2.91777
535.117	2.23915
538.01	3.89938
540.902	0.923706
543.795	1.45857
546.688	0.302971
549.58	0.389687
552.473	0.375069
555.366	0.789658
558.258	0.820999
561.151	2.01204
564.044	1.00221
566.936	2.05177
569.829	2.39954
572.722	3.53379
575.615	4.11445
578.507	4.27109
581.4	3.56675
584.293	3.41741
587.185	0.86554
590.078	1.17127
592.971	0.69075
595.863	2.01378
598.756	0.479141
601.649	2.38023
604.542	2.52416
607.434	1.82649
610.327	1.59464
613.22	1.09451
616.112	2.06746
619.005	1.84668
621.898	1.63831
624.79	1.64798
627.683	2.0725
630.576	1.5852
633.468	2.33237
636.361	1.89392
639.254	1.42656
642.146	1.08881
645.039	0.918434
647.932	0.776581
650.825	0.903732
653.717	0.425293
656.61	0.115089
659.503	0.835449
662.395	0.162758
665.288	0.11721
668.181	0.521118
671.073	1.44157
673.966	2.6685
676.859	3.39509
679.752	6.14328
682.644	5.54533
685.537	7.64864
688.43	9.74905
691.322	9.70512
694.215	7.43839
697.108	6.60974
700	9.24317
702.893	10.7371
705.786	12.659
708.679	12.7298
711.571	10.9666
714.464	7.11231
717.357	4.09433
720.249	2.36523
723.142	2.06649
726.035	2.75508
728.928	1.28208
731.82	1.74583
734.713	0.706665
737.606	1.41748
740.498	2.08134
743.391	1.32287
746.284	1.40929
749.176	2.5889
752.069	1.80154
754.962	2.28557
757.855	1.76548
760.747	2.2868
763.64	3.09143
766.533	5.19326
769.425	3.73646
772.318	4.36516
775.211	2.00332
778.103	0.108833
780.996	0.026253
783.889	0.091904
786.782	0.034302
789.674	0.69352
792.567	2.20699
795.46	0.238655
798.352	0.499352
801.245	0.906837
804.138	1.82811
807.03	1.98644
809.923	1.44841
812.816	2.48553
815.708	2.913
818.601	3.07653
821.494	4.1644
824.386	1.38979
827.279	1.28912
830.172	1.16001
833.065	1.66171
835.957	0.690338
838.85	0.595909
841.743	0.007484
844.635	1.1269
847.528	1.0604
850.421	1.12712
853.313	1.33785
856.206	0.470085
859.099	0.663261
861.992	1.01635
864.884	0.661186
867.777	1.52728
870.67	0.82402
873.562	0.717247
876.455	1.341
879.348	1.08953
882.24	1.50746
885.133	3.29153
888.026	0.621979
890.919	0.42453
893.811	0.471581
896.704	0.561928
899.597	0.867058
902.489	0.2817
905.382	1.0517
908.275	1.49486
911.168	1.1157
914.06	2.62974
916.953	5.49861
919.846	6.06296
922.738	8.12253
925.631	8.82145
928.524	6.33173
931.416	4.10053
934.309	3.70577
937.202	3.18255
940.095	2.31773
942.987	1.06499
945.88	1.35693
948.773	0.977089
951.665	1.40924
954.558	1.0815
957.451	0.684654
960.343	0.733665
963.236	0.136261
966.129	1.01369
969.021	1.49411
971.914	1.52309
974.807	2.71552
977.699	5.30034
980.592	7.69659
983.485	8.13715
986.378	9.36414
989.27	8.29745
992.163	4.0425
995.056	2.5974
997.948	2.02232
1000.84	1.71471
1003.73	1.57739
1006.63	0.687843
1009.52	0.855026
1012.41	0.59034
1015.3	1.74361
1018.2	1.03056
1021.09	0.84037
1023.98	1.79183
1026.88	0.56942
1029.77	1.28835
1032.66	0.200439
1035.55	1.11363
1038.45	1.06835
1041.34	0.61544
1044.23	1.83205
1047.12	1.20644
1050.02	1.18884
1052.91	0.236404
1055.8	2.02608
1058.69	1.32356
1061.59	1.77016
1064.48	1.61846
1067.37	0.880692
1070.27	1.54277
1073.16	1.2739
1076.05	0.873688
1078.94	0.028168
1081.84	2.04138
1084.73	0.283676
1087.62	2.21186
1090.52	0.848389
1093.41	2.51343
1096.3	1.77246
1099.19	2.05385
1102.09	1.78995
1104.98	1.25768
1107.87	3.14661
1110.76	1.20028
1113.66	1.70203
1116.55	1.54464
1119.44	1.47491
1122.33	1.25037
1125.23	1.66884
1128.12	1.79724
1131.01	1.59821
1133.9	2.46668
1136.8	0.848724
1139.69	0.790115
1142.58	0.943703
1145.48	0.346718
1148.37	0.259979
1151.26	0.307137
1154.15	1.34879
1157.05	0.296005
1159.94	1.67745
1162.83	0.880966
1165.72	1.4446
1168.62	1.6529
1171.51	0.654648
1174.4	1.06605
1177.3	0.877235
1180.19	0.922638
1183.08	1.02203
1185.97	0.030663
1188.87	0.707176
1191.76	1.14152
1194.65	1.96899
1197.55	0.425667
1200.44	0.934097
1203.33	0.34668
1206.22	0.706795
1209.12	0.916054
1212.01	0.179321
1214.9	0.370117
1217.79	0.549255
1220.69	0.166306
1223.58	0.856384
1226.47	1.79585
1229.36	0.178299
1232.26	0.530502
1235.15	0.739243
1238.04	0.215614
1240.93	1.06391
1243.83	1.24831
1246.72	0.215313
1249.61	0.014328
1252.51	0.390739
1255.4	0.62093
1258.29	1.09781
1261.18	1.46357
1264.08	2.14985
1266.97	1.03038
1269.86	0.27293
1272.76	1.25995
1275.65	1.25734
1278.54	0.299267
1281.43	0.870884
1284.33	0.002205
