Measurement: Raman, 532 nm, unoriented, Raman Data Processed
Mineral: Berthierite
Rruff sample: R070177
Ideal chemistry: FeSb_2_S_4_
Locality: Baia Sprie mine (Felsöbánya mine), Baia Sprie (Felsöbánya), Maramures County, Romania
Source: Michael Scott
Description: A mass of parallel silver gray metallic prismatic striated crystals
Measured chemistry: darker phase: (Fe_0.97_Mn_0.03_)_Σ=1_(Sb_1.99_As_0.01_)_Σ=2_S_4.00_ ; lighter phase (bottom): Sb_2.00_S_3.00_ (stibnite)
Raman shift (cm-1)	intensity
130.897	0
134.272	8.03822
137.647	46.238
141.021	34.8475
144.396	14.623
147.771	1.0769
151.146	24.2048
154.521	39.3724
157.895	5.1604
161.27	10.3796
164.645	7.16644
168.02	1.50217
171.395	12.5349
174.769	12.0115
178.144	25.5209
181.519	24.8453
184.894	40.4225
188.269	55.4716
191.644	30.846
195.018	13.8716
198.393	19.9539
201.768	20.3123
205.143	22.868
208.518	43.6338
211.893	83.3549
215.267	111.915
218.642	175.426
222.017	231.992
225.392	301.816
228.767	351.693
232.141	344.481
235.516	305.617
238.891	320.713
242.266	342.827
245.641	390.463
249.015	458.373
252.39	531.626
255.765	609.001
259.14	775.991
262.515	860.732
265.889	700.99
269.264	491.309
272.639	478.934
276.014	424.595
279.389	379.704
282.764	284.251
286.138	202.698
289.513	131.651
292.888	122.678
296.263	165.125
299.638	175.895
303.012	176.627
306.387	127.247
309.762	98.1166
313.137	47.3629
316.512	17.4498
319.887	5.43655
323.261	34.2223
326.636	3.76416
330.011	50.0559
333.386	120.556
336.761	190.323
340.135	279.277
343.51	314.054
346.885	330.888
350.26	247.804
353.635	143.773
357.01	67.8781
360.384	27.5257
363.759	11.0278
367.134	13.1825
370.509	6.90477
373.884	1.04008
377.258	2.6848
380.633	2.6263
384.008	14.7637
387.383	7.97076
390.758	17.8671
394.132	7.65004
397.507	26.1663
400.882	15.8211
404.257	31.3166
407.632	46.413
411.007	35.1514
414.381	38.2258
417.756	40.5663
421.131	55.215
424.506	39.6674
427.881	39.763
431.255	28.3663
434.63	34.172
438.005	51.7731
441.38	20.0907
444.755	39.2572
448.13	36.0219
451.504	38.7939
454.879	27.5746
458.254	35.7642
461.629	17.6239
465.003	23.8583
468.378	14.2623
471.753	25.2467
475.128	8.86206
478.503	28.326
481.878	23.2612
485.252	19.5323
488.627	17.9862
492.002	15.5073
495.377	8.24506
498.752	21.6192
502.127	14.8735
505.501	19.3852
508.876	5.79579
512.251	2.76186
515.626	8.04654
519	20.2457
522.375	13.9706
525.75	17.3619
529.125	29.6968
532.5	23.7267
535.875	25.6042
539.249	10.356
542.624	20.2887
545.999	10.7776
549.374	12.0146
552.749	5.55142
556.124	5.65514
559.498	17.7995
562.873	0.332115
566.248	16.3724
569.623	1.51148
572.998	24.2548
576.372	25.7739
579.747	15.9151
583.122	13.088
586.497	20.4428
589.872	21.5822
593.246	9.08707
596.621	1.44501
599.996	13.0989
603.371	30.3712
606.746	18.7517
610.12	8.20123
613.495	20.7945
616.87	16.3365
620.245	16.2888
623.62	14.6945
626.995	26.1391
630.369	9.21583
633.744	14.288
637.119	13.0753
640.494	13.627
643.869	17.2934
647.244	29.3631
650.618	18.2005
653.993	25.5712
657.368	3.92028
660.743	8.23077
664.117	17.9039
667.492	15.6691
670.867	9.32116
674.242	24.3891
677.617	3.49369
680.992	8.22345
684.366	21.7553
687.741	4.28973
691.116	3.00372
694.491	11.9109
697.866	18.447
701.24	10.595
704.615	15.0018
707.99	0.120598
711.365	10.1138
714.74	21.8692
718.115	12.138
721.489	13.0377
724.864	13.2271
728.239	12.7959
731.614	11.2051
734.989	17.6585
738.363	11.7284
741.738	5.07691
745.113	12.3844
748.488	22.9914
751.863	5.59222
755.237	10.2583
758.612	15.2752
761.987	15.0063
765.362	20.096
768.737	10.001
772.112	15.597
775.486	9.02391
778.861	9.16782
782.236	11.2769
785.611	5.47122
788.986	14.319
792.361	18.3365
795.735	10.3245
799.11	12.6428
802.485	7.95079
805.86	6.02005
809.235	1.85371
812.609	0.241325
815.984	14.801
819.359	16.9372
822.734	20.7297
826.109	10.1415
829.483	23.8003
832.858	33.986
836.233	8.22777
839.608	12.9663
842.983	18.4622
846.357	6.98003
849.732	4.36864
853.107	16.1718
856.482	0.978104
859.857	13.6663
863.231	0.764709
866.606	6.38948
869.981	13.1944
873.356	22.3861
876.731	2.85439
880.106	8.46693
883.48	8.93066
886.855	24.8763
890.23	13.1088
893.605	20.31
896.98	16.8349
900.355	16.4844
903.729	5.88699
907.104	20.4573
910.479	20.3156
913.854	20.9002
917.229	11.004
920.603	0.21212
923.978	22.1664
927.353	10.4284
930.728	9.56327
934.103	9.91866
937.477	14.8913
940.852	7.46054
944.227	12.4681
947.602	30.574
950.977	20.0299
954.351	12.4553
957.726	7.66126
961.101	0.126884
964.476	9.6449
967.851	23.9553
971.226	14.5275
974.6	9.69868
977.975	14.936
981.35	16.9704
984.725	10.0718
988.1	12.2979
991.475	22.7753
994.849	4.05666
998.224	6.6631
1001.6	10.864
1004.97	1.03377
1008.35	17.9636
1011.72	7.25554
1015.1	18.0379
1018.47	13.5091
1021.85	8.99018
1025.22	12.358
1028.6	13.2236
1031.97	9.81474
1035.35	15.2166
1038.72	25.0066
1042.1	7.9216
1045.47	30.1063
1048.85	18.0905
1052.22	4.31075
1055.6	1.0958
1058.97	6.5103
1062.35	28.4415
1065.72	3.1182
1069.1	2.60664
1072.47	14.9818
1075.85	10.2337
1079.22	10.4261
1082.59	7.67938
1085.97	0.819946
1089.34	24.842
1092.72	1.71984
1096.09	16.2973
1099.47	18.4648
1102.84	8.57455
1106.22	27.1619
1109.59	25.126
1112.97	7.14107
1116.34	11.0026
1119.72	18.0828
1123.09	5.93321
1126.47	1.11418
1129.84	13.2304
1133.22	9.48636
1136.59	16.5327
1139.97	14.8023
1143.34	17.5287
1146.72	17.876
1150.09	15.8166
1153.47	27.4886
1156.84	1.63998
1160.21	9.12962
1163.59	12.1335
1166.96	15.7937
1170.34	31.2134
1173.71	11.5857
1177.09	20.214
1180.46	14.6512
1183.84	9.34638
1187.21	17.6851
1190.59	18.0287
1193.96	7.1695
1197.34	13.3112
1200.71	14.0782
1204.09	12.3423
1207.46	21.2284
1210.84	20.7768
1214.21	20.228
1217.59	9.11978
1220.96	9.84671
1224.34	18.8019
1227.71	19.468
1231.09	16.6354
1234.46	14.7515
1237.84	1.73708
1241.21	6.30649
1244.59	14.4731
1247.96	25.9457
1251.34	27.3463
1254.71	12.5089
1258.09	27.5057
1261.46	6.84875
1264.83	24.9568
1268.21	16.3006
1271.58	11.7674
1274.96	8.39137
1278.33	7.02874
1281.71	16.8013
1285.08	21.0424
1288.46	0.458965
1291.83	5.16317
1295.21	31.3141
1298.58	5.21654
1301.96	0
