Measurement: Raman, 532 nm, unoriented, Raman Data Processed
Mineral: Bertossaite
Rruff sample: R060666
Ideal chemistry: Li_2_CaAl_4_(PO_4_)_4_(OH)_4_
Locality: Buranga, Rwanda
Source: Michael Scott
Description: Pale pink massive
Measured chemistry: (Li_1.86_Na_0.14_)_Σ=2_(Ca_0.90_Mn_0.06_Mg_0.04_)_Σ=1_(Al_3.90_Fe^3+^_0.10_)_Σ=4_(P_1.00_O_4_)_4_((OH)_3.06_F_0.94_)_Σ=4_; H_2_O assumed by stoichiometry; Li estimated by difference; OH estimated by charge balance
Raman shift (cm-1)	intensity
125.867	0
128.759	622.607
131.652	1512.06
134.545	1157.04
137.437	628.018
140.33	739.422
143.223	1423.89
146.115	2326.7
149.008	2748.26
151.901	2462.83
154.794	2064.88
157.686	1885.91
160.579	2033.08
163.472	2397.81
166.364	2858.66
169.257	2910.98
172.15	2362.79
175.042	1792.79
177.935	1386.65
180.828	1216.21
183.721	1172.66
186.613	1138.31
189.506	1105.67
192.399	1083.35
195.291	1014.29
198.184	912.924
201.077	852.994
203.969	851.247
206.862	847.532
209.755	896.971
212.648	918.453
215.54	913.38
218.433	959.838
221.326	1018.56
224.218	1273.05
227.111	1610.13
230.004	2116.89
232.896	2954.42
235.789	4158.77
238.682	5380.94
241.574	5667.59
244.467	4467.02
247.36	3104.13
250.253	2441.39
253.145	2097.04
256.038	2157.58
258.931	2290.59
261.823	2329.91
264.716	2441.39
267.609	2423.03
270.501	2262.57
273.394	2238.99
276.287	2254.55
279.18	2631.37
282.072	3193.59
284.965	3851.96
287.858	4110.95
290.75	3822.62
293.643	3061.24
296.536	2213.43
299.428	1707.79
302.321	1380.48
305.214	1140.65
308.107	1084.81
310.999	1167.61
313.892	1314.84
316.785	1684.92
319.677	2392.43
322.57	3651.67
325.463	5643.29
328.355	8058.71
331.248	9062.33
334.141	7783.84
337.034	5651.29
339.926	3853.46
342.819	2767.57
345.712	1757.47
348.604	1207.87
351.497	875.38
354.39	727.732
357.283	644.231
360.175	763.699
363.068	773.93
365.961	842.552
368.853	784.66
371.746	636.019
374.639	484.519
377.531	281.181
380.424	79.687
383.317	21.311
386.21	84.577
389.102	73.287
391.995	80.733
394.888	49.048
397.78	64.433
400.673	184.045
403.566	305.064
406.458	431.747
409.351	477.707
412.244	492.168
415.137	608.205
418.029	800.852
420.922	1082.09
423.815	1382.58
426.707	1868.11
429.6	2456.67
432.493	3164.58
435.385	3843.61
438.278	4176.43
441.171	4138.69
444.064	3575.15
446.956	2997.36
449.849	2614.21
452.742	2378.36
455.634	2420.02
458.527	2400.08
461.42	2440.06
464.312	2081.26
467.205	1565.56
470.098	1046.04
472.991	641.643
475.883	409.045
478.776	232.888
481.669	136.847
484.561	138.334
487.454	152.993
490.347	180.911
493.239	252.611
496.132	282.154
499.025	313.823
501.918	375.395
504.81	516.49
507.703	662.907
510.596	872.004
513.488	947.571
516.381	1021.12
519.274	1029.32
522.166	932.301
525.059	789.4
527.952	652.608
530.844	560.373
533.737	467.185
536.63	443.143
539.523	451.951
542.415	416.942
545.308	333.191
548.201	339.088
551.093	374.216
553.986	415.841
556.879	506.75
559.771	536.757
562.664	503.862
565.557	425.357
568.45	316.694
571.342	243.789
574.235	216.979
577.128	225.837
580.02	216.863
582.913	242.762
585.806	333.175
588.699	465.309
591.591	651.282
594.484	954.952
597.377	1268.26
600.269	1887.38
603.162	2363.35
606.055	2473.39
608.948	2239.3
611.84	2188.84
614.733	2232.71
617.626	2411.75
620.518	2619.24
623.411	2764.18
626.304	2859.14
629.196	2810.19
632.089	2737.43
634.982	2661.6
637.875	2495.82
640.767	2221.14
643.66	1796.17
646.553	1514.37
649.445	1436.59
652.338	1517.46
655.231	1700.35
658.123	2002.9
661.016	2193.72
663.909	2156.66
666.802	1936.2
669.694	1558.79
672.587	1195.12
675.48	784.879
678.372	509.288
681.265	348.955
684.158	208.802
687.05	99.722
689.943	63.691
692.836	4.067
695.729	11.089
698.621	40.22
701.514	71.471
704.407	84.04
707.299	83.683
710.192	82.142
713.085	78.968
715.977	75.258
718.87	55.146
721.763	29.937
724.656	67.531
727.548	81.975
730.441	65.561
733.334	57.345
736.226	33.065
739.119	26.957
742.012	9.84
744.904	4.754
747.797	7.081
750.69	24.907
753.583	17.032
756.475	58.377
759.368	36.005
762.261	49.258
765.153	51.868
768.046	8.24
770.939	0.15
773.831	18.562
776.724	46.787
779.617	17.652
782.51	105.378
785.402	104.012
788.295	55.572
791.188	44.039
794.08	98.498
796.973	91.444
799.866	95.272
802.758	74.95
805.651	103.383
808.544	103.948
811.437	80.646
814.329	54.17
817.222	56.813
820.115	58.808
823.007	55.997
825.9	84.674
828.793	65.378
831.685	18.015
834.578	37.486
837.471	5.781
840.364	15.585
843.256	24.312
846.149	20.561
849.042	18.213
851.934	26.532
854.827	17.835
857.72	21.333
860.612	9.203
863.505	12.725
866.398	36.938
869.291	16.289
872.183	62.845
875.076	68.463
877.969	150.95
880.861	207.932
883.754	269.077
886.647	300.126
889.539	265.197
892.432	238.843
895.325	193.372
898.218	154.641
901.11	114.606
904.003	47.003
906.896	1.244
909.788	12.283
912.681	41.25
915.574	40.114
918.466	35.511
921.359	2.203
924.252	28.347
927.145	90.106
930.037	198.953
932.93	317.046
935.823	455.276
938.715	632.611
941.608	853.336
944.501	1210.57
947.393	1654.25
950.286	2045.8
953.179	2551.03
956.072	2829.03
958.964	3009.81
961.857	3082.58
964.75	2944.88
967.642	2852.89
970.535	2897.05
973.428	3052.52
976.32	3473.78
979.213	4001.85
982.106	4930.85
984.999	6098.89
987.891	7431.74
990.784	8584.67
993.677	8837.83
996.569	8064.81
999.462	6943.47
1002.36	5928.12
1005.25	5192.87
1008.14	4886.55
1011.03	4797.59
1013.93	4834.04
1016.82	4998.7
1019.71	5567.09
1022.6	6317.69
1025.5	7304.41
1028.39	7680.42
1031.28	7097.52
1034.17	5646.72
1037.07	4087.95
1039.96	2938.83
1042.85	2248.39
1045.74	1815.01
1048.64	1547.98
1051.53	1316.94
1054.42	1078
1057.32	972.126
1060.21	884.009
1063.1	774.02
1065.99	691.448
1068.89	669.491
1071.78	638.573
1074.67	688.353
1077.57	873.126
1080.46	1244.34
1083.35	1639.51
1086.24	2004.22
1089.14	2197.42
1092.03	2174.96
1094.92	2589.84
1097.81	3149.79
1100.71	3915.5
1103.6	4092.34
1106.49	3485.87
1109.38	2540.61
1112.28	1687.73
1115.17	1100.61
1118.06	734.764
1120.96	613.736
1123.85	563.445
1126.74	495.465
1129.63	568.705
1132.53	618.835
1135.42	873.514
1138.31	1244.95
1141.2	1670.43
1144.1	2057.71
1146.99	2272.63
1149.88	2517.62
1152.78	2981.78
1155.67	3748.72
1158.56	4118.21
1161.45	3140.19
1164.35	1907.38
1167.24	1164.1
1170.13	751.932
1173.02	541.342
1175.92	469.093
1178.81	408.188
1181.7	343.006
1184.6	251.057
1187.49	207.114
1190.38	177.711
1193.27	100.126
1196.17	86.256
1199.06	61.701
1201.95	64.18
