Measurement: Raman, 785 nm, unoriented, Raman Data Processed
Mineral: Bertrandite
Rruff sample: R060800
Ideal chemistry: Be_4_Si_2_O_7_(OH)_2_
Locality: Golconda mine, Governador Valadares, Minas Gerais, Brazil
Source: Bob Jenkins
Description: Colorless pseudohexagonal prisms
Measured chemistry: Be_4.00_Si_2.00_O_7_(OH)_2_
Raman shift (cm-1)	intensity
172.15	0
175.043	107.347
177.935	440.892
180.828	1338.38
183.721	3343.69
186.613	1789.24
189.506	33.3223
192.399	44.3096
195.292	613.223
198.184	2291.7
201.077	5100.43
203.97	9577.59
206.862	16599.7
209.755	11839.3
212.648	1406.61
215.541	337.955
218.433	390.207
221.326	1034.96
224.219	2165.74
227.111	4111.03
230.004	7524.42
232.897	2992.68
235.789	1718.1
238.682	3019.04
241.575	4992.48
244.468	2221.42
247.36	476.744
250.253	158.791
253.146	68.2158
256.038	20.7041
258.931	152.156
261.824	99.0635
264.716	115.806
267.609	62.1728
270.502	45.2012
273.394	86.9688
276.287	42.0928
279.18	3.89258
282.072	135.651
284.965	96
287.858	91.5225
290.751	160.508
293.643	329.603
296.536	725.221
299.429	1442.31
302.321	2278.92
305.214	637.39
308.107	362.497
311	224.605
313.892	119.671
316.785	98.7246
319.678	51.1338
322.57	70.6123
325.463	370.775
328.356	644.564
331.248	908.388
334.141	328.056
337.034	40.4619
339.926	38.7744
342.819	40.3897
345.712	90.3252
348.605	240.506
351.497	482.093
354.39	1109.6
357.283	1984.99
360.175	3361.76
363.068	2048.75
365.961	1596.25
368.853	264.152
371.746	119.08
374.639	197.011
377.532	66.165
380.424	176.493
383.317	209.463
386.21	390.799
389.102	411.002
391.995	338.14
394.888	235.149
397.781	243.255
400.673	146.001
403.566	5.04688
406.459	14.1641
409.351	11.4385
412.244	12.8184
415.137	204.962
418.029	210.538
420.922	172.453
423.815	208.698
426.708	158.788
429.6	240.342
432.493	126.221
435.386	6.87109
438.278	42.2734
441.171	130.372
444.064	309.832
446.957	450.354
449.849	567.63
452.742	274.474
455.635	121.538
458.527	17.8389
461.42	41.8418
464.313	27.1611
467.205	74.0557
470.098	54.3984
472.991	13.6748
475.883	53.79
478.776	50.0098
481.669	60.8174
484.562	156.141
487.454	257.502
490.347	616.334
493.24	497.033
496.132	588.685
499.025	887.789
501.918	621.564
504.81	198.716
507.703	114.522
510.596	76.0019
513.489	119.884
516.381	28.3799
519.274	43.1494
522.167	29.749
525.059	84.2959
527.952	52.5703
530.845	119.083
533.737	217.541
536.63	462.964
539.523	921.892
542.415	896.269
545.308	245.585
548.201	94.1582
551.094	60.7852
553.986	67.0078
556.879	25.7539
559.772	76.334
562.664	98.5273
565.557	77.1934
568.45	68.9102
571.342	224.221
574.235	461.84
577.128	836.505
580.021	1217.88
582.913	618.03
585.806	157.224
588.699	59.3525
591.591	22.7979
594.484	48.1406
597.377	59.5928
600.269	110.762
603.162	17.7783
606.055	42.9795
608.948	75.1475
611.84	30.458
614.733	93.5557
617.626	64.6064
620.518	143.932
623.411	189.883
626.304	154.497
629.197	104.673
632.089	93.6973
634.982	25.5547
637.875	33.2881
640.767	36.6182
643.66	32.4023
646.553	12.9424
649.445	21.8828
652.338	42.4512
655.231	98.6953
658.124	5.18652
661.016	1.75098
663.909	10.6982
666.802	54.707
669.694	44.4395
672.587	198.335
675.48	299.045
678.372	527.902
681.265	570.669
684.158	554.291
687.051	804.83
689.943	1418.83
692.836	2095.81
695.729	2626.62
698.621	2218.36
701.514	1788.59
704.407	1622.14
707.299	1126.1
710.192	799.643
713.085	631.631
715.977	527.953
718.87	589.991
721.763	800.877
724.656	1084.93
727.548	942.298
730.441	533.952
733.334	277.199
736.226	146.7
739.119	106.054
742.012	145.463
744.904	133.243
747.797	375.31
750.69	737.844
753.583	847.756
756.475	844.745
759.368	849.812
762.261	1234.42
765.153	990.837
768.046	696.545
770.939	547.705
773.832	461.356
776.724	164.353
779.617	96.958
782.51	27.043
785.402	34.8691
788.295	38.0137
791.188	6.32422
794.08	31.7197
796.973	0.515625
799.866	46.6465
802.759	78.6318
805.651	52.0693
808.544	86.501
811.437	86.8975
814.329	61.9785
817.222	74.1201
820.115	53.5742
823.007	131.564
825.9	66.2734
828.793	108.48
831.686	54.9502
834.578	71.0039
837.471	91.3281
840.364	98.4766
843.256	111.315
846.149	235.394
849.042	305.886
851.934	176.42
854.827	81.0469
857.72	71.7022
860.612	38.584
863.505	20.0352
866.398	18.3965
869.291	10.7969
872.183	16.3672
875.076	34.5557
877.969	14.8389
880.861	15.9424
883.754	80.8076
886.647	63.0254
889.539	50.3105
892.432	0.658203
895.325	15.2852
898.218	79.208
901.11	86.1309
904.003	1.41699
906.896	92.8389
909.788	65.3106
912.681	58.5088
915.574	2.20703
918.466	91.2275
921.359	57.4629
924.252	67.625
927.145	100.05
930.037	51.9395
932.93	79.126
935.823	108.84
938.715	87.7305
941.608	146.613
944.501	331.307
947.394	449.574
950.286	579.323
953.179	337.568
956.072	259.473
958.964	77.8008
961.857	112.151
964.75	50.2344
967.642	131.052
970.535	168.17
973.428	215.144
976.321	272.897
979.213	507.6
982.106	888.847
984.999	1381.67
987.891	1469
990.784	936.751
993.677	458.425
996.569	318.716
999.462	243.442
1002.36	175.087
1005.25	128.398
1008.14	106.757
1011.03	6.5
1013.93	50.2451
1016.82	80.2969
1019.71	4.76953
1022.6	20.9854
1025.5	41.6084
1028.39	32.3135
1031.28	59.7754
1034.17	5.08398
1037.07	19.2402
1039.96	53.331
1042.85	29.1035
1045.74	12.8633
1048.64	80.9038
1051.53	25.9385
1054.42	51.564
1057.32	95.522
1060.21	128.7
1063.1	214.323
1065.99	375.866
1068.89	461.272
1071.78	542.257
1074.67	455.167
1077.57	306.325
1080.46	362.178
1083.35	330.667
1086.24	273.692
1089.14	309.565
1092.03	277.997
1094.92	286.46
1097.81	227.606
1100.71	166.231
1103.6	122.082
1106.49	141.945
1109.38	88.7822
1112.28	76.3057
1115.17	117.887
1118.06	71.5308
1120.95	66.1694
1123.85	50.6348
1126.74	100.914
1129.63	62.2568
1132.53	71.3257
1135.42	4.94531
1138.31	28.9419
1141.2	49.5796
1144.1	3.72217
1146.99	23.4155
1149.88	23.7661
1152.78	42.2925
1155.67	21.5874
1158.56	21.3105
1161.45	59.3179
1164.35	13.4756
1167.24	4.36768
1170.13	81.8901
1173.02	72.772
1175.92	43.7144
1178.81	89.4082
1181.7	110.97
1184.6	56.8481
1187.49	37.7778
1190.38	24.5703
1193.27	50.7451
1196.17	33.645
1199.06	104.432
1201.95	60.9712
1204.84	19.6811
1207.74	40.5195
1210.63	79.1231
1213.52	73.6953
1216.41	129.057
1219.31	167.265
1222.2	101.462
1225.09	123.82
1227.98	99.0229
1230.88	92.165
1233.77	80.7168
1236.66	103.054
1239.56	8.60938
1242.45	90.3198
1245.34	77.7695
1248.23	64.0752
1251.13	79.5498
1254.02	22.4321
1256.91	44.5142
1259.81	60.9038
1262.7	22.3379
1265.59	41.1343
1268.48	8.16016
1271.38	55.2119
