Measurement: Raman, 532 nm, unoriented, Raman Data Processed
Mineral: Bertrandite
Rruff sample: R060800
Ideal chemistry: Be_4_Si_2_O_7_(OH)_2_
Locality: Golconda mine, Governador Valadares, Minas Gerais, Brazil
Source: Bob Jenkins
Description: Colorless pseudohexagonal prisms
Measured chemistry: Be_4.00_Si_2.00_O_7_(OH)_2_
Raman shift (cm-1)	intensity
163.467	0
166.36	450.812
169.252	226.383
172.145	66.8359
175.038	1248.62
177.931	4212.04
180.823	7058.09
183.716	14400.6
186.609	11508.1
189.501	3626.06
192.394	3147.59
195.287	4614.74
198.179	10535.5
201.072	18509.7
203.965	28193.8
206.858	51437.6
209.75	47924.8
212.643	7325.69
215.536	3056.91
218.428	2649.81
221.321	3443.29
224.214	3965.4
227.107	5530.81
229.999	9919.52
232.892	5125.73
235.785	3104.52
238.677	3403.5
241.57	5047.77
244.463	3327.16
247.355	2067.95
250.248	1557.63
253.141	868.086
256.033	383.633
258.926	94.0391
261.819	1064.63
264.712	1197.88
267.604	823.055
270.497	723.516
273.39	489.445
276.282	581.844
279.175	550.586
282.068	760.391
284.96	899.047
287.853	390.328
290.746	695.266
293.639	337.766
296.531	196.562
299.424	621.688
302.317	2172.86
305.209	1207.58
308.102	996.234
310.995	747.406
313.887	229.188
316.78	119.344
319.673	327.047
322.565	294.969
325.458	1064.3
328.351	1875.62
331.244	2762.72
334.136	1327.45
337.029	444.891
339.922	332.516
342.814	80.7344
345.707	384.328
348.6	419.703
351.493	991.984
354.385	1532.56
357.278	1561.2
360.171	2601.06
363.063	2130.91
365.956	1994.48
368.849	43.25
371.741	79.9531
374.634	424.062
377.527	508.438
380.419	399.891
383.312	512.891
386.205	1112.44
389.098	1924.25
391.99	1092.69
394.883	531.797
397.776	224.938
400.668	351.875
403.561	163.781
406.454	71
409.346	517.828
412.239	801.031
415.132	1235.56
418.024	1510.38
420.917	1512.23
423.81	1492.84
426.703	1777.78
429.595	1188.97
432.488	1419.16
435.381	998.953
438.273	770.172
441.166	1220.91
444.059	1320.61
446.952	1169.7
449.844	1125.58
452.737	928.156
455.63	626.125
458.522	498.062
461.415	2.85938
464.308	166.891
467.2	177.328
470.093	593.844
472.986	524.031
475.878	4.26562
478.771	31.7656
481.664	3.89062
484.557	1216.25
487.449	1507.59
490.342	1479.98
493.235	428.266
496.127	46.3281
499.02	464.578
501.913	78.9375
504.805	13.1875
507.698	184.125
510.591	278.781
513.484	90.5938
516.376	586.984
519.269	464.047
522.162	952.984
525.054	997.703
527.947	1011.72
530.84	793.531
533.732	610.703
536.625	315.641
539.518	588.938
542.41	1054.59
545.303	793.469
548.196	586.953
551.089	371.297
553.981	455.469
556.874	44.8281
559.767	231.547
562.659	252.016
565.552	638.75
568.445	1077.45
571.337	1393.03
574.23	2010.61
577.123	2932.23
580.016	3861.19
582.908	2601.83
585.801	1225.92
588.694	938.328
591.586	688.859
594.479	619.969
597.372	79.875
600.264	110.484
603.157	618.375
606.05	683.922
608.942	905.281
611.835	934.453
614.728	760.906
617.621	846.984
620.513	905.578
623.406	1425.91
626.299	1453.16
629.191	772.266
632.084	305.219
634.977	267.984
637.87	36.4844
640.762	260.062
643.655	221.234
646.548	200.766
649.44	716.922
652.333	1272.22
655.226	1076.73
658.118	665.5
661.011	528.797
663.904	397.875
666.797	629.469
669.689	816.141
672.582	914.094
675.475	707.641
678.367	712.719
681.26	1369.08
684.153	2453.12
687.045	3135.19
689.938	4600.98
692.831	6938.08
695.723	8250.89
698.616	5783.28
701.509	4001.42
704.402	2711.73
707.294	1850.5
710.187	1173.94
713.08	908.125
715.972	839.375
718.865	1366.95
721.758	2102.02
724.65	3126.47
727.543	2565.72
730.436	1518
733.328	686.078
736.221	415.266
739.114	238.828
742.007	359.125
744.899	1513.77
747.792	2482.55
750.685	2973.39
753.577	2913.94
756.47	2684.3
759.363	1368.19
762.255	475.531
765.148	380.516
768.041	270.891
770.934	920.531
773.826	667.734
776.719	85.25
779.612	18.0469
782.504	94.0938
785.397	156.688
788.29	0.921875
791.183	176.688
794.075	865.266
796.968	873.438
799.861	815.406
802.753	1417.69
805.646	2502.94
808.539	3061.03
811.431	2072.56
814.324	1352.67
817.217	698.875
820.109	599.016
823.002	335.734
825.895	412.891
828.788	1116.69
831.68	780.641
834.573	412.125
837.466	431.422
840.358	585.484
843.251	579.062
846.144	958.312
849.036	650.672
851.929	419.219
854.822	94.2812
857.715	259.688
860.607	716.328
863.5	923.562
866.393	875.516
869.285	265.875
872.178	354.047
875.071	202.938
877.963	822.969
880.856	745.094
883.749	819.469
886.641	1086.73
889.534	1334.92
892.427	1554.55
895.32	2410.83
898.212	1961.97
901.105	1123.41
903.998	926.609
906.89	691.75
909.783	500.531
912.676	334.047
915.568	307.344
918.461	272.812
921.354	590.266
924.246	1510.14
927.139	1885.84
930.032	1553.78
932.925	1011.06
935.817	731.188
938.71	886.047
941.603	890.406
944.495	563.688
947.388	707.641
950.281	549.078
953.173	359.156
956.066	305.219
958.959	109.078
961.852	256.172
964.744	674.922
967.637	0.765625
970.53	574.484
973.422	911.75
976.315	1980.81
979.208	2938.22
982.101	5126.5
984.993	6908.52
987.886	7451.3
990.779	4733.25
993.671	2361.16
996.564	1144.78
999.457	2023.98
1002.35	1070.28
1005.24	689.906
1008.13	133.938
1011.03	19.4844
1013.92	133.656
1016.81	288.953
1019.71	147.906
1022.6	747.109
1025.49	1024.44
1028.38	779.391
1031.28	753.219
1034.17	294.484
1037.06	595.422
1039.95	1007.47
1042.85	766.516
1045.74	9.35938
1048.63	143.062
1051.53	456.688
1054.42	1045.62
1057.31	1387.05
1060.2	1234.8
1063.1	697.984
1065.99	624.047
1068.88	678.016
1071.77	1561.67
1074.67	1438.36
1077.56	916.875
1080.45	1211.12
1083.35	1660.95
1086.24	2743.94
1089.13	3076.36
1092.02	2870.62
1094.92	3213.88
1097.81	2607.95
1100.7	2213.34
1103.59	2000.48
1106.49	1530.81
1109.38	1059.52
1112.27	607.797
1115.16	294.266
1118.06	271.484
1120.95	27.9062
1123.84	126.844
1126.73	302.203
1129.63	1092.73
1132.52	1509.2
1135.41	1263.34
1138.31	962.922
1141.2	694.641
1144.09	402.141
1146.98	157.516
1149.88	142.75
1152.77	552.094
1155.66	886
1158.56	1171.03
1161.45	1183.72
1164.34	677.875
1167.23	568.281
1170.13	22.7812
1173.02	512.484
1175.91	1393.53
1178.8	1365.3
1181.7	1594.14
1184.59	1765.17
1187.48	1445
1190.38	932.688
1193.27	588.797
1196.16	783.109
1199.05	680.75
1201.94	407.609
1204.84	517.141
1207.73	973.391
1210.62	1290.16
1213.52	1688.42
1216.41	1297.38
1219.3	706.172
1222.19	783.688
1225.09	653.219
1227.98	974.156
1230.87	1542.27
1233.77	1390.14
1236.66	1617.62
1239.55	1825.67
1242.44	1499.47
1245.34	1925.84
1248.23	2371.02
1251.12	1609.8
1254.01	952.125
1256.91	1800.25
1259.8	1411.05
1262.69	701.031
1265.59	44.5625
1268.48	772.266
1271.37	1993.23
1274.26	2483.44
1277.16	2213.59
1280.05	908.703
1282.94	855.062
1285.83	705.531
1288.73	359.844
1291.62	3.82812
