Measurement: Raman, 532 nm, unoriented, Raman Data Processed
Mineral: Bertrandite
Rruff sample: R110025
Ideal chemistry: Be_4_Si_2_O_7_(OH)_2_
Locality: Foote mine, Kings Mountain, North Carolina, USA
Description: Colorless bladed crystals associated with lithiophilite R100096
Raman shift (cm-1)	intensity
169.138	0
172.031	2.6308
174.924	18.2965
177.816	44.3317
180.709	86.1437
183.602	153.1
186.494	131.52
189.387	86.9938
192.28	96.8768
195.173	101.61
198.065	116.375
200.958	154.051
203.851	250.387
206.743	350.799
209.636	129.487
212.529	73.5107
215.421	79.4564
218.314	87.2935
221.207	92.5228
224.1	114.894
226.992	174.663
229.885	261.438
232.778	159.412
235.67	58.2053
238.563	37.6478
241.456	35.2627
244.348	25.8044
247.241	16.9172
250.134	13.6775
253.026	13.8702
255.919	7.22925
258.812	1.03625
261.705	9.16345
264.597	8.52124
267.49	4.32153
270.383	5.60608
273.276	3.72937
276.168	2.79748
279.061	2.10376
281.954	0.226196
284.846	0.773071
287.739	0.194824
290.632	2.59753
293.524	3.03955
296.417	10.9514
299.31	20.8271
302.202	6.76733
305.095	0.692993
307.988	0.840576
310.881	1.10767
313.773	1.77991
316.666	0.480225
319.559	5.91223
322.451	1.31006
325.344	3.99451
328.237	4.31677
331.13	7.9574
334.022	1.91235
336.915	1.46545
339.808	2.37366
342.7	3.45447
345.593	7.59729
348.486	10.4929
351.378	20.2059
354.271	30.148
357.164	27.7123
360.057	27.9443
362.949	9.99719
365.842	11.9543
368.735	7.07104
371.627	8.89819
374.52	7.72107
377.413	10.954
380.305	10.0402
383.198	8.5011
386.091	9.45215
388.984	8.88196
391.876	10.7256
394.769	3.21387
397.662	9.33313
400.554	6.65796
403.447	8.73694
406.34	8.27429
409.233	1.91357
412.125	2.61597
415.018	5.87097
417.911	9.72607
420.803	11.6024
423.696	5.72375
426.589	5.29871
429.481	11.5271
432.374	10.48
435.267	7.41406
438.159	16.4316
441.052	15.2151
443.945	10.1482
446.838	9.87207
449.73	8.90991
452.623	2.65527
455.516	0.203247
458.409	0.731445
461.301	0.247925
464.194	5.97595
467.087	4.46545
469.979	5.31982
472.872	4.43579
475.765	2.98315
478.657	4.68323
481.55	1.79602
484.443	0.359009
487.336	4.48315
490.228	4.30969
493.121	4.7428
496.014	10.3351
498.906	8.58716
501.799	3.27441
504.692	1.84241
507.584	1.72607
510.477	3.23242
513.37	4.14331
516.263	7.02747
519.155	4.33106
522.048	5.65466
524.941	6.13245
527.833	8.79382
530.726	3.53699
533.619	9.52026
536.511	14.7726
539.404	15.2854
542.297	6.77722
545.19	4.30432
548.082	2.27832
550.975	8.88696
553.868	5.48657
556.76	4.03992
559.653	2.9646
562.546	4.33862
565.438	6.32837
568.331	5.42127
571.224	13.3597
574.117	14.1517
577.009	14.8838
579.902	6.80078
582.795	4.48694
585.687	0.617432
588.58	4.25
591.473	14.9633
594.365	2.0741
597.258	4.26611
600.151	6.16577
603.044	2.95947
605.936	1.99915
608.829	0.345581
611.722	4.34924
614.614	5.30652
617.507	2.23303
620.4	7.30994
623.293	0.361084
626.185	4.90637
629.078	2.18176
631.971	5.21899
634.863	4.26025
637.756	4.73901
640.649	13.3967
643.542	14.6918
646.434	4.96167
649.327	1.89514
652.22	4.16968
655.112	3.42664
658.005	6.01746
660.898	3.43127
663.79	3.78027
666.683	9.09521
669.576	1.27759
672.468	4.24927
675.361	12.0145
678.254	11.7687
681.147	16.0689
684.039	22.1345
686.932	31.9785
689.825	39.3165
692.717	38.7526
695.61	28.6737
698.503	24.0942
701.396	30.5204
704.288	43.4504
707.181	55.5164
710.074	66.1365
712.966	74.4828
715.859	48.1624
718.752	24.6561
721.644	14.4477
724.537	6.41016
727.43	6.36279
730.323	3.89221
733.215	3.03455
736.108	1.48498
739.001	5.05652
741.893	4.47375
744.786	1.1759
747.679	1.34338
750.572	2.1521
753.464	0.14563
756.357	3.86829
759.25	3.25745
762.142	4.85998
765.035	0.467773
767.928	6.54517
770.82	2.72937
773.713	8.68579
776.606	1.55493
779.499	0.989502
782.391	3.40478
785.284	4.06494
788.177	0.471924
791.069	0.180664
793.962	2.9397
796.855	9.59204
799.747	9.26367
802.64	14.1346
805.533	6.17798
808.426	12.0269
811.318	8.44739
814.211	14.5945
817.104	21.473
819.996	23.8585
822.889	24.4634
825.782	17.2255
828.674	9.90759
831.567	5.87744
834.46	1.60803
837.353	3.87305
840.245	4.19287
843.138	1.09058
846.031	6.18054
848.923	3.20019
851.816	0.096802
854.709	4.22241
857.601	4.44958
860.494	3.21435
863.387	0.260742
866.28	3.04968
869.172	7.82935
872.065	7.25574
874.958	8.81104
877.851	7.11218
880.743	6.40466
883.636	8.81897
886.529	2.58496
889.421	5.43005
892.314	5.87573
895.207	7.78625
898.099	3.31348
900.992	8.2887
903.885	6.98987
906.778	7.71338
909.67	6.13049
912.563	10.432
915.456	15.4876
918.348	20.9244
921.241	44.3788
924.134	76.8063
927.026	112.363
929.919	82.4771
932.812	38.1737
935.705	17.3796
938.597	13.7189
941.49	3.03162
944.383	1.95471
947.275	11.6715
950.168	0.310547
953.061	9.56909
955.953	4.0625
958.846	2.62561
961.739	1.22192
964.631	5.72864
967.524	15.0519
970.417	7.00537
973.31	12.8908
976.202	12.1858
979.095	23.9025
981.988	34.425
984.88	50.8667
987.773	66.526
990.666	56.7
993.559	36.0713
996.451	17.7849
999.344	14.6743
1002.24	3.98291
1005.13	5.41492
1008.02	0.699097
1010.91	2.41846
1013.81	0.492188
1016.7	6.45044
1019.59	2.21973
1022.49	1.34033
1025.38	0.876587
1028.27	3.72961
1031.16	1.99451
1034.06	5.39966
1036.95	7.66589
1039.84	0.427979
1042.73	2.06531
1045.63	3.47217
1048.52	3.32397
1051.41	1.09631
1054.31	11.1274
1057.2	4.59082
1060.09	3.02234
1062.98	10.5082
1065.88	5.35828
1068.77	3.46863
1071.66	12.866
1074.55	9.69434
1077.45	4.98438
1080.34	12.1058
1083.23	9.37891
1086.12	5.20679
1089.02	5.08948
1091.91	2.28662
1094.8	0.223755
1097.7	4.99121
1100.59	1.15137
1103.48	4.14954
1106.37	13.4452
1109.27	8.65356
1112.16	10.0095
1115.05	8.30994
1117.94	8.51392
1120.84	9.74194
1123.73	12.3644
1126.62	12.5005
1129.52	12.6323
1132.41	10.5044
1135.3	7.24011
1138.19	4.38098
1141.09	0.336426
1143.98	1.99915
1146.87	8.01623
1149.77	4.52087
1152.66	0.867676
1155.55	4.35339
1158.44	0.242554
1161.34	2.3335
1164.23	12.4906
1167.12	5.60327
1170.01	4.42505
1172.91	5.76758
1175.8	3.53845
1178.69	9.71912
1181.58	4.16577
1184.48	6.20361
1187.37	7.60254
1190.26	4.72327
1193.15	3.93164
1196.05	10.5327
1198.94	8.05542
1201.83	5.5011
1204.73	4.25989
1207.62	1.13867
1210.51	7.85522
1213.4	8.45923
1216.3	4.02918
1219.19	8.76526
1222.08	7.45606
1224.97	10.8431
1227.87	10.198
1230.76	6.40808
1233.65	5.56592
1236.55	3.31812
1239.44	3.01428
1242.33	7.22864
1245.22	2.48865
1248.12	9.896
1251.01	6.37463
1253.9	3.31982
1256.8	5.2677
1259.69	9.19153
1262.58	9.922
1265.47	6.94055
1268.37	10.93
1271.26	7.12012
1274.15	6.76099
1277.04	7.34802
1279.94	1.20373
1282.83	3.08423
1285.72	7.26074
1288.61	3.90051
1291.51	9.36157
1294.4	12.1782
1297.29	7.28235
1300.18	7.4364
