Measurement: Raman, 532 nm, unoriented, Raman Data Processed
Mineral: Beryl
Rruff sample: R050120
Ideal chemistry: Be_3_Al_2_Si_6_O_18_
Locality: Cruziero mine, San Jose, Minas Gerais, Brazil
Source: Carlos and Paulo Vasconcelos
Description: Yellow gemmy fragment
Measured chemistry: (Be_2.76_Li_0.24_)_Σ=3_Al_2.00_Si_6.00_O_18_·Na_0.24_
Raman shift (cm-1)	intensity
126.202	0
129.577	1.7068
132.952	4.42935
136.327	8.26748
139.702	18.698
143.076	17.3522
146.451	12.4305
149.826	6.55885
153.201	7.04552
156.576	7.28028
159.951	9.4473
163.325	10.7502
166.7	10.6869
170.075	12.7712
173.45	14.6005
176.825	13.0783
180.199	12.4516
183.574	11.1436
186.949	9.15791
190.324	4.28638
193.699	2.18323
197.073	1.38545
200.448	0.332901
203.823	0.053146
207.198	0.458858
210.573	1.24403
213.948	0.813663
217.322	1.11116
220.697	1.6759
224.072	3.28611
227.447	5.62511
230.822	8.54374
234.196	9.22658
237.571	11.4033
240.946	13.6041
244.321	15.6533
247.696	17.5181
251.071	19.0006
254.445	10.0572
257.82	3.21048
261.195	1.35786
264.57	0.850235
267.945	2.54535
271.32	2.89341
274.694	1.04962
278.069	1.69548
281.444	3.54749
284.819	5.48714
288.193	9.22773
291.568	13.3192
294.943	18.8572
298.318	17.8317
301.693	13.2689
305.068	9.30257
308.442	12.161
311.817	13.6644
315.192	17.4124
318.567	24.6281
321.942	36.4965
325.317	43.1615
328.691	30.2141
332.066	11.9026
335.441	3.94707
338.816	1.49867
342.191	1.11345
345.565	0.491005
348.94	0.056187
352.315	0.431591
355.69	0.300995
359.065	0.487984
362.44	0.605701
365.814	0.755268
369.189	1.90094
372.564	3.5842
375.939	7.61234
379.314	10.5012
382.688	16.559
386.063	29.8243
389.438	44.4539
392.813	65.3424
396.188	101.568
399.562	143.637
402.937	137.032
406.312	78.0771
409.687	42.4789
413.062	28.7263
416.437	24.9762
419.811	23.4003
423.186	24.9795
426.561	19.4034
429.936	12.9821
433.311	10.5886
436.685	11.248
440.06	14.0332
443.435	16.7289
446.81	15.7965
450.185	10.7293
453.56	8.7743
456.934	4.06632
460.309	2.90899
463.684	1.95209
467.059	0.258846
470.434	0.506248
473.808	1.38087
477.183	1.12137
480.558	0.900505
483.933	0.889435
487.308	1.56935
490.683	1.67454
494.057	2.07918
497.432	2.77335
500.807	3.04907
504.182	4.08388
507.557	4.41192
510.931	5.75313
514.306	6.81351
517.681	8.66772
521.056	11.5886
524.431	13.0156
527.806	15.4696
531.18	15.7628
534.555	16.0959
537.93	14.4262
541.305	12.5031
544.68	10.7804
548.054	7.55645
551.429	5.87883
554.804	5.75118
558.179	6.02032
561.554	6.14901
564.928	6.16478
568.303	7.32449
571.678	8.98844
575.053	10.8564
578.428	9.3706
581.803	7.8395
585.177	5.59277
588.552	4.10205
591.927	3.34734
595.302	2.18249
598.677	0.670525
602.052	0.723621
605.426	0.00679
608.801	0.361858
612.176	0.707077
615.551	0.015053
618.926	0.58411
622.3	0.477947
625.675	0.329418
629.05	0.392715
632.425	0.608898
635.8	0.510868
639.174	1.07176
642.549	1.20513
645.924	1.45286
649.299	2.14724
652.674	2.78621
656.048	4.32867
659.423	6.62702
662.798	10.2631
666.173	17.0264
669.548	29.198
672.923	53.7776
676.297	95.5116
679.672	160.378
683.047	274.072
686.422	406.419
689.797	346.206
693.172	174.243
696.546	88.2416
699.921	51.4422
703.296	33.5434
706.671	22.8389
710.046	15.6408
713.42	10.2179
716.795	8.17359
720.17	6.09513
723.545	5.15234
726.92	3.50647
730.294	2.37094
733.669	1.99436
737.044	1.73956
740.419	0.313618
743.794	1.52188
747.169	1.00132
750.543	1.93342
753.918	2.91025
757.293	2.90382
760.668	2.84256
764.043	1.87648
767.418	1.84548
770.792	1.19897
774.167	0.752876
777.542	1.14188
780.917	0.174747
784.292	0.274178
787.666	0.412724
791.041	0.22718
794.416	0.363842
797.791	0.336657
801.166	0.172398
804.54	0.03664
807.915	0.193546
811.29	0.149145
814.665	0.187037
818.04	0.103815
821.415	0.204714
824.789	0.084101
828.164	0.253284
831.539	0.045343
834.914	0.196381
838.289	0.41684
841.663	0.768518
845.038	1.0281
848.413	1.01702
851.788	1.17954
855.163	1.58596
858.538	1.34623
861.912	1.16125
865.287	1.49538
868.662	1.38637
872.037	1.83729
875.412	1.67453
878.786	1.86485
882.161	1.54195
885.536	1.25563
888.911	2.09822
892.286	2.68052
895.66	2.28938
899.035	4.07219
902.41	4.88991
905.785	5.14933
909.16	6.57478
912.535	6.98125
915.909	6.96735
919.284	6.85755
922.659	5.81658
926.034	5.96054
929.409	5.13103
932.784	4.29985
936.158	2.91314
939.533	2.59917
942.908	2.13925
946.283	1.61056
949.658	0.845428
953.032	0.315418
956.407	0.733185
959.782	0.122377
963.157	0.169111
966.532	0.4431
969.907	0.560635
973.281	0.478386
976.656	0.487209
980.031	0.383358
983.406	1.7063
986.781	3.7138
990.155	7.28476
993.53	12.0473
996.905	19.7747
1000.28	25.7976
1003.65	33.0903
1007.03	38.393
1010.4	38.7844
1013.78	34.8396
1017.15	27.2613
1020.53	19.5954
1023.9	12.0746
1027.28	7.49123
1030.65	3.25967
1034.03	1.29563
1037.4	1.51067
1040.78	1.17059
1044.15	4.12277
1047.53	8.01185
1050.9	14.9611
1054.28	25.3203
1057.65	39.4176
1061.03	55.5875
1064.4	71.1227
1067.78	79.2872
1071.15	77.5769
1074.53	67.8103
1077.9	54.9877
1081.28	41.12
1084.65	29.8697
1088.03	20.2093
1091.4	12.4534
1094.78	9.92191
1098.15	7.23543
1101.52	5.63196
1104.9	5.52546
1108.27	3.92106
1111.65	5.34865
1115.02	5.84339
1118.4	5.4692
1121.77	5.25091
1125.15	4.79536
1128.52	5.05638
1131.9	5.98663
1135.27	6.05844
1138.65	7.67805
1142.02	6.87456
1145.4	6.88861
1148.77	5.31673
1152.15	3.63607
1155.52	2.36889
1158.9	1.28116
1162.27	0.194359
1165.65	0.947002
1169.02	1.30568
1172.4	0.766186
1175.77	0.399899
1179.14	0.72974
1182.52	0.348171
1185.89	1.42122
1189.27	2.83393
1192.64	2.25569
1196.02	4.23901
1199.39	3.78055
1202.77	4.19676
1206.14	4.55592
1209.52	5.16739
1212.89	5.63786
1216.27	5.54378
1219.64	5.76948
1223.02	7.78869
1226.39	5.0849
1229.77	4.12699
1233.14	3.41697
1236.52	2.25171
1239.89	2.1189
1243.27	1.33591
1246.64	0.760735
1250.02	0.419485
1253.39	0.800621
1256.77	0.066113
1260.14	0.428967
1263.52	0.053932
1266.89	0.648933
1270.27	0.712664
1273.64	0.499929
1277.02	1.19765
1280.39	0.94109
1283.76	1.01484
1287.14	0.922308
1290.51	0.997721
1293.89	0.791889
1297.26	0.435589
1300.64	0.074026
