Measurement: Raman, 532 nm, unoriented, Raman Data Processed
Mineral: Beryl
Rruff sample: R050121
Ideal chemistry: Be_3_Al_2_Si_6_O_18_
Locality: Cruziero mine, San Jose, Minas Gerais, Brazil
Source: Carlos and Paulo Vasconcelos
Description: Light blue fragment, variety aquamarine
Measured chemistry: (Be_0.96_Li_0.04_)_3_Al_2.00_Si_6.00_O_18_Î‡Na_0.09_Mg_0.03_
Raman shift (cm-1)	intensity
132.47	0
135.845	14.339
139.22	44.2364
142.594	56.6965
145.969	54.651
149.344	25.6236
152.719	5.49654
156.094	1.77972
159.468	2.42188
162.843	3.19556
166.218	3.38898
169.593	8.30578
172.968	11.7593
176.343	17.7895
179.717	23.7683
183.092	28.0857
186.467	32.0029
189.842	31.6566
193.217	31.0766
196.591	23.8014
199.966	24.3142
203.341	25.8931
206.716	24.1277
210.091	23.4301
213.465	21.6055
216.84	20.8588
220.215	17.4934
223.59	15.8816
226.965	13.4221
230.339	14.3021
233.714	12.3577
237.089	13.3784
240.464	15.0938
243.839	16.0963
247.214	17.432
250.588	19.9673
253.963	21.6348
257.338	12.4571
260.713	0.688812
264.088	1.71533
267.462	0.166626
270.837	2.38818
274.212	3.89424
277.587	5.21339
280.962	8.70973
284.337	13.9312
287.711	21.7527
291.086	33.8772
294.461	37.544
297.836	43.1275
301.211	37.7648
304.586	41.2995
307.96	59.0365
311.335	78.2876
314.71	109.973
318.085	167.109
321.46	260.835
324.834	279.373
328.209	104.686
331.584	30.1526
334.959	10.9655
338.334	3.26969
341.709	1.05281
345.083	0.494427
348.458	1.07822
351.833	0.270714
355.208	0.187805
358.583	0.816517
361.957	1.59083
365.332	3.13413
368.707	7.33997
372.082	12.1878
375.457	21.738
378.832	36.8234
382.206	68.4367
385.581	96.0372
388.956	139.939
392.331	225.029
395.705	328.389
399.08	297.633
402.455	150.343
405.83	67.6118
409.205	36.9882
412.58	25.0994
415.954	23.3406
419.329	25.9143
422.704	30.7154
426.079	21.5566
429.454	12.1609
432.829	12.137
436.203	16.3025
439.578	26.6696
442.953	41.7832
446.328	55.3698
449.703	59.0714
453.077	35.8118
456.452	17.3474
459.827	8.6744
463.202	4.05869
466.577	1.09629
469.952	0.247879
473.326	0.40052
476.701	0.278053
480.076	0.862625
483.451	0.290672
486.826	0.676414
490.2	0.142822
493.575	0.617786
496.95	1.04639
500.325	3.18894
503.7	5.9233
507.075	8.50255
510.449	14.2279
513.824	22.4536
517.199	34.405
520.574	50.8511
523.949	73.388
527.323	87.1065
530.698	74.5583
534.073	51.3482
537.448	31.2144
540.823	18.1852
544.197	10.2454
547.572	4.97961
550.947	2.47682
554.322	1.08387
557.697	1.82895
561.072	3.00863
564.446	3.59042
567.821	3.63618
571.196	5.13631
574.571	7.34998
577.946	10.6471
581.321	10.3808
584.695	9.19466
588.07	4.45183
591.445	2.23581
594.82	0.786518
598.194	1.42936
601.569	0.228836
604.944	0.350197
608.319	1.2518
611.694	3.75372
615.069	8.09779
618.443	16.7563
621.818	29.904
625.193	29.8469
628.568	11.787
631.943	4.75145
635.317	2.16185
638.692	2.74958
642.067	2.3366
645.442	3.1228
648.817	5.03615
652.192	6.24341
655.566	9.40171
658.941	14.6496
662.316	22.8372
665.691	39.8696
669.066	76.8367
672.441	151.149
675.815	267.966
679.19	467.722
682.565	811.894
685.94	1109.76
689.315	681.251
692.689	292.156
696.064	145.58
699.439	84.2445
702.814	54.1293
706.189	36.3085
709.563	25.6759
712.938	15.9932
716.313	11.2234
719.688	6.83663
723.063	3.45761
726.438	0.809498
729.812	0.184975
733.187	0.967766
736.562	1.42795
739.937	0.219257
743.312	0.59547
746.687	0.973507
750.061	1.40299
753.436	3.56327
756.811	4.62158
760.186	8.68669
763.561	12.8024
766.935	17.1249
770.31	19.9878
773.685	16.7067
777.06	11.1659
780.435	8.60054
783.809	6.90343
787.184	3.50526
790.559	0.915657
793.934	2.30757
797.309	1.35882
800.683	1.16694
804.058	0.851677
807.433	0.740341
810.808	0.152828
814.183	0.16188
817.558	0.80014
820.932	0.395527
824.307	0.829792
827.682	0.864613
831.057	0.966545
834.432	1.86743
837.807	1.42351
841.181	1.42128
844.556	1.59911
847.931	2.41996
851.306	1.92513
854.681	4.21159
858.055	3.6012
861.43	4.72556
864.805	3.00007
868.18	3.29981
871.555	2.77325
874.929	3.58935
878.304	3.54453
881.679	3.36625
885.054	4.71683
888.429	4.52353
891.804	4.93032
895.178	4.77951
898.553	7.28582
901.928	8.62477
905.303	10.6251
908.678	13.9543
912.053	16.5088
915.427	20.14
918.802	18.8446
922.177	15.7363
925.552	11.0186
928.927	8.24422
932.301	6.83908
935.676	4.3954
939.051	4.13972
942.426	4.63905
945.801	1.79187
949.176	0.946514
952.55	0.457287
955.925	0.5644
959.3	0.115185
962.675	0.503479
966.05	0.998379
969.424	1.79624
972.799	2.104
976.174	1.95999
979.549	0.633293
982.924	0.174503
986.298	1.99556
989.673	5.49421
993.048	11.7833
996.423	24.6479
999.798	42.9404
1003.17	69.5194
1006.55	104.154
1009.92	146.922
1013.3	155.07
1016.67	113.821
1020.05	69.7793
1023.42	44.1988
1026.8	28.7609
1030.17	22.2345
1033.55	22.08
1036.92	23.801
1040.3	32.0776
1043.67	46.1257
1047.05	71.9638
1050.42	109.611
1053.8	178.205
1057.17	279.714
1060.54	441.481
1063.92	651.777
1067.29	811.706
1070.67	775.386
1074.04	579.376
1077.42	392.287
1080.79	265.31
1084.17	183.159
1087.54	122.451
1090.92	79.4808
1094.29	52.0336
1097.67	34.643
1101.04	20.9601
1104.42	13.0479
1107.79	7.87409
1111.17	4.35001
1114.54	1.25417
1117.92	1.16759
1121.29	0.852951
1124.67	0.315125
1128.04	1.38837
1131.42	3.24466
1134.79	6.79404
1138.16	9.10944
1141.54	10.2694
1144.91	9.77943
1148.29	8.28619
1151.66	3.93871
1155.04	1.60024
1158.41	1.70035
1161.79	2.06293
1165.16	1.66135
1168.54	1.60589
1171.91	0.146477
1175.29	1.3516
1178.66	3.3432
1182.04	3.95511
1185.41	5.00626
1188.79	5.11841
1192.16	6.37419
1195.54	6.47407
1198.91	5.9668
1202.29	6.87894
1205.66	6.33486
1209.04	8.13142
1212.41	7.99269
1215.79	7.91892
1219.16	6.86694
1222.54	8.13473
1225.91	7.63753
1229.29	8.77272
1232.66	10.0325
1236.04	14.6768
1239.41	18.5516
1242.79	17.7096
1246.16	12.1837
1249.53	6.67559
1252.91	4.92183
1256.28	2.77702
1259.66	1.64653
1263.03	1.03157
1266.41	0.770058
1269.78	0.524712
1273.16	0.802486
1276.53	1.44157
1279.91	0.694603
1283.28	1.20306
1286.66	0.824318
1290.03	0.738571
1293.41	0.563698
1296.78	0.642517
1300.16	0.607063
1303.53	0
