Measurement: Raman, 532 nm, unoriented, Raman Data Processed
Mineral: Beryl
Rruff sample: R050305
Ideal chemistry: Be_3_Al_2_Si_6_O_18_
Locality: Conselheiro Pena, Minas Gerais, Brazil
Source: Eugene Schlepp
Description: Light blue fragment, variety aquamarine
Measured chemistry: (Be_0.91_Li_0.09_)_3_(Al_0.99_Fe^3+^_0.01_)_2_Si_6.00_O_18_Î‡Na_0.27_
Raman shift (cm-1)	intensity
128.03	0
130.923	4.75584
133.816	11.0437
136.708	15.0931
139.601	15.3527
142.494	9.60006
145.386	6.39809
148.279	5.12861
151.172	4.9466
154.065	5.73811
156.957	6.06178
159.85	7.40531
162.743	4.17479
165.635	7.65888
168.528	8.97414
171.421	11.841
174.313	10.7535
177.206	9.52641
180.099	9.97929
182.992	8.04527
185.884	6.86796
188.777	4.71106
191.67	2.10487
194.562	1.10375
197.455	1.09486
200.348	1.407
203.24	0.91507
206.133	0.005135
209.026	0.441299
211.918	0.253433
214.811	0.460075
217.704	2.50387
220.596	3.93903
223.489	5.14809
226.382	6.94941
229.275	7.81529
232.167	11.7261
235.06	13.7629
237.953	15.6485
240.845	16.7523
243.738	18.4146
246.631	20.7745
249.524	21.4911
252.416	14.8734
255.309	7.91344
258.202	3.54512
261.094	1.6871
263.987	1.79691
266.88	1.76184
269.772	1.3036
272.665	1.91524
275.558	1.54659
278.451	3.13623
281.343	5.53622
284.236	5.70567
287.129	9.82129
290.021	12.2705
292.914	14.8264
295.807	17.5395
298.7	19.8167
301.592	22.5643
304.485	27.7941
307.378	35.2407
310.27	45.3166
313.163	56.2325
316.056	74.9568
318.948	98.0016
321.841	126.931
324.734	137.115
327.627	100.86
330.519	50.6938
333.412	23.0903
336.305	9.3674
339.197	4.04013
342.09	2.24689
344.983	0.839561
347.875	0.478615
350.768	0.029602
353.661	1.22682
356.553	0.409042
359.446	0.024551
362.339	0.084389
365.231	1.3942
368.124	2.64942
371.017	3.46054
373.91	7.8643
376.802	11.4171
379.695	19.3567
382.588	30.6651
385.48	48.4047
388.373	65.4053
391.266	91.1358
394.159	124.635
397.051	162.111
399.944	184.75
402.837	148.154
405.729	88.2596
408.622	48.9302
411.515	28.4675
414.407	20.3594
417.3	15.5866
420.193	12.8128
423.086	12.4705
425.978	9.83063
428.871	9.0943
431.764	8.91531
434.656	12.6669
437.549	14.8697
440.442	17.3597
443.334	20.7292
446.227	20.2088
449.12	15.008
452.012	10.7866
454.905	9.42257
457.798	7.19465
460.691	6.75709
463.583	2.7622
466.476	2.45429
469.369	0.061371
472.261	0.551308
475.154	0.095818
478.047	0.777908
480.94	0.504616
483.832	0.160553
486.725	1.48607
489.618	0.986191
492.51	1.67439
495.403	2.13741
498.296	2.91929
501.188	2.65485
504.081	4.58632
506.974	4.65589
509.866	6.56792
512.759	7.99159
515.652	11.7049
518.545	12.7674
521.437	15.8877
524.33	16.6162
527.223	17.0236
530.115	19.0845
533.008	17.9225
535.901	16.0007
538.794	13.3697
541.686	11.5447
544.579	7.29907
547.472	5.18089
550.364	3.55897
553.257	1.91863
556.15	1.94423
559.043	2.40427
561.935	1.88899
564.828	3.26702
567.721	3.83572
570.613	4.80832
573.506	4.97181
576.399	5.15845
579.291	3.51076
582.184	2.7302
585.077	2.53572
587.969	1.45842
590.862	0.844437
593.755	0.29406
596.648	0.687859
599.54	0.482513
602.433	0.05098
605.326	0.086884
608.218	0.80204
611.111	2.18572
614.004	5.2017
616.896	7.2201
619.789	5.43679
622.682	2.63589
625.574	1.05444
628.467	0.160683
631.36	0.419281
634.253	0.39325
637.145	1.59137
640.038	2.85073
642.931	3.49926
645.823	4.28122
648.716	6.00014
651.609	7.69962
654.501	10.1095
657.394	13.1916
660.287	19.7745
663.18	28.5685
666.072	45.4184
668.965	73.3667
671.858	121.409
674.75	192.66
677.643	284.487
680.536	418.711
683.428	571.24
686.321	643.112
689.214	496.586
692.107	282.104
694.999	156.747
697.892	94.1338
700.785	59.9601
703.677	42.0368
706.57	28.8235
709.463	20.5526
712.356	14.3683
715.248	11.0033
718.141	6.92731
721.034	4.34827
723.926	4.5509
726.819	2.32524
729.712	1.23248
732.604	1.04878
735.497	0.594711
738.39	0.549942
741.283	0.559345
744.175	0.621841
747.068	0.008759
749.961	0.296974
752.853	0.164986
755.746	0.514893
758.639	1.00182
761.531	0.830402
764.424	1.41763
767.317	0.937313
770.21	1.65889
773.102	0.49477
775.995	1.274
778.888	0.821625
781.78	0.899261
784.673	2.15523
787.566	0.765671
790.458	0.13097
793.351	1.20531
796.244	0.063877
799.136	0.257023
802.029	0.463818
804.922	0.001507
807.815	0.261681
810.707	0.200562
813.6	0.186672
816.493	0.474976
819.385	0.783382
822.278	0.317467
825.171	1.04422
828.063	0.437359
830.956	1.63409
833.849	1.12611
836.742	1.15696
839.634	1.57823
842.527	1.1442
845.42	1.34479
848.312	1.80653
851.205	1.91216
854.098	1.73759
856.99	1.77686
859.883	1.88112
862.776	1.29229
865.669	1.99943
868.561	1.5395
871.454	2.6191
874.347	2.54957
877.239	2.50113
880.132	3.22881
883.025	3.95978
885.918	2.95985
888.81	2.94195
891.703	4.14471
894.596	3.62458
897.488	5.4167
900.381	4.6486
903.274	6.23769
906.166	6.65995
909.059	8.8502
911.952	9.37729
914.845	10.8201
917.737	10.5997
920.63	12.274
923.523	11.1252
926.415	11.2179
929.308	9.98889
932.201	9.10513
935.093	8.72258
937.986	7.57393
940.879	7.14461
943.771	6.27441
946.664	5.16411
949.557	2.90023
952.45	3.87033
955.342	2.12491
958.235	1.97126
961.128	0.226944
964.02	0.402451
966.913	0.211891
969.806	0.181664
972.698	2.03218
975.591	1.19574
978.484	1.84878
981.377	2.92882
984.269	1.75665
987.162	0.461227
990.055	2.19244
992.947	5.69715
995.84	11.406
998.733	17.8781
1001.63	25.617
1004.52	32.3227
1007.41	36.8821
1010.3	37.9265
1013.2	32.8566
1016.09	28.4317
1018.98	20.3151
1021.87	13.4512
1024.77	9.08887
1027.66	6.92244
1030.55	4.38366
1033.44	7.04413
1036.34	9.88194
1039.23	17.7544
1042.12	26.9858
1045.02	43.3186
1047.91	67.6495
1050.8	99.9626
1053.69	143.943
1056.59	198.261
1059.48	259.44
1062.37	315.624
1065.27	356.493
1068.16	364.404
1071.05	338.71
1073.94	295.071
1076.84	241.064
1079.73	187.901
1082.62	144.773
1085.51	106.966
1088.41	79.5698
1091.3	60.751
1094.19	48.0351
1097.09	38.2376
1099.98	31.4261
1102.87	28.6423
1105.76	24.2126
1108.65	20.9115
1111.55	22.7243
1114.44	18.0756
1117.33	17.7823
1120.23	17.304
1123.12	18.2078
1126.01	17.1649
1128.9	19.5105
1131.8	21.2883
1134.69	22.1949
1137.58	23.4393
1140.47	24.5622
1143.37	24.6606
1146.26	21.6982
1149.15	19.5297
1152.05	14.5757
1154.94	10.783
1157.83	6.16287
1160.72	1.47768
1163.62	0.74247
1166.51	1.64504
1169.4	3.20065
1172.3	2.20063
1175.19	2.31937
1178.08	0.865776
1180.97	0.206375
1183.87	0.462044
1186.76	1.14762
1189.65	1.09763
1192.54	2.0729
1195.44	2.97921
1198.33	3.02655
1201.22	3.01735
1204.12	4.87557
1207.01	5.22644
1209.9	4.50745
1212.79	5.11056
1215.68	5.52239
1218.58	6.15822
1221.47	7.06111
1224.36	6.77264
1227.26	5.37743
1230.15	5.07744
1233.04	4.33228
1235.93	4.55138
1238.83	3.07869
1241.72	3.49018
1244.61	2.75734
1247.51	2.13185
1250.4	1.35761
1253.29	2.41022
1256.18	1.90812
1259.08	1.80413
1261.97	1.01874
1264.86	1.30808
1267.75	1.71648
1270.65	0.444313
1273.54	0.279751
