Measurement: Raman, 780 nm, unoriented, Raman Data Processed
Mineral: Beryl
Rruff sample: R050347
Ideal chemistry: Be_3_Al_2_Si_6_O_18_
Locality: North Keystone, South Dakota, USA
Source: California Institute of Technology
Description: Colorless fragment
Measured chemistry: (Be_0.96_Li_0.04_)_3_Al_2.00_(Si_0.99_Al_0.01_)_6_O_18_ Î‡0.17Na
Raman shift (cm-1)	intensity
127.718	0
130.611	3.31513
133.503	5.26049
136.396	11.2517
139.289	15.3244
142.181	13.6848
145.074	15.9975
147.967	12.0589
150.859	5.94545
153.752	1.34503
156.645	0.154732
159.538	0.539658
162.43	0.216995
165.323	0.090797
168.216	0.34388
171.108	2.03168
174.001	2.7411
176.894	4.46587
179.786	4.28897
182.679	4.87929
185.572	6.01176
188.465	5.73341
191.357	7.21727
194.25	4.16554
197.143	2.87873
200.035	4.15868
202.928	4.34519
205.821	3.01003
208.714	5.45803
211.606	5.32304
214.499	5.3184
217.392	4.27646
220.284	4.61042
223.177	4.5068
226.07	4.21484
228.962	5.57582
231.855	7.83034
234.748	7.56115
237.641	8.45693
240.533	9.66765
243.426	9.92785
246.319	10.7281
249.211	11.7255
252.104	11.5066
254.997	8.90757
257.889	1.78547
260.782	0.821457
263.675	0.842297
266.567	0.026974
269.46	0.760437
272.353	1.08984
275.246	3.66423
278.138	4.53795
281.031	5.84224
283.924	8.69245
286.816	12.014
289.709	15.627
292.602	18.0424
295.495	16.7298
298.387	17.1592
301.28	17.5685
304.173	19.0668
307.065	24.1672
309.958	27.2377
312.851	32.2077
315.743	41.5787
318.636	50.084
321.529	62.3086
324.421	64.4925
327.314	37.6941
330.207	13.7383
333.1	5.23185
335.992	2.03107
338.885	1.26523
341.778	0.311985
344.67	0.029716
347.563	0.52158
350.456	0.058254
353.349	0.20047
356.241	0.340122
359.134	0.070797
362.027	0.525013
364.919	3.10784
367.812	2.75693
370.705	4.82797
373.597	7.67259
376.49	12.6114
379.383	21.0035
382.276	29.7914
385.168	37.3792
388.061	48.7136
390.954	65.1513
393.846	85.6951
396.739	100.671
399.632	94.4633
402.524	62.2855
405.417	35.7326
408.31	21.4457
411.202	16.3314
414.095	13.8925
416.988	13.7151
419.881	15.275
422.773	17.2547
425.666	12.8133
428.559	10.6208
431.451	10.4023
434.344	10.4971
437.237	13.8718
440.13	16.6102
443.022	19.7273
445.915	21.8963
448.808	22.1077
451.7	13.8548
454.593	9.93818
457.486	5.3672
460.378	3.69815
463.271	0.776981
466.164	0.26799
469.057	0.064144
471.949	0.644073
474.842	0.537586
477.735	0.380745
480.627	0.737438
483.52	0.315285
486.413	0.70248
489.305	0.137886
492.198	0.582462
495.091	0.626474
497.983	1.53914
500.876	2.08232
503.769	3.65932
506.662	5.55197
509.554	7.5518
512.447	9.67107
515.34	14.425
518.232	18.1648
521.125	22.1239
524.018	25.0783
526.91	26.3379
529.803	25.4831
532.696	19.3813
535.589	16.2396
538.481	12.9787
541.374	9.82496
544.267	7.04868
547.159	5.4088
550.052	3.60282
552.945	2.47242
555.837	3.4871
558.73	3.11379
561.623	3.55023
564.516	4.66314
567.408	4.98152
570.301	5.10647
573.194	6.35189
576.086	6.0519
578.979	6.21041
581.872	5.30622
584.764	4.14538
587.657	2.54776
590.55	1.64443
593.443	0.478003
596.335	0.484358
599.228	0.08021
602.121	0.241249
605.013	0.171604
607.906	0.184496
610.799	0.850006
613.692	2.13462
616.584	3.88587
619.477	5.38583
622.37	5.15549
625.262	3.55043
628.155	1.66493
631.048	0.344833
633.94	1.32888
636.833	0.983105
639.726	1.09789
642.619	1.56926
645.511	1.04335
648.404	2.40504
651.297	3.59814
654.189	4.96871
657.082	4.91582
659.975	8.71095
662.867	14.3373
665.76	23.5973
668.653	42.5141
671.545	69.5818
674.438	98.3105
677.331	133.728
680.224	193.653
683.116	268.626
686.009	309.149
688.902	221.031
691.794	116.384
694.687	60.597
697.58	35.9852
700.472	24.0926
703.365	16.3983
706.258	12.0671
709.151	8.54326
712.043	5.76356
714.936	4.28668
717.829	3.44986
720.721	2.59944
723.614	0.60005
726.507	1.06513
729.399	0.381197
732.292	0.162754
735.185	0.293699
738.078	0.07165
740.97	0.132828
743.863	1.28808
746.756	0.916922
749.648	0.405966
752.541	2.42729
755.434	3.56327
758.327	2.61637
761.219	4.32142
764.112	5.0277
767.005	5.63005
769.897	4.62308
772.79	3.98956
775.683	3.3431
778.575	1.67715
781.468	1.86731
784.361	0.487915
787.254	0.536823
790.146	1.09506
793.039	0.85441
795.932	0.494108
798.824	0.003084
801.717	0.312605
804.61	0.161762
807.502	0.079664
810.395	0.356705
813.288	1.38901
816.181	0.059631
819.073	0.162111
821.966	0.516396
824.859	1.40886
827.751	1.00622
830.644	1.06221
833.537	0.749882
836.429	1.05133
839.322	0.864092
842.215	1.58552
845.107	2.06115
848	1.75428
850.893	1.61855
853.786	2.10444
856.678	1.68346
859.571	1.8192
862.464	1.34164
865.356	1.22851
868.249	1.75272
871.142	0.964764
874.034	2.79958
876.927	1.30856
879.82	0.80514
882.713	1.96383
885.605	1.42072
888.498	2.18492
891.391	1.28886
894.283	2.18812
897.176	1.86411
900.069	2.738
902.962	2.82633
905.854	4.16872
908.747	4.883
911.64	4.14921
914.532	4.44024
917.425	5.63983
920.318	4.23948
923.21	5.10705
926.103	2.21686
928.996	2.15516
931.888	1.9868
934.781	2.02205
937.674	0.981237
940.567	1.80152
943.459	0.329222
946.352	1.39645
949.245	0.809725
952.137	0.200037
955.03	0.566027
957.923	0.288937
960.815	0.006485
963.708	0.200367
966.601	0.728601
969.494	0.869186
972.386	1.31702
975.279	0.38838
978.172	0.562853
981.064	0.667717
983.957	2.16753
986.85	3.41405
989.742	5.51311
992.635	9.09671
995.528	11.9074
998.42	18.6556
1001.31	25.0098
1004.21	32.5133
1007.1	39.1656
1009.99	45.1589
1012.88	41.1242
1015.78	32.9382
1018.67	22.9594
1021.56	14.6486
1024.45	10.6593
1027.35	6.97663
1030.24	6.00982
1033.13	4.37326
1036.03	5.96817
1038.92	8.48873
1041.81	10.8301
1044.7	18.0113
1047.6	26.9932
1050.49	39.8085
1053.38	58.2663
1056.28	83.3183
1059.17	113.152
1062.06	143.21
1064.95	166.884
1067.85	171.375
1070.74	153.12
1073.63	121.491
1076.52	93.159
1079.42	68.755
1082.31	49.319
1085.2	35.7287
1088.09	24.9723
1090.99	17.1311
1093.88	12.3159
1096.77	7.59697
1099.66	5.04078
1102.56	2.32344
1105.45	2.30906
1108.34	1.13759
1111.24	0.753626
1114.13	0.218977
1117.02	0.135792
1119.91	0.095919
1122.81	0.273151
1125.7	1.2007
1128.59	1.18934
1131.48	1.82132
1134.38	3.32397
1137.27	3.86051
1140.16	5.72035
1143.06	5.81555
1145.95	4.3954
1148.84	5.62965
1151.73	3.8292
1154.63	2.16807
1157.52	0.755455
1160.41	0.476866
1163.3	0.318506
1166.2	0.700554
1169.09	0.020348
1171.98	0.094915
1174.88	0.164503
1177.77	0.706266
1180.66	0.009954
1183.55	0.993492
1186.45	1.29047
1189.34	1.72626
1192.23	1.24489
1195.12	2.32881
1198.02	1.84468
1200.91	2.44797
1203.8	2.09451
1206.69	2.81218
1209.59	2.30383
1212.48	2.48588
1215.37	3.23432
1218.27	3.23059
1221.16	3.89226
1224.05	3.19503
1226.94	2.69864
1229.84	3.98751
1232.73	3.66037
1235.62	5.04234
1238.52	4.43838
1241.41	4.14606
1244.3	2.27101
1247.19	2.01263
1250.09	2.30602
1252.98	1.00138
1255.87	0.450655
1258.76	1.14049
1261.66	0.607491
1264.55	1.26655
1267.44	0.999868
1270.33	0.206099
1273.23	0.39564
1276.12	0.013834
