Measurement: Raman, 532 nm, unoriented, Raman Data Processed
Mineral: Beryl
Rruff sample: R060944
Ideal chemistry: Be_3_Al_2_Si_6_O_18_
Locality: Habachtal, Salzburg, Austria
Source: Lawrence W. Snee
Description: Green hexagonal prisms in a muscovite schist, variety emerald. Note that there are micro inclusions of actinolite. The Raman signal is a mixture of the two phases.
Measured chemistry: Be_3.00_(Al_1.59_Mg_0.33_Fe^3+^_0.04_Cr^3+^_0.04_)_Σ=2_Si_6.00_O_18_·Na_0.33_ ; bright inclusions are actinolite
Raman shift (cm-1)	intensity
148.522	0
151.414	7.74268
154.307	29.0127
157.2	173.497
160.092	273.644
162.985	178.103
165.878	100.902
168.77	164.181
171.663	199.054
174.556	391.243
177.448	644.49
180.341	635.284
183.234	285.056
186.127	182.402
189.019	124.14
191.912	148.142
194.805	111.79
197.697	109.39
200.59	84.0623
203.483	135.392
206.375	93.3709
209.268	181.88
212.161	315.003
215.054	508.55
217.946	803.265
220.839	1065.61
223.732	1142.57
226.624	889.729
229.517	741.84
232.41	616.179
235.303	448.476
238.195	319.19
241.088	290.903
243.981	272.953
246.873	355.683
249.766	306.207
252.659	224.093
255.551	80.322
258.444	6.23511
261.337	1.45264
264.229	42.1699
267.122	37.4348
270.015	6.38501
272.908	35.7368
275.8	35.8179
278.693	28.9126
281.586	5.21924
284.478	1.91211
287.371	44.0178
290.264	63.2346
293.156	80.8062
296.049	37.7046
298.942	46.1311
301.834	79.813
304.727	95.6812
307.62	132.809
310.513	167.276
313.405	244.403
316.298	437.711
319.191	577.516
322.083	815.392
324.976	970.147
327.869	639.855
330.762	243.477
333.654	74.6506
336.547	23.2742
339.44	44.2883
342.332	84.3389
345.225	89.2974
348.118	75.1743
351.01	139.266
353.903	99.0464
356.796	130.156
359.688	140.018
362.581	157.82
365.474	238.371
368.366	253.692
371.259	226.68
374.152	164.487
377.045	186.859
379.937	168.353
382.83	276.672
385.723	432.814
388.615	734.088
391.508	1040.97
394.401	1291.98
397.293	1405.48
400.186	1340.48
403.079	803.54
405.972	407.011
408.864	296.164
411.757	275.796
414.65	240.109
417.542	231.193
420.435	160.03
423.328	174.889
426.221	102.08
429.113	86.385
432.006	102.976
434.899	197.645
437.791	168.64
440.684	188.581
443.577	136.288
446.469	38.2707
449.362	13.0312
452.255	30.9131
455.147	9.47461
458.04	16.6338
460.933	0.398682
463.826	23.0261
466.718	29.0461
469.611	2.92578
472.504	20.4609
475.396	44.2329
478.289	46.0713
481.182	63.7793
484.074	109.448
486.967	125.638
489.86	148.257
492.752	105.9
495.645	107.208
498.538	142.875
501.431	146.761
504.323	231.297
507.216	285.336
510.109	356.741
513.001	438.041
515.894	552.943
518.787	610.097
521.679	659.645
524.572	605.319
527.465	452.69
530.358	388.753
533.25	249.686
536.143	147.054
539.036	67.0339
541.928	31.887
544.821	9.93359
547.714	2.09155
550.606	4.23877
553.499	16.2256
556.392	16.093
559.284	14.01
562.177	36.4436
565.07	29.8425
567.963	17.6943
570.855	47.9155
573.748	53.6304
576.641	65.5181
579.533	51.0825
582.426	61.6025
585.319	1.31934
588.212	16.8374
591.104	24.7666
593.997	2.14258
596.89	5.41016
599.782	2.87451
602.675	40.7319
605.568	4.44531
608.46	116.061
611.353	164.43
614.246	236.777
617.139	185.196
620.031	136.05
622.924	117.638
625.817	112.85
628.709	65.3047
631.602	73.7046
634.495	119.733
637.387	71.3027
640.28	150.591
643.173	166.559
646.066	266.632
648.958	313.085
651.851	405.861
654.744	601.531
657.636	784.624
660.529	1087.35
663.422	1614.92
666.314	2330.6
669.207	3308.52
672.1	4105.77
674.992	4147.06
677.885	3620.61
680.778	3778.61
683.67	4685.21
686.563	5605.01
689.456	4735.45
692.349	2687.56
695.241	1493.66
698.134	899.672
701.027	597.176
703.919	414.602
706.812	297.651
709.705	205.106
712.597	82.9565
715.49	105.179
718.383	51.6714
721.276	21.7827
724.168	28.4204
727.061	9.46338
729.954	15.9653
732.846	5.70361
735.739	16.0171
738.632	29.8755
741.524	69.1997
744.417	27.9487
747.31	77.3887
750.203	42.21
753.095	3.94336
755.988	41.3398
758.881	33.791
761.773	10.8257
764.666	18.0039
767.559	21.9033
770.452	73.5147
773.344	15.7212
776.237	39.3623
779.13	28.0767
782.022	28.876
784.915	12.084
787.808	7.61914
790.7	18.5171
793.593	1.18994
796.486	13.5771
799.378	74.3086
802.271	12.0127
805.164	51.4268
808.057	16.2173
810.949	54.8628
813.842	35.4438
816.735	27.7275
819.627	46.3403
822.52	51.7744
825.413	43.2036
828.305	117.186
831.198	105.489
834.091	77.1328
836.984	99.9902
839.876	87
842.769	70.1221
845.662	44.8355
848.554	49.1909
851.447	50.813
854.34	9.0791
857.232	11.6313
860.125	26.5142
863.018	41.1782
865.91	2.0835
868.803	36.25
871.696	55.9194
874.589	16.939
877.481	33.4004
880.374	77.9546
883.267	56.3413
886.159	25.4878
889.052	70.0107
891.945	98.8257
894.837	130.661
897.73	139.705
900.623	115.861
903.516	118.175
906.408	185.595
909.301	137.992
912.194	207.894
915.086	229.06
917.979	258.165
920.872	275.199
923.764	378.864
926.657	415.44
929.55	421.915
932.442	364.722
935.335	313.184
938.228	251.5
941.121	157.191
944.013	124.677
946.906	136.544
949.799	131.772
952.691	101.261
955.584	64.1431
958.477	25.8652
961.37	20.6948
964.262	32.1045
967.155	44.6338
970.048	39.1528
972.94	26.313
975.833	4.33447
978.726	32.0112
981.618	13.6812
984.511	3.74023
987.404	34.2817
990.296	66.4121
993.189	60.9043
996.082	169.763
998.975	209.89
1001.87	345.222
1004.76	358.015
1007.65	370.189
1010.54	423.176
1013.44	405.47
1016.33	502.308
1019.22	477.124
1022.12	481.85
1025.01	545.832
1027.9	518.901
1030.79	421.379
1033.69	330.477
1036.58	266.134
1039.47	256.305
1042.37	379.146
1045.26	446.146
1048.15	741.889
1051.04	1115.82
1053.94	1601.07
1056.83	2067.59
1059.72	2507.99
1062.61	2995.08
1065.51	3330.63
1068.4	3381.09
1071.29	3081.63
1074.18	2531.71
1077.08	2002.45
1079.97	1420.35
1082.86	1010.08
1085.76	694.948
1088.65	539.332
1091.54	440.113
1094.43	313.989
1097.33	260.795
1100.22	267.933
1103.11	169.596
1106	157.823
1108.9	86.23
1111.79	117.978
1114.68	128.755
1117.58	127.097
1120.47	107.703
1123.36	140.118
1126.25	168.941
1129.15	214.948
1132.04	242.907
1134.93	194.327
1137.82	104.849
1140.72	60.5122
1143.61	74.2412
1146.5	49.9815
1149.39	3.77197
1152.29	37.8535
1155.18	65.166
1158.07	29.917
1160.97	45.5044
1163.86	8.08887
1166.75	27.646
1169.64	42.6885
1172.54	35.0615
1175.43	11.0454
1178.32	52.9858
1181.21	64.1631
1184.11	67.5996
1187	119.148
1189.89	41.2744
1192.79	53.9487
1195.68	80.5791
1198.57	95.2485
1201.46	100.275
1204.36	103.664
1207.25	94.2124
1210.14	144.374
1213.03	160.134
1215.93	152.772
1218.82	132.419
1221.71	99.9297
1224.61	103.668
1227.5	76.1919
1230.39	73.1265
1233.28	96.6216
1236.18	72.73
1239.07	107.722
1241.96	60.0337
1244.85	62.5381
1247.75	64.5376
1250.64	88.7661
1253.53	112.447
1256.42	85.6191
1259.32	72.1221
1262.21	59.377
1265.1	10.581
1267.99	25.0239
1270.89	33.374
1273.78	33.9673
1276.67	37.4858
1279.57	44.1782
1282.46	76.1035
1285.35	45.6509
1288.24	38.7178
1291.14	63.0698
1294.03	26.0981
