Measurement: Raman, 514 nm, unoriented, Raman Data Processed
Mineral: Beryl
Rruff sample: R040002
Ideal chemistry: Be_3_Al_2_Si_6_O_18_
Locality: Usakos, Namibia
Source: University of Arizona Mineral Museum
Description: Light blue hexagonal prism, variety aquamarine
Measured chemistry: (Be_0.97_Li_0.03_)_3_(Al_0.97_Fe^3+^_0.03_)_2_Si_6_O_18_Î‡Na_0.01_
Raman shift (cm-1)	intensity
117.034	0
121.203	0.831
125.369	11.809
129.534	26.84
133.696	81.767
137.857	245.485
142.016	353.171
146.172	366.07
150.327	177.54
154.48	112.409
158.63	30.407
162.779	82.033
166.926	59.682
171.07	72.143
175.213	75.087
179.354	141.591
183.493	233.155
187.63	205.773
191.765	119.842
195.898	179.19
200.029	225.109
204.158	206.016
208.285	217.962
212.41	72.941
216.533	19.948
220.654	51.034
224.773	13.536
228.891	79.141
233.006	91.09
237.119	44.923
241.231	94.989
245.34	86.087
249.448	56.218
253.553	148.473
257.657	73.011
261.758	33.624
265.858	92.239
269.956	129.853
274.052	148.465
278.146	209.075
282.237	213.946
286.327	300.414
290.416	412.041
294.502	304.602
298.586	302.211
302.668	315.749
306.749	367.116
310.827	602.551
314.903	1127.5
318.978	2170.38
323.051	2091.75
327.121	652.672
331.19	150.317
335.257	21.981
339.322	17.476
343.385	119.219
347.446	76.719
351.505	9.601
355.563	8.076
359.618	71.762
363.672	11.462
367.723	42.175
371.773	48.899
375.821	88.635
379.866	196.383
383.91	406.376
387.952	1042.11
391.992	3099.11
396.031	4436.28
400.067	2661.11
404.101	1127.8
408.134	536.495
412.165	456.196
416.193	707.901
420.22	1017.61
424.245	831.312
428.268	460.014
432.289	226.715
436.309	296.414
440.326	803.112
444.342	1015.81
448.355	668.497
452.367	368.188
456.377	198.878
460.385	132.567
464.391	50.253
468.395	61.94
472.398	92.431
476.398	3.107
480.397	48.749
484.394	90.405
488.389	20.065
492.382	23.757
496.373	43.476
500.362	7.834
504.349	67.76
508.335	22.638
512.319	16.323
516.3	110.665
520.28	233.389
524.259	368.107
528.235	406.839
532.209	395.583
536.182	226.329
540.152	57.085
544.121	35.693
548.088	31.551
552.053	9.896
556.017	15.66
559.978	60.75
563.938	109.145
567.895	176.554
571.851	164.984
575.805	279.406
579.758	415.821
583.708	387.229
587.657	300.628
591.603	338.021
595.548	221.487
599.491	188.864
603.432	148.231
607.372	164.591
611.309	129.942
615.245	94.284
619.179	92.618
623.111	72.943
627.041	145.259
630.97	68.542
634.896	75.253
638.821	22.166
642.744	34.632
646.665	91.824
650.584	55.977
654.502	166.284
658.418	96.694
662.331	236.369
666.244	404.923
670.154	657.37
674.062	1317.01
677.969	3760.21
681.874	9489.9
685.777	10896.4
689.678	4854.52
693.577	2211.48
697.475	1181.04
701.371	830.484
705.265	622.66
709.157	376.405
713.047	202.083
716.936	186.247
720.823	135.396
724.708	127.085
728.591	97.141
732.472	102.189
736.352	66.32
740.23	47.241
744.106	118.467
747.98	78.489
751.853	63.502
755.723	51.509
759.592	72.509
763.459	181.503
767.325	348.491
771.188	586.473
775.05	481.449
778.91	185.419
782.768	159.383
786.625	100.538
790.479	108.497
794.332	69.467
798.183	131.414
802.033	60.628
805.88	103.228
809.726	40.042
813.57	55.844
817.413	47.518
821.253	78.123
825.092	85.698
828.929	46.223
832.764	94.735
836.598	3.757
840.429	53.739
844.259	9.285
848.088	16.847
851.914	52.414
855.739	166.962
859.562	51.768
863.383	108.591
867.203	29.38
871.02	99.195
874.836	24.979
878.65	69.799
882.463	113.586
886.274	126.413
890.083	109.231
893.89	131.042
897.695	159.847
901.499	133.641
905.301	205.343
909.102	275.123
912.9	317.897
916.697	450.714
920.492	407.519
924.285	369.039
928.077	263.084
931.867	184.841
935.655	182.578
939.442	253.312
943.226	211.988
947.009	127.628
950.791	127.251
954.57	125.957
958.348	70.585
962.124	130.083
965.899	109.822
969.671	174.755
973.442	174.118
977.211	141.143
980.979	231.713
984.745	273.792
988.509	262.114
992.271	399.899
996.032	523.451
999.791	791.25
1003.55	984.75
1007.3	1262.71
1011.06	1597.28
1014.81	1395.58
1018.56	937.371
1022.31	678.237
1026.06	552.099
1029.8	450.349
1033.55	405.104
1037.29	388.545
1041.03	370.848
1044.77	414.424
1048.5	415.409
1052.24	533.451
1055.97	648.781
1059.7	923.281
1063.43	1769.5
1067.16	2630.36
1070.89	2449.24
1074.61	1770.68
1078.34	1248.03
1082.06	880.295
1085.78	632.48
1089.5	475.575
1093.21	419.579
1096.93	278.07
1100.64	253.31
1104.35	233.05
1108.06	143.729
1111.77	138.476
1115.48	144.006
1119.18	147.52
1122.89	114.515
1126.59	111.364
1130.29	114.112
1133.99	113.131
1137.68	86.886
1141.38	5.237
1145.07	44.185
1148.76	7.169
1152.45	15.207
1156.14	62.584
1159.83	1.969
1163.51	83.395
1167.19	5.167
1170.88	17.567
1174.56	25.606
1178.23	11.105
1181.91	94.093
1185.59	110.028
1189.26	115.085
1192.93	156.863
1196.6	197.434
1200.27	101.62
1203.94	161.69
1207.6	102.176
1211.27	134.472
1214.93	236.553
1218.59	245.849
1222.25	202.666
1225.9	387.345
1229.56	298.67
1233.21	314.211
1236.86	478.562
1240.51	592.807
1244.16	997.843
1247.81	922.873
1251.45	517.211
1255.1	239.038
1258.74	163.65
1262.38	101.985
1266.02	126.215
1269.66	80.308
1273.29	125.257
1276.93	49.673
1280.56	149.563
1284.19	43.05
1287.82	134.722
1291.45	118.81
1295.07	35.571
1298.7	91.078
1302.32	43.84
1305.94	56.604
1309.56	27.485
1313.18	38.555
1316.8	58.425
1320.41	13.329
1324.02	36.106
1327.63	72.012
1331.24	3.161
1334.85	10.52
1338.46	51.956
1342.06	83.633
1345.67	107.958
1349.27	106.254
1352.87	116.939
1356.47	85.715
1360.07	93.689
1363.66	102.144
1367.25	130.516
1370.85	85.964
1374.44	67.933
1378.03	96.73
1381.61	71.836
1385.2	92.227
1388.78	63.415
1392.37	99.229
1395.95	185.241
1399.53	153.957
1403.1	168.933
1406.68	91.643
1410.26	175.351
1413.83	151.644
1417.4	150.115
1420.97	170.865
1424.54	66.767
1428.1	170.596
1431.67	131.05
1435.23	176.993
1438.8	249.891
1442.36	248.628
1445.91	200.779
1449.47	170.02
1453.03	259.411
1456.58	263.592
1460.13	363.074
1463.68	62.731
1467.23	88.002
1470.78	164.516
1474.33	123.227
1477.87	94.306
1481.42	138.706
1484.96	244.144
1488.5	173.843
1492.04	195.918
1495.57	153.658
1499.11	16.303
1502.64	192.825
1506.17	170.315
1509.71	105.509
1513.23	160.558
1516.76	1.046
1520.29	83.932
