Measurement: Raman, 785 nm, unoriented, Raman Data Processed
Mineral: Beryllonite
Rruff sample: R070249
Ideal chemistry: NaBePO_4_
Locality: Melrose Farm Beryllonite prospects (McAllister prospects),  Stoneham, Oxford County, Maine, USA
Source: Michael Scott
Description: Two colorless single crystal fragments
Measured chemistry: Na_1.00_Be_1.00_P_1.00_O_4_; Be estimated by difference
Raman shift (cm-1)	intensity
146.572	0
149.464	24.7118
152.357	32.5276
155.25	64.9557
158.142	86.3054
161.035	218.183
163.928	206.895
166.821	199.135
169.713	273.763
172.606	106.543
175.499	19.0532
178.391	3.78626
181.284	15.2227
184.177	17.6914
187.069	70.2061
189.962	91.2642
192.855	173.119
195.748	134.405
198.64	30.3895
201.533	6.31805
204.426	13.4656
207.318	2.13678
210.211	36.9333
213.104	65.365
215.996	0.429932
218.889	61.8619
221.782	85.1506
224.674	154.312
227.567	288.086
230.46	451.206
233.353	536.363
236.245	343.304
239.138	193.989
242.031	89.3093
244.923	15.511
247.816	5.97076
250.709	3.33124
253.601	4.91571
256.494	5.40454
259.387	27.3016
262.28	52.1797
265.172	94.3686
268.065	59.7517
270.958	33.2861
273.85	73.5537
276.743	43.8559
279.636	80.5596
282.529	72.3068
285.421	71.4639
288.314	58.2388
291.207	119.306
294.099	153.745
296.992	177.289
299.885	222.075
302.777	276.14
305.67	287.771
308.563	117.786
311.455	10.4879
314.348	20.1729
317.241	8.27826
320.134	10.999
323.026	16.9421
325.919	31.5868
328.812	82.104
331.704	139.81
334.597	227.595
337.49	313.038
340.382	500.487
343.275	823.943
346.168	1182.1
349.061	1750.14
351.953	2447.59
354.846	2716
357.739	2063.75
360.631	1191.92
363.524	634.093
366.417	377.183
369.31	232.686
372.202	138.546
375.095	77.9061
377.988	52.6044
380.88	53.2369
383.773	22.5847
386.666	42.9827
389.558	65.9027
392.451	147.694
395.344	272.022
398.236	435.608
401.129	339.11
404.022	134.511
406.915	45.7799
409.807	20.2445
412.7	18.1467
415.593	1.86719
418.485	5.52728
421.378	11.23
424.271	13.7711
427.163	2.5553
430.056	41.7578
432.949	57.7103
435.842	42.9982
438.734	85.9412
441.627	109.613
444.52	222.689
447.412	364.825
450.305	640.839
453.198	1099.11
456.091	1395.19
458.983	1732.21
461.876	2508.57
464.769	3446.47
467.661	3455.43
470.554	2342.28
473.447	1258.19
476.339	654.921
479.232	347.705
482.125	199.671
485.017	139.941
487.91	133.47
490.803	112.968
493.696	55.7528
496.588	29.282
499.481	1.88318
502.374	24.5419
505.266	4.29822
508.159	48.7042
511.052	140.512
513.944	303.87
516.837	612.391
519.73	1178.8
522.623	1691.72
525.515	1262.19
528.408	1168.05
531.301	886.767
534.193	468.461
537.086	341.499
539.979	466.265
542.871	769.463
545.764	1253.51
548.657	875.829
551.55	271.371
554.442	127.693
557.335	111.321
560.228	181.629
563.12	300.997
566.013	587.834
568.906	624.417
571.798	334.388
574.691	122.009
577.584	120.178
580.477	119.3
583.369	252.964
586.262	416.731
589.155	704.705
592.047	857.671
594.94	651.822
597.833	711.688
600.726	645.321
603.618	302.634
606.511	118.816
609.404	56.0988
612.296	22.8113
615.189	4.2945
618.082	0.982666
620.974	11.1712
623.867	8.83789
626.76	1.79987
629.653	12.9426
632.545	15.8855
635.438	2.62708
638.331	12.3923
641.223	2.79962
644.116	15.3827
647.009	6.62872
649.901	1.53919
652.794	0.105225
655.687	9.9483
658.58	5.7019
661.472	28.7621
664.365	12.4222
667.258	20.8453
670.15	13.2383
673.043	29.2342
675.936	37.5926
678.828	9.61401
681.721	36.5094
684.614	34.4042
687.506	15.1049
690.399	26.0418
693.292	13.798
696.185	33.6119
699.077	43.2217
701.97	39.9244
704.863	4.43933
707.755	14.8057
710.648	20.4231
713.541	26.1225
716.433	17.0012
719.326	33.3999
722.219	42.428
725.112	31.1303
728.004	14.9325
730.897	2.27582
733.79	4.03186
736.682	28.8038
739.575	30.0026
742.468	41.3567
745.361	49.2742
748.253	41.0908
751.146	23.8147
754.039	0.658997
756.931	7.32642
759.824	26.1727
762.717	13.8383
765.609	22.2121
768.502	63.9817
771.395	80.8551
774.288	92.1973
777.18	75.3969
780.073	49.3047
782.966	41.5802
785.858	47.4517
788.751	36.9759
791.644	43.6734
794.536	22.586
797.429	25.0601
800.322	40.7592
803.215	9.39673
806.107	25.0973
809	19.8101
811.893	25.0233
814.785	30.2462
817.678	7.74152
820.571	22.8391
823.463	12.831
826.356	17.4668
829.249	22.7184
832.141	12.373
835.034	0.308533
837.927	19.4763
840.82	16.0999
843.712	15.8724
846.605	44.9302
849.498	27.4597
852.39	15.8243
855.283	28.6246
858.176	18.3031
861.068	20.9173
863.961	29.5851
866.854	31.2894
869.747	20.3864
872.639	20.3523
875.532	19.6392
878.425	32.388
881.317	42.8322
884.21	26.6821
887.103	23.814
889.995	53.8021
892.888	47.3599
895.781	24.5185
898.674	31.6039
901.566	0.391724
904.459	14.3494
907.352	19.5261
910.244	3.48859
913.137	12.6337
916.03	36.2054
918.923	6.91705
921.815	8.76459
924.708	5.28857
927.601	3.98798
930.493	16.0258
933.386	2.07446
936.279	14.1921
939.171	3.37274
942.064	25.6906
944.957	0.50647
947.85	38.7707
950.742	1.32983
953.635	12.2722
956.528	15.7167
959.42	24.4885
962.313	29.7034
965.206	43.4719
968.098	49.804
970.991	77.0331
973.884	92.1562
976.777	139.437
979.669	187.821
982.562	253.863
985.455	369.726
988.347	528.474
991.24	724.518
994.133	1071.09
997.025	1639.81
999.918	2651.01
1002.81	4227.6
1005.7	6629
1008.6	9407.52
1011.49	10207.8
1014.38	7263.78
1017.27	4199.08
1020.17	2652.3
1023.06	1995.12
1025.95	1767.79
1028.85	1497.81
1031.74	1322.92
1034.63	1330.19
1037.52	1535.87
1040.42	1681.6
1043.31	1989.24
1046.2	2190.7
1049.09	2083.96
1051.99	1658.47
1054.88	1171.62
1057.77	912.304
1060.66	850.973
1063.56	1177.63
1066.45	1261.6
1069.34	679.895
1072.24	384.485
1075.13	265.726
1078.02	191.183
1080.91	69.4385
1083.81	30.1359
1086.7	15.8452
1089.59	4.08685
1092.48	3.34973
1095.38	10.4598
1098.27	13.8405
1101.16	35.7944
1104.06	6.51837
1106.95	2.71582
1109.84	10.2537
1112.73	13.4523
1115.63	14.4835
1118.52	16.4534
1121.41	16.6776
1124.3	30.1418
1127.2	28.7662
1130.09	20.9521
1132.98	45.7742
1135.88	41.9343
1138.77	47.1435
1141.66	88.6507
1144.55	97.6688
1147.45	84.9627
1150.34	95.5998
1153.23	58.6569
1156.12	39.598
1159.02	14.1622
1161.91	33.5255
1164.8	36.486
1167.69	52.1328
1170.59	0.930603
1173.48	34.2853
1176.37	26.1417
1179.27	28.8008
1182.16	28.5155
1185.05	35.243
1187.94	41.8232
1190.84	14.3002
1193.73	17.278
1196.62	43.5477
1199.51	36.2
1202.41	24.7981
1205.3	19.8199
1208.19	28.3929
1211.09	36.2553
1213.98	5.98364
1216.87	31.4252
1219.76	20.3012
1222.66	20.8666
1225.55	12.2919
1228.44	5.07465
1231.33	10.8827
1234.23	10.7642
