Measurement: Raman, 780 nm, unoriented, Raman Data Processed
Mineral: Beryl
Rruff sample: R050368
Ideal chemistry: Be_3_Al_2_Si_6_O_18_
Locality: Wah Wah Mountains, Utah, USA
Source: Eugene Schlepp
Description: Red-violet hexagonal prism
Measured chemistry: (Be_0.99_Li_0.01_)_3_(Al_0.95_Fe^3+^_0.05_)_2_Si_6.00_O_18_Î‡K_0.02_Na_0.01_
Raman shift (cm-1)	intensity
115.665	0
119.04	4.61292
122.415	12.7154
125.79	20.5988
129.164	33.3097
132.539	45.4615
135.914	62.1876
139.289	84.262
142.664	46.5896
146.038	24.3288
149.413	8.32355
152.788	3.46066
156.163	1.41911
159.538	4.78453
162.912	1.51831
166.287	2.14024
169.662	4.67143
173.037	3.50508
176.412	5.74799
179.786	12.8644
183.161	16.6919
186.536	17.3804
189.911	14.8372
193.286	16.2959
196.661	17.5592
200.035	13.5844
203.41	12.1086
206.785	9.73883
210.16	9.25623
213.535	5.92886
216.91	8.53676
220.284	8.64101
223.659	7.45605
227.034	11.8326
230.409	15.4817
233.784	25.2987
237.158	29.7209
240.533	33.1214
243.908	32.1328
247.283	44.3599
250.658	67.6696
254.032	59.0645
257.407	9.77963
260.782	3.10253
264.157	2.40392
267.532	3.19832
270.907	2.79015
274.281	8.05786
277.656	6.32602
281.031	7.19224
284.406	15.2328
287.781	14.4866
291.156	16.2672
294.53	23.1601
297.905	36.1183
301.28	51.1082
304.655	74.1093
308.029	91.9247
311.404	120.019
314.779	167.314
318.154	255.233
321.529	350.891
324.904	164.066
328.278	38.3675
331.653	12.0509
335.028	2.19706
338.403	0.231483
341.778	0.407173
345.152	0.894707
348.527	0.005287
351.902	1.26556
355.277	1.54941
358.652	2.93939
362.027	4.67856
365.401	9.82873
368.776	13.9945
372.151	23.3813
375.526	42.832
378.901	78.0502
382.276	105.868
385.65	117.707
389.025	170.054
392.4	268.762
395.775	303.149
399.15	154.622
402.524	59.8761
405.899	27.9227
409.274	20.4822
412.649	12.2295
416.024	14.0432
419.399	10.8685
422.773	5.82236
426.148	5.95867
429.523	10.6558
432.898	14.2899
436.273	30.892
439.647	46.6645
443.022	69.9243
446.397	71.1534
449.772	49.2256
453.147	22.0488
456.522	11.9442
459.896	5.75218
463.271	1.63673
466.646	0.599625
470.021	0.22229
473.396	1.20272
476.77	0.968712
480.145	3.19681
483.52	5.08009
486.895	4.83508
490.27	8.75454
493.644	11.86
497.019	17.0993
500.394	23.0209
503.769	27.827
507.144	30.7258
510.519	40.4499
513.893	47.6957
517.268	63.5448
520.643	83.755
524.018	104.751
527.393	108.281
530.767	76.5617
534.142	45.5566
537.517	26.3555
540.892	14.6221
544.267	5.42638
547.641	0.028221
551.016	1.52641
554.391	1.82486
557.766	2.1445
561.141	0.768524
564.516	0.615341
567.89	2.12804
571.265	1.89608
574.64	6.87912
578.015	13.687
581.39	15.9624
584.764	21.2399
588.139	27.1827
591.514	27.0896
594.889	29.6535
598.264	28.3331
601.639	26.5192
605.013	25.9121
608.388	24.7423
611.763	24.1802
615.138	26.0535
618.513	29.5322
621.888	26.2567
625.262	17.138
628.637	9.64381
632.012	8.53917
635.387	8.99347
638.761	14.008
642.136	17.104
645.511	16.6055
648.886	18.4748
652.261	20.3646
655.636	30.3676
659.01	46.9
662.385	79.6325
665.76	136.483
669.135	219.653
672.51	305.294
675.885	461.988
679.259	738.425
682.634	940.415
686.009	591.372
689.384	269.059
692.759	146.008
696.133	90.3356
699.508	56.2592
702.883	37.2195
706.258	21.3612
709.633	15.3043
713.007	8.57214
716.382	3.69684
719.757	0.096069
723.132	1.24323
726.507	2.24525
729.881	3.01554
733.256	0.511566
736.631	0.7005
740.006	0.70417
743.381	5.21317
746.756	4.33871
750.13	9.39196
753.505	14.131
756.88	16.6704
760.255	22.7088
763.63	27.3604
767.005	33.0793
770.379	32.832
773.754	24.733
777.129	19.7055
780.504	12.9303
783.879	7.78516
787.253	5.9435
790.628	4.13805
794.003	2.72636
797.378	1.59919
800.753	1.08315
804.128	0.521782
807.502	0.628487
810.877	0.96756
814.252	0.423752
817.627	0.318756
821.002	2.73979
824.376	2.26397
827.751	0.322037
831.126	2.83893
834.501	2.67146
837.876	1.80971
841.25	1.48107
844.625	2.83623
848	3.12403
851.375	1.90521
854.75	4.02696
858.125	4.82538
861.499	5.59358
864.874	7.12263
868.249	9.25619
871.624	12.6814
874.999	16.3954
878.374	20.1137
881.748	21.9166
885.123	26.2167
888.498	26.4931
891.873	27.1812
895.248	28.0511
898.622	34.2645
901.997	40.9164
905.372	50.9189
908.747	61.9037
912.122	74.1884
915.496	83.0106
918.871	69.9231
922.246	49.9022
925.621	36.2908
928.996	25.0092
932.37	18.8805
935.745	12.0417
939.12	9.91188
942.495	5.62026
945.87	4.40439
949.245	1.71011
952.619	0.623039
955.994	1.02095
959.369	0.758858
962.744	0.635971
966.119	1.78868
969.494	1.37616
972.868	1.86889
976.243	0.297714
979.618	2.60449
982.993	3.79762
986.368	10.4971
989.742	17.9579
993.117	29.4266
996.492	47.378
999.867	65.8361
1003.24	85.0776
1006.62	102.464
1009.99	98.6825
1013.37	72.1596
1016.74	44.5623
1020.12	26.8586
1023.49	17.7718
1026.87	15.157
1030.24	15.3158
1033.62	18.1777
1036.99	31.2735
1040.37	46.0832
1043.74	68.1235
1047.11	107.382
1050.49	165.803
1053.86	262.007
1057.24	395.329
1060.61	575.067
1063.99	770.266
1067.36	814.133
1070.74	632.088
1074.11	422.269
1077.49	273.913
1080.86	190.833
1084.24	135.509
1087.61	97.6942
1090.99	67.8262
1094.36	51.0987
1097.74	44.2565
1101.11	30.3187
1104.49	22.6496
1107.86	17.3581
1111.24	12.9994
1114.61	10.8057
1117.98	8.99536
1121.36	7.70068
1124.73	7.09988
1128.11	4.91029
1131.48	5.52052
1134.86	3.73214
1138.23	2.24531
1141.61	3.23047
1144.98	1.6001
1148.36	3.65664
1151.73	3.49434
1155.11	3.10871
1158.48	0.378414
1161.86	0.724594
1165.23	1.60782
1168.61	5.60546
1171.98	7.06189
1175.36	7.40826
1178.73	10.67
1182.11	11.8216
1185.48	12.05
1188.86	14.0706
1192.23	16.6162
1195.61	16.3953
1198.98	17.5402
1202.36	17.1643
1205.73	16.7457
1209.11	16.4771
1212.48	15.5526
1215.86	15.0914
1219.23	16.4253
1222.61	17.3526
1225.98	16.3398
1229.35	17.5064
1232.73	11.9383
1236.1	14.3276
1239.48	11.5367
1242.85	10.5818
1246.23	9.27299
1249.6	3.19944
1252.98	0.93153
1256.35	2.11287
1259.73	1.96303
1263.1	1.83432
1266.48	1.55469
1269.85	1.2255
1273.23	0.235203
1276.6	3.33592
1279.98	0.442181
