Measurement: Raman, 532 nm, unoriented, Raman Data Processed
Mineral: Beryllonite
Rruff sample: R060552
Ideal chemistry: NaBePO_4_
Locality: Afghanistan
Source: Gemological Institute of America
Description: Colorless fragment
Measured chemistry: Na_1.00_Be_1.00_P_1.00_O_4_ ; Be not measured but estimated by difference and stoichiometry
Raman shift (cm-1)	intensity
134.88	0
138.255	15.5269
141.63	62.4941
145.005	88.519
148.38	79.2519
151.755	22.7899
155.129	47.4881
158.504	101.819
161.879	173.823
165.254	124.448
168.629	152.035
172.003	124.094
175.378	13.4234
178.753	0.422546
182.128	2.00732
185.503	3.1499
188.877	21.4103
192.252	50.7111
195.627	72.7778
199.002	9.24133
202.377	5.09351
205.752	7.09473
209.126	11.5739
212.501	32.4706
215.876	41.0662
219.251	50.5739
222.626	78.9921
226	129.332
229.375	191.494
232.75	261.353
236.125	209.878
239.5	115.853
242.875	56.3385
246.249	18.3945
249.624	12.4416
252.999	6.68616
256.374	7.72327
259.749	18.3014
263.123	31.5342
266.498	43.3215
269.873	35.4497
273.248	42.7749
276.623	61.9567
279.998	75.6594
283.372	73.2484
286.747	62.5981
290.122	69.8439
293.497	88.2887
296.872	103.123
300.247	109.038
303.621	144.379
306.996	125.242
310.371	22.5115
313.746	3.24597
317.12	4.91913
320.495	3.18726
323.87	10.1667
327.245	21.6974
330.62	57.5405
333.995	91.4604
337.369	168.54
340.744	280.924
344.119	434.61
347.494	665.518
350.869	1011.07
354.243	1316.09
357.618	1125.38
360.993	619.225
364.368	299.338
367.743	151.382
371.118	78.4342
374.492	41.6302
377.867	21.6327
381.242	8.25738
384.617	15.6738
387.992	32.0196
391.366	64.4103
394.741	126.382
398.116	222.752
401.491	210.01
404.866	79.1167
408.241	10.7266
411.615	2.2619
414.99	7.46887
418.365	1.7727
421.74	1.36511
425.115	1.38416
428.49	16.9839
431.864	52.3937
435.239	37.2315
438.614	29.9492
441.989	65.4841
445.364	127.896
448.738	245.607
452.113	465.777
455.488	722.627
458.863	922.203
462.238	1363.04
465.613	1894.4
468.987	1702.3
472.362	949.441
475.737	442.322
479.112	206.266
482.486	104.537
485.861	64.6293
489.236	45.9681
492.611	41.1566
495.986	6.78686
499.361	10.8287
502.735	6.71588
506.11	1.47699
509.485	38.2913
512.86	90.7529
516.235	205.677
519.61	411.978
522.984	688.994
526.359	573.482
529.734	522.656
533.109	371.245
536.484	215.59
539.859	248.723
543.233	421.101
546.608	671.316
549.983	401.86
553.358	135.165
556.732	108.07
560.107	134.419
563.482	230.135
566.857	414.532
570.232	429.734
573.607	164.615
576.981	80.3024
580.356	83.397
583.731	128.418
587.106	203.454
590.481	327.873
593.856	345.934
597.23	284.188
600.605	319.107
603.98	162.772
607.355	54.2957
610.73	25.6549
614.104	8.6806
617.479	1.11334
620.854	5.38159
624.229	4.81775
627.604	1.27057
630.979	1.62628
634.353	5.61652
637.728	14.8188
641.103	23.0847
644.478	13.4895
647.852	4.88055
651.227	3.03455
654.602	7.1275
657.977	11.2766
661.352	15.4923
664.727	14.2155
668.101	14.853
671.476	16.6067
674.851	17.1172
678.226	15.2915
681.601	12.1349
684.976	6.7959
688.35	1.72253
691.725	3.5921
695.1	9.62958
698.475	12.8699
701.85	6.52301
705.224	8.23535
708.599	1.63666
711.974	0.096191
715.349	0.541687
718.724	5.58008
722.098	13.583
725.473	21.5941
728.848	8.43652
732.223	3.43372
735.598	6.78271
738.973	16.4943
742.347	24.0712
745.722	22.7719
749.097	9.09076
752.472	5.14575
755.847	1.74603
759.221	0.582031
762.596	6.09345
765.971	9.45819
769.346	16.7525
772.721	21.0054
776.096	27.0073
779.47	19.3677
782.845	13.1781
786.22	6.04266
789.595	4.15064
792.97	7.76648
796.345	7.27539
799.719	15.5762
803.094	18.5787
806.469	23.3606
809.844	26.8392
813.219	22.8391
816.593	26.1561
819.968	29.6561
823.343	28.1435
826.718	25.4097
830.093	22.4347
833.467	24.7884
836.842	25.7378
840.217	30.759
843.592	18.87
846.967	14.6107
850.342	13.1489
853.716	9.20056
857.091	12.064
860.466	9.77399
863.841	7.43799
867.216	11.2895
870.591	7.91071
873.965	4.2558
877.34	6.36023
880.715	1.03223
884.09	3.66058
887.465	3.43958
890.839	5.15094
894.214	7.28918
897.589	11.3799
900.964	5.93487
904.339	6.54663
907.713	6.96057
911.088	11.0236
914.463	10.6812
917.838	9.12189
921.213	5.97583
924.587	5.12164
927.962	2.38592
931.337	3.68799
934.712	2.72467
938.087	5.59448
941.462	6.11499
944.836	8.88001
948.211	4.47351
951.586	11.3918
954.961	1.23871
958.336	3.69464
961.711	11.6403
965.085	16.2538
968.46	21.1148
971.835	41.9256
975.21	62.9316
978.585	99.6425
981.959	137.882
985.334	200.42
988.709	293.325
992.084	449.577
995.459	735.89
998.833	1231.61
1002.21	2090.11
1005.58	3381.51
1008.96	5090.27
1012.33	5692.33
1015.71	3784.24
1019.08	2017.68
1022.46	1259.56
1025.83	952.388
1029.21	790.561
1032.58	679.018
1035.96	711.869
1039.33	855.792
1042.71	994.934
1046.08	1163.43
1049.46	1169.26
1052.83	885.01
1056.2	601.416
1059.58	442.009
1062.95	506.001
1066.33	723.954
1069.7	498.241
1073.08	240.803
1076.45	165.015
1079.83	83.5185
1083.2	27.2198
1086.58	5.20075
1089.95	10.4156
1093.33	10.8735
1096.7	11.8049
1100.08	6.66449
1103.45	1.47546
1106.83	2.12488
1110.2	8.09827
1113.58	21.2731
1116.95	19.0574
1120.33	11.1503
1123.7	7.52972
1127.08	0.568909
1130.45	5.08954
1133.83	14.5803
1137.2	16.5524
1140.58	28.4746
1143.95	48.6177
1147.33	65.2162
1150.7	52.8962
1154.08	26.9186
1157.45	12.9603
1160.83	10.9495
1164.2	0.506714
1167.57	3.94739
1170.95	0.383911
1174.32	2.22144
1177.7	14.7745
1181.07	18.1984
1184.45	23.6905
1187.82	23.4081
1191.2	16.2988
1194.57	11.8978
1197.95	3.41284
1201.32	2.34943
1204.7	2.19098
1208.07	7.92969
1211.45	3.3811
1214.82	8.20575
1218.2	13.4638
1221.57	15.5205
1224.95	19.556
1228.32	19.0501
1231.7	17.4963
1235.07	17.0256
1238.44	13.4608
1241.82	7.88519
1245.19	12.8194
1248.57	7.91498
1251.94	18.6921
1255.32	8.40063
1258.69	16.4056
1262.07	10.2199
1265.44	5.70056
1268.82	0.560242
1272.19	3.08319
1275.57	11.3682
1278.94	9.35529
1282.32	4.24939
1285.69	2.09021
1289.07	1.07519
1292.44	3.79474
1295.82	1.52917
1299.19	2.31946
1302.57	0.020142
