Measurement: Raman, 532 nm, unoriented, Raman Data Processed
Mineral: Beryl
Rruff sample: R050368
Ideal chemistry: Be_3_Al_2_Si_6_O_18_
Locality: Wah Wah Mountains, Utah, USA
Source: Eugene Schlepp
Description: Red-violet hexagonal prism
Measured chemistry: (Be_0.99_Li_0.01_)_3_(Al_0.95_Fe^3+^_0.05_)_2_Si_6.00_O_18_Î‡K_0.02_Na_0.01_
Raman shift (cm-1)	intensity
118.87	0
122.245	20.3873
125.62	30.5444
128.994	44.3494
132.369	62.904
135.744	80.699
139.119	100.549
142.494	60.4678
145.869	32.3716
149.243	9.63722
152.618	7.91156
155.993	3.05005
159.368	6.59154
162.743	3.31581
166.117	0.529099
169.492	2.01277
172.867	5.64741
176.242	6.3351
179.617	10.7192
182.992	15.2071
186.366	20.9638
189.741	16.2241
193.116	20.1039
196.491	19.5821
199.865	12.8474
203.24	10.2373
206.615	8.75191
209.99	4.56354
213.365	1.10992
216.74	0.801163
220.114	3.53172
223.489	6.20099
226.864	12.5107
230.239	15.4452
233.614	24.2546
236.988	35.6051
240.363	35.169
243.738	27.1993
247.113	36.9471
250.488	57.5206
253.863	48.7591
257.237	8.10127
260.612	3.24501
263.987	0.372345
267.362	2.67506
270.737	9.27263
274.111	10.3603
277.486	9.12718
280.861	13.0872
284.236	18.1063
287.611	20.1717
290.986	27.3363
294.36	34.626
297.735	52.9784
301.11	82.6016
304.485	136.191
307.86	185.182
311.235	235.3
314.609	318.822
317.984	473.188
321.359	639.191
324.734	322.484
328.109	75.9474
331.483	23.6452
334.858	7.27948
338.233	3.42219
341.608	0.71048
344.983	1.28496
348.358	1.0598
351.732	0.229797
355.107	2.041
358.482	2.00801
361.857	4.43497
365.231	9.5367
368.606	18.2839
371.981	33.0186
375.356	59.8956
378.731	118.038
382.106	174.775
385.48	202.243
388.855	290.177
392.23	436.274
395.605	486.512
398.98	251.329
402.354	98.9833
405.729	48.929
409.104	33.0097
412.479	27.7145
415.854	25.8297
419.229	23.0456
422.603	17.7501
425.978	18.088
429.353	19.4167
432.728	26.7846
436.103	37.639
439.478	56.0592
442.852	77.1838
446.227	68.7341
449.602	51.3414
452.977	23.0484
456.352	10.316
459.726	4.62402
463.101	3.50589
466.476	1.62674
469.851	1.40408
473.226	0.917313
476.601	3.30749
479.975	5.67549
483.35	7.92232
486.725	16.0672
490.1	15.3032
493.475	20.2495
496.849	23.9096
500.224	33.5343
503.599	43.8681
506.974	35.7334
510.349	46.2009
513.723	53.4361
517.098	68.2012
520.473	91.4232
523.848	110.62
527.223	109.507
530.598	77.9997
533.972	48.5839
537.347	29.2789
540.722	17.7599
544.097	12.8391
547.472	1.028
550.846	0.890564
554.221	4.27664
557.596	1.5749
560.971	3.48407
564.346	1.03104
567.721	0.428314
571.095	8.51981
574.47	13.3881
577.845	24.3509
581.22	35.8951
584.595	44.7227
587.969	57.2366
591.344	65.0554
594.719	68.366
598.094	62.1573
601.469	58.5357
604.843	50.6234
608.218	43.8426
611.593	43.0848
614.968	45.3343
618.343	44.0539
621.718	37.6249
625.092	19.9341
628.467	9.5993
631.842	10.8656
635.217	14.029
638.592	17.3437
641.966	21.8323
645.341	25.7023
648.716	28.7699
652.091	34.9131
655.466	44.3521
658.841	78.5319
662.215	131.08
665.59	230.879
668.965	389.478
672.34	576.22
675.715	857.251
679.09	1279.73
682.464	1556.59
685.839	998.148
689.214	459.865
692.589	243.664
695.964	149.787
699.338	97.1664
702.713	62.1294
706.088	39.3413
709.463	22.0231
712.838	13.4288
716.212	5.22598
719.587	1.2265
722.962	0.86438
726.337	1.30505
729.712	3.8981
733.087	1.76944
736.461	0.236176
739.836	2.23871
743.211	4.73709
746.586	9.32599
749.961	9.22794
753.335	15.4876
756.71	22.7985
760.085	29.9887
763.46	39.6762
766.835	48.8625
770.21	48.3049
773.584	34.6208
776.959	25.4728
780.334	19.5888
783.709	14.6968
787.084	8.73627
790.458	5.41888
793.833	1.65765
797.208	4.41971
800.583	0.486786
803.958	1.47803
807.332	0.857269
810.707	2.2345
814.082	2.06021
817.457	5.81058
820.832	1.60288
824.207	0.603607
827.581	3.93603
830.956	1.44385
834.331	3.77643
837.706	3.48001
841.081	0.717255
844.456	2.26358
847.83	2.75177
851.205	3.185
854.58	2.88583
857.955	2.37378
861.33	8.82486
864.704	6.733
868.079	15.4356
871.454	17.8661
874.829	20.3954
878.204	29.9407
881.578	37.2895
884.953	36.6055
888.328	42.3032
891.703	48.2286
895.078	47.081
898.453	54.404
901.827	63.8236
905.202	85.9169
908.577	105.307
911.952	123.716
915.327	133.845
918.702	120.332
922.076	87.9766
925.451	66.8684
928.826	51.4023
932.201	37.9124
935.576	30.0283
938.95	20.0743
942.325	15.7354
945.7	9.8609
949.075	5.45129
952.45	3.27508
955.824	3.29602
959.199	2.4964
962.574	2.50458
965.949	4.42096
969.324	2.95117
972.698	2.60333
976.073	3.13556
979.448	1.56805
982.823	6.11993
986.198	11.2946
989.573	14.3066
992.947	33.0248
996.322	62.165
999.697	86.6985
1003.07	111.178
1006.45	136.773
1009.82	130.903
1013.2	95.5303
1016.57	56.6467
1019.95	26.7858
1023.32	19.6744
1026.7	12.0619
1030.07	12.921
1033.44	25.4727
1036.82	48.2629
1040.19	75.1051
1043.57	111.237
1046.94	183.16
1050.32	308.811
1053.69	477.593
1057.07	738.003
1060.44	1046.08
1063.82	1363.01
1067.19	1433.71
1070.57	1131.09
1073.94	760.067
1077.32	509.618
1080.69	349.247
1084.07	252.708
1087.44	182.985
1090.82	128.336
1094.19	98.9794
1097.57	74.676
1100.94	66.6748
1104.32	47.3567
1107.69	39.8923
1111.07	33.9955
1114.44	25.7094
1117.82	28.4891
1121.19	18.3602
1124.57	19.4465
1127.94	11.8379
1131.32	16.109
1134.69	14.6732
1138.07	18.0496
1141.44	1.47485
1144.81	1.19165
1148.19	1.12964
1151.56	6.40137
1154.94	4.20642
1158.31	5.30554
1161.69	3.09387
1165.06	11.864
1168.44	13.2877
1171.81	10.5724
1175.19	8.17908
1178.56	27.6554
1181.94	21.3007
1185.31	24.7056
1188.69	27.9109
1192.06	34.8672
1195.44	31.434
1198.81	27.9748
1202.19	30.7311
1205.56	27.3906
1208.94	25.089
1212.31	28.1506
1215.68	27.4421
1219.06	29.8125
1222.43	28.3973
1225.81	30.0819
1229.18	32.9417
1232.56	30.4739
1235.93	23.1824
1239.31	22.6595
1242.68	12.9987
1246.06	13.4519
1249.43	5.8186
1252.81	4.56543
1256.18	3.20923
1259.56	5.87329
1262.93	13.2148
1266.31	3.25708
1269.68	0.896973
1273.06	8.81372
1276.43	0.714844
1279.81	4.84399
