Measurement: Raman, 780 nm, unoriented, Raman Data Processed
Mineral: Beryl
Rruff sample: R050120
Ideal chemistry: Be_3_Al_2_Si_6_O_18_
Locality: Cruziero mine, San Jose, Minas Gerais, Brazil
Source: Carlos and Paulo Vasconcelos
Description: Yellow gemmy fragment
Measured chemistry: (Be_2.76_Li_0.24_)_Σ=3_Al_2.00_Si_6.00_O_18_·Na_0.24_
Raman shift (cm-1)	intensity
115.961	0
119.335	2.21546
122.71	3.79091
126.085	1.99435
129.46	2.02276
132.835	3.11943
136.209	4.33969
139.584	5.54834
142.959	3.61535
146.334	0.961643
149.709	0.901752
153.084	0.588165
156.458	0.950764
159.833	1.24232
163.208	0.498356
166.583	0.527531
169.958	0.916714
173.333	1.15366
176.707	2.75059
180.082	2.64039
183.457	3.97772
186.832	3.40784
190.207	1.6615
193.581	0.810024
196.956	0.277763
200.331	0.490337
203.706	0.697716
207.081	0.184975
210.456	1.03674
213.83	0.584717
217.205	1.0263
220.58	2.46219
223.955	3.20876
227.33	4.13581
230.704	4.87424
234.079	6.84439
237.454	6.62608
240.829	8.9964
244.204	10.4422
247.578	13.3901
250.953	14.2999
254.328	8.70909
257.703	3.08745
261.078	1.32868
264.453	0.854727
267.827	0.214928
271.202	1.50763
274.577	1.25232
277.952	1.67759
281.327	1.03417
284.702	2.41375
288.076	3.45298
291.451	4.2764
294.826	6.79487
298.201	8.35924
301.576	8.05972
304.95	8.86448
308.325	10.1547
311.7	13.4101
315.075	16.7133
318.45	24.7365
321.825	37.5501
325.199	52.9605
328.574	40.0397
331.949	17.9253
335.324	6.24264
338.699	3.11076
342.074	1.29405
345.448	0.122856
348.823	0.717287
352.198	0.356222
355.573	0.412693
358.947	0.323967
362.322	0.104933
365.697	0.437576
369.072	0.181692
372.447	0.86203
375.822	0.339615
379.197	2.05648
382.571	3.45233
385.946	5.46655
389.321	7.06916
392.696	10.5894
396.071	18.1406
399.445	27.9821
402.82	30.8862
406.195	17.1785
409.57	8.04727
412.945	4.07158
416.32	4.76656
419.694	3.64215
423.069	3.55202
426.444	2.46763
429.819	2.12502
433.194	3.04832
436.568	3.9853
439.943	6.11551
443.318	8.35304
446.693	10.0673
450.068	8.3429
453.442	5.17787
456.817	3.24557
460.192	1.77481
463.567	1.9891
466.942	1.41476
470.317	0.100346
473.691	0.488951
477.066	0.064402
480.441	0.386616
483.816	0.5026
487.191	0.379107
490.565	0.861723
493.94	0.553074
497.315	1.43755
500.69	1.70177
504.065	2.23673
507.44	2.61271
510.814	3.31766
514.189	4.02922
517.564	5.64447
520.939	7.52278
524.314	7.07985
527.688	8.45139
531.063	8.23462
534.438	9.11023
537.813	9.1615
541.188	7.35483
544.563	5.78913
547.937	4.06563
551.312	2.97535
554.687	1.9395
558.062	1.75695
561.437	1.41478
564.812	1.11867
568.186	1.38831
571.561	2.40934
574.936	2.66899
578.311	1.84072
581.686	2.36144
585.06	1.22585
588.435	0.455137
591.81	0.805804
595.185	0.148084
598.56	0.507286
601.934	0.164662
605.309	0.756765
608.684	0.265955
612.059	0.638746
615.434	1.17488
618.809	1.85306
622.183	1.42997
625.558	0.739467
628.933	0.26281
632.308	0.330131
635.683	0.330237
639.058	0.400423
642.432	1.39207
645.807	2.0563
649.182	1.93712
652.557	2.94548
655.932	3.60425
659.307	4.97644
662.681	6.54103
666.056	10.9299
669.431	18.5545
672.806	30.2494
676.181	49.2693
679.555	78.7593
682.93	138.439
686.305	225.326
689.68	198.365
693.055	99.606
696.429	49.3286
699.804	27.8239
703.179	17.2719
706.554	11.1261
709.929	7.12551
713.303	4.57451
716.678	3.44717
720.053	2.90208
723.428	1.85091
726.803	1.55199
730.178	0.818089
733.552	0.364975
736.927	0.172627
740.302	0.457347
743.677	0.165723
747.052	0.106194
750.427	0.085743
753.801	0.205784
757.176	1.40826
760.551	0.692779
763.926	1.60389
767.301	1.24397
770.676	0.968912
774.05	0.619577
777.425	1.27487
780.8	0.824368
784.175	0.827182
787.55	0.087689
790.924	0.092995
794.299	0.998136
797.674	0.256323
801.049	0.425034
804.424	0.330921
807.798	0.138879
811.173	0.093423
814.548	0.184623
817.923	0.236384
821.298	0.155605
824.673	0.82134
828.047	1.0385
831.422	0.257128
834.797	0.501565
838.172	0.778001
841.547	0.383039
844.922	1.38853
848.296	1.48397
851.671	1.36013
855.046	0.951194
858.421	1.20868
861.796	1.53803
865.17	1.26028
868.545	1.04391
871.92	0.59839
875.295	0.937956
878.67	1.46635
882.044	1.37283
885.419	0.838674
888.794	1.99944
892.169	1.03168
895.544	1.20989
898.919	1.07536
902.293	1.70229
905.668	1.932
909.043	2.18288
912.418	2.43982
915.793	2.89805
919.168	2.71631
922.542	3.25993
925.917	2.63448
929.292	2.54517
932.667	2.22035
936.042	2.40928
939.416	1.67826
942.791	1.65003
946.166	1.0924
949.541	1.1632
952.916	0.898978
956.29	0.550655
959.665	0.20324
963.04	0.123394
966.415	0.065056
969.79	0.039172
973.165	0.482223
976.539	0.302811
979.914	0.345705
983.289	0.171511
986.664	0.153057
990.039	2.07588
993.413	2.9873
996.788	5.44181
1000.16	8.62801
1003.54	12.0852
1006.91	15.2157
1010.29	16.7447
1013.66	16.6347
1017.04	13.1916
1020.41	9.44627
1023.79	5.36662
1027.16	2.97408
1030.54	1.77525
1033.91	1.53128
1037.29	1.74416
1040.66	2.95505
1044.04	5.35267
1047.41	8.87153
1050.79	15.8398
1054.16	25.0862
1057.54	39.2968
1060.91	54.4322
1064.29	67.3379
1067.66	74.0177
1071.03	71.4448
1074.41	65.4334
1077.78	51.6516
1081.16	38.3857
1084.53	27.6497
1087.91	19.1635
1091.28	13.8476
1094.66	10.0068
1098.03	7.75276
1101.41	5.86219
1104.78	4.49794
1108.16	4.18119
1111.53	5.70523
1114.91	3.77658
1118.28	3.08211
1121.66	4.17035
1125.03	3.97437
1128.41	4.02791
1131.78	3.65993
1135.16	3.92392
1138.53	5.40584
1141.91	4.91347
1145.28	4.36299
1148.65	3.74409
1152.03	3.74437
1155.4	2.33586
1158.78	1.29912
1162.15	0.180147
1165.53	0.499426
1168.9	0.798218
1172.28	0.598703
1175.65	0.107121
1179.03	0.691172
1182.4	0.839558
1185.78	0.012192
1189.15	0.283991
1192.53	1.14749
1195.9	1.93676
1199.28	1.10874
1202.65	1.87413
1206.03	1.67858
1209.4	1.99119
1212.78	1.65023
1216.15	2.55636
1219.53	2.72999
1222.9	2.69698
1226.28	2.02996
1229.65	1.1189
1233.03	1.91657
1236.4	1.29618
1239.78	0.825047
1243.15	1.03331
1246.53	1.19052
1249.9	0.794184
1253.28	0.854633
1256.65	0.597015
1260.02	0.878895
1263.4	0.604467
1266.77	1.27874
1270.15	1.14584
1273.52	0.331762
1276.9	0.939315
1280.27	1.21766
1283.65	0.053708
1287.02	0.11585
