Measurement: Raman, 532 nm, unoriented, Raman Data Processed
Mineral: Beryl
Rruff sample: R040002
Ideal chemistry: Be_3_Al_2_Si_6_O_18_
Locality: Usakos, Namibia
Source: University of Arizona Mineral Museum
Description: Light blue hexagonal prism, variety aquamarine
Measured chemistry: (Be_0.97_Li_0.03_)_3_(Al_0.97_Fe^3+^_0.03_)_2_Si_6_O_18_Î‡Na_0.01_
Raman shift (cm-1)	intensity
126.825	0
129.718	17.3797
132.611	1.35895
135.504	15.6575
138.396	80.9864
141.289	119.142
144.182	202.165
147.074	185.117
149.967	54.4186
152.86	9.91361
155.752	3.01569
158.645	17.8554
161.538	34.4401
164.43	18.2934
167.323	12.9286
170.216	27.516
173.109	22.7389
176.001	43.9103
178.894	44.8883
181.787	70.7454
184.679	84.0611
187.572	45.343
190.465	68.9313
193.357	58.1444
196.25	45.435
199.143	31.7601
202.036	37.9532
204.928	27.955
207.821	13.9584
210.714	38.1331
213.606	22.2558
216.499	30.2454
219.392	1.61386
222.285	24.264
225.177	27.4937
228.07	8.98865
230.963	15.9338
233.855	39.7445
236.748	13.4292
239.641	18.6247
242.533	33.3424
245.426	32.0223
248.319	52.6759
251.212	64.1962
254.104	106.55
256.997	28.2161
259.89	3.38193
262.782	4.17596
265.675	16.6017
268.568	4.68231
271.46	18.4926
274.353	18.9633
277.246	10.9435
280.138	40.6861
283.031	55.1468
285.924	48.5137
288.817	88.3354
291.709	70.0423
294.602	113.267
297.495	185.781
300.387	115.675
303.28	94.8024
306.173	121.697
309.065	136.354
311.958	210.086
314.851	320.791
317.743	507.772
320.636	926.504
323.529	831.006
326.422	224.644
329.314	50.2797
332.207	24.0637
335.1	7.79456
337.992	9.83966
340.885	16.0143
343.778	13.4499
346.671	17.2512
349.563	11.9727
352.456	1.81107
355.349	9.06348
358.241	17.5491
361.134	21.7553
364.027	0.444122
366.919	5.06583
369.812	11.2103
372.705	13.4943
375.598	53.9797
378.49	99.9468
381.383	220.589
384.276	211.98
387.168	288.101
390.061	520.809
392.954	936.458
395.846	1322.5
398.739	764.99
401.632	291.465
404.524	126.088
407.417	77.9225
410.31	70.8491
413.203	54.1527
416.095	50.739
418.988	89.9322
421.881	126.231
424.773	87.9751
427.666	49.6429
430.559	33.7137
433.452	16.5419
436.344	52.3816
439.237	102.301
442.13	191.454
445.022	300.479
447.915	339.722
450.808	379.749
453.7	181.792
456.593	102.87
459.486	53.6483
462.378	21.6033
465.271	7.86713
468.164	11.5164
471.057	12.1097
473.949	12.3555
476.842	20.0864
479.735	10.1428
482.627	7.0025
485.52	13.0594
488.413	30.8026
491.305	20.8051
494.198	7.91644
497.091	3.20166
499.983	3.03381
502.876	34.6245
505.769	36.2756
508.662	55.0309
511.554	65.0192
514.447	116.973
517.34	146.327
520.232	229.25
523.125	327.927
526.018	475.884
528.91	539.294
531.803	376.347
534.696	255.82
537.589	117.657
540.481	99.0191
543.374	43.5535
546.267	37.782
549.159	42.9051
552.052	7.82373
554.945	1.49365
557.837	22.1101
560.73	2.53015
563.623	2.82062
566.516	13.1111
569.408	12.4762
572.301	3.52557
575.194	26.9592
578.086	42.3715
580.979	42.602
583.872	48.9985
586.764	28.1032
589.657	22.9763
592.55	24.6165
595.443	3.86365
598.335	17.0463
601.228	8.07416
604.121	7.41583
607.013	2.6236
609.906	12.682
612.799	18.0938
615.692	46.8488
618.584	64.6651
621.477	99.9222
624.37	128.699
627.262	88.4708
630.155	22.0087
633.048	4.82422
635.94	15.8339
638.833	5.20868
641.726	13.3175
644.619	1.4751
647.511	18.3835
650.404	22.2901
653.297	43.3868
656.189	7.48944
659.082	65.2449
661.975	45.3323
664.867	98.0927
667.76	175.806
670.653	286.25
673.545	428.232
676.438	749.308
679.331	1353.16
682.224	2551.14
685.116	3420.08
688.009	1816.81
690.902	838.981
693.794	439.661
696.687	305.049
699.58	180.643
702.472	149.208
705.365	93.4125
708.258	79.2247
711.15	4.06439
714.043	19.2806
716.936	25.1829
719.829	25.8928
722.721	0.673523
725.614	16.867
728.507	40.0295
731.399	19.0461
734.292	6.93189
737.185	2.1781
740.077	24.9987
742.97	35.1102
745.863	27.3785
748.756	36.3748
751.648	5.59845
754.541	28.4936
757.434	26.743
760.326	91.8356
763.219	81.7271
766.112	110.58
769.005	141.135
771.897	156.358
774.79	118.749
777.683	82.2726
780.575	65.5883
783.468	40.4699
786.361	67.0991
789.253	57.1266
792.146	43.0101
795.039	44.9577
797.932	54.6912
800.824	31.7935
803.717	32.2468
806.61	28.2859
809.502	30.5175
812.395	23.7247
815.288	21.2834
818.18	25.4388
821.073	7.42474
823.966	47.3367
826.859	36.6409
829.751	53.8584
832.644	23.0642
835.537	37.3854
838.429	19.5127
841.322	36.2
844.215	37.6232
847.107	2.19287
850	1.58496
852.893	7.05017
855.785	38.0284
858.678	35.3574
861.571	23.1306
864.464	19.2976
867.356	1.43811
870.249	4.1485
873.142	11.342
876.034	16.0205
878.927	19.6815
881.82	5.53595
884.712	1.14972
887.605	20.9033
890.498	30.4274
893.391	26.9369
896.283	44.8069
899.176	34.5254
902.069	30.4015
904.961	39.6971
907.854	51.1286
910.747	70.4548
913.639	91.0752
916.532	120.163
919.425	143.506
922.317	109.854
925.21	94.8146
928.103	29.9747
930.996	28.2336
933.888	20.3575
936.781	12.856
939.674	28.4405
942.566	18.6237
945.459	3.09332
948.352	19.8098
951.245	18.209
954.137	9.07611
957.03	2.1394
959.923	1.33337
962.815	15.1592
965.708	8.69556
968.601	4.4046
971.493	2.72388
974.386	11.0085
977.279	18.27
980.172	3.05847
983.064	23.4872
985.957	27.4984
988.85	29.4838
991.742	57.1266
994.635	63.1438
997.528	125.845
1000.42	220.35
1003.31	308.234
1006.21	423.552
1009.1	725.715
1011.99	903.92
1014.88	741.599
1017.78	470.92
1020.67	277.134
1023.56	151.328
1026.45	125.835
1029.35	87.6606
1032.24	55.3899
1035.13	84.1797
1038.03	94.7018
1040.92	93.9724
1043.81	120.469
1046.7	146.316
1049.6	231.232
1052.49	379.622
1055.38	551.08
1058.27	834.35
1061.17	1302.24
1064.06	1933.31
1066.95	2604.96
1069.85	2542.35
1072.74	1865.88
1075.63	1219.76
1078.52	777.292
1081.42	559.622
1084.31	438.931
1087.2	314.612
1090.09	229.691
1092.99	152.657
1095.88	125.488
1098.77	93.0126
1101.66	52.578
1104.56	45.517
1107.45	35.011
1110.34	21.8335
1113.24	5.41376
1116.13	0.872925
1119.02	1.54004
1121.91	0.240051
1124.81	14.7946
1127.7	16.5738
1130.59	1.98621
1133.48	13.8966
1136.38	12.5599
1139.27	2.59405
1142.16	0.566711
1145.06	8.41187
1147.95	2.75324
1150.84	3.34381
1153.73	9.45355
1156.63	13.8057
1159.52	12.2142
1162.41	28.4675
1165.3	16.0916
1168.2	13.5916
1171.09	10.3259
1173.98	20.4261
1176.88	0.256042
1179.77	25.8872
1182.66	40.7786
1185.55	6.68964
1188.45	35.738
1191.34	47.7741
1194.23	45.7416
1197.12	22.5537
1200.02	32.9717
1202.91	44.2726
1205.8	20.7199
1208.69	30.4409
1211.59	32.087
1214.48	25.2532
1217.37	27.1155
1220.27	32.9659
1223.16	30.1252
1226.05	31.5593
1228.94	51.8044
1231.84	43.96
1234.73	39.3491
1237.62	65.8754
1240.51	86.4166
1243.41	95.2295
1246.3	100.046
1249.19	68.3609
1252.09	40.6009
1254.98	40.2396
1257.87	24.5584
1260.76	5.46039
1263.66	9.59009
1266.55	25.2629
1269.44	25.6121
1272.33	0
