Measurement: Raman, 514 nm, unoriented, Raman Data Processed
Mineral: Beryl
Rruff sample: R050305
Ideal chemistry: Be_3_Al_2_Si_6_O_18_
Locality: Conselheiro Pena, Minas Gerais, Brazil
Source: Eugene Schlepp
Description: Light blue fragment, variety aquamarine
Measured chemistry: (Be_0.91_Li_0.09_)_3_(Al_0.99_Fe^3+^_0.01_)_2_Si_6.00_O_18_Î‡Na_0.27_
Raman shift (cm-1)	intensity
94.768	0
98.947	29.209
103.124	88.926
107.3	795.023
111.473	1116.18
115.644	2049.51
119.813	2225.39
123.981	2106.45
128.146	2121.19
132.309	2307.06
136.47	2567.11
140.63	2450.58
144.787	1802.59
148.942	1451.61
153.096	1420.98
157.247	1136.97
161.396	1281.83
165.544	1201.57
169.689	1271.82
173.833	1208.7
177.974	1052.34
182.114	1120.41
186.251	927.21
190.387	791.342
194.52	730.463
198.652	571.07
202.782	420.152
206.909	462.799
211.035	541.854
215.159	82.243
219.281	136.468
223.4	288.606
227.518	431.401
231.634	400.391
235.748	613.537
239.86	712.828
243.97	997.235
248.079	1051.73
252.185	583.311
256.289	88.963
260.391	161.272
264.492	127.976
268.59	55.405
272.687	7.101
276.781	65.56
280.874	48.655
284.964	178.298
289.053	472.496
293.14	733.135
297.225	705.053
301.308	683.122
305.389	515.309
309.468	571.946
313.545	930.413
317.62	1887.5
321.693	3241.94
325.765	2600.34
329.834	1025.7
333.902	166.001
337.967	58.259
342.031	1.375
346.093	68.265
350.153	29.376
354.21	24.595
358.267	80.808
362.321	186.043
366.373	204.296
370.423	170.558
374.471	280.822
378.518	627.084
382.563	933.325
386.605	1699.21
390.646	3020.92
394.685	6116.62
398.722	9522.31
402.757	6615
406.79	3015.67
410.821	1799.34
414.851	1360.93
418.878	1332.61
422.904	1231.23
426.927	941.258
430.949	708.665
434.969	889.628
438.987	934.839
443.003	1288.2
447.018	1162.69
451.03	777.628
455.041	341.007
459.049	309.152
463.056	268.382
467.061	198.105
471.064	157.871
475.065	36.032
479.064	237.621
483.062	198.961
487.057	284.489
491.051	199.773
495.043	320.961
499.032	359.067
503.02	422.949
507.007	562.04
510.991	717.925
514.973	782.064
518.954	1178.72
522.933	1323.58
526.91	1210.45
530.885	1464.3
534.858	1578.09
538.829	1234.8
542.799	1038.52
546.766	575.205
550.732	440.77
554.696	301.291
558.658	367.779
562.618	397.172
566.576	384.501
570.533	605.791
574.488	488.099
578.44	382.017
582.391	172.936
586.341	268.902
590.288	165.829
594.233	44.679
598.177	25.361
602.119	44.121
606.059	17.087
609.997	91.364
613.933	53.348
617.868	460.007
621.801	70.55
625.731	215.452
629.66	30.522
633.588	61.708
637.513	128.099
641.437	190.74
645.358	281.032
649.278	321.164
653.196	597.836
657.113	404.233
661.027	836.652
664.94	1251.98
668.851	1937.38
672.76	3360.93
676.667	6535.81
680.572	15479.4
684.476	31214.7
688.378	26353.3
692.278	12194.4
696.176	6060.08
700.072	3784.03
703.967	2285.09
707.86	1781.56
711.751	1352.74
715.64	1118.45
719.527	1002.11
723.413	800.557
727.297	788.477
731.179	717.384
735.059	458.018
738.937	571.444
742.814	506.067
746.689	506.487
750.562	456.103
754.433	638.423
758.303	679.668
762.17	558.658
766.036	433.026
769.901	448.354
773.763	453.725
777.624	366.903
781.482	367.013
785.339	310.387
789.195	166.028
793.048	242.572
796.9	111.83
800.75	144.374
804.598	122.659
808.445	38.589
812.289	103.176
816.132	15.624
819.973	122.079
823.813	131.37
827.65	7.699
831.486	82.88
835.32	9.923
839.152	82.149
842.983	59.78
846.812	30.747
850.639	109.926
854.464	7.817
858.288	135.474
862.11	52.177
865.93	36.891
869.748	22.08
873.564	114.19
877.379	122.815
881.192	79.781
885.004	19.035
888.813	158.748
892.621	248.365
896.427	35.898
900.232	138.356
904.034	400.78
907.835	591.198
911.634	396.614
915.432	676.191
919.227	487.9
923.021	409.681
926.813	382.463
930.604	495.253
934.393	296.132
938.18	439.006
941.965	299.461
945.749	349.052
949.53	270.432
953.311	227.944
957.089	216.976
960.866	313.96
964.641	266.895
968.414	177.711
972.185	282.239
975.955	365.147
979.723	559.021
983.49	693.273
987.254	905.363
991.017	1255.98
994.779	1867.22
998.538	2892.24
1002.3	3425.28
1006.05	4373.37
1009.81	4808.18
1013.56	4695.13
1017.31	3914.8
1021.06	3209.6
1024.81	2564.41
1028.55	2057.23
1032.3	1952.73
1036.04	2040.88
1039.78	2145.73
1043.52	2417.38
1047.26	2989.56
1050.99	4041
1054.73	5561.63
1058.46	8150.44
1062.19	10806.4
1065.92	12734.5
1069.65	13086.8
1073.37	11824.2
1077.1	9892.79
1080.82	7744.46
1084.54	6367.24
1088.26	4787.13
1091.97	3734.12
1095.69	2992.51
1099.4	2775.08
1103.12	2607.76
1106.83	2252.06
1110.54	2265.62
1114.24	2321.43
1117.95	1982.17
1121.65	2298.27
1125.35	1982.33
1129.06	1858.51
1132.75	2045.64
1136.45	2164.89
1140.15	1983.85
1143.84	1922.28
1147.53	1807.93
1151.22	1532.09
1154.91	1150.27
1158.6	963.006
1162.28	598.471
1165.97	581.219
1169.65	567.205
1173.33	517.955
1177.01	508.699
1180.69	480.479
1184.36	614.045
1188.04	584.045
1191.71	573.373
1195.38	415.395
1199.05	591.064
1202.71	717.285
1206.38	566.156
1210.04	505.133
1213.71	423.994
1217.37	490.82
1221.03	375.33
1224.68	448.26
1228.34	390.238
1231.99	455.609
1235.65	278.754
1239.3	185.99
1242.95	176.537
1246.59	112.463
1250.24	261.273
1253.88	110.082
1257.53	196.752
1261.17	88.773
1264.81	42.52
1268.45	108.424
1272.08	10.518
1275.72	26.312
1279.35	13.139
1282.98	58.236
1286.61	2.297
1290.24	94.523
1293.87	66.51
1297.49	97.525
1301.11	61.988
1304.73	204.564
1308.36	155.848
1311.97	8.17
1315.59	299.506
1319.2	94.977
1322.82	79.314
1326.43	455.588
1330.04	220.891
1333.65	258.305
1337.26	262.27
1340.86	227.828
1344.47	356.389
1348.07	471.172
1351.67	488.926
1355.27	390.826
1358.87	407.318
1362.46	431.639
1366.06	465.197
1369.65	386.646
1373.24	262.135
1376.83	150.014
1380.42	305.547
1384	376.631
1387.59	255.797
1391.17	166.229
1394.75	243.299
1398.33	97.322
1401.91	45.701
1405.49	67.201
1409.06	102.717
1412.64	109.473
1416.21	126.867
1419.78	128.055
1423.35	0.326
