Measurement: Raman, 532 nm, unoriented, Raman Data Processed
Mineral: Beryllonite
Rruff sample: R070249
Ideal chemistry: NaBePO_4_
Locality: Melrose Farm Beryllonite prospects (McAllister prospects),  Stoneham, Oxford County, Maine, USA
Source: Michael Scott
Description: Two colorless single crystal fragments
Measured chemistry: Na_1.00_Be_1.00_P_1.00_O_4_; Be estimated by difference
Raman shift (cm-1)	intensity
152.554	0
155.447	34.1401
158.34	105.965
161.233	202.664
164.125	94.5584
167.018	192.234
169.911	262.937
172.803	73.3645
175.696	19.6587
178.589	21.8286
181.482	18.6638
184.374	5.25146
187.267	53.2058
190.16	98.1274
193.052	126.869
195.945	86.8838
198.838	41.4509
201.731	17.876
204.623	30.8508
207.516	43.3127
210.409	49.2859
213.301	58.5205
216.194	47.6592
219.087	91.73
221.979	141.272
224.872	205.435
227.765	240.082
230.657	395.415
233.55	391.038
236.443	200.006
239.336	130.537
242.228	60.7141
245.121	12.3862
248.014	23.8672
250.906	16.3455
253.799	4.08716
256.692	29.2842
259.584	27.4751
262.477	41.5659
265.37	72.346
268.263	75.7395
271.155	88.3958
274.048	137.603
276.941	211.744
279.833	242.797
282.726	211.688
285.619	196.177
288.512	125.805
291.404	166.677
294.297	152.125
297.19	149.261
300.082	236.142
302.975	274.39
305.868	237.283
308.76	58.8093
311.653	6.22388
314.546	6.25879
317.438	24.8271
320.331	19.9363
323.224	62.1235
326.117	48.5286
329.009	73.1313
331.902	82.1045
334.795	151.219
337.687	273.863
340.58	424.615
343.473	681.539
346.365	1101.13
349.258	1697.05
352.151	2328.72
355.044	2345.1
357.936	1597.14
360.829	876.577
363.722	501.074
366.614	264.997
369.507	103.667
372.4	80.5061
375.293	58.2766
378.185	45.7332
381.078	8.49365
383.971	24.1006
386.863	40.5352
389.756	129.166
392.649	249.556
395.541	445.173
398.434	764.771
401.327	467.864
404.219	163.699
407.112	82.7456
410.005	6.62842
412.898	38.6973
415.79	10.082
418.683	14.3677
421.576	29.4189
424.469	13.6235
427.361	47.1274
430.254	222.086
433.147	222.719
436.039	61.7705
438.932	35.5571
441.825	141.606
444.717	211.958
447.61	413.557
450.503	642.554
453.396	1048.58
456.288	1523.81
459.181	2238.23
462.074	3511.64
464.966	4617.97
467.859	3890.44
470.752	2239.62
473.644	1151.69
476.537	648.85
479.43	349.65
482.322	189.384
485.215	155.945
488.108	116.043
491.001	112.856
493.893	57.3931
496.786	16.9585
499.679	7.8335
502.571	48.8042
505.464	27.3164
508.357	60.1489
511.25	40.646
514.142	188.551
517.035	436.364
519.928	751.277
522.82	1091.62
525.713	796.391
528.606	955.829
531.498	609.522
534.391	361.896
537.284	423.918
540.177	529.892
543.069	979.398
545.962	1626.37
548.855	785.066
551.747	301.926
554.64	244.415
557.533	318.634
560.425	503.8
563.318	1023.18
566.211	1805.83
569.104	1558.37
571.996	598.106
574.889	264.606
577.782	137.53
580.674	120.753
583.567	212.622
586.46	305.324
589.352	476.43
592.245	552.136
595.138	486.641
598.031	530.632
600.923	469.012
603.816	165.371
606.709	89.48
609.601	6.65381
612.494	60.5566
615.387	5.63672
618.279	27.2817
621.172	37.2095
624.065	3.44385
626.958	5.50244
629.85	28.3115
632.743	42.5498
635.636	44.1709
638.528	5.16797
641.421	42.1323
644.314	63.8447
647.207	13.8906
650.099	24.8677
652.992	50.0151
655.885	15.3008
658.777	53.9155
661.67	93.3706
664.563	16.2837
667.455	44.4883
670.348	63.2339
673.241	23.7007
676.134	24.5786
679.026	49.9419
681.919	17.0527
684.812	104.96
687.704	48.3052
690.597	78.5239
693.49	54.2808
696.382	50.8525
699.275	81.7212
702.168	14.1172
705.061	10.541
707.953	14.0185
710.846	44.8379
713.739	9.30322
716.631	61.2134
719.524	59.252
722.417	55.9419
725.309	77.0142
728.202	0.962891
731.095	14.2598
733.987	75.2056
736.88	72.0918
739.773	96.0376
742.666	129.288
745.558	90.5303
748.451	89.4722
751.344	46.8213
754.236	30.7564
757.129	59.5444
760.022	3.69922
762.915	37.5137
765.807	81.3877
768.7	72.9614
771.593	53.2915
774.485	33.5747
777.378	86.9722
780.271	39.7944
783.163	62.7495
786.056	57.728
788.949	64.3608
791.842	9.4541
794.734	28.0161
797.627	58.0762
800.52	23.3818
803.412	46.4761
806.305	49.4966
809.198	5.88232
812.091	61.1265
814.983	66.0762
817.876	36.6802
820.769	52.4048
823.661	35.146
826.554	22.7202
829.447	51.4688
832.339	7.28174
835.232	27.7407
838.125	22.9985
841.018	23.4248
843.91	9.6626
846.803	10.7715
849.696	68.3501
852.588	0.724121
855.481	49.2871
858.374	43.1118
861.266	90.7607
864.159	37.3648
867.052	102.222
869.944	5.75928
872.837	70.2988
875.73	42.9282
878.623	86.7632
881.515	98.5791
884.408	22.354
887.301	48.5508
890.193	82.2666
893.086	76.8794
895.979	102.427
898.871	53.7837
901.764	30.4458
904.657	103.282
907.55	85.9946
910.442	39.7178
913.335	40.8926
916.228	33.5947
919.12	21.0737
922.013	19.8301
924.906	28.8535
927.798	7.15967
930.691	4.68799
933.584	10.4414
936.477	2.63525
939.369	15.4111
942.262	18.8018
945.155	20.2441
948.047	10.3721
950.94	31.7544
953.833	3.21191
956.726	17.5894
959.618	17.8711
962.511	21.0352
965.404	49.5015
968.296	102.977
971.189	121.728
974.082	215.704
976.974	179.812
979.867	291.719
982.76	377.957
985.653	581.751
988.545	734.946
991.438	1103.51
994.331	1624.38
997.223	2548.58
1000.12	4067.98
1003.01	6613.53
1005.9	10472.6
1008.79	14709.8
1011.69	14712
1014.58	9584.04
1017.47	5141.76
1020.37	3193.86
1023.26	2163.95
1026.15	1731.65
1029.04	1405.33
1031.94	1232.33
1034.83	1316.17
1037.72	1462.73
1040.61	1795.93
1043.51	2176.68
1046.4	2363
1049.29	2109.39
1052.18	1649.08
1055.08	1135.62
1057.97	826.675
1060.86	964.242
1063.76	1488.36
1066.65	1612.48
1069.54	1041.45
1072.43	572.128
1075.33	373.481
1078.22	185.709
1081.11	88.6587
1084	42.8057
1086.9	27.6475
1089.79	22.3145
1092.68	5.39014
1095.58	32.5972
1098.47	33.7471
1101.36	22.8579
1104.25	47.6885
1107.15	50.5527
1110.04	34.9399
1112.93	27.5288
1115.82	2.71484
1118.72	82.8262
1121.61	43.6035
1124.5	34.7217
1127.39	83.7754
1130.29	95.9795
1133.18	103.245
1136.07	134.88
1138.97	146.603
1141.86	242.588
1144.75	328.369
1147.64	316.02
1150.54	246.273
1153.43	155.678
1156.32	137.092
1159.21	64.1216
1162.11	109.499
1165	72.8501
1167.89	61.9966
1170.79	85.5478
1173.68	51.1421
1176.57	7.48633
1179.46	34.1597
1182.36	52.7275
1185.25	66.7153
1188.14	62.8081
1191.03	77.2197
1193.93	89.4839
1196.82	81.4282
1199.71	86.5474
1202.61	7.01514
1205.5	53.0449
1208.39	28.2637
1211.28	51.0615
1214.18	17.4678
1217.07	76.0488
1219.96	32.8477
1222.85	57.6489
1225.75	95.6123
1228.64	26.1196
1231.53	34.3882
1234.42	42.5117
1237.32	16.1626
1240.21	29.4634
1243.1	10.209
1246	89.5547
1248.89	2.00488
1251.78	50.4966
1254.67	67.209
1257.57	95.1006
1260.46	91.2617
1263.35	61.6538
1266.24	93.7993
1269.14	69.3452
1272.03	121.335
1274.92	46.1821
1277.82	48.7349
1280.71	79.8872
1283.6	120.603
1286.49	26.0161
1289.39	12.9043
1292.28	33.1216
1295.17	39.9668
1298.06	17.3101
