Measurement: Raman, 780 nm, unoriented, Raman Data Processed
Mineral: Beryl
Rruff sample: R050305
Ideal chemistry: Be_3_Al_2_Si_6_O_18_
Locality: Conselheiro Pena, Minas Gerais, Brazil
Source: Eugene Schlepp
Description: Light blue fragment, variety aquamarine
Measured chemistry: (Be_0.91_Li_0.09_)_3_(Al_0.99_Fe^3+^_0.01_)_2_Si_6.00_O_18_Î‡Na_0.27_
Raman shift (cm-1)	intensity
127.236	0
130.129	3.25581
133.021	2.63326
135.914	4.61566
138.807	4.8896
141.699	4.23377
144.592	1.2466
147.485	0.03537
150.377	0.811493
153.27	2.30142
156.163	2.51834
159.055	3.28636
161.948	4.76277
164.841	4.83897
167.734	6.6617
170.626	4.99389
173.519	7.67502
176.412	7.20932
179.304	8.33212
182.197	5.6109
185.09	4.11768
187.982	0.915871
190.875	2.73789
193.768	2.45155
196.661	1.04685
199.553	0.003731
202.446	2.03467
205.339	1.13065
208.231	0.760193
211.124	2.58579
214.017	1.0285
216.91	2.11279
219.802	3.65906
222.695	3.43582
225.588	4.54096
228.48	3.26463
231.373	7.30148
234.266	6.60941
237.158	7.53226
240.051	8.01487
242.944	8.53733
245.837	10.3893
248.729	9.76214
251.622	7.26519
254.515	7.43904
257.407	2.47874
260.3	1.6131
263.193	1.35715
266.085	2.02995
268.978	2.63213
271.871	0.996918
274.764	1.40098
277.656	2.5078
280.549	4.92682
283.442	2.47115
286.334	5.14114
289.227	7.08366
292.12	7.11815
295.012	8.67381
297.905	7.98857
300.798	7.95901
303.69	5.71405
306.583	6.95548
309.476	7.50527
312.369	8.99419
315.261	11.889
318.154	14.4944
321.047	17.8445
323.939	19.2446
326.832	16.0872
329.725	8.33733
332.618	6.40383
335.51	2.66318
338.403	0.66227
341.296	0.330559
344.188	1.88074
347.081	0.755028
349.974	0.727043
352.866	1.7402
355.759	0.918419
358.652	1.83489
361.545	0.019112
364.437	1.07939
367.33	2.01245
370.223	1.87995
373.115	4.12444
376.008	5.22704
378.901	8.75859
381.793	12.314
384.686	17.9362
387.579	23.7654
390.471	34.638
393.364	49.7777
396.257	67.2368
399.15	81.0554
402.042	70.9531
404.935	45.7726
407.828	29.1344
410.72	16.2338
413.613	16.1942
416.506	12.3368
419.399	13.2354
422.291	12.662
425.184	11.901
428.077	8.79283
430.969	6.28331
433.862	9.16144
436.755	8.89262
439.647	7.64317
442.54	9.73248
445.433	10.001
448.325	8.08495
451.218	5.01439
454.111	4.46245
457.004	3.10949
459.896	4.90157
462.789	2.57298
465.682	3.36752
468.574	1.76295
471.467	3.9091
474.36	1.03106
477.252	0.794777
480.145	1.03536
483.038	0.046432
485.931	1.47805
488.823	0.150902
491.716	1.18639
494.609	0.866547
497.501	0.335892
500.394	0.763596
503.287	2.49941
506.18	1.5906
509.072	2.09049
511.965	2.34322
514.858	3.98994
517.75	4.63007
520.643	4.6477
523.536	4.26834
526.428	4.53198
529.321	7.79241
532.214	6.99314
535.106	5.89668
537.999	2.74575
540.892	3.37368
543.785	2.12324
546.677	1.80852
549.57	3.80672
552.463	2.93243
555.355	6.22893
558.248	5.07659
561.141	2.49047
564.034	2.79547
566.926	4.78097
569.819	5.02938
572.712	6.51168
575.604	6.58979
578.497	5.23997
581.39	3.42957
584.282	1.6236
587.175	3.76512
590.068	2.20872
592.961	2.06936
595.853	0.242241
598.746	1.71785
601.639	1.36932
604.531	0.256783
607.424	1.1816
610.317	0.204475
613.209	1.8325
616.102	0.740921
618.995	0.706398
621.888	0.460274
624.78	0.24118
627.673	0.672508
630.566	0.080139
633.458	1.66115
636.351	1.43165
639.244	2.57927
642.136	1.38145
645.029	2.37909
647.922	3.26691
650.814	1.41739
653.707	3.26441
656.6	2.82854
659.493	2.93981
662.385	6.22236
665.278	9.57641
668.171	11.2717
671.063	21.3074
673.956	32.2899
676.849	48.8765
679.741	73.4902
682.634	113.139
685.527	142.088
688.42	120.523
691.312	71.2431
694.205	40.789
697.098	22.6118
699.99	14.0723
702.883	12.1681
705.776	8.72287
708.668	4.77097
711.561	5.10597
714.454	3.04877
717.347	2.05463
720.239	3.10117
723.132	0.552238
726.025	1.30983
728.917	0.431
731.81	0.101044
734.703	0.063988
737.596	1.35005
740.488	0.643661
743.381	1.24026
746.274	0.886536
749.166	1.19061
752.059	2.36504
754.952	1.96159
757.844	0.585732
760.737	0.029831
763.63	2.57504
766.523	1.62897
769.415	1.61924
772.308	2.47989
775.201	1.20826
778.093	1.40953
780.986	1.57727
783.879	1.4199
786.771	0.744759
789.664	1.10947
792.557	2.2615
795.449	3.73754
798.342	1.66471
801.235	1.22154
804.128	2.57828
807.02	2.68315
809.913	3.12078
812.806	2.29408
815.698	2.00136
818.591	2.35514
821.484	2.93073
824.376	3.93647
827.269	3.22506
830.162	3.57471
833.055	3.68869
835.947	2.77913
838.84	2.10581
841.733	5.775
844.625	4.71119
847.518	3.3859
850.411	3.85016
853.303	4.7159
856.196	2.57597
859.089	3.43178
861.982	2.49074
864.874	2.65424
867.767	3.63542
870.66	3.43771
873.552	2.41653
876.445	2.43557
879.338	0.508301
882.231	2.36099
885.123	1.32246
888.016	0.891205
890.909	1.91752
893.801	0.450684
896.694	2.07394
899.587	2.38979
902.479	1.93694
905.372	1.85052
908.265	1.26792
911.158	1.26522
914.05	1.48427
916.943	2.44666
919.836	0.694969
922.728	1.22973
925.621	2.46474
928.514	1.30351
931.406	1.81505
934.299	2.0148
937.192	0.654526
940.085	1.58885
942.977	2.28895
945.87	1.79717
948.763	1.30545
951.655	2.33154
954.548	2.49568
957.441	1.08663
960.333	0.800926
963.226	0.115166
966.119	0.365753
969.011	2.33892
971.904	0.595879
974.797	0.359207
977.69	1.17316
980.582	0.381355
983.475	0.913033
986.368	2.07727
989.26	3.17962
992.153	5.95893
995.046	6.8124
997.938	8.45179
1000.83	10.7046
1003.72	11.8174
1006.62	15.1298
1009.51	14.4175
1012.4	13.276
1015.29	10.9871
1018.19	8.84513
1021.08	6.55257
1023.97	5.09117
1026.87	1.6048
1029.76	2.73113
1032.65	0.406273
1035.54	0.911415
1038.44	1.17577
1041.33	0.722069
1044.22	2.41007
1047.11	2.58522
1050.01	6.07182
1052.9	7.78632
1055.79	13.5805
1058.68	15.7483
1061.58	21.8408
1064.47	24.5864
1067.36	25.4131
1070.26	25.5068
1073.15	21.4627
1076.04	15.6656
1078.93	14.8566
1081.83	11.303
1084.72	9.37943
1087.61	5.56477
1090.51	5.2511
1093.4	5.67236
1096.29	3.01576
1099.18	2.76727
1102.08	0.099823
1104.97	0.552849
1107.86	2.02734
1110.75	0.581841
1113.65	0.345856
1116.54	1.16488
1119.43	0.721611
1122.33	1.2164
1125.22	1.29802
1128.11	0.726791
1131	2.03954
1133.89	1.99188
1136.79	1.5439
1139.68	0.075363
1142.57	1.2578
1145.47	2.12108
1148.36	1.41959
1151.25	1.85543
1154.14	2.72675
1157.04	1.55626
1159.93	0.571266
1162.82	0.287018
1165.71	0.087479
1168.61	1.63148
1171.5	3.12369
1174.39	0.654121
1177.29	0.660294
1180.18	2.47212
1183.07	3.08076
1185.96	1.69412
1188.86	2.55531
1191.75	3.45599
1194.64	0.477013
1197.54	1.93903
1200.43	0.6716
1203.32	3.46049
1206.21	3.61431
1209.11	5.23191
1212	4.72585
1214.89	4.80683
1217.78	4.37665
1220.68	4.0957
1223.57	4.56816
1226.46	4.94106
1229.35	4.28432
1232.25	4.91536
1235.14	2.61525
1238.03	2.4075
1240.92	3.83874
1243.82	3.94191
1246.71	2.85173
1249.6	5.07831
1252.5	1.9204
1255.39	1.85266
1258.28	1.8781
1261.17	2.52995
1264.07	1.66968
1266.96	1.17593
1269.85	1.33119
1272.74	0.00647
