Measurement: Raman, 532 nm, unoriented, Raman Data Processed
Mineral: Beryl
Rruff sample: R110118
Ideal chemistry: Be_3_Al_2_Si_6_O_18_
Locality: Synthetic
Source: Gemological Institute of America
Description: A cut, pale pink (0.39ct) morganite gemstone, hydrothermally grown.
Raman shift (cm-1)	intensity
185.951	0
188.844	3.2839
191.737	3.43954
194.629	4.7366
197.522	0.096161
200.415	3.90955
203.308	9.67685
206.2	16.7589
209.093	12.1786
211.986	9.16885
214.878	3.96274
217.771	4.39905
220.664	6.35333
223.556	4.59506
226.449	0.966797
229.342	5.52805
232.234	2.27283
235.127	2.50006
238.02	7.81549
240.913	1.52387
243.805	2.18738
246.698	4.9946
249.591	6.43927
252.483	6.49854
255.376	8.37759
258.269	0.515076
261.161	1.51456
264.054	3.49011
266.947	0.016663
269.84	4.06543
272.732	6.42779
275.625	9.10513
278.518	12.6929
281.41	18.34
284.303	23.9998
287.196	31.1606
290.089	37.633
292.981	22.0359
295.874	22.5826
298.767	27.1893
301.659	22.8543
304.552	27.7813
307.445	32.6287
310.337	40.8365
313.23	59.5542
316.123	88.4793
319.015	127.255
321.908	160.586
324.801	89.2582
327.694	23.5612
330.586	7.85791
333.479	5.26682
336.372	1.46533
339.264	3.56094
342.157	3.01572
345.05	0.569733
347.942	0.713165
350.835	1.98758
353.728	2.58838
356.621	2.53982
359.513	0.646149
362.406	0.733826
365.299	0.522034
368.191	0.239777
371.084	1.33698
373.977	7.80505
376.87	14.832
379.762	23.1248
382.655	44.4984
385.548	71.9125
388.44	130.967
391.333	217.453
394.226	326.106
397.118	317.35
400.011	178.526
402.904	90.7265
405.796	53.3516
408.689	36.4496
411.582	33.0059
414.475	35.0579
417.367	52.4925
420.26	68.1603
423.153	70.1625
426.045	38.431
428.938	24.4395
431.831	13.5358
434.724	19.954
437.616	26.851
440.509	40.6566
443.402	54.3685
446.294	41.1987
449.187	30.8651
452.08	19.789
454.972	11.8116
457.865	4.83347
460.758	1.17779
463.651	3.75012
466.543	4.76202
469.436	0.998596
472.329	0.970978
475.221	5.4429
478.114	0.014954
481.007	2.32599
483.899	0.275482
486.792	4.19485
489.685	2.48886
492.577	0.995056
495.47	0.003815
498.363	0.862793
501.256	2.20325
504.148	0.311951
507.041	1.75317
509.934	0.71701
512.826	3.67252
515.719	7.18918
518.612	10.4877
521.505	13.7533
524.397	21.1774
527.29	31.3426
530.183	27.9452
533.075	17.493
535.968	9.38449
538.861	3.823
541.753	3.67133
544.646	5.86755
547.539	1.31055
550.432	3.11142
553.324	1.82947
556.217	4.84528
559.11	8.70252
562.002	9.59403
564.895	8.73166
567.788	5.02429
570.68	9.25906
573.573	10.4343
576.466	19.431
579.359	21.229
582.251	28.0283
585.144	20.2378
588.037	14.6488
590.929	12.8207
593.822	7.09195
596.715	5.68207
599.607	3.71054
602.5	3.16449
605.393	1.9292
608.285	1.70184
611.178	3.01102
614.071	4.40784
616.964	4.00058
619.856	7.21332
622.749	7.27405
625.642	8.07864
628.534	2.03137
631.427	1.09244
634.32	0.263824
637.212	1.05368
640.105	4.79282
642.998	0.460999
645.891	2.68344
648.783	1.00089
651.676	0.990234
654.569	4.41177
657.461	3.94003
660.354	8.33252
663.247	14.1745
666.139	21.7129
669.032	38.6572
671.925	67.7163
674.818	116.169
677.71	208.447
680.603	391.873
683.496	624.695
686.388	509.914
689.281	244.693
692.174	126.794
695.067	78.1787
697.959	52.7581
700.852	36.6086
703.745	21.9518
706.637	18.8118
709.53	17.6545
712.423	11.8362
715.315	8.1814
718.208	4.33133
721.101	0.329346
723.994	0.802063
726.886	5.39426
729.779	4.03824
732.672	1.14099
735.564	5.71027
738.457	0.564545
741.35	0.987701
744.242	2.95783
747.135	5.70575
750.028	1.91467
752.92	2.60461
755.813	5.58832
758.706	6.02313
761.599	6.80054
764.491	15.5916
767.384	21.366
770.277	27.0862
773.169	20.3316
776.062	12.9348
778.955	5.94992
781.847	2.76636
784.74	5.49393
787.633	0.63974
790.526	1.98846
793.418	4.56601
796.311	3.54208
799.204	1.34302
802.096	0.235291
804.989	0.681213
807.882	0.066101
810.774	1.91617
813.667	1.63736
816.56	4.06094
819.453	3.71283
822.345	2.05756
825.238	2.3508
828.131	5.0871
831.023	3.11664
833.916	2.98297
836.809	2.69455
839.702	2.9129
842.594	1.54016
845.487	0.40625
848.38	3.59293
851.272	1.11392
854.165	0.099731
857.058	2.43951
859.95	5.5618
862.843	4.12894
865.736	2.40808
868.629	0.106995
871.521	1.69217
874.414	4.64639
877.307	1.01917
880.199	0.813293
883.092	0.078156
885.985	4.58478
888.877	10.7402
891.77	6.85153
894.663	6.29272
897.556	5.00964
900.448	9.35535
903.341	11.0308
906.234	13.5263
909.126	14.6799
912.019	14.387
914.912	18.9352
917.804	12.7236
920.697	13.848
923.59	8.69894
926.482	6.99652
929.375	4.24817
932.268	5.75812
935.161	3.02887
938.053	1.79422
940.946	4.09744
943.839	0.456757
946.731	0.523041
949.624	3.24933
952.517	3.25168
955.409	0.045532
958.302	1.49603
961.195	2.79541
964.088	1.14392
966.98	0.060638
969.873	0.849091
972.766	0.687347
975.658	1.68158
978.551	2.00189
981.444	1.26654
984.337	5.16873
987.229	7.55057
990.122	7.58429
993.015	11.7202
995.907	16.7279
998.8	24.7301
1001.69	36.8573
1004.59	41.1867
1007.48	46.5339
1010.37	53.1424
1013.26	51.4955
1016.16	31.7772
1019.05	19.5151
1021.94	15.0989
1024.83	8.51981
1027.73	3.87982
1030.62	3.69315
1033.51	2.91974
1036.4	1.70395
1039.3	2.35104
1042.19	3.1243
1045.08	3.6366
1047.98	8.50586
1050.87	11.749
1053.76	19.635
1056.65	29.377
1059.55	51.666
1062.44	75.5454
1065.33	114.339
1068.22	132.087
1071.12	114.469
1074.01	77.9616
1076.9	47.2939
1079.8	37.3455
1082.69	25.7228
1085.58	21.6905
1088.47	16.834
1091.37	10.3468
1094.26	10.5979
1097.15	3.83377
1100.04	2.52878
1102.94	2.80985
1105.83	5.21765
1108.72	3.81482
1111.62	5.90839
1114.51	0.255798
1117.4	0.392456
1120.29	1.14456
1123.19	4.77084
1126.08	2.22836
1128.97	3.88385
1131.86	1.09799
1134.76	0.742615
1137.65	0.204803
1140.54	0.953857
1143.43	2.92062
1146.33	1.20889
1149.22	2.29047
1152.11	0.346161
1155.01	0.101044
1157.9	0.077057
1160.79	1.1864
1163.68	0.439453
1166.58	2.18509
1169.47	2.20096
1172.36	3.72696
1175.26	0.279419
1178.15	3.81229
1181.04	2.17978
1183.93	0.340149
1186.83	4.50772
1189.72	6.93768
1192.61	1.66272
1195.5	5.93918
1198.4	4.45084
1201.29	3.05981
1204.18	7.534
1207.07	4.78095
1209.97	8.91888
1212.86	4.37109
1215.75	5.0791
1218.64	0.854065
1221.54	5.85269
1224.43	9.49634
1227.32	9.18829
1230.22	10.5569
1233.11	15.0727
1236	18.5054
1238.89	28.5156
1241.79	45.0011
1244.68	44.761
1247.57	28.8401
1250.46	16.6825
1253.36	9.25217
1256.25	7.92361
1259.14	6.19128
1262.04	4.37137
1264.93	5.88541
1267.82	1.56146
1270.71	1.64563
1273.61	0.194763
1276.5	2.20431
1279.39	5.73489
1282.29	5.7294
1285.18	3.96005
1288.07	5.40088
1290.96	5.30325
1293.86	2.19162
1296.75	10.4991
1299.64	4.41708
1302.53	1.03388
