Measurement: Raman, 532 nm, unoriented, Raman Data Processed
Mineral: Beryllonite
Rruff sample: R100219
Ideal chemistry: NaBePO_4_
Locality: Telirio mine, Linopolis, Minas Gerais, Brazil
Source: Luiz Menezes
Description: Colorless tabular crystal fragments
Raman shift (cm-1)	intensity
136.836	0
140.211	1.37923
143.586	0.449649
146.961	0.764273
150.336	7.94682
153.71	12.6399
157.085	19.6348
160.46	53.4208
163.835	59.3785
167.21	57.5023
170.584	89.1802
173.959	25.2308
177.334	10.372
180.709	6.07599
184.084	4.18479
187.459	8.16163
190.833	18.2392
194.208	20.1387
197.583	6.0193
200.958	1.26811
204.333	1.05378
207.708	2.99588
211.082	8.3489
214.457	14.7345
217.832	15.7035
221.207	30.492
224.582	52.1226
227.956	71.3184
231.331	98.428
234.706	80.8403
238.081	43.7303
241.456	26.8112
244.831	8.69752
248.205	4.15927
251.58	0.01553
254.955	2.49813
258.33	2.1097
261.705	8.37878
265.079	15.1231
268.454	24.0832
271.829	32.0523
275.204	49.2047
278.579	69.4828
281.954	73.8097
285.328	59.3775
288.703	44.8746
292.078	45.7356
295.453	48.9186
298.828	47.3286
302.202	55.7289
305.577	61.0964
308.952	21.8918
312.327	0.086212
315.702	3.52019
319.077	3.02014
322.451	2.28728
325.826	4.97016
329.201	13.0439
332.576	28.1028
335.951	48.4829
339.325	85.3967
342.7	138.394
346.075	216.414
349.45	342.7
352.825	491.427
356.2	498.507
359.574	301.03
362.949	144.473
366.324	70.43
369.699	41.2159
373.074	23.8023
376.449	14.1383
379.823	9.04969
383.198	10.2982
386.573	20.7007
389.948	36.9464
393.323	69.5442
396.697	135.48
400.072	187.786
403.447	81.275
406.822	18.1347
410.197	3.61472
413.572	3.29595
416.946	2.49252
420.321	1.63695
423.696	5.10401
427.071	19.1418
430.446	50.6324
433.82	60.8927
437.195	19.6536
440.57	19.2619
443.945	33.5011
447.32	67.9346
450.695	138.839
454.069	248.022
457.444	368.583
460.819	585.751
464.194	944.317
467.569	967.316
470.943	595.241
474.318	267.997
477.693	136.333
481.068	69.1874
484.443	42.8733
487.818	26.0082
491.192	22.4039
494.567	8.4252
497.942	1.25803
501.317	3.59635
504.692	3.92108
508.067	0.882168
511.441	13.3674
514.816	35.4321
518.191	78.247
521.566	149.883
524.941	175.713
528.316	179.322
531.69	169.266
535.065	83.9599
538.44	84.8929
541.815	146.787
545.19	272.055
548.564	273.283
551.939	86.945
555.314	66.5773
558.689	96.261
562.064	176.038
565.438	345.89
568.813	442.259
572.188	194.155
575.563	54.156
578.938	31.1907
582.313	31.4384
585.687	48.5481
589.062	84.3333
592.437	108.528
595.812	74.7781
599.187	83.8458
602.562	57.5522
605.936	19.6588
609.311	6.89298
612.686	3.0834
616.061	1.27608
619.436	1.81316
622.81	1.24915
626.185	1.41146
629.56	0.069584
632.935	1.24378
636.31	0.623541
639.684	0.240818
643.059	1.34875
646.434	0.744415
649.809	1.73898
653.184	2.30933
656.559	2.36499
659.933	1.94475
663.308	2.68033
666.683	1.80017
670.058	4.55701
673.433	4.32001
676.808	3.06778
680.182	2.71431
683.557	5.47987
686.932	2.28317
690.307	2.49935
693.682	2.72597
697.057	4.54517
700.431	3.28997
703.806	2.7437
707.181	0.474907
710.556	1.78083
713.931	2.27237
717.305	2.49752
720.68	6.35536
724.055	7.42152
727.43	4.99828
730.805	3.16932
734.179	4.72364
737.554	11.4616
740.929	18.6675
744.304	25.8915
747.679	14.3289
751.054	8.89772
754.428	5.21664
757.803	1.76934
761.178	1.47875
764.553	2.78173
767.928	6.61484
771.303	7.01615
774.677	8.79147
778.052	4.55633
781.427	1.70149
784.802	2.25754
788.177	0.119213
791.552	0.204491
794.926	1.4934
798.301	4.00707
801.676	5.26323
805.051	6.48222
808.426	5.85043
811.8	3.98569
815.175	3.57859
818.55	2.36585
821.925	0.815805
825.3	1.29884
828.674	3.22098
832.049	2.01803
835.424	2.0546
838.799	1.8288
842.174	1.9867
845.549	3.5312
848.923	2.06956
852.298	1.49721
855.673	4.06696
859.048	4.14156
862.423	2.50651
865.798	3.02454
869.172	2.55619
872.547	5.47917
875.922	4.47155
879.297	4.56153
882.672	7.26747
886.046	5.77465
889.421	6.12014
892.796	5.65457
896.171	4.0444
899.546	4.38694
902.92	3.69367
906.295	2.69706
909.67	2.49207
913.045	0.739876
916.42	1.06834
919.795	1.31828
923.169	1.15451
926.544	1.55214
929.919	0.61816
933.294	0.465569
936.669	3.74192
940.044	1.98946
943.418	3.99564
946.793	0.115601
950.168	0.420727
953.543	1.50059
956.918	1.91825
960.293	5.96593
963.667	8.68481
967.042	13.602
970.417	17.6534
973.792	28.0873
977.167	39.0532
980.541	57.6149
983.916	82.3872
987.291	119.338
990.666	181.511
994.041	283.035
997.415	466.505
1000.79	807.12
1004.16	1369.08
1007.54	2251.86
1010.91	3076.3
1014.29	2378.97
1017.66	1201.68
1021.04	641.941
1024.41	409.752
1027.79	298.666
1031.16	230.641
1034.54	205.799
1037.91	224.332
1041.29	270.659
1044.66	337.09
1048.04	383.556
1051.41	316.342
1054.79	216.987
1058.16	148.895
1061.54	159.494
1064.91	266.467
1068.29	267.271
1071.66	144.592
1075.04	82.7749
1078.41	47.1205
1081.79	15.629
1085.16	3.63039
1088.54	0.951427
1091.91	3.15893
1095.29	3.29701
1098.66	2.2034
1102.04	2.41637
1105.41	2.38541
1108.79	0.265221
1112.16	4.57695
1115.53	1.96812
1118.91	2.3955
1122.28	1.67973
1125.66	3.65273
1129.03	4.49006
1132.41	5.98041
1135.78	11.1957
1139.16	18.973
1142.53	31.6877
1145.91	49.1159
1149.28	47.9483
1152.66	29.1952
1156.03	14.2264
1159.41	10.9794
1162.78	10.3617
1166.16	5.53684
1169.53	6.00019
1172.91	3.29333
1176.28	6.64148
1179.66	4.60211
1183.03	5.33773
1186.4	4.44643
1189.78	4.6451
1193.15	3.60834
1196.53	3.46912
1199.9	3.87405
1203.28	3.64971
1206.65	4.80891
1210.03	2.88347
1213.4	4.20912
1216.78	2.20405
1220.15	2.01581
1223.53	2.62502
1226.9	1.32332
1230.28	0.336296
1233.65	2.33886
1237.03	0.693047
1240.4	0.016563
1243.78	2.65489
1247.15	0.015879
1250.53	3.2776
1253.9	5.3994
1257.28	3.42804
1260.65	3.42354
1264.03	2.34725
1267.4	2.82737
1270.78	2.64144
1274.15	0.900513
1277.53	1.88385
1280.9	0.500839
1284.28	0.983156
1287.65	2.09301
1291.03	2.40719
1294.4	1.44269
1297.78	3.52365
1301.15	0.157743
