Measurement: Raman, 532 nm, unoriented, Raman Data Processed
Mineral: Beryl
Rruff sample: R060942
Ideal chemistry: Be_3_Al_2_Si_6_O_18_
Locality: Mingore mine, Swat Valley, Pakistan
Source: Lawrence W. Snee
Description: Green hexagonal prisms, variety emerald
Measured chemistry: (Be_2.94_Li_0.06_)_Σ=3_(Al_1.55_Mg_0.37_Fe^3+^_0.06_Cr^3+^_0.02_)_Σ=2_Si_6.00_O_18_·Na_0.42_; Be and Li not measured but estimated by stoichiometry
Raman shift (cm-1)	intensity
127.308	0
130.683	34.9741
134.058	0.457031
137.433	17.6941
140.808	84.458
144.183	103.194
147.557	132.682
150.932	49.1907
154.307	15.0859
157.682	17.3533
161.057	48.8257
164.431	74.4658
167.806	68.2581
171.181	60.2783
174.556	62.2627
177.931	76.7351
181.305	155.67
184.68	137.289
188.055	112.066
191.43	54.884
194.805	60.0342
198.179	50.1621
201.554	31.5261
204.929	54.4258
208.304	41.8188
211.679	18.8296
215.054	41.5774
218.428	45.2485
221.803	71.1265
225.178	85.2854
228.553	93.46
231.928	148.106
235.303	199.413
238.677	270.021
242.052	379.254
245.427	534.811
248.802	590.472
252.177	321.147
255.551	58.8782
258.926	24.5601
262.301	20.0376
265.676	83.4353
269.051	218.253
272.425	69.2363
275.8	34.9219
279.175	44.8433
282.55	105.508
285.925	93.5459
289.3	146.71
292.674	107.806
296.049	102.765
299.424	72.1814
302.799	93.3362
306.174	112.212
309.548	194.642
312.923	239.242
316.298	412.296
319.673	725.905
323.048	1354.16
326.422	1832.94
329.797	800.157
333.172	250.998
336.547	102.405
339.922	20.4377
343.296	22.1694
346.671	26.1819
350.046	4.22363
353.421	9.04126
356.796	4.62256
360.171	11.7471
363.545	19.2664
366.92	3.32031
370.295	8.7666
373.67	71.1675
377.045	100.018
380.419	238.252
383.794	449.978
387.169	586.929
390.544	899.485
393.919	1547.68
397.293	2698.7
400.668	3263.24
404.043	1979.3
407.418	1100.9
410.793	828.223
414.168	490.172
417.542	393.253
420.917	295.634
424.292	240.73
427.667	220.343
431.042	244.664
434.416	349.918
437.791	405.571
441.166	355.358
444.541	224.802
447.916	104.094
451.291	51.7258
454.665	47.0942
458.04	31.5488
461.415	24.8697
464.79	10.0404
468.165	8.39319
471.539	3.98975
474.914	30.3773
478.289	22.564
481.664	68.3168
485.039	58.0603
488.413	79.2627
491.788	89.0647
495.163	145.055
498.538	154.092
501.913	223.957
505.288	284.768
508.662	387.235
512.037	496.546
515.412	721.607
518.787	973.971
522.162	989.468
525.536	789.545
528.911	412.607
532.286	239.852
535.661	126.046
539.036	41.2413
542.41	30.9125
545.785	23.398
549.16	47.1598
552.535	19.2793
555.91	35.5253
559.284	95.9186
562.659	139.391
566.034	122.382
569.409	129.226
572.784	130.307
576.159	143.746
579.533	116.66
582.908	90.7468
586.283	86.1937
589.658	92.6744
593.033	75.8068
596.408	86.3696
599.782	66.165
603.157	111.175
606.532	135.949
609.907	206.62
613.282	368.193
616.656	305.285
620.031	81.283
623.406	42.1703
626.781	12.3332
630.156	20.4578
633.53	16.9561
636.905	10.9373
640.28	29.7512
643.655	9.61938
647.03	0.118896
650.404	21.0659
653.779	52.7288
657.154	99.0701
660.529	117.673
663.904	209.388
667.279	353.325
670.653	615.704
674.028	1046.62
677.403	1838.59
680.778	3397.27
684.153	6530.85
687.528	10609.7
690.902	7822.18
694.277	3657.31
697.652	1883.37
701.027	1093.97
704.402	703.677
707.776	450.918
711.151	303.909
714.526	186.709
717.901	119.566
721.276	76.302
724.65	42.9622
728.025	14.7356
731.4	6.3313
734.775	6.65247
738.15	22.3118
741.524	8.37415
744.899	4.71838
748.274	29.6116
751.649	5.79394
755.024	16.1874
758.399	39.6322
761.773	58.7018
765.148	44.0447
768.523	111.824
771.898	89.6216
775.273	96.5169
778.648	71.5012
782.022	45.3872
785.397	49.8103
788.772	30.7784
792.147	29.1794
795.521	14.1171
798.896	9.12427
802.271	16.9055
805.646	8.94519
809.021	11.0123
812.396	5.83691
815.77	6.11218
819.145	7.15442
822.52	2.91235
825.895	12.0787
829.27	17.0984
832.644	34.6482
836.019	20.9287
839.394	42.8085
842.769	25.4773
846.144	43.842
849.519	17.7122
852.893	40.8366
856.268	44.8152
859.643	16.2224
863.018	37.4712
866.393	17.1229
869.767	12.2972
873.142	29.9023
876.517	35.2313
879.892	52.6162
883.267	58.1645
886.641	51.7549
890.016	84.8452
893.391	109.154
896.766	124.582
900.141	138.974
903.516	160.389
906.89	204.905
910.265	209.237
913.64	276.623
917.015	305.168
920.39	318.954
923.764	286.406
927.139	263.667
930.514	225.786
933.889	146.793
937.264	153.392
940.639	119.695
944.013	91.6151
947.388	66.9349
950.763	35.6741
954.138	51.6095
957.513	16.2203
960.887	9.19397
964.262	17.438
967.637	0.116455
971.012	30.4893
974.387	29.3616
977.761	24.4074
981.136	29.3426
984.511	73.6313
987.886	157.789
991.261	295.8
994.635	444.24
998.01	553.27
1001.38	665.852
1004.76	696.432
1008.13	756.908
1011.51	738.204
1014.88	715.755
1018.26	572.607
1021.63	426.894
1025.01	292.974
1028.38	194.879
1031.76	111.93
1035.13	78.0833
1038.51	23.4854
1041.88	69.5591
1045.26	172.916
1048.63	332.726
1052.01	655.914
1055.38	1203.31
1058.76	1971.78
1062.13	2943.24
1065.51	3982.35
1068.88	4265.33
1072.26	4208.8
1075.63	3390.23
1079.01	2438.08
1082.38	1721.01
1085.76	1292.03
1089.13	1019.89
1092.51	815.649
1095.88	649.201
1099.26	515.836
1102.63	431.767
1106	308.925
1109.38	311.114
1112.75	319.855
1116.13	336.261
1119.5	404.807
1122.88	429.122
1126.25	441.035
1129.63	445.681
1133	369.448
1136.38	291.654
1139.75	180.132
1143.13	144.126
1146.5	87.2941
1149.88	36.5222
1153.25	49.571
1156.63	39.004
1160	23.089
1163.38	50.7858
1166.75	26.9737
1170.13	31.0681
1173.5	27.3002
1176.88	20.3004
1180.25	25.9326
1183.62	61.5432
1187	98.0201
1190.38	88.2417
1193.75	107.97
1197.12	97.0813
1200.5	118.226
1203.87	122.348
1207.25	157.184
1210.62	178.935
1214	164.77
1217.37	181.705
1220.75	98.922
1224.12	105.388
1227.5	55.3494
1230.87	24.5041
1234.25	14.2084
1237.62	31.4639
1241	33.413
1244.37	38.9186
1247.75	43.069
1251.12	22.3335
1254.5	60.3799
1257.87	40.3617
1261.25	14.9968
1264.62	24.0554
1267.99	3.85229
1271.37	54.9177
1274.74	42.416
1278.12	7.94751
1281.49	40.5821
1284.87	16.4392
1288.24	31.2117
1291.62	15.7749
1294.99	41.6627
1298.37	1.58594
