Measurement: Raman, 532 nm, unoriented, Raman Data Processed
Mineral: Beryl
Rruff sample: X080010
Ideal chemistry: Be_3_Al_2_Si_6_O_18_
Locality: Synthetic
Source: Gemological Institute of America
Description: Faceted red gemstone, 2.24 ct
Raman shift (cm-1)	intensity
119.453	0
122.828	1.84414
126.202	5.53351
129.577	9.66523
132.952	10.0895
136.327	9.50205
139.702	12.92
143.076	12.4035
146.451	11.5708
149.826	5.56353
153.201	2.15458
156.576	0.078438
159.951	0.108528
163.325	1.64175
166.7	2.40071
170.075	3.1923
173.45	5.20356
176.825	5.22987
180.199	6.59905
183.574	6.56324
186.949	7.62291
190.324	6.06177
193.699	4.10473
197.073	3.3848
200.448	1.05136
203.823	0.689644
207.198	0.64753
210.573	0.931908
213.948	1.18227
217.322	1.25976
220.697	1.82407
224.072	2.51318
227.447	1.75269
230.822	2.92921
234.196	2.49318
237.571	2.81624
240.946	5.78366
244.321	4.37441
247.696	5.61637
251.071	7.90803
254.445	7.01464
257.82	2.12368
261.195	0.154617
264.57	0.178589
267.945	1.22544
271.32	3.53956
274.694	4.35811
278.069	5.07994
281.444	8.68889
284.819	12.0132
288.193	14.9976
291.568	13.9011
294.943	9.13326
298.318	9.92347
301.693	13.1658
305.068	18.8691
308.442	28.0989
311.817	37.3637
315.192	50.5307
318.567	68.3133
321.942	75.1966
325.317	45.946
328.691	13.3712
332.066	2.45715
335.441	0.71769
338.816	0.224899
342.191	0.02206
345.565	0.257809
348.94	0.258575
352.315	0.776012
355.69	0.068695
359.065	0.883633
362.44	0.04417
365.814	0.471855
369.189	0.910267
372.564	1.43236
375.939	4.15293
379.314	10.4651
382.688	18.7898
386.063	25.7224
389.438	37.5832
392.813	58.73
396.188	76.1402
399.562	65.9481
402.937	39.9854
406.312	28.1759
409.687	26.7893
413.062	31.8586
416.437	39.422
419.811	44.8639
423.186	39.6144
426.561	27.8071
429.936	22.0053
433.311	22.6446
436.685	28.7577
440.06	39.4568
443.435	42.6544
446.81	29.104
450.185	15.3825
453.56	7.53158
456.934	4.13931
460.309	1.91091
463.684	0.917782
467.059	0.004925
470.434	0.658455
473.808	0.44125
477.183	0.316254
480.558	0.218555
483.933	1.41793
487.308	1.68079
490.683	2.21971
494.057	2.22591
497.432	3.22198
500.807	4.07349
504.182	4.79971
507.557	5.15965
510.931	6.51511
514.306	8.79865
517.681	12.0937
521.056	16.5736
524.431	19.3169
527.806	20.0338
531.18	13.8018
534.555	8.12675
537.93	4.56956
541.305	1.49216
544.68	1.02274
548.054	1.71419
551.429	0.023884
554.804	1.02519
558.179	2.42191
561.554	5.85123
564.928	6.09607
568.303	6.8407
571.678	9.51333
575.053	14.2345
578.428	16.9775
581.803	18.21
585.177	17.3014
588.552	14.7345
591.927	15.0634
595.302	13.2467
598.677	13.2179
602.052	10.9137
605.426	8.08116
608.801	5.36594
612.176	4.9429
615.551	4.6357
618.926	4.51128
622.3	2.50634
625.675	0.458889
629.05	0.415962
632.425	0.16433
635.8	0.265816
639.174	0.66161
642.549	2.87744
645.924	3.60146
649.299	2.70137
652.674	3.99347
656.048	5.29652
659.423	9.20038
662.798	16.3138
666.173	28.8893
669.548	53.7264
672.923	92.0738
676.297	142.921
679.672	224.537
683.047	328.92
686.422	323.501
689.797	168.17
693.172	81.8852
696.546	46.8505
699.921	29.9322
703.296	20.7225
706.671	11.7364
710.046	8.58108
713.42	4.50251
716.795	2.30932
720.17	0.655991
723.545	0.259888
726.92	0.037109
730.294	0.528137
733.669	0.250313
737.044	0.692963
740.419	1.58849
743.794	1.49092
747.169	3.12476
750.543	2.48774
753.918	5.80271
757.293	8.33306
760.668	13.5053
764.043	19.8968
767.418	24.8154
770.792	21.7423
774.167	13.1981
777.542	8.15451
780.917	4.37546
784.292	2.33409
787.666	1.25291
791.041	0.840736
794.416	0.054455
797.791	0.145321
801.166	0.429962
804.54	1.17732
807.915	0.434525
811.29	0.055134
814.665	0.332237
818.04	0.142311
821.415	0.293209
824.789	0.098095
828.164	0.12064
831.539	0.143307
834.914	0.887375
838.289	0.751255
841.663	0.004879
845.038	0.519199
848.413	1.24055
851.788	1.26493
855.163	0.521286
858.538	0.054058
861.912	1.05211
865.287	0.514278
868.662	0.51984
872.037	0.519417
875.412	0.090294
878.786	0.327854
882.161	1.34259
885.536	0.516666
888.911	1.61684
892.286	2.87354
895.66	4.13822
899.035	6.68263
902.41	9.82482
905.785	13.4818
909.16	17.162
912.535	20.857
915.909	22.3653
919.284	20.2691
922.659	15.437
926.034	12.2496
929.409	9.66819
932.784	7.46245
936.158	4.93326
939.533	4.24723
942.908	2.05159
946.283	0.974983
949.658	0.024239
953.032	0.519024
956.407	0.534782
959.782	0.296867
963.157	0.218369
966.532	0.732613
969.907	0.533955
973.281	1.27663
976.656	1.93748
980.031	4.00923
983.406	5.82576
986.781	7.62376
990.155	12.1314
993.53	18.1443
996.905	26.8758
1000.28	35.1937
1003.65	41.2751
1007.03	44.5898
1010.4	43.5215
1013.78	35.1714
1017.15	23.7877
1020.53	16.2964
1023.9	11.5452
1027.28	7.5884
1030.65	5.86183
1034.03	4.37587
1037.4	3.55256
1040.78	2.96279
1044.15	3.38152
1047.53	6.42414
1050.9	10.129
1054.28	17.1669
1057.65	28.0189
1061.03	42.9153
1064.4	61.0004
1067.78	67.7875
1071.15	59.6369
1074.53	43.6996
1077.9	32.1204
1081.28	21.3108
1084.65	14.9917
1088.03	10.2721
1091.4	5.9171
1094.78	4.18274
1098.15	2.01281
1101.52	1.50355
1104.9	0.580933
1108.27	0.006828
1111.65	0.163517
1115.02	0.210274
1118.4	0.302643
1121.77	0.597237
1125.15	0.034981
1128.52	0.132114
1131.9	0.670273
1135.27	1.30923
1138.65	1.60321
1142.02	2.36176
1145.4	2.19704
1148.77	1.06627
1152.15	0.527657
1155.52	0.37344
1158.9	0.334282
1162.27	0.022903
1165.65	0.406071
1169.02	0.316174
1172.4	1.76491
1175.77	2.59621
1179.14	3.02081
1182.52	2.39863
1185.89	4.53182
1189.27	4.6327
1192.64	5.02405
1196.02	5.13212
1199.39	6.00706
1202.77	6.2769
1206.14	7.05719
1209.52	8.08604
1212.89	10.3915
1216.27	12.3941
1219.64	15.5351
1223.02	19.5145
1226.39	21.6378
1229.77	21.9091
1233.14	24.7585
1236.52	26.5756
1239.89	26.4254
1243.27	20.8898
1246.64	13.4838
1250.02	9.17091
1253.39	5.95873
1256.77	3.91445
1260.14	2.97825
1263.52	1.921
1266.89	1.94897
1270.27	1.04156
1273.64	0.767429
1277.02	1.35405
1280.39	0.012398
1283.76	0.677181
1287.14	0.753124
1290.51	0.491264
1293.89	0.56221
1297.26	0.276981
1300.64	0.51107
