Measurement: Raman, 780 nm, unoriented, Raman Data Processed
Mineral: Beryllonite
Rruff sample: R060299
Ideal chemistry: NaBePO_4_
Locality: Paprok, near Kamdesh, Nuristan, Kunar Province, Afghanistan
Source: Herb Obodda
Description: Pale blue fragment
Measured chemistry: Na_1.00_Be_1.00_P_1.00_O_4_
Raman shift (cm-1)	intensity
108.729	0
112.104	0.706543
115.478	3.77173
118.853	9.23511
122.228	15.6316
125.603	20.97
128.978	55.377
132.353	102.064
135.727	41.5339
139.102	12.8728
142.477	24.3999
145.852	25.3047
149.227	16.6396
152.601	17.3225
155.976	22.4158
159.351	54.4158
162.726	41.675
166.101	14.1433
169.476	40.3315
172.85	6.59595
176.225	10.0612
179.6	3.98767
182.975	12.7627
186.35	20.3561
189.725	32.1148
193.099	73.406
196.474	115.746
199.849	56.8901
203.224	29.7631
206.599	40.3414
209.973	46.4553
213.348	70.9406
216.723	66.2385
220.098	70.1211
223.473	88.8981
226.847	135.283
230.222	215.07
233.597	218.389
236.972	129.296
240.347	105.975
243.722	52.4023
247.096	31.3043
250.471	23.6779
253.846	13.308
257.221	5.53174
260.596	14.1361
263.971	10.0245
267.345	3.60852
270.72	9.89539
274.095	16.7314
277.47	21.6912
280.845	34.8141
284.219	37.4918
287.594	32.3893
290.969	35.4441
294.344	43.9049
297.719	49.6924
301.094	67.7421
304.468	72.512
307.843	55.3867
311.218	13.6284
314.593	2.45325
317.968	1.02283
321.342	0.676758
324.717	7.7262
328.092	23.2473
331.467	54.2098
334.842	82.459
338.216	139.111
341.591	210.755
344.966	293.143
348.341	440.315
351.716	683.703
355.091	829.567
358.465	622.903
361.84	309.562
365.215	154.173
368.59	77.2073
371.965	40.5735
375.339	13.3293
378.714	5.02966
382.089	2.36365
385.464	2.85205
388.839	6.63037
392.214	1.6792
395.588	26.2023
398.963	68.5355
402.338	47.6527
405.713	5.57495
409.088	11.766
412.462	14.0082
415.837	68.2589
419.212	101.614
422.587	51.0895
425.962	43.2325
429.337	65.4147
432.711	84.0201
436.086	38.9004
439.461	46.4492
442.836	69.8141
446.211	148.172
449.586	258.506
452.96	395.091
456.335	555.369
459.71	722.193
463.085	1154.1
466.46	1473.92
469.834	1127.72
473.209	532.129
476.584	243.342
479.959	150.464
483.334	88.9383
486.709	47.0311
490.083	21.4788
493.458	5.1571
496.833	2.36885
500.208	2.12927
503.583	1.56421
506.957	3.22009
510.332	6.13782
513.707	31.8388
517.082	67.2758
520.457	150.547
523.832	212.1
527.206	212.904
530.581	287.647
533.956	164.48
537.331	106.869
540.706	152.572
544.08	285.113
547.455	408.173
550.83	208.728
554.205	127.698
557.58	94.212
560.955	65.6736
564.329	76.4747
567.704	111.377
571.079	52.2341
574.454	34.3912
577.829	57.2886
581.203	151.337
584.578	145.893
587.953	56.0569
591.328	32.4467
594.703	57.3638
598.078	108.815
601.452	125.855
604.827	58.3509
608.202	15.4388
611.577	5.45105
614.952	0.484253
618.327	5.57642
621.701	4.66138
625.076	0.318359
628.451	1.7655
631.826	0.28894
635.201	3.56824
638.575	18.7064
641.95	28.142
645.325	15.2183
648.7	13.6156
652.075	12.6422
655.449	8.32752
658.824	3.41894
662.199	3.98535
665.574	1.2168
668.949	8.99438
672.323	14.0503
675.698	10.8646
679.073	0.105957
682.448	3.6698
685.823	7.62097
689.198	4.17883
692.572	10.4702
695.947	5.97668
699.322	5.82446
702.697	10.0155
706.072	7.80371
709.447	10.954
712.821	2.33093
716.196	5.35889
719.571	11.4594
722.946	18.6511
726.321	20.4125
729.696	8.69824
733.07	8.65063
736.445	9.89075
739.82	5.66309
743.195	11.2575
746.57	5.75415
749.944	6.77527
753.319	7.8728
756.694	1.15674
760.069	3.21143
763.444	7.71948
766.818	1.62769
770.193	13.8578
773.568	13.8356
776.943	6.54761
780.318	21.3422
783.693	0.578247
787.067	10.9506
790.442	6.13769
793.817	18.8162
797.192	12.1804
800.567	19.3118
803.942	30.2771
807.316	30.1212
810.691	36.4618
814.066	36.8944
817.441	36.5687
820.816	37.8778
824.19	30.7799
827.565	39.4869
830.94	38.6071
834.315	40.1774
837.69	29.3872
841.064	36.2015
844.439	45.4692
847.814	30.948
851.189	19.4501
854.564	25.9842
857.939	32.2239
861.313	13.8972
864.688	18.2144
868.063	15.2135
871.438	20.3257
874.813	19.061
878.188	14.0239
881.562	22.5713
884.937	15.0903
888.312	10.3972
891.687	1.91772
895.062	5.51099
898.436	2.34326
901.811	17.1777
905.186	12.8014
908.561	0.036255
911.936	13.9867
915.311	10.9655
918.685	8.47998
922.06	24.3311
925.435	1.77808
928.81	1.47412
932.185	2.96985
935.559	6.14368
938.934	6.3186
942.309	5.8479
945.684	0.071777
949.059	8.74316
952.433	2.18066
955.808	0.766846
959.183	1.68689
962.558	11.3641
965.933	4.26782
969.308	18.8506
972.682	24.6904
976.057	27.8384
979.432	47.4285
982.807	70.1847
986.182	102.112
989.557	164.102
992.931	262.062
996.306	440.975
999.681	733.623
1003.06	1158.65
1006.43	1798.07
1009.8	2716.3
1013.18	2867.72
1016.55	1779.85
1019.93	884.566
1023.3	477.741
1026.68	321.286
1030.05	251.744
1033.43	251.846
1036.8	335.385
1040.18	411.783
1043.55	462.523
1046.93	528.023
1050.3	490.889
1053.68	416.577
1057.05	327.653
1060.43	254.993
1063.8	348.095
1067.18	507.276
1070.55	329.316
1073.93	195.031
1077.3	128.508
1080.68	54.8787
1084.05	18.1324
1087.43	6.83984
1090.8	17.4484
1094.18	4.28735
1097.55	6.40649
1100.93	6.54578
1104.3	2.0188
1107.67	2.37085
1111.05	32.0842
1114.42	31.4088
1117.8	19.5088
1121.17	2.44263
1124.55	5.34168
1127.92	12.3934
1131.3	0.960083
1134.67	0.82666
1138.05	12.2748
1141.42	30.9707
1144.8	47.0364
1148.17	40.0279
1151.55	24.8107
1154.92	10.8179
1158.3	3.9314
1161.67	4.46069
1165.05	7.15369
1168.42	7.54883
1171.8	14.7412
1175.17	30.4757
1178.55	21.1504
1181.92	41.8597
1185.3	24.1169
1188.67	30.5768
1192.05	14.1975
1195.42	9.14856
1198.8	0.875244
1202.17	4.68774
1205.55	7.09863
1208.92	12.3043
1212.3	12.1246
1215.67	46.7607
1219.04	19.5958
1222.42	16.2628
1225.79	8.26257
1229.17	19.1157
1232.54	11.3297
1235.92	12.5852
1239.29	6.27466
1242.67	1.18787
1246.04	6.21619
1249.42	2.03418
1252.79	5.11231
1256.17	12.7211
1259.54	6.7384
1262.92	10.7673
1266.29	10.1903
1269.67	2.48828
1273.04	39.1658
1276.42	1.07117
1279.79	43.749
1283.17	0.237061
1286.54	4.20129
