Measurement: Raman, 780 nm, unoriented, Raman Data Processed
Mineral: Beryl
Rruff sample: R110100
Ideal chemistry: Be_3_Al_2_Si_6_O_18_
Locality: Synthetic
Source: Gemological Institute of America
Description: A red, cut (0.42ct) gemstone, hydrothermally produced.
Raman shift (cm-1)	intensity
98.3531	0
101.728	0.095642
105.103	2.92975
108.478	2.10406
111.852	2.10815
115.227	8.06531
118.602	5.90894
121.977	4.74139
125.352	3.66742
128.726	8.02838
132.101	13.2067
135.476	11.7054
138.851	21.011
142.226	22.2389
145.601	14.0975
148.975	6.41769
152.35	2.52884
155.725	0.829254
159.1	0.467499
162.475	0.844757
165.85	1.92883
169.224	4.50931
172.599	4.40006
175.974	2.87549
179.349	4.93692
182.724	10.0473
186.098	8.02045
189.473	8.72946
192.848	8.04395
196.223	9.53964
199.598	5.32889
202.972	8.69293
206.347	11.8293
209.722	7.29849
213.097	6.40686
216.472	6.03821
219.847	6.30618
223.221	5.98212
226.596	7.4043
229.971	7.8443
233.346	6.23352
236.721	13.0988
240.095	10.555
243.47	9.28638
246.845	10.8611
250.22	14.907
253.595	12.3595
256.969	1.82462
260.344	0.342773
263.719	0.164612
267.094	0.504608
270.469	1.72403
273.844	2.65106
277.218	3.97931
280.593	6.0983
283.968	3.65195
287.343	6.42847
290.718	6.3779
294.092	7.02484
297.467	7.34778
300.842	9.0318
304.217	12.1709
307.592	20.3528
310.967	25.1919
314.341	41.9566
317.716	72.6936
321.091	112.905
324.466	69.0939
327.841	18.1138
331.216	6.79565
334.59	1.74429
337.965	4.29611
341.34	0.246857
344.715	1.36722
348.09	0.291168
351.464	0.387878
354.839	1.93317
358.214	3.46344
361.589	1.49622
364.964	0.493652
368.339	2.21686
371.713	3.97409
375.088	4.97968
378.463	7.61435
381.838	12.9611
385.213	10.7911
388.587	13.25
391.962	21.0168
395.337	27.5979
398.712	17.1672
402.087	7.71329
405.462	3.71594
408.836	1.12018
412.211	0.229065
415.586	2.65228
418.961	4.22775
422.336	4.518
425.71	0.440979
429.085	0.16507
432.46	2.75522
435.835	5.20233
439.21	8.51858
442.584	15.0487
445.959	18.9524
449.334	11.9724
452.709	4.31265
456.084	5.01697
459.459	3.20017
462.833	1.72928
466.208	0.312164
469.583	1.49957
472.958	2.61627
476.333	1.75699
479.707	1.80682
483.082	2.2579
486.457	1.67395
489.832	2.24689
493.207	1.65643
496.582	4.29208
499.956	4.47089
503.331	5.78198
506.706	4.73099
510.081	6.14743
513.456	9.60562
516.83	14.2395
520.205	16.2224
523.58	26.318
526.955	30.3087
530.33	20.4311
533.705	12.5416
537.079	8.09314
540.454	3.20401
543.829	1.05612
547.204	2.13266
550.579	1.62735
553.953	0.012909
557.328	1.99011
560.703	0.150635
564.078	0.303619
567.453	0.141357
570.827	0.151062
574.202	0.239197
577.577	2.88809
580.952	4.64738
584.327	4.1926
587.702	5.84586
591.076	4.65996
594.451	6.16692
597.826	7.88139
601.201	6.22523
604.576	5.97246
607.951	5.81775
611.325	4.44881
614.7	4.28877
618.075	4.13776
621.45	5.19284
624.825	4.46419
628.199	1.19105
631.574	1.60851
634.949	3.5706
638.324	3.55806
641.699	2.9875
645.073	3.68893
648.448	2.53554
651.823	3.17131
655.198	2.76947
658.573	3.87524
661.948	9.35646
665.322	17.0839
668.697	26.2863
672.072	44.6396
675.447	80.367
678.822	162.024
682.197	281.337
685.571	238.178
688.946	105.924
692.321	53.3589
695.696	28.626
699.071	17.1819
702.445	12.1816
705.82	7.12378
709.195	4.65514
712.57	2.04678
715.945	0.057587
719.319	0.595947
722.694	0.122772
726.069	0.40152
729.444	0.019135
732.819	0.716766
736.193	0.208466
739.568	0.41095
742.943	1.71158
746.318	2.54927
749.693	2.03981
753.068	0.316513
756.442	2.15608
759.817	2.59265
763.192	7.00034
766.567	7.96841
769.942	7.94818
773.317	6.04732
776.691	4.46301
780.066	4.58473
783.441	3.1293
786.816	0.443588
790.191	2.26662
793.565	3.55132
796.94	0.373199
800.315	0.953613
803.69	0.11232
807.065	2.29246
810.439	1.3392
813.814	0.422058
817.189	3.24497
820.564	2.75647
823.939	1.70754
827.314	1.18327
830.688	0.473038
834.063	0.03241
837.438	0.703888
840.813	0.907623
844.188	0.763275
847.562	1.27426
850.937	0.488495
854.312	0.388733
857.687	0.516312
861.062	0.243866
864.437	0.274353
867.811	2.48166
871.186	1.061
874.561	1.59255
877.936	0.51767
881.311	1.27467
884.686	1.07539
888.06	1.86572
891.435	2.13489
894.81	1.75809
898.185	3.60552
901.56	6.86787
904.934	7.08907
908.309	13.3964
911.684	15.2916
915.059	18.5093
918.434	19.5763
921.808	14.2181
925.183	9.06869
928.558	6.35632
931.933	6.51382
935.308	4.83656
938.683	3.70113
942.057	2.0173
945.432	0.793915
948.807	0.25885
952.182	0.571671
955.557	0.602264
958.932	0.029892
962.306	0.294495
965.681	1.59285
969.056	0.239441
972.431	0.891052
975.806	0.02832
979.18	0.294052
982.555	3.446
985.93	1.41086
989.305	4.07265
992.68	7.00812
996.054	12.6496
999.429	17.3465
1002.8	23.7329
1006.18	30.7992
1009.55	32.0389
1012.93	26.2049
1016.3	17.0716
1019.68	10.6455
1023.05	6.52377
1026.43	5.43933
1029.8	6.11307
1033.18	4.85562
1036.55	4.31869
1039.93	7.10879
1043.3	9.2453
1046.68	15.0662
1050.05	23.6657
1053.43	36.1803
1056.8	61.4861
1060.18	103.868
1063.55	159.059
1066.93	185.776
1070.3	158.29
1073.67	103.804
1077.05	68.8946
1080.42	48.2762
1083.8	38.3153
1087.17	29.3645
1090.55	17.8233
1093.92	13.0592
1097.3	5.67435
1100.67	3.7196
1104.05	2.85202
1107.42	1.95191
1110.8	1.27463
1114.17	0.143425
1117.55	0.81218
1120.92	0.491127
1124.3	0.119278
1127.67	1.63779
1131.05	0.316994
1134.42	1.91218
1137.8	1.8869
1141.17	1.68768
1144.55	2.12313
1147.92	2.01801
1151.3	0.434364
1154.67	0.133659
1158.05	0.453125
1161.42	0.02729
1164.8	0.380547
1168.17	1.58028
1171.55	0.968582
1174.92	2.31969
1178.3	1.17523
1181.67	2.27204
1185.04	0.929855
1188.42	2.18391
1191.79	2.53552
1195.17	3.14806
1198.54	2.38577
1201.92	2.80773
1205.29	3.67799
1208.67	2.29373
1212.04	2.4667
1215.42	2.68844
1218.79	3.27454
1222.17	3.95075
1225.54	6.16487
1228.92	4.35714
1232.29	2.2952
1235.67	2.55256
1239.04	2.59645
1242.42	2.6899
1245.79	1.89425
1249.17	1.08578
1252.54	1.19799
1255.91	0.497185
1259.29	1.20261
1262.66	1.01346
1266.04	2.33189
1269.41	0.98497
1272.79	0.434563
1276.16	1.14755
1279.54	0.415695
1282.91	1.00122
