Measurement: Raman, 785 nm, unoriented, Raman Data Processed
Mineral: Beryl
Rruff sample: R040002
Ideal chemistry: Be_3_Al_2_Si_6_O_18_
Locality: Usakos, Namibia
Source: University of Arizona Mineral Museum
Description: Light blue hexagonal prism, variety aquamarine
Measured chemistry: (Be_0.97_Li_0.03_)_3_(Al_0.97_Fe^3+^_0.03_)_2_Si_6_O_18_Î‡Na_0.01_
Raman shift (cm-1)	intensity
136.474	0
139.366	14.0323
142.259	12.3322
145.152	136.982
148.044	173.132
150.937	137.064
153.83	110.597
156.722	62.8667
159.615	20.2246
162.508	82.8821
165.401	94.1483
168.293	74.6268
171.186	89.1338
174.079	53.6623
176.971	92.3537
179.864	94.5597
182.757	115.327
185.649	138.504
188.542	80.7035
191.435	18.7985
194.328	94.5904
197.22	57.3102
200.113	60.8626
203.006	54.3783
205.898	14.7659
208.791	22.1638
211.684	5.21994
214.577	31.5053
217.469	38.299
220.362	41.1712
223.255	1.47635
226.147	49.7082
229.04	22.1018
231.933	13.5067
234.825	30.1957
237.718	60.4975
240.611	44.7797
243.504	35.8355
246.396	74.4202
249.289	46.7512
252.182	87.8607
255.074	143.973
257.967	25.5918
260.86	4.27896
263.752	32.8204
266.645	32.7097
269.538	13.3862
272.43	41.7332
275.323	41.0466
278.216	28.4165
281.109	55.7756
284.001	47.4962
286.894	101.864
289.787	94.5035
292.679	85.3584
295.572	152.845
298.465	200.51
301.358	157.324
304.25	137.945
307.143	183.411
310.036	276.936
312.928	404.67
315.821	741.103
318.714	1153.97
321.606	1825.58
324.499	1264.39
327.392	331.791
330.284	114.482
333.177	55.8077
336.07	18.2714
338.963	28.7877
341.855	16.1702
344.748	17.0992
347.641	21.0812
350.533	40.7743
353.426	7.55987
356.319	23.0534
359.212	22.324
362.104	46.6591
364.997	53.1377
367.889	1.32736
370.782	56.4742
373.675	60.4741
376.568	84.0008
379.46	167.89
382.353	276.871
385.246	370.75
388.138	663.169
391.031	1210.95
393.924	1938.59
396.817	2121.68
399.709	1068.95
402.602	409.991
405.495	188.003
408.387	88.392
411.28	96.8634
414.173	71.5477
417.065	70.1283
419.958	137.799
422.851	127.971
425.743	85.18
428.636	21.1746
431.529	39.2636
434.422	0.073486
437.314	59.7496
440.207	115.038
443.1	230.854
445.992	301.167
448.885	368.52
451.778	282.946
454.671	127.154
457.563	93.7173
460.456	52.3068
463.349	11.3543
466.241	17.9595
469.134	7.22839
472.027	20.3354
474.919	11.6926
477.812	8.46109
480.705	25.8326
483.598	12.555
486.49	1.05228
489.383	49.295
492.276	12.3782
495.168	20.1024
498.061	38.9995
500.954	51.489
503.846	37.1249
506.739	69.7971
509.632	62.9741
512.524	89.054
515.417	135.866
518.31	191.789
521.203	241.031
524.095	378.825
526.988	538.85
529.881	446.648
532.773	308.603
535.666	165.402
538.559	123.68
541.451	94.7032
544.344	84.2811
547.237	96.5615
550.13	3.57278
553.022	53.9961
555.915	38.8614
558.808	4.78061
561.7	15.2949
564.593	27.173
567.486	17.921
570.378	15.7115
573.271	70.5279
576.164	58.1668
579.057	35.5455
581.949	96.1406
584.842	67.3828
587.735	55.1998
590.627	92.8152
593.52	56.8331
596.413	36.5865
599.305	8.09561
602.198	50.6269
605.091	41.7249
607.984	14.3457
610.876	46.2495
613.769	30.2989
616.662	116.344
619.554	85.7661
622.447	212.917
625.34	243.022
628.232	79.4915
631.125	45.6565
634.018	27.667
636.91	30.7206
639.803	3.27304
642.696	52.1728
645.589	21.7763
648.481	23.3084
651.374	11.1244
654.267	41.6461
657.159	41.1474
660.052	85.2317
662.945	135.045
665.837	208.273
668.73	261.492
671.623	479.925
674.516	876.853
677.408	1713.04
680.301	3292.01
683.194	5432.36
686.086	4941.51
688.979	2317.48
691.872	1091.25
694.764	628.055
697.657	426.672
700.55	306.98
703.443	172.501
706.335	104.626
709.228	89.6909
712.121	71.1389
715.013	4.52054
717.906	68.5151
720.799	52.4964
723.692	19.2891
726.584	11.252
729.477	8.35919
732.37	19.4921
735.262	57.3661
738.155	1.68848
741.048	11.7242
743.94	25.141
746.833	26.3544
749.726	6.34891
752.618	56.7056
755.511	26.3485
758.404	60.7707
761.297	7.27765
764.189	80.8494
767.082	92.9367
769.975	166.603
772.867	165.784
775.76	98.3537
778.653	100.522
781.545	76.0816
784.438	36.6554
787.331	33.8137
790.223	77.7979
793.116	66.2602
796.009	37.6058
798.902	24.7385
801.794	18.4915
804.687	8.92374
807.58	44.8488
810.472	41.0717
813.365	56.4353
816.258	25.1079
819.15	43.0766
822.043	30.0774
824.936	40.5792
827.829	65.4918
830.721	72.615
833.614	106.022
836.507	31.1495
839.399	24.2504
842.292	35.9261
845.185	64.9045
848.077	76.8845
850.97	61.1307
853.863	48.085
856.756	64.9599
859.648	17.2009
862.541	4.70111
865.434	63.7737
868.326	37.1729
871.219	54.5624
874.112	57.7562
877.005	63.9367
879.897	72.0382
882.79	67.1508
885.683	15.1483
888.575	22.1313
891.468	26.7105
894.361	41.9577
897.253	26.4616
900.146	12.6063
903.039	24.9411
905.932	82.5533
908.824	90.7598
911.717	119.776
914.61	81.9137
917.502	88.6046
920.395	85.477
923.288	38.8406
926.18	60.953
929.073	61.7806
931.966	71.1306
934.858	69.2811
937.751	11.2436
940.644	38.8692
943.537	31.1372
946.429	25.0272
949.322	15.0402
952.215	9.97909
955.107	12.4749
958	20.2686
960.893	11.1872
963.785	8.97467
966.678	24.7978
969.571	44.8929
972.463	0.661255
975.356	4.83414
978.249	9.8259
981.142	24.4199
984.034	50.5055
986.927	65.4237
989.82	60.4958
992.712	8.34799
995.605	85.4271
998.498	105.685
1001.39	135.906
1004.28	238.199
1007.18	388.359
1010.07	563.001
1012.96	620.085
1015.85	442.461
1018.75	262.753
1021.64	77.6687
1024.53	63.8543
1027.42	23.5568
1030.32	100.206
1033.21	53.6234
1036.1	157.555
1039	150.988
1041.89	192.431
1044.78	299.375
1047.67	397.997
1050.57	462.393
1053.46	679.254
1056.35	1076.71
1059.24	1652.43
1062.14	2591.39
1065.03	3855.05
1067.92	4572.13
1070.82	4026.86
1073.71	2789.47
1076.6	1790.49
1079.49	1256.92
1082.39	886.117
1085.28	645.637
1088.17	473.891
1091.06	351.694
1093.96	248.368
1096.85	173.795
1099.74	90.4994
1102.63	105.531
1105.53	85.7628
1108.42	42.4041
1111.31	15.7695
1114.21	17.801
1117.1	36.5598
1119.99	27.2536
1122.88	0.910675
1125.78	3.09933
1128.67	16.5262
1131.56	3.27899
1134.45	2.26797
1137.35	14.8067
1140.24	27.4202
1143.13	35.4099
1146.03	22.1658
1148.92	20.6023
1151.81	13.295
1154.7	1.0011
1157.6	40.6975
1160.49	41.7966
1163.38	40.6777
1166.27	25.9587
1169.17	33.5728
1172.06	65.6744
1174.95	48.8144
1177.85	76.1461
1180.74	29.4655
1183.63	102.526
1186.52	67.9057
1189.42	62.0581
1192.31	77.5032
1195.2	83.2182
1198.09	37.6064
1200.99	89.4612
1203.88	54.7187
1206.77	12.6415
1209.66	2.46503
1212.56	31.5407
1215.45	18.3174
1218.34	42.8308
1221.24	43.465
1224.13	61.9207
1227.02	42.0114
1229.91	83.2459
1232.81	43.4167
1235.7	11.9437
1238.59	19.9296
1241.48	57.4136
1244.38	109.441
1247.27	85.8164
1250.16	32.5812
1253.06	11.5924
