Measurement: Raman, 780 nm, unoriented, Raman Data Processed
Mineral: Beryl
Rruff sample: R050121
Ideal chemistry: Be_3_Al_2_Si_6_O_18_
Locality: Cruziero mine, San Jose, Minas Gerais, Brazil
Source: Carlos and Paulo Vasconcelos
Description: Light blue fragment, variety aquamarine
Measured chemistry: (Be_0.96_Li_0.04_)_3_Al_2.00_Si_6.00_O_18_Î‡Na_0.09_Mg_0.03_
Raman shift (cm-1)	intensity
109.693	0
113.068	0.624067
116.443	1.98701
119.817	3.3223
123.192	4.32833
126.567	4.37598
129.942	4.39469
133.317	6.38621
136.692	9.45843
140.066	10.8101
143.441	9.89781
146.816	7.74582
150.191	2.74753
153.566	0.575857
156.94	0.03618
160.315	0.080246
163.69	0.090078
167.065	0.107103
170.44	0.856552
173.815	1.32064
177.189	2.24462
180.564	4.32054
183.939	3.95952
187.314	4.52067
190.689	4.49126
194.064	4.29371
197.438	3.27575
200.813	3.0799
204.188	2.79171
207.563	3.50826
210.938	3.16768
214.312	3.27719
217.687	2.45897
221.062	2.07992
224.437	2.24306
227.812	1.50062
231.187	1.85268
234.561	2.321
237.936	1.62319
241.311	2.46359
244.686	2.7241
248.061	2.9927
251.435	2.70862
254.81	3.43557
258.185	0.915796
261.56	0.486292
264.935	0.868974
268.31	0.204195
271.684	1.11106
275.059	1.37588
278.434	1.29669
281.809	2.66354
285.184	2.57488
288.558	3.29357
291.933	3.97075
295.308	6.79888
298.683	8.51473
302.058	8.85611
305.433	12.0557
308.807	15.1655
312.182	20.8413
315.557	30.0278
318.932	50.9205
322.307	91.2135
325.682	87.3197
329.056	28.6087
332.431	9.74114
335.806	3.82885
339.181	1.29548
342.556	0.505824
345.93	0.291824
349.305	0.299702
352.68	0.360564
356.055	0.087908
359.43	0.130754
362.805	0.990234
366.179	1.40162
369.554	2.45223
372.929	4.62919
376.304	6.12293
379.679	10.7923
383.053	16.5505
386.428	21.0008
389.803	34.9032
393.178	57.5347
396.553	82.8611
399.928	63.7301
403.302	28.7689
406.677	11.7723
410.052	5.24489
413.427	2.49068
416.802	1.68359
420.176	1.03205
423.551	1.0868
426.926	0.370933
430.301	0.209877
433.676	0.159492
437.05	0.73255
440.425	1.81405
443.8	3.67992
447.175	5.28654
450.55	5.99511
453.925	3.22706
457.299	1.42969
460.674	0.491862
464.049	0.32225
467.424	0.139607
470.799	0.097916
474.173	0.304336
477.548	0.204659
480.923	0.212707
484.298	0.073818
487.673	0.320884
491.048	0.318686
494.422	0.329226
497.797	0.603524
501.172	0.820033
504.547	0.935869
507.922	1.44273
511.296	2.1574
514.671	3.00498
518.046	4.27672
521.421	6.35872
524.796	8.38364
528.171	10.2723
531.545	8.43703
534.92	5.39456
538.295	3.61354
541.67	2.00665
545.045	1.48986
548.42	0.77631
551.794	0.487491
555.169	0.368653
558.544	0.631477
561.919	0.070157
565.294	0.307983
568.668	0.068209
572.043	0.121223
575.418	0.227334
578.793	0.076694
582.168	0.595481
585.543	0.399618
588.917	0.035916
592.292	0.133706
595.667	0.0079
599.042	0.217827
602.417	0.029522
605.791	0.438022
609.166	0.802899
612.541	1.40309
615.916	3.14424
619.291	6.51952
622.665	11.5493
626.04	9.08284
629.415	3.48286
632.79	1.52672
636.165	0.795169
639.54	1.08708
642.914	1.21075
646.289	1.00003
649.664	1.0882
653.039	2.23116
656.414	3.02044
659.789	5.03657
663.163	7.29906
666.538	14.2227
669.913	24.2985
673.288	40.9589
676.663	65.3737
680.038	117.996
683.412	223.505
686.787	280.672
690.162	139.959
693.537	59.533
696.912	30.193
700.286	18.3088
703.661	11.1193
707.036	7.46701
710.411	5.51921
713.786	3.40082
717.16	1.99363
720.535	1.5286
723.91	0.73496
727.285	0.685836
730.66	0.138558
734.034	0.007829
737.409	0.092299
740.784	0.028951
744.159	0.028492
747.534	0.047488
750.909	0.632555
754.284	0.247678
757.658	0.344419
761.033	0.43927
764.408	0.930964
767.783	1.17703
771.158	1.55143
774.532	1.0573
777.907	1.26691
781.282	0.683114
784.657	0.769759
788.032	0.142122
791.407	0.634902
794.781	0.414033
798.156	0.740098
801.531	1.09993
804.906	0.018931
808.281	0.497642
811.655	0.196365
815.03	0.186681
818.405	0.10795
821.78	0.333326
825.155	0.762397
828.529	0.130706
831.904	0.104172
835.279	0.129898
838.654	0.164925
842.029	0.301361
845.404	0.655561
848.778	0.553917
852.153	0.794391
855.528	0.956499
858.903	0.612044
862.278	1.08371
865.653	0.660586
869.027	0.670918
872.402	0.774667
875.777	1.01503
879.152	0.947165
882.527	0.950011
885.901	0.762721
889.276	0.958529
892.651	0.762908
896.026	0.712485
899.401	0.860588
902.775	1.5003
906.15	1.26285
909.525	1.31564
912.9	1.34192
916.275	1.87454
919.65	2.36437
923.024	1.78455
926.399	1.46122
929.774	1.17586
933.149	0.975328
936.524	1.48405
939.899	1.03114
943.273	1.22506
946.648	0.401062
950.023	0.610745
953.398	0.594783
956.773	0.810918
960.148	0.220525
963.522	0.161781
966.897	0.285681
970.272	0.1942
973.647	0.359138
977.021	0.204792
980.396	0.097667
983.771	0.387891
987.146	0.27759
990.521	0.214169
993.896	0.552627
997.27	1.39294
1000.64	3.30039
1004.02	6.35298
1007.39	10.9584
1010.77	14.9792
1014.14	16.4701
1017.52	11.033
1020.89	7.05527
1024.27	5.0605
1027.64	4.40908
1031.02	4.31804
1034.39	5.63697
1037.77	7.99469
1041.14	10.9069
1044.52	16.6458
1047.89	24.2731
1051.27	37.0893
1054.64	58.4613
1058.02	95.1299
1061.39	144.292
1064.77	201.703
1068.14	245.194
1071.52	224.165
1074.89	163.713
1078.27	109.883
1081.64	72.8742
1085.02	51.8349
1088.39	35.0247
1091.77	23.6365
1095.14	16.575
1098.52	11.4281
1101.89	7.00415
1105.27	4.31008
1108.64	3.0741
1112.01	1.72757
1115.39	0.514578
1118.76	1.11938
1122.14	0.349381
1125.51	0.546158
1128.89	0.851171
1132.26	0.803691
1135.64	1.58694
1139.01	3.21645
1142.39	3.10725
1145.76	3.00315
1149.14	2.3125
1152.51	1.63213
1155.89	0.094151
1159.26	0.318851
1162.64	0.682736
1166.01	0.663259
1169.39	0.273266
1172.76	0.159191
1176.14	0.097546
1179.51	0.508579
1182.88	0.87826
1186.26	1.40089
1189.63	1.12042
1193.01	1.49825
1196.38	1.48129
1199.76	1.31751
1203.13	2.28269
1206.51	1.39356
1209.88	1.47447
1213.26	1.4151
1216.63	1.06106
1220.01	1.2903
1223.38	1.13952
1226.76	1.03415
1230.13	0.882061
1233.51	0.093501
1236.88	0.764406
1240.26	1.05958
1243.63	1.16855
1247.01	0.923012
1250.38	0.452514
1253.76	0.629716
1257.13	0.427887
1260.51	0.51351
1263.88	0.171801
1267.26	0.691347
1270.63	0.714817
1274.01	0.201335
1277.38	0.7261
1280.76	0.541245
1284.13	0.134277
1287.51	0
