Measurement: Raman, 532 nm, unoriented, Raman Data Processed
Mineral: Beryl
Rruff sample: R050065
Ideal chemistry: Be_3_Al_2_Si_6_O_18_
Locality: Xuebaoding, Sichuan Province, China
Source: Rock Currier
Description: Light blue colored tabular single crystal
Measured chemistry: (Be_2.78_Li_0.22_)_Σ=3_Al_2.00_Si_6.00_O_18_·Na_0.22_
Raman shift (cm-1)	intensity
127.167	0
130.541	1.89399
133.916	3.05224
137.291	11.8774
140.666	18.436
144.041	15.2377
147.416	10.38
150.79	7.20484
154.165	5.16023
157.54	2.01148
160.915	2.16166
164.29	1.97136
167.664	0.850269
171.039	4.08961
174.414	3.73101
177.789	3.4034
181.164	5.99256
184.538	5.73635
187.913	4.5015
191.288	2.80463
194.663	1.20434
198.038	0.80748
201.412	0.72451
204.787	0.586334
208.162	0.680584
211.537	0.314449
214.912	0.068367
218.287	0.971333
221.661	2.11406
225.036	4.09877
228.411	5.07267
231.786	6.7653
235.161	8.14164
238.536	9.78479
241.91	11.6459
245.285	14.2997
248.66	15.7054
252.035	17.0553
255.41	9.28486
258.784	3.29031
262.159	0.106495
265.534	0.486885
268.909	0.052959
272.284	1.51379
275.659	1.50574
279.033	2.5619
282.408	4.72097
285.783	5.86589
289.158	8.96203
292.533	13.4123
295.907	16.2124
299.282	18.3417
302.657	19.8296
306.032	24.5004
309.407	33.9396
312.781	47.0263
316.156	64.8605
319.531	96.358
322.906	145.197
326.281	157.218
329.656	76.9788
333.03	28.5092
336.405	11.0914
339.78	4.50185
343.155	1.64504
346.53	0.744209
349.904	0.408688
353.279	0.947803
356.654	0.249279
360.029	0.181065
363.404	0.029343
366.779	0.570217
370.153	2.58799
373.528	5.24717
376.903	8.56215
380.278	15.9536
383.653	28.136
387.027	46.1358
390.402	72.9211
393.777	109.041
397.152	162.118
400.527	190.912
403.901	128.529
407.276	60.7103
410.651	30.6135
414.026	17.8532
417.401	12.3551
420.776	9.69211
424.15	7.5148
427.525	5.35216
430.9	4.62379
434.275	5.79911
437.65	9.0619
441.024	14.0177
444.399	17.435
447.774	17.5014
451.149	12.2722
454.524	8.29879
457.899	5.20133
461.273	4.06369
464.648	2.02726
468.023	1.27827
471.398	0.00713
474.773	0.458925
478.147	1.2294
481.522	0.131363
484.897	0.27072
488.272	0.3064
491.647	0.865953
495.022	0.968033
498.396	1.09352
501.771	1.39861
505.146	3.34012
508.521	3.89477
511.896	5.64055
515.27	8.43166
518.645	12.0379
522.02	14.5623
525.395	17.3999
528.77	17.8552
532.145	16.9701
535.519	15.0239
538.894	12.9656
542.269	10.0534
545.644	6.64209
549.019	3.20014
552.394	1.9284
555.768	1.17281
559.143	0.345976
562.518	0.596693
565.893	1.05401
569.268	2.1365
572.642	2.46705
576.017	4.23163
579.392	3.82147
582.767	2.42217
586.142	1.28924
589.516	0.71413
592.891	0.562939
596.266	0.480669
599.641	0.7286
603.016	0.25053
606.39	0.598158
609.765	1.23623
613.14	3.55324
616.515	8.24407
619.89	11.5308
623.265	9.30863
626.639	3.01908
630.014	1.78018
633.389	1.05471
636.764	1.68463
640.139	2.93186
643.514	3.7407
646.888	4.29637
650.263	5.75331
653.638	7.93593
657.013	9.77518
660.388	13.6017
663.762	20.2761
667.137	33.7893
670.512	60.0044
673.887	110.773
677.262	186.35
680.636	308.849
684.011	507.204
687.386	641.057
690.761	407.301
694.136	185.001
697.511	96.6259
700.885	56.7524
704.26	35.0667
707.635	22.5684
711.01	15.4727
714.385	10.5924
717.76	7.27342
721.134	4.59849
724.509	3.43133
727.884	1.89192
731.259	1.13424
734.634	0.990343
738.008	0.315493
741.383	0.283987
744.758	0.519377
748.133	0.524763
751.508	0.074986
754.882	0.06505
758.257	0.13995
761.632	1.01056
765.007	2.11447
768.382	2.27395
771.756	1.26596
775.131	1.17609
778.506	1.56266
781.881	1.24961
785.256	0.903002
788.631	0.774393
792.005	0.477516
795.38	0.148571
798.755	0.253473
802.13	0.286278
805.505	0.103605
808.88	0.490747
812.254	0.037563
815.629	0.128851
819.004	0.033358
822.379	0.124275
825.754	0.124704
829.128	0.967987
832.503	0.680273
835.878	0.593637
839.253	1.04251
842.628	1.11938
846.003	1.56971
849.377	1.49364
852.752	1.50297
856.127	1.96991
859.502	1.96401
862.877	1.67849
866.251	2.71239
869.626	2.04491
873.001	1.86128
876.376	2.33522
879.751	2.12019
883.125	2.917
886.5	3.03305
889.875	3.38157
893.25	3.42349
896.625	3.59615
900	4.09137
903.374	4.56656
906.749	6.11369
910.124	6.26383
913.499	7.00217
916.874	7.88905
920.249	8.22369
923.623	8.40521
926.998	7.84346
930.373	7.507
933.748	7.1329
937.123	6.3046
940.497	5.39751
943.872	4.2717
947.247	3.93847
950.622	3.65711
953.997	2.80687
957.371	2.49809
960.746	1.41021
964.121	1.14411
967.496	0.180601
970.871	0.346647
974.245	0.394175
977.62	1.38941
980.995	1.66856
984.37	2.33593
987.745	1.51458
991.12	0.501766
994.494	3.50272
997.869	9.17403
1001.24	16.2321
1004.62	24.3406
1007.99	32.0615
1011.37	34.4774
1014.74	29.4372
1018.12	22.1337
1021.49	14.6778
1024.87	9.27593
1028.24	7.42551
1031.62	6.1865
1034.99	9.59074
1038.37	14.4618
1041.74	24.8781
1045.12	38.9212
1048.49	64.4754
1051.87	103.269
1055.24	160.875
1058.62	234.744
1061.99	324.614
1065.37	395.755
1068.74	411.268
1072.12	373.508
1075.49	305.038
1078.87	228.323
1082.24	166.759
1085.62	115.841
1088.99	79.32
1092.36	57.5857
1095.74	41.2666
1099.11	30.3577
1102.49	24.0219
1105.86	19.2269
1109.24	14.2314
1112.61	13.4733
1115.99	13.7387
1119.36	12.7607
1122.74	13.8079
1126.11	12.1385
1129.49	14.1233
1132.86	17.1357
1136.24	20.7087
1139.61	22.1316
1142.99	23.7512
1146.36	22.3292
1149.74	19.2975
1153.11	14.4511
1156.49	8.42372
1159.86	3.2652
1163.23	0.419617
1166.61	1.36124
1169.98	1.90411
1173.36	2.04553
1176.73	1.31499
1180.11	0.829735
1183.48	0.117542
1186.86	1.17151
1190.23	1.49334
1193.61	1.83577
1196.98	3.03924
1200.36	3.77885
1203.73	4.18928
1207.11	4.01983
1210.48	4.47874
1213.86	5.21607
1217.23	5.16125
1220.61	5.89827
1223.98	6.02309
1227.36	5.81676
1230.73	5.72506
1234.11	5.17336
1237.48	3.87403
1240.86	3.2272
1244.23	3.03626
1247.61	2.37098
1250.98	2.06767
1254.36	1.97147
1257.73	2.36801
1261.11	2.17158
1264.48	1.71241
1267.86	1.69125
1271.23	1.07378
1274.6	1.60706
1277.98	1.51072
1281.35	1.53996
1284.73	1.59777
1288.1	0.588795
1291.48	0.644897
1294.85	0.226931
1298.23	0.279953
1301.6	0.335998
