Measurement: Raman, 514 nm, unoriented, Raman Data Processed
Mineral: Beryl
Rruff sample: R050120
Ideal chemistry: Be_3_Al_2_Si_6_O_18_
Locality: Cruziero mine, San Jose, Minas Gerais, Brazil
Source: Carlos and Paulo Vasconcelos
Description: Yellow gemmy fragment
Measured chemistry: (Be_2.76_Li_0.24_)_Σ=3_Al_2.00_Si_6.00_O_18_·Na_0.24_
Raman shift (cm-1)	intensity
122.592	0
126.758	124.593
130.922	561.145
135.083	949.088
139.243	1282.73
143.401	835.893
147.557	345.057
151.711	109.688
155.863	319.97
160.013	443.844
164.161	487.255
168.308	682.729
172.452	1030.72
176.594	974.904
180.734	839.801
184.872	607.164
189.008	500.49
193.143	523.354
197.275	417.284
201.405	316.219
205.534	102.108
209.66	91.964
213.784	65.566
217.907	148.147
222.027	31.565
226.146	166.108
230.263	279.6
234.377	236.788
238.49	281.786
242.601	302.92
246.709	192.909
250.816	88.047
254.921	109.551
259.024	72.05
263.125	93.093
267.224	177.334
271.321	162.073
275.416	4.332
279.51	22.604
283.601	417.385
287.69	588.795
291.778	1083.45
295.863	938.055
299.947	580.867
304.029	404.768
308.108	406.206
312.186	551.567
316.262	929.548
320.336	1511.87
324.408	1886.64
328.478	1015.37
332.546	498.8
336.612	237.127
340.677	151.488
344.739	90.1
348.799	229.994
352.858	375.912
356.915	397.016
360.969	273.791
365.022	510.207
369.073	658.668
373.122	653.361
377.169	979.793
381.215	1520.84
385.258	2063.09
389.299	3377.6
393.339	6752.78
397.376	13384.1
401.412	14194.1
405.446	7885.99
409.478	4168.2
413.508	2701.39
417.536	2408.12
421.562	2183.37
425.586	1864.71
429.609	1186.22
433.629	939.143
437.648	670.971
441.665	637.846
445.68	684.969
449.693	490.457
453.704	552.576
457.713	277.145
461.721	212.555
465.726	237.863
469.73	92.287
473.731	202.316
477.731	158.359
481.729	230.521
485.725	314.953
489.72	196
493.712	228.58
497.703	139.568
501.691	121.053
505.678	79.73
509.663	137.123
513.646	24.006
517.627	142.93
521.607	296.652
525.584	147.004
529.56	23.598
533.534	72.688
537.506	318.312
541.476	184.219
545.444	308.49
549.41	184.697
553.375	381.701
557.337	470.465
561.298	574.994
565.257	597.312
569.214	916.398
573.17	779.275
577.123	932.99
581.075	890.729
585.024	457.537
588.972	603.197
592.918	269.637
596.863	378.842
600.805	356.824
604.746	41.561
608.685	63.947
612.621	28.039
616.557	7.125
620.49	107.891
624.421	86.588
628.351	296.156
632.279	370.355
636.205	18.889
640.129	253.559
644.051	446.695
647.972	443.836
651.89	346.934
655.807	663.752
659.722	923.967
663.636	963.77
667.547	1774.58
671.457	2581.23
675.365	5040.11
679.271	11105.3
683.175	26257.8
687.077	36039.3
690.978	21184.1
694.877	10490.1
698.774	5657.29
702.669	3594.07
706.562	2909.02
710.454	2135.09
714.344	1490.4
718.232	1420.82
722.118	1200.71
726.002	1104.96
729.885	966.812
733.766	819.521
737.645	796.41
741.522	662.264
745.397	994.197
749.271	838.18
753.143	660.041
757.013	746.205
760.881	741.945
764.748	528.199
768.613	345.686
772.476	344.125
776.337	496.539
780.196	277.219
784.054	243.328
787.91	60.744
791.764	113.625
795.616	214.297
799.467	57.17
803.316	70.307
807.163	190.158
811.008	57.131
814.851	84.135
818.693	1.408
822.533	92.344
826.371	1.174
830.208	74.977
834.042	3.27
837.875	210.09
841.706	396.301
845.536	341.32
849.363	240.895
853.189	219.117
857.013	318.686
860.836	166.248
864.656	200.588
868.475	245.758
872.292	4.758
876.108	152.549
879.922	288.207
883.733	263.748
887.544	118.152
891.352	170.426
895.159	270.576
898.964	503.609
902.767	268.533
906.568	348.363
910.368	447.102
914.166	323.773
917.962	199.395
921.757	292.01
925.55	428.623
929.341	336.189
933.13	149.674
936.918	209.389
940.703	172.119
944.488	65.867
948.27	265.344
952.051	333.715
955.83	293.289
959.607	245.234
963.383	199.578
967.156	270.748
970.928	235.006
974.699	203.5
978.468	110.539
982.234	189.521
986	738.273
989.763	877.863
993.525	1048.27
997.285	1834.28
1001.04	2452.78
1004.8	2271.85
1008.55	2168.41
1012.31	2309.18
1016.06	1707.72
1019.81	1165.42
1023.56	1052.17
1027.31	766.383
1031.05	627.957
1034.79	490.891
1038.53	709.449
1042.27	678.203
1046.01	802.578
1049.75	1266.57
1053.48	1678.16
1057.22	1936.65
1060.95	2781.3
1064.68	3705.98
1068.4	4548.67
1072.13	4430.35
1075.86	4020.01
1079.58	3550.61
1083.3	2549.18
1087.02	2051.72
1090.74	1502.52
1094.45	1259.14
1098.17	1224.61
1101.88	869.195
1105.59	986.02
1109.3	624.754
1113.01	802.219
1116.71	721.773
1120.42	764.969
1124.12	809.242
1127.82	951.637
1131.52	1056.55
1135.22	821.555
1138.91	1239.41
1142.61	768.34
1146.3	1125.39
1149.99	676.727
1153.68	879.125
1157.37	375.156
1161.06	369.137
1164.74	297.27
1168.42	380.797
1172.1	242.195
1175.78	162.883
1179.46	654.066
1183.14	667.027
1186.81	547.969
1190.48	814.406
1194.15	667.395
1197.83	1145.91
1201.49	789.102
1205.16	914.66
1208.82	864.309
1212.49	810.207
1216.15	836.875
1219.81	889.707
1223.46	707.172
1227.12	888.297
1230.78	871.488
1234.43	753.277
1238.08	936.332
1241.73	768.113
1245.38	451.703
1249.03	166.051
1252.67	307.148
1256.31	34.938
1259.95	322.348
1263.6	282.391
1267.23	102.91
1270.87	234.516
1274.51	104.453
1278.14	84.879
1281.77	79.297
1285.4	215.992
1289.03	78.246
1292.66	180.199
1296.28	38.719
1299.91	136.109
1303.53	51.949
1307.15	195.672
1310.77	497.918
1314.38	184.695
1318	275.953
1321.61	393.938
1325.23	125.332
1328.84	9.762
1332.45	497.773
1336.06	386.945
1339.66	647.566
1343.27	590.699
1346.87	599.895
1350.47	767.723
1354.07	814.867
1357.67	969.742
1361.26	1055.34
1364.86	954.465
1368.45	855.484
1372.04	941.301
1375.63	638.906
1379.22	659.785
1382.81	566.48
1386.39	559.25
1389.98	474.941
1393.56	347.484
1397.14	343.102
1400.72	285.461
1404.3	337.422
1407.87	3.598
1411.45	212.316
1415.02	273.629
1418.59	216.203
1422.16	521.078
1425.73	309.535
1429.29	1.285
