Measurement: Raman, 780 nm, unoriented, Raman Data Processed
Mineral: Beryl
Rruff sample: R050065
Ideal chemistry: Be_3_Al_2_Si_6_O_18_
Locality: Xuebaoding, Sichuan Province, China
Source: Rock Currier
Description: Light blue colored tabular single crystal
Measured chemistry: (Be_2.78_Li_0.22_)_Σ=3_Al_2.00_Si_6.00_O_18_·Na_0.22_
Raman shift (cm-1)	intensity
114.996	0
118.371	2.44857
121.746	2.53081
125.121	3.17542
128.496	2.8359
131.87	2.09122
135.245	3.63752
138.62	5.46565
141.995	3.87537
145.37	2.90968
148.744	0.25898
152.119	0.139168
155.494	0.799732
158.869	0.292141
162.244	1.63761
165.619	2.23162
168.994	2.90709
172.368	2.57686
175.743	2.18485
179.118	1.96112
182.493	1.67816
185.868	1.90097
189.242	1.55492
192.617	0.299681
195.992	1.39355
199.367	1.01817
202.742	0.155457
206.117	0.298925
209.491	0.288532
212.866	0.866888
216.241	0.548737
219.616	0.757551
222.991	1.60105
226.365	3.18207
229.74	3.84122
233.115	4.75682
236.49	4.04723
239.865	5.05905
243.239	5.60447
246.614	5.81125
249.989	5.61733
253.364	5.29957
256.739	3.17027
260.114	2.34525
263.488	0.984077
266.863	2.18974
270.238	1.71077
273.613	1.36307
276.988	0.886919
280.363	1.4282
283.737	2.99251
287.112	3.64417
290.487	5.86052
293.862	7.65758
297.237	7.36597
300.611	5.76297
303.986	4.82636
307.361	5.70685
310.736	6.5245
314.111	7.70944
317.486	10.5037
320.86	16.3907
324.235	22.573
327.61	19.0213
330.985	8.15433
334.36	1.9529
337.734	0.100981
341.109	0.220278
344.484	0.188629
347.859	0.205507
351.234	0.235653
354.608	0.006622
357.983	0.09255
361.358	0.469545
364.733	0.704998
368.108	0.505716
371.483	2.14432
374.857	2.04339
378.232	5.44198
381.607	8.67768
384.982	13.4139
388.357	21.3193
391.731	31.1861
395.106	48.9468
398.481	78.7899
401.856	83.341
405.231	49.257
408.606	24.6073
411.98	14.9863
415.355	11.0665
418.73	11.2515
422.105	11.0249
425.48	9.32713
428.854	6.43977
432.229	4.00108
435.604	4.02225
438.979	4.83186
442.354	4.82852
445.729	5.87541
449.103	4.58248
452.478	2.30936
455.853	1.82582
459.228	0.523975
462.603	0.73661
465.978	0.046192
469.352	0.372071
472.727	0.254647
476.102	0.14424
479.477	0.612535
482.852	0.015236
486.226	0.06325
489.601	0.251457
492.976	0.491092
496.351	0.641997
499.726	0.259688
503.101	0.704024
506.475	0.294689
509.85	1.13964
513.225	1.14009
516.6	2.29261
519.975	3.40412
523.349	3.3224
526.724	3.91366
530.099	4.02587
533.474	3.98672
536.849	4.24688
540.224	3.42523
543.598	2.30278
546.973	1.78596
550.348	1.73187
553.723	2.49963
557.098	2.27483
560.472	3.06742
563.847	2.73758
567.222	3.09219
570.597	3.33865
573.972	4.73751
577.347	4.44024
580.721	3.8242
584.096	2.83343
587.471	2.32911
590.846	1.7884
594.221	1.12227
597.596	0.039845
600.97	0.004326
604.345	0.147458
607.72	0.274772
611.095	0.534164
614.47	0.201295
617.844	0.45373
621.219	0.867622
624.594	0.760521
627.969	0.319547
631.344	0.097909
634.718	0.252874
638.093	0.481568
641.468	0.505282
644.843	0.853903
648.218	1.14719
651.593	1.0634
654.967	1.67499
658.342	1.98957
661.717	3.41337
665.092	5.88348
668.467	9.92668
671.841	18.155
675.216	31.0413
678.591	49.6995
681.966	88.8532
685.341	156.582
688.716	168.565
692.09	91.4559
695.465	43.5221
698.84	24.1731
702.215	14.8423
705.59	10.1138
708.965	7.03476
712.339	4.68016
715.714	3.58257
719.089	2.3579
722.464	2.01547
725.839	1.62468
729.213	0.856819
732.588	1.19995
735.963	0.674635
739.338	0.409899
742.713	0.550628
746.087	0.313416
749.462	0.105985
752.837	0.149767
756.212	0.386147
759.587	1.15001
762.962	1.89246
766.336	1.81666
769.711	1.90332
773.086	0.955338
776.461	0.62252
779.836	1.31989
783.211	0.39712
786.585	0.254333
789.96	0.204977
793.335	0.892805
796.71	0.015479
800.085	0.062052
803.459	0.489812
806.834	0.134908
810.209	0.236904
813.584	0.24808
816.959	0.410617
820.333	0.126591
823.708	0.212552
827.083	0.569114
830.458	0.239073
833.833	0.859624
837.208	0.280752
840.582	0.860285
843.957	1.26594
847.332	1.1383
850.707	1.18165
854.082	0.608115
857.457	1.60952
860.831	1.20457
864.206	1.02424
867.581	0.973088
870.956	0.805776
874.331	0.629324
877.705	0.80107
881.08	1.37559
884.455	0.823948
887.83	0.921511
891.205	0.298074
894.58	0.746905
897.954	0.689948
901.329	1.38166
904.704	1.61511
908.079	2.00297
911.454	2.62639
914.828	2.10343
918.203	2.24597
921.578	2.1815
924.953	1.41205
928.328	1.2096
931.702	1.21166
935.077	1.24705
938.452	0.146034
941.827	0.56281
945.202	0.56986
948.577	0.335936
951.952	0.113084
955.326	0.173459
958.701	0.188805
962.076	0.429523
965.451	0.614968
968.826	0.05506
972.2	0.514668
975.575	0.145183
978.95	0.192998
982.325	0.8075
985.7	0.165396
989.074	1.50533
992.449	2.42146
995.824	5.05163
999.199	7.72188
1002.57	9.88511
1005.95	11.7563
1009.32	14.3652
1012.7	13.9727
1016.07	11.039
1019.45	8.40917
1022.82	4.8131
1026.2	3.24961
1029.57	2.04836
1032.95	1.65854
1036.32	0.88292
1039.7	1.33616
1043.07	1.71565
1046.45	3.09282
1049.82	5.54529
1053.2	8.30646
1056.57	14.3371
1059.95	21.34
1063.32	30.1874
1066.69	34.1645
1070.07	34.8117
1073.44	32.3293
1076.82	25.2972
1080.19	19.1122
1083.57	13.6379
1086.94	7.94961
1090.32	6.27714
1093.69	4.29392
1097.07	3.09512
1100.44	1.55364
1103.82	1.41679
1107.19	0.801984
1110.57	1.82487
1113.94	1.22887
1117.32	0.442741
1120.69	0.883673
1124.07	1.52641
1127.44	1.31233
1130.82	1.17264
1134.19	1.95541
1137.57	2.76423
1140.94	2.08219
1144.32	2.42724
1147.69	2.05069
1151.07	2.34618
1154.44	1.10703
1157.82	0.017361
1161.19	0.113176
1164.57	0.068068
1167.94	0.114872
1171.32	0.395537
1174.69	0.218779
1178.06	0.301776
1181.44	0.224186
1184.81	0.641481
1188.19	0.895
1191.56	1.4112
1194.94	1.37482
1198.31	1.06771
1201.69	1.18941
1205.06	0.765758
1208.44	1.77979
1211.81	1.38074
1215.19	1.42268
1218.56	1.59348
1221.94	1.69324
1225.31	2.00731
1228.69	1.97984
1232.06	2.70924
1235.44	1.65847
1238.81	1.27175
1242.19	1.13162
1245.56	0.732767
1248.94	0.479528
1252.31	0.352559
1255.68	0.155269
1259.06	0.434742
1262.43	0.401982
1265.81	0.627346
1269.18	0.828184
1272.56	0.280112
1275.93	0.537621
1279.31	1.28557
1282.68	0.55106
1286.06	0.147696
