Measurement: Raman, 532 nm, unoriented, Raman Data Processed
Mineral: Beryl
Rruff sample: R050347
Ideal chemistry: Be_3_Al_2_Si_6_O_18_
Locality: North Keystone, South Dakota, USA
Source: California Institute of Technology
Description: Colorless fragment
Measured chemistry: (Be_0.96_Li_0.04_)_3_Al_2.00_(Si_0.99_Al_0.01_)_6_O_18_ Î‡0.17Na
Raman shift (cm-1)	intensity
130.923	0
133.816	31.3268
136.708	50.292
139.601	60.4923
142.494	42.315
145.386	39.1356
148.279	29.3531
151.172	20.5571
154.065	9.7149
156.957	2.77399
159.85	2.47504
162.743	1.44427
165.635	5.16772
168.528	3.92023
171.421	5.06921
174.313	8.12445
177.206	9.65076
180.099	14.7527
182.992	12.2405
185.884	11.3262
188.777	16.602
191.67	11.4955
194.562	6.35736
197.455	5.6731
200.348	1.53522
203.24	0.837524
206.133	5.2467
209.026	3.05524
211.918	3.33307
214.811	4.88361
217.704	7.51636
220.596	9.8797
223.489	7.04333
226.382	4.99182
229.275	9.34106
232.167	10.9173
235.06	13.0424
237.953	10.2433
240.845	19.2028
243.738	22.4224
246.631	26.2873
249.524	27.5835
252.416	31.6315
255.309	17.3548
258.202	3.43726
261.094	0.354858
263.987	2.01941
266.88	4.41162
269.772	4.4184
272.665	2.81049
275.558	9.05987
278.451	15.0279
281.343	20.2136
284.236	23.0828
287.129	26.3531
290.021	38.2966
292.914	40.6198
295.807	48.4228
298.7	51.2364
301.592	57.5844
304.485	66.3058
307.378	83.7495
310.27	106.193
313.163	136.757
316.056	172.773
318.948	238.917
321.841	319.544
324.734	295.223
327.627	139.131
330.519	54.2215
333.412	26.4861
336.305	10.5159
339.197	3.64185
342.09	1.26434
344.983	3.73578
347.875	0.122986
350.768	0.954895
353.661	2.36401
356.553	1.41815
359.446	3.13861
362.339	0.318237
365.231	3.46576
368.124	7.6156
371.017	11.5029
373.91	19.9852
376.802	25.4373
379.695	51.9431
382.588	70.6566
385.48	93.2388
388.373	122.045
391.266	166.903
394.159	225.361
397.051	256.36
399.944	201.363
402.837	119.623
405.729	62.9759
408.622	37.4609
411.515	24.8152
414.407	18.3464
417.3	19.1807
420.193	24.4678
423.086	24.9274
425.978	14.9915
428.871	11.868
431.764	17.1062
434.656	20.5628
437.549	30.565
440.442	42.4891
443.334	51.0126
446.227	60.1706
449.12	55.5341
452.012	40.629
454.905	23.4045
457.798	16.1926
460.691	9.68329
463.583	2.49341
466.476	3.6449
469.369	3.57123
472.261	1.07593
475.154	0.900452
478.047	1.08954
480.94	0.546814
483.832	0.520203
486.725	2.49579
489.618	0.123962
492.51	1.21814
495.403	4.11047
498.296	2.10944
501.188	7.61865
504.081	5.75537
506.974	12.9329
509.866	17.0088
512.759	27.535
515.652	42.0422
518.545	49.558
521.437	67.5045
524.33	79.4814
527.223	79.3576
530.115	68.3637
533.008	58.8053
535.901	47.7837
538.794	36.5042
541.686	29.913
544.579	18.2589
547.472	16.512
550.364	9.65662
553.257	5.75665
556.15	8.30591
559.043	3.67981
561.935	0.87146
564.828	6.40655
567.721	5.3288
570.613	4.69336
573.506	5.15869
576.399	10.0806
579.291	9.22815
582.184	12.3251
585.077	4.97858
587.969	3.84491
590.862	1.02246
593.755	0.643494
596.648	5.77606
599.54	1.18164
602.433	1.90472
605.326	2.92071
608.218	0.497803
611.111	4.79199
614.004	12.8587
616.896	21.2529
619.789	30.7147
622.682	30.3374
625.574	10.6144
628.467	4.34521
631.36	2.33728
634.253	1.86523
637.145	1.80176
640.038	5.01129
642.931	0.963135
645.823	5.79419
648.716	2.63745
651.609	10.5115
654.501	14.0373
657.394	26.0975
660.287	35.6702
663.18	56.0933
666.072	89.9516
668.965	146.397
671.858	246.91
674.75	377.288
677.643	566.608
680.536	862.804
683.428	1177.14
686.321	1195.04
689.214	733.414
692.107	364.327
694.999	200.541
697.892	125.686
700.785	81.6937
703.677	54.7997
706.57	41.9179
709.463	27.2173
712.356	22.628
715.248	13.2281
718.141	9.37299
721.034	6.99744
723.926	0.597412
726.819	2.40686
729.712	4.5014
732.604	0.546692
735.497	1.75934
738.39	2.4696
741.283	2.53046
744.175	0.784302
747.068	0.013245
749.961	1.38031
752.853	3.94067
755.746	3.86615
758.639	6.45673
761.531	12.0437
764.424	16.9712
767.317	17.9215
770.21	12.5039
773.102	11.5229
775.995	7.44568
778.888	4.72601
781.78	3.05902
784.673	7.01477
787.566	2.53705
790.458	2.45337
793.351	6.96716
796.244	4.69653
799.136	0.718323
802.029	2.46045
804.922	2.44562
807.815	5.43298
810.707	4.40735
813.6	2.67346
816.493	1.7926
819.385	0.555908
822.278	1.00256
825.171	4.39032
828.063	0.375244
830.956	0.384766
833.849	5.0105
836.742	1.85358
839.634	1.10089
842.527	1.87213
845.42	2.44147
848.312	4.62915
851.205	2.47852
854.098	8.03882
856.99	6.7337
859.883	3.90332
862.776	5.67242
865.669	8.44104
868.561	7.38471
871.454	8.40393
874.347	4.08801
877.239	5.78149
880.132	6.93072
883.025	5.42474
885.918	5.35431
888.81	13.0381
891.703	9.61456
894.596	6.67639
897.488	8.14008
900.381	16.104
903.274	13.0605
906.166	17.5421
909.059	20.7876
911.952	20.3984
914.845	22.5497
917.737	23.4112
920.63	22.5541
923.523	19.0467
926.415	19.8346
929.308	15.467
932.201	11.8443
935.093	12.031
937.986	7.37445
940.879	8.46228
943.771	4.44916
946.664	4.54413
949.557	3.57342
952.45	1.0556
955.342	0.664612
958.235	0.52478
961.128	3.19
964.02	1.09412
966.913	0.657715
969.806	0.910156
972.698	1.8017
975.591	2.55292
978.484	0.473328
981.377	0.353394
984.269	0.388794
987.162	4.31128
990.055	10.5369
992.947	19.6798
995.84	33.0809
998.733	48.5803
1001.63	72.3571
1004.52	104.419
1007.41	131.877
1010.3	151.419
1013.2	143.767
1016.09	104.708
1018.98	70.1102
1021.87	43.6952
1024.77	31.123
1027.66	19.0343
1030.55	23.0721
1033.44	20.7496
1036.34	31.9657
1039.23	45.558
1042.12	59.1117
1045.02	94.4512
1047.91	142.312
1050.8	208.787
1053.69	309.295
1056.59	445.531
1059.48	617.01
1062.37	792.871
1065.27	927.609
1068.16	916.542
1071.05	800.28
1073.94	632.991
1076.84	482.638
1079.73	353.024
1082.62	257.329
1085.51	190.911
1088.41	131.833
1091.3	91.2956
1094.19	66.1183
1097.09	46.5961
1099.98	36.1606
1102.87	25.6211
1105.76	15.5968
1108.65	10.0991
1111.55	7.43823
1114.44	0.373535
1117.33	0.064941
1120.23	0.596558
1123.12	0.42041
1126.01	3.23474
1128.9	7.50305
1131.8	12.6282
1134.69	20.1614
1137.58	24.9557
1140.47	29.6655
1143.37	29.6239
1146.26	31.8189
1149.15	24.2548
1152.05	12.5998
1154.94	7.28015
1157.83	0.331421
1160.72	5.11462
1163.62	1.66565
1166.51	1.17371
1169.4	1.05554
1172.3	1.13696
1175.19	0.883057
1178.08	0.213013
1180.97	2.08386
1183.87	2.94324
1186.76	2.54297
1189.65	6.12744
1192.54	7.4436
1195.44	8.46155
1198.33	5.96594
1201.22	8.79858
1204.12	3.9176
1207.01	12.9587
1209.9	5.30872
1212.79	7.80676
1215.68	13.0692
1218.58	11.512
1221.47	11.4657
1224.36	11.5322
1227.26	9.61865
1230.15	12.1714
1233.04	21.2723
1235.93	18.5951
1238.83	11.1798
1241.72	6.85889
1244.61	5.64661
1247.51	7.92871
1250.4	7.76208
1253.29	14.2565
1256.18	4.52539
1259.08	0.060425
1261.97	3.88928
1264.86	4.27564
1267.75	2.01685
1270.65	9.41577
1273.54	6.63574
1276.43	0
