Measurement: Raman, 780 nm, unoriented, Raman Data Processed
Mineral: Beryl
Rruff sample: R110118
Ideal chemistry: Be_3_Al_2_Si_6_O_18_
Locality: Synthetic
Source: Gemological Institute of America
Description: A cut, pale pink (0.39ct) morganite gemstone, hydrothermally grown.
Raman shift (cm-1)	intensity
156.689	0
159.582	2.18808
162.475	4.08231
165.367	10.3626
168.26	19.6686
171.153	22.426
174.046	29.9813
176.938	42.077
179.831	56.5782
182.724	71.2513
185.616	77.4057
188.509	74.6483
191.402	78.3957
194.294	73.8141
197.187	69.7258
200.08	72.5485
202.972	79.1112
205.865	79.6776
208.758	79.7464
211.651	74.6293
214.543	68.3628
217.436	59.6803
220.329	44.4976
223.221	36.6951
226.114	27.9723
229.007	20.5781
231.899	18.6816
234.792	14.0624
237.685	12.7189
240.578	9.38806
243.47	13.9299
246.363	11.5006
249.256	14.8939
252.148	15.094
255.041	17.602
257.934	4.68837
260.827	1.80997
263.719	1.46854
266.612	0.998199
269.505	0.954803
272.397	1.30655
275.29	3.25839
278.183	8.60187
281.075	14.6321
283.968	19.7724
286.861	33.9799
289.753	45.2423
292.646	38.1572
295.539	41.2954
298.432	53.806
301.324	35.7055
304.217	35.1474
307.11	38.4727
310.002	45.1866
312.895	63.1358
315.788	101.083
318.68	148.743
321.573	192.968
324.466	132.654
327.359	41.5468
330.251	13.6613
333.144	4.97531
336.037	0.748199
338.929	2.32655
341.822	2.14752
344.715	0.650101
347.608	0.939255
350.5	1.04341
353.393	1.35768
356.286	0.623215
359.178	2.05628
362.071	1.00127
364.964	1.38858
367.856	0.601334
370.749	3.04115
373.642	2.29285
376.534	9.68892
379.427	18.5563
382.32	34.9696
385.213	36.2328
388.105	66.4159
390.998	122.294
393.891	207.769
396.783	221.296
399.676	129.54
402.569	64.1712
405.462	35.0309
408.354	20.8707
411.247	18.6664
414.14	20.6577
417.032	30.5755
419.925	47.4675
422.818	55.8411
425.71	31.4422
428.603	13.4326
431.496	5.81752
434.389	11.1016
437.281	18.3412
440.174	37.9746
443.067	61.8485
445.959	71.2829
448.852	80.8386
451.745	60.6928
454.637	29.5113
457.53	12.796
460.423	4.82246
463.315	2.4641
466.208	3.44934
469.101	0.695816
471.994	1.54777
474.886	3.06515
477.779	1.75702
480.672	2.22673
483.564	0.108444
486.457	2.00326
489.35	0.90596
492.243	1.28382
495.135	1.55145
498.028	1.08787
500.921	0.649307
503.813	1.78804
506.706	3.00427
509.599	7.77837
512.491	13.4143
515.384	21.5222
518.277	32.3696
521.169	50.256
524.062	73.2659
526.955	98.9166
529.848	95.5429
532.74	61.3447
535.633	36.6561
538.526	20.535
541.418	13.2269
544.311	7.78346
547.204	3.07576
550.096	3.14021
552.989	0.725388
555.882	3.11931
558.775	2.02493
561.667	7.49281
564.56	7.48361
567.453	0.424942
570.345	5.09856
573.238	8.00656
576.131	10.2619
579.024	15.7093
581.916	21.5176
584.809	16.3472
587.702	11.0635
590.594	5.95543
593.487	3.49464
596.38	0.3172
599.272	1.93839
602.165	1.51627
605.058	1.99795
607.951	1.80527
610.843	1.93567
613.736	1.36302
616.629	6.95117
619.521	8.2249
622.414	14.1478
625.307	14.1952
628.199	9.24342
631.092	4.15355
633.985	1.03825
636.878	1.25413
639.77	1.08285
642.663	0.022583
645.556	0.833023
648.448	3.1548
651.341	2.37672
654.234	2.72412
657.126	4.40782
660.019	6.74539
662.912	12.8676
665.804	23.2446
668.697	35.4791
671.59	59.7188
674.483	109.506
677.375	209.069
680.268	412.469
683.161	666.336
686.053	591.747
688.946	290.95
691.839	141.756
694.731	82.5811
697.624	50.4626
700.517	34.842
703.41	23.3699
706.302	19.3022
709.195	12.3555
712.088	7.90289
714.98	5.43973
717.873	0.036179
720.766	0.583282
723.659	3.17447
726.551	0.001648
729.444	0.009712
732.337	0.852577
735.229	1.02452
738.122	0.149551
741.015	2.08533
743.907	3.86938
746.8	4.9188
749.693	5.56897
752.586	3.78558
755.478	3.86458
758.371	8.60748
761.264	12.9194
764.156	18.3526
767.049	22.333
769.942	31.2248
772.834	28.2378
775.727	17.1891
778.62	10.4713
781.513	9.92748
784.405	8.11636
787.298	4.56001
790.191	2.25147
793.083	3.35513
795.976	3.21301
798.869	2.08804
801.761	2.95913
804.654	0.885223
807.547	1.56161
810.439	3.58948
813.332	1.51748
816.225	0.855316
819.118	0.573845
822.01	2.78762
824.903	1.15913
827.796	1.38509
830.688	2.64208
833.581	1.13169
836.474	2.50822
839.366	2.13258
842.259	2.06791
845.152	1.81162
848.045	0.933739
850.937	3.76947
853.83	4.72283
856.723	1.8747
859.615	3.29441
862.508	0.757347
865.401	1.33639
868.293	1.51434
871.186	0.262512
874.079	2.96188
876.972	0.756241
879.864	0.93712
882.757	1.75812
885.65	4.44562
888.542	1.32829
891.435	4.50619
894.328	5.20004
897.221	6.9444
900.113	8.22465
903.006	9.20332
905.899	15.1729
908.791	16.0206
911.684	18.1098
914.577	22.1355
917.469	21.6916
920.362	17.7356
923.255	9.79608
926.148	7.0834
929.04	6.2913
931.933	4.34631
934.826	3.82173
937.718	2.39384
940.611	2.87675
943.504	0.77282
946.396	1.96693
949.289	1.39767
952.182	1.21394
955.074	0.600235
957.967	0.258728
960.86	0.594109
963.753	1.07017
966.645	1.15334
969.538	0.919502
972.431	0.762535
975.323	0.65358
978.216	0.044228
981.109	0.128166
984.001	3.15825
986.894	1.55119
989.787	6.62657
992.68	14.1645
995.572	20.395
998.465	34.9085
1001.36	45.4238
1004.25	66.9707
1007.14	96.4589
1010.04	131.036
1012.93	134.883
1015.82	96.4566
1018.71	59.4659
1021.61	33.9364
1024.5	21.7828
1027.39	10.9704
1030.29	8.83897
1033.18	6.06365
1036.07	7.82017
1038.96	7.28857
1041.86	9.7669
1044.75	9.71314
1047.64	14.7243
1050.53	24.3454
1053.43	34.1684
1056.32	51.4626
1059.21	82.5797
1062.1	136.146
1065	188.727
1067.89	220.689
1070.78	193.596
1073.67	131.304
1076.57	84.9569
1079.46	59.9218
1082.35	43.6569
1085.25	34.7127
1088.14	24.4269
1091.03	18.0629
1093.92	15.0239
1096.82	10.8938
1099.71	8.51229
1102.6	5.58381
1105.49	0.153374
1108.39	1.79539
1111.28	0.114578
1114.17	0.743538
1117.07	0.732643
1119.96	1.92667
1122.85	0.58493
1125.74	1.67838
1128.64	1.11043
1131.53	1.80919
1134.42	1.43116
1137.32	0.235008
1140.21	0.244644
1143.1	1.53606
1145.99	0.842857
1148.88	0.684204
1151.78	1.68737
1154.67	0.20565
1157.56	1.27068
1160.46	2.513
1163.35	0.906685
1166.24	0.285919
1169.13	3.47126
1172.03	1.77416
1174.92	2.90253
1177.81	2.64024
1180.7	6.57896
1183.6	5.409
1186.49	4.78876
1189.38	7.10886
1192.28	3.85785
1195.17	4.79532
1198.06	4.77187
1200.95	5.73414
1203.85	2.39589
1206.74	4.22112
1209.63	5.57519
1212.53	5.16592
1215.42	4.48019
1218.31	5.01363
1221.2	5.31941
1224.1	7.88096
1226.99	12.5951
1229.88	9.02076
1232.77	11.4978
1235.67	14.6003
1238.56	22.6549
1241.45	34.2419
1244.34	42.4645
1247.24	27.9406
1250.13	17.6907
1253.02	11.514
1255.91	4.78551
1258.81	6.32363
1261.7	6.09787
1264.59	5.89775
1267.49	3.53573
1270.38	4.8535
1273.27	2.57402
1276.16	1.55696
1279.06	7.04343
1281.95	2.71809
1284.84	0.59919
