Measurement: Raman, 532 nm, unoriented, Raman Data Processed
Mineral: Beryllonite
Rruff sample: R060299
Ideal chemistry: NaBePO_4_
Locality: Paprok, near Kamdesh, Nuristan, Kunar Province, Afghanistan
Source: Herb Obodda
Description: Pale blue fragment
Measured chemistry: Na_1.00_Be_1.00_P_1.00_O_4_
Raman shift (cm-1)	intensity
135.845	0
139.22	95.6066
142.594	207.131
145.969	156.931
149.344	48.4882
152.719	21.7748
156.094	85.488
159.468	224.002
162.843	252
166.218	108
169.593	55.7959
172.968	3.59668
176.343	8.6294
179.717	10.723
183.092	31.17
186.467	29.5026
189.842	40.2711
193.217	92.4414
196.591	124.913
199.966	59.275
203.341	38.2395
206.716	46.2037
210.091	93.9905
213.465	135.525
216.84	116.477
220.215	149.274
223.59	209.584
226.965	197.97
230.339	236.706
233.714	184.4
237.089	109.695
240.464	90.7321
243.839	28.2102
247.214	9.21741
250.588	1.75427
253.963	4.43347
257.338	1.96741
260.713	1.28394
264.088	0.074463
267.462	10.0875
270.837	5.75269
274.212	18.0223
277.587	41.2666
280.962	55.1101
284.337	47.228
287.711	47.5481
291.086	51.8385
294.461	63.5654
297.836	73.2639
301.211	92.7327
304.586	117.028
307.96	79.2283
311.335	20.4733
314.71	5.81421
318.085	2.11255
321.46	2.90442
324.834	12.751
328.209	24.7816
331.584	45.4928
334.959	77.2161
338.334	123.809
341.709	203.202
345.083	307.643
348.458	475.283
351.833	685.944
355.208	786.506
358.583	566.24
361.957	285.892
365.332	131.629
368.707	59.6383
372.082	28.1907
375.457	6.87854
378.832	6.74377
382.206	6.71594
385.581	1.24365
388.956	6.41577
392.331	14.5679
395.705	43.4464
399.08	73.3748
402.455	44.5481
405.83	32.4531
409.205	40.5244
412.58	89.0942
415.954	170.783
419.329	228.319
422.704	150.203
426.079	172.865
429.454	311.368
432.829	437.483
436.203	187.071
439.578	76.0604
442.953	93.9194
446.328	163.451
449.703	286.156
453.077	430.088
456.452	644.863
459.827	932.959
463.202	1390.3
466.577	1661.31
469.952	1246.51
473.326	586.563
476.701	271.976
480.076	151.854
483.451	93.0525
486.826	39.7372
490.2	19.01
493.575	4.59888
496.95	0.566406
500.325	13.7744
503.7	8.35559
507.075	6.18726
510.449	12.2816
513.824	43.5984
517.199	101.686
520.574	182.633
523.949	232.539
527.323	207.796
530.698	245.318
534.073	207.093
537.448	247.923
540.823	411.879
544.197	687.532
547.572	961.485
550.947	561.741
554.322	270.027
557.697	196.336
561.072	133.399
564.446	106.83
567.821	136.884
571.196	107.211
574.571	95.348
577.946	138.736
581.321	240.137
584.695	210.061
588.07	86.4412
591.445	58.9836
594.82	70.615
598.194	93.9299
601.569	97.6166
604.944	40.9816
608.319	26.3035
611.694	24.844
615.069	8.78565
618.443	0.389648
621.818	1.0155
625.193	7.80469
628.568	2.17188
631.943	0.976807
635.317	11.7405
638.692	12.4054
642.067	10.5559
645.442	4.69556
648.817	2.8291
652.192	2.09436
655.566	14.0061
658.941	18.5745
662.316	10.7012
665.691	13.1063
669.066	16.1077
672.441	16.5342
675.815	17.4473
679.19	16.8525
682.565	20.4661
685.94	25.4777
689.315	31.2394
692.689	36.0859
696.064	45.816
699.439	43.5468
702.814	25.608
706.189	20.8246
709.563	17.2841
712.938	25.3046
716.313	20.8832
719.688	34.9156
723.063	35.8773
726.438	33.791
729.812	24.2281
733.187	8.03137
736.562	12.1721
739.937	3.96143
743.312	3.97485
746.687	3.11072
750.061	2.52075
753.436	0.704224
756.811	1.32922
760.186	1.42261
763.561	6.13391
766.935	6.6228
770.31	9.10754
773.685	11.8492
777.06	16.8373
780.435	10.9646
783.809	1.84936
787.184	3.66052
790.559	5.80115
793.934	9.1029
797.309	13.9294
800.683	18.3104
804.058	29.7609
807.433	32.369
810.808	39.5301
814.183	31.3529
817.558	32.843
820.932	30.7669
824.307	25.4697
827.682	24.3212
831.057	23.0467
834.432	22.0475
837.807	32.8302
841.181	31.2202
844.556	22.0544
847.931	8.95691
851.306	4.90552
854.681	13.7346
858.055	12.0787
861.43	5.70117
864.805	11.5081
868.18	8.2721
871.555	6.73206
874.929	1.36353
878.304	0.087646
881.679	2.13501
885.054	6.2168
888.429	12.5078
891.804	12.1986
895.178	5.099
898.553	4.91321
901.928	5.06006
905.303	10.3258
908.678	14.334
912.053	21.5864
915.427	11.2117
918.802	14.6126
922.177	10.2363
925.552	13.1439
928.927	8.28418
932.301	5.9198
935.676	1.42029
939.051	6.62329
942.426	12.5446
945.801	10.2463
949.176	5.47876
952.55	1.29443
955.925	1.17285
959.3	8.52026
962.675	8.33496
966.05	20.4731
969.424	29.4128
972.799	32.0823
976.174	47.3074
979.549	82.4248
982.924	114.164
986.298	162.684
989.673	234.557
993.048	371.585
996.423	611.006
999.798	1029.19
1003.17	1711.3
1006.55	2726.17
1009.92	3883.36
1013.3	3724.27
1016.67	2131.78
1020.05	1068.41
1023.42	600.895
1026.8	396.704
1030.17	312.221
1033.55	312.763
1036.92	400.906
1040.3	524.051
1043.67	675.037
1047.05	929.413
1050.42	1237.15
1053.8	1614.57
1057.17	1416.31
1060.54	814.248
1063.92	639.391
1067.29	640.872
1070.67	481.793
1074.04	334.93
1077.42	278.031
1080.79	122.867
1084.17	51.8816
1087.54	5.79321
1090.92	8.28882
1094.29	12.4028
1097.67	0.763916
1101.04	2.37109
1104.42	1.12524
1107.79	2.34692
1111.17	15.8787
1114.54	24.0261
1117.92	5.95996
1121.29	2.53687
1124.67	4.11963
1128.04	5.51953
1131.42	6.69214
1134.79	1.37842
1138.16	10.9351
1141.54	20.6318
1144.91	40.4226
1148.29	40.7251
1151.66	22.5049
1155.04	10.4565
1158.41	11.1265
1161.79	5.27148
1165.16	10.9937
1168.54	2.80103
1171.91	13.9419
1175.29	20.8269
1178.66	14.1665
1182.04	28.0461
1185.41	27.5183
1188.79	17.9338
1192.16	16.9294
1195.54	7.93384
1198.91	9.34058
1202.29	9.92944
1205.66	2.90698
1209.04	12.636
1212.41	12.2602
1215.79	15.5427
1219.16	15.9568
1222.54	31.5708
1225.91	29.1174
1229.29	23.1548
1232.66	21.0513
1236.04	11.208
1239.41	8.1001
1242.79	16.209
1246.16	14.8584
1249.53	14.5874
1252.91	23.304
1256.28	10.3611
1259.66	13.7219
1263.03	12.2656
1266.41	6.50903
1269.78	7.79614
1273.16	8.99731
1276.53	17.4497
1279.91	12.0654
1283.28	11.093
1286.66	12.7639
1290.03	7.10205
1293.41	9.05249
1296.78	11.0171
1300.16	7.1167
1303.53	0
