Measurement: Raman, 532 nm, unoriented, Raman Data Processed
Mineral: Beryl
Rruff sample: R110100
Ideal chemistry: Be_3_Al_2_Si_6_O_18_
Locality: Synthetic
Source: Gemological Institute of America
Description: A red, cut (0.42ct) gemstone, hydrothermally produced.
Raman shift (cm-1)	intensity
169.559	0
172.452	1.60492
175.345	3.45216
178.237	5.33726
181.13	6.0537
184.023	7.19398
186.916	8.67654
189.808	7.95112
192.701	6.90576
195.594	6.94421
198.486	6.39473
201.379	5.87301
204.272	5.85233
207.164	5.9844
210.057	4.51196
212.95	4.10675
215.843	3.70697
218.735	3.74653
221.628	4.45673
224.521	4.22014
227.413	4.09897
230.306	4.30797
233.199	5.44502
236.091	6.42764
238.984	6.45013
241.877	6.29209
244.769	6.03463
247.662	6.81287
250.555	8.45758
253.448	6.83146
256.34	2.93913
259.233	0.940243
262.126	0.880657
265.018	0.445694
267.911	0.174938
270.804	0.447933
273.697	0.200798
276.589	0.709156
279.482	1.48322
282.375	2.06935
285.267	2.47448
288.16	2.33918
291.053	2.84399
293.945	3.62022
296.838	5.28079
299.731	7.06536
302.623	8.7871
305.516	12.21
308.409	17.507
311.302	23.2549
314.194	32.3895
317.087	45.8681
319.98	66.7765
322.872	75.6897
325.765	38.0797
328.658	12.4674
331.55	4.87324
334.443	1.84972
337.336	1.1061
340.229	0.092041
343.121	0.44519
346.014	0.159414
348.907	0.208717
351.799	0.160059
354.692	1.196
357.585	0.556059
360.478	0.228312
363.37	0.733549
366.263	3.37141
369.156	1.53481
372.048	2.56668
374.941	3.54247
377.834	5.15948
380.726	8.374
383.619	10.0948
386.512	9.63901
389.404	13.0394
392.297	18.6408
395.19	22.0589
398.083	17.7254
400.975	8.07137
403.868	4.10585
406.761	2.03649
409.653	2.4549
412.546	2.61234
415.439	2.51557
418.332	2.82168
421.224	2.86876
424.117	2.02916
427.01	1.31045
429.902	1.75232
432.795	3.17745
435.688	5.31195
438.58	6.92374
441.473	9.59692
444.366	11.8081
447.259	9.66243
450.151	6.38848
453.044	2.78699
455.937	2.01218
458.829	0.869381
461.722	0.72221
464.615	0.445354
467.507	0.684259
470.4	0.162228
473.293	0.215733
476.185	0.583549
479.078	0.721107
481.971	1.00238
484.864	1.72968
487.756	2.31129
490.649	1.80428
493.542	2.06177
496.434	3.25668
499.327	3.85003
502.22	4.0044
505.113	5.37383
508.005	6.16296
510.898	6.72309
513.791	8.34035
516.683	10.516
519.576	13.118
522.469	16.9628
525.361	19.5787
528.254	17.9951
531.147	13.2326
534.04	9.12386
536.932	6.36934
539.825	4.5734
542.718	2.8619
545.61	2.01265
548.503	1.17011
551.396	0.01111
554.288	0.151733
557.181	0.412462
560.074	0.194786
562.967	0.110201
565.859	0.316868
568.752	0.198162
571.645	0.052673
574.537	0.284309
577.43	1.29985
580.323	3.08984
583.216	3.56458
586.108	4.87047
589.001	5.43191
591.894	6.24636
594.786	6.44529
597.679	5.87845
600.572	5.08688
603.464	4.56278
606.357	4.41394
609.25	3.81492
612.142	4.2909
615.035	4.66877
617.928	4.5518
620.821	4.46708
623.713	3.59168
626.606	1.60339
629.499	0.374737
632.391	1.63998
635.284	1.77201
638.177	2.70312
641.069	3.05635
643.962	3.87816
646.855	3.54316
649.747	3.38532
652.64	3.16924
655.533	4.636
658.426	6.41277
661.318	9.62211
664.211	15.7735
667.104	22.7986
669.996	33.5431
672.889	52.1299
675.782	78.337
678.674	121.013
681.567	184.22
684.46	219.278
687.353	140.871
690.245	71.7992
693.138	40.5874
696.031	25.7834
698.923	17.423
701.816	11.9936
704.709	8.49807
707.601	6.00219
710.494	3.69142
713.387	2.49372
716.28	1.12123
719.172	0.522282
722.065	0.060726
724.958	0.304447
727.85	0.218822
730.743	0.347073
733.636	0.200535
736.529	0.400723
739.421	0.470745
742.314	0.665478
745.207	0.939106
748.099	0.72987
750.992	1.50093
753.885	2.36632
756.777	2.30078
759.67	4.69001
762.563	5.12732
765.456	7.03327
768.348	7.30394
771.241	6.35342
774.134	5.14215
777.026	3.92517
779.919	2.8713
782.812	2.52866
785.704	0.906754
788.597	0.968876
791.49	0.731266
794.383	1.0466
797.275	0.093376
800.168	0.593128
803.061	0.286827
805.953	0.36887
808.846	0.304401
811.739	0.624748
814.631	0.48135
817.524	0.913834
820.417	0.682854
823.309	1.02187
826.202	0.370098
829.095	0.208054
831.988	0.157951
834.88	0.528217
837.773	0.137646
840.666	0.147625
843.558	0.243599
846.451	0.500893
849.344	0.449528
852.236	0.316883
855.129	0.848595
858.022	0.799118
860.915	1.03784
863.807	0.013165
866.7	0.598511
869.593	0.201691
872.485	0.307713
875.378	1.06053
878.271	0.962368
881.163	1.08913
884.056	1.48535
886.949	2.09707
889.842	2.2887
892.734	2.65872
895.627	3.7738
898.52	4.63401
901.412	5.95271
904.305	9.46356
907.198	11.9931
910.091	15.5718
912.983	19.3584
915.876	20.5629
918.769	20.4012
921.661	16.2869
924.554	12.2675
927.447	9.14612
930.339	6.83539
933.232	4.95988
936.125	4.64088
939.018	2.70669
941.91	2.15664
944.803	1.05246
947.696	1.19595
950.588	0.632828
953.481	0.350689
956.374	0.400238
959.266	0.231209
962.159	1.21716
965.052	0.65366
967.944	0.224079
970.837	0.207115
973.73	0.290932
976.623	0.14669
979.515	0.408134
982.408	1.4154
985.301	1.23084
988.193	3.52092
991.086	5.65913
993.979	8.2862
996.871	11.6293
999.764	16.5859
1002.66	20.917
1005.55	25.5185
1008.44	28.6621
1011.34	26.5713
1014.23	20.0465
1017.12	13.2101
1020.01	8.17461
1022.91	6.05723
1025.8	3.8028
1028.69	2.62792
1031.58	2.91246
1034.48	2.26706
1037.37	4.02501
1040.26	5.29086
1043.15	7.21447
1046.05	10.7515
1048.94	16.92
1051.83	25.4383
1054.73	39.8256
1057.62	61.5818
1060.51	92.6028
1063.4	128.99
1066.3	156.449
1069.19	150.516
1072.08	116.814
1074.97	83.9842
1077.87	59.5707
1080.76	43.35
1083.65	31.2798
1086.55	23.9684
1089.44	16.7504
1092.33	11.6883
1095.22	8.39656
1098.12	5.29022
1101.01	3.45261
1103.9	2.42662
1106.79	1.76462
1109.69	1.43272
1112.58	1.01234
1115.47	0.884445
1118.37	0.283257
1121.26	0.700241
1124.15	0.528938
1127.04	0.069138
1129.94	0.531128
1132.83	1.44197
1135.72	1.3441
1138.61	2.61564
1141.51	1.43578
1144.4	0.87175
1147.29	1.06683
1150.18	0.269722
1153.08	0.376915
1155.97	0.839165
1158.86	0.639549
1161.76	0.314262
1164.65	0.83091
1167.54	0.07048
1170.43	0.98185
1173.33	0.593834
1176.22	1.29868
1179.11	1.6543
1182	1.48176
1184.9	1.9458
1187.79	3.32983
1190.68	3.14486
1193.58	2.84618
1196.47	3.42912
1199.36	2.67918
1202.25	3.01544
1205.15	3.11681
1208.04	3.58582
1210.93	3.42014
1213.82	3.48367
1216.72	3.56068
1219.61	4.75101
1222.5	4.34409
1225.39	5.46048
1228.29	4.88931
1231.18	3.9634
1234.07	3.21171
1236.97	3.19352
1239.86	3.26489
1242.75	3.60219
1245.64	1.93855
1248.54	1.26809
1251.43	0.279739
1254.32	1.09537
1257.21	0.659531
1260.11	0.405876
1263	0.353821
1265.89	0.224609
1268.79	0.399269
1271.68	0.083794
1274.57	1.39872
1277.46	2.05038
1280.36	0.925911
1283.25	1.18259
1286.14	1.28788
1289.03	0.753029
1291.93	1.46555
1294.82	1.04601
1297.71	0.922638
1300.61	0.458176
