Measurement: Raman, 514 nm, unoriented, Raman Data Processed
Mineral: Beryl
Rruff sample: R050121
Ideal chemistry: Be_3_Al_2_Si_6_O_18_
Locality: Cruziero mine, San Jose, Minas Gerais, Brazil
Source: Carlos and Paulo Vasconcelos
Description: Light blue fragment, variety aquamarine
Measured chemistry: (Be_0.96_Li_0.04_)_3_Al_2.00_Si_6.00_O_18_Î‡Na_0.09_Mg_0.03_
Raman shift (cm-1)	intensity
103.124	0
107.3	119.271
111.473	102.069
115.644	408
119.813	282.611
123.981	629.153
128.146	1006.04
132.309	2086.13
136.47	4671.9
140.63	5893.36
144.787	3628.81
148.942	1621.74
153.096	791.796
157.247	351.08
161.396	216.834
165.544	88.966
169.689	160.108
173.833	230.98
177.974	108.048
182.114	211.871
186.251	386.085
190.387	206.832
194.52	433.449
198.652	361.145
202.782	296.013
206.909	368.309
211.035	210.622
215.159	85.725
219.281	11.96
223.4	225.954
227.518	96.344
231.634	169.965
235.748	132.318
239.86	309.273
243.97	75.535
248.079	192.865
252.185	206.762
256.289	148.287
260.391	87.668
264.492	71.275
268.59	178.463
272.687	206.564
276.781	364.244
280.874	436.307
284.964	267.332
289.053	415.059
293.14	426.312
297.225	439.979
301.308	296.221
305.389	401.369
309.468	528.266
313.545	744.932
317.62	1449.77
321.693	1987.49
325.765	841.654
329.834	181.326
333.902	115.111
337.967	111.072
342.031	55.477
346.093	31.191
350.153	95.193
354.21	35.982
358.267	25.375
362.321	142.09
366.373	219.432
370.423	135.654
374.471	107.768
378.518	579.943
382.563	840.18
386.605	1529.39
390.646	3135.6
394.685	5284.82
398.722	4289.6
402.757	2100.86
406.79	1075.94
410.821	1023.23
414.851	1032.44
418.878	1088.17
422.904	996.096
426.927	770.52
430.949	291.863
434.969	623.512
438.987	646.541
443.003	894.904
447.018	990.465
451.03	681.715
455.041	201.35
459.049	123.791
463.056	350.93
467.061	347.801
471.064	258.404
475.065	100.543
479.064	196.984
483.062	1.836
487.057	117.916
491.051	173.709
495.043	102.43
499.032	155.457
503.02	314.102
507.007	318.449
510.991	204.918
514.973	378.666
518.954	682.314
522.933	775.217
526.91	852.908
530.885	962.07
534.858	563.012
538.829	247.986
542.799	112.287
546.766	36.479
550.732	78.83
554.696	116.125
558.658	185.299
562.618	271.793
566.576	261.576
570.533	320.115
574.488	580.311
578.44	267.27
582.391	250.463
586.341	272.002
590.288	386.154
594.233	80.693
598.177	70.326
602.119	128.307
606.059	234.697
609.997	188.779
613.933	254.467
617.868	406.736
621.801	330.254
625.731	887.936
629.66	528.1
633.588	625.301
637.513	568.215
641.437	404.729
645.358	367.438
649.278	273.799
653.196	542.447
657.113	290.322
661.027	204.686
664.94	523.957
668.851	677.051
672.76	1174.13
676.667	3046.46
680.572	8409.8
684.476	14898.2
688.378	9073.54
692.278	3879.41
696.176	1901.26
700.072	1182.97
703.967	523.621
707.86	759.16
711.751	590.785
715.64	665.256
719.527	475.674
723.413	273.82
727.297	393.342
731.179	506.654
735.059	52.785
738.937	62.332
742.814	357.178
746.689	370.678
750.562	34.316
754.433	139.756
758.303	473.58
762.17	308.48
766.036	251.24
769.901	544.039
773.763	917.424
777.624	355.604
781.482	374.537
785.339	262.547
789.195	213.111
793.048	355.098
796.9	352.184
800.75	283.734
804.598	479.848
808.445	190.65
812.289	189.785
816.132	124.084
819.973	162.383
823.813	233.383
827.65	63.834
831.486	79.842
835.32	213.592
839.152	277.119
842.983	102.434
846.812	39.539
850.639	471.34
854.464	227.768
858.288	553.43
862.11	284.916
865.93	342.898
869.748	298.887
873.564	415.266
877.379	474.115
881.192	316.484
885.004	179.035
888.813	636.309
892.621	640.992
896.427	152.863
900.232	206.617
904.034	485.328
907.835	426.688
911.634	545.332
915.432	1011.91
919.227	794.699
923.021	827.504
926.813	524.371
930.604	444.742
934.393	284.492
938.18	794.449
941.965	391.395
945.749	328.172
949.53	364.699
953.311	336.902
957.089	285.797
960.866	300.645
964.641	239.609
968.414	284.266
972.185	178.117
975.955	497.707
979.723	618.465
983.49	1110.52
987.254	1098.78
991.017	788.289
994.779	924.73
998.538	1545.61
1002.3	1307.12
1006.05	1984.83
1009.81	2481.53
1013.56	2619.62
1017.31	2125.05
1021.06	1626.74
1024.81	1425.82
1028.55	1040.73
1032.3	1237.75
1036.04	803.328
1039.78	875.465
1043.52	790.949
1047.26	1055.57
1050.99	1294.71
1054.73	1722.13
1058.46	2381.2
1062.19	3715.36
1065.92	5061.18
1069.65	5138.98
1073.37	4146.97
1077.1	2857.18
1080.82	2304.16
1084.54	3016.64
1088.26	1797.76
1091.97	862.66
1095.69	742.258
1099.4	477.094
1103.12	577.273
1106.83	245.414
1110.54	344.457
1114.24	378.871
1117.95	32.277
1121.65	122.227
1125.35	365.531
1129.06	119.191
1132.75	233.715
1136.45	805.246
1140.15	71.742
1143.84	34.211
1147.53	397.426
1151.22	59.258
1154.91	45.055
1158.6	41.852
1162.28	110.379
1165.97	350.605
1169.65	174.719
1173.33	33.148
1177.01	142.965
1180.69	95.676
1184.36	476.184
1188.04	298.469
1191.71	344.277
1195.38	310.91
1199.05	136.172
1202.71	784.133
1206.38	447.5
1210.04	365.453
1213.71	564.984
1217.37	344.113
1221.03	509.879
1224.68	801.305
1228.34	631.457
1231.99	956.637
1235.65	923.852
1239.3	953.301
1242.95	1006.66
1246.59	1137.89
1250.24	902
1253.88	654.352
1257.53	43.625
1261.17	332.234
1264.81	438.312
1268.45	363.773
1272.08	261.426
1275.72	179.773
1279.35	401.574
1282.98	149.609
1286.61	396.531
1290.24	359.344
1293.87	502.117
1297.49	472.395
1301.11	371.98
1304.73	546.031
1308.36	403.82
1311.97	294.637
1315.59	769.426
1319.2	235.902
1322.82	224.281
1326.43	716.254
1330.04	297.945
1333.65	94.449
1337.26	68.367
1340.86	282.188
