Measurement: Raman, 532 nm, unoriented, Raman Data Processed
Mineral: Beryl
Rruff sample: R060943
Ideal chemistry: Be_3_Al_2_Si_6_O_18_
Locality: Xinjiang, China
Source: Lawrence W. Snee
Description: Green hexagonal prisms, variety emerald
Measured chemistry: (Be_2.96_Li_0.04_)_Σ=3_(Al_1.64_Mg_0.21_V^3+^_0.06_Fe^3+^_0.04_Sc^3+^_0.03_Cr^3+^_0.02_)_Σ=2_Si_6.00_O_18_·Na_0.25_
Raman shift (cm-1)	intensity
126.826	0
130.201	161.19
133.576	258.762
136.951	350.582
140.326	634.229
143.7	707.148
147.075	562.163
150.45	246.823
153.825	68.9785
157.2	22.0615
160.574	138.126
163.949	169.372
167.324	139.757
170.699	186.048
174.074	148.711
177.448	111.339
180.823	293.152
184.198	270.812
187.573	294.179
190.948	413.707
194.323	386.929
197.697	198.631
201.072	200.114
204.447	164.697
207.822	344.218
211.197	184.627
214.571	258.057
217.946	172.545
221.321	295.598
224.696	349.728
228.071	294.727
231.446	302.438
234.82	415.494
238.195	425.011
241.57	552.191
244.945	768.128
248.32	993.668
251.694	1058.45
255.069	613.66
258.444	38.3696
261.819	52.3892
265.194	49.3184
268.568	10.0527
271.943	126.857
275.318	36.8867
278.693	87.3062
282.068	174.054
285.442	278.356
288.817	421.592
292.192	616.057
295.567	545.087
298.942	439.408
302.317	530.047
305.691	690.953
309.066	848.407
312.441	1184.1
315.816	1768.25
319.191	2677.31
322.565	4554.23
325.94	4663.36
329.315	1548.43
332.69	538.81
336.065	199.286
339.44	133.417
342.814	59.4443
346.189	26.7378
349.564	10.5356
352.939	18.5581
356.314	10.5464
359.688	25.9009
363.063	20.7231
366.438	15.9312
369.813	158.891
373.188	229.522
376.562	429.906
379.937	785.889
383.312	1148
386.687	1646.17
390.062	2694.64
393.437	4345.03
396.811	6393.67
400.186	5421.71
403.561	2668.49
406.936	1268.91
410.311	860.892
413.685	689.272
417.06	592.063
420.435	501.14
423.81	328.317
427.185	244.706
430.56	308.241
433.934	382.214
437.309	718.943
440.684	1086.08
444.059	1414.48
447.434	1000.11
450.808	406.014
454.183	110.221
457.558	67.5342
460.933	16.7192
464.308	15.5962
467.683	28.0493
471.057	97.5796
474.432	50.084
477.807	79.103
481.182	78.6191
484.557	188.269
487.931	167.561
491.306	154.064
494.681	169.027
498.056	336.771
501.431	375.953
504.805	480.451
508.18	655.778
511.555	888.558
514.93	1199.06
518.305	1755.47
521.679	2429.74
525.054	2792.22
528.429	2314.74
531.804	1364.64
535.179	693.195
538.554	319.371
541.928	171.526
545.303	75.6318
548.678	4.48975
552.053	34.2549
555.428	63.4375
558.802	15.3838
562.177	76.0576
565.552	30.1104
568.927	38.3174
572.302	144.914
575.677	139.327
579.051	195.076
582.426	162.477
585.801	103.293
589.176	93.229
592.551	106.022
595.925	67.0469
599.3	122.899
602.675	110.654
606.05	156.817
609.425	197.858
612.799	187.27
616.174	398.01
619.549	635.495
622.924	606.457
626.299	304.499
629.673	175.744
633.048	240.267
636.423	198.473
639.798	80.9917
643.173	13.9253
646.548	36.252
649.922	13.7998
653.297	56.5996
656.672	162.692
660.047	196.234
663.422	457.276
666.797	927.621
670.171	1610.27
673.546	2931.55
676.921	5142.05
680.296	9378.98
683.67	16879.5
687.045	21599.2
690.42	11813
693.795	5187.97
697.17	2881.1
700.545	1788.9
703.919	1310.88
707.294	901.538
710.669	590.186
714.044	328.726
717.419	141.226
720.793	109.33
724.168	92.4629
727.543	37.75
730.918	90.2622
734.293	84.4917
737.668	36.2593
741.042	2.09033
744.417	17.7485
747.792	86.0967
751.167	91.6592
754.542	93.519
757.916	269.55
761.291	318.562
764.666	400.953
768.041	463.847
771.416	483.077
774.79	321.394
778.165	369.032
781.54	250.158
784.915	245.484
788.29	188.372
791.665	170.335
795.039	144.501
798.414	105.399
801.789	138.801
805.164	143.33
808.539	135.53
811.913	58.6123
815.288	94.3188
818.663	46.8413
822.038	116.66
825.413	123.796
828.788	137.417
832.162	196.654
835.537	170.72
838.912	85.7681
842.287	127.315
845.662	83.8506
849.036	73.5405
852.411	67.0513
855.786	57.1372
859.161	13.6196
862.536	30.0298
865.91	17.3833
869.285	28.7983
872.66	112.894
876.035	251.683
879.41	370.593
882.784	530.444
886.159	643.863
889.534	611.966
892.909	568.521
896.284	587.198
899.659	422.744
903.033	417.103
906.408	608.161
909.783	667.665
913.158	846.469
916.533	905.83
919.908	945.242
923.282	819.613
926.657	731
930.032	585.666
933.407	530
936.782	391.203
940.156	326.037
943.531	234.888
946.906	207.731
950.281	55.6313
953.656	12.1152
957.03	22.7256
960.405	2.62109
963.78	53.6499
967.155	38.0298
970.53	94.6328
973.904	56.7627
977.279	19.9053
980.654	12.7354
984.029	57.1435
987.404	214.695
990.779	470.658
994.153	887.638
997.528	1328.47
1000.9	1800.84
1004.28	2425.07
1007.65	2936.15
1011.03	3016.06
1014.4	2595.19
1017.78	1941.89
1021.15	1293.51
1024.53	855.491
1027.9	586.659
1031.28	367.593
1034.65	262.953
1038.03	318.463
1041.4	382.912
1044.78	753.136
1048.15	1304.5
1051.53	2191.79
1054.9	3830.87
1058.28	6343.7
1061.65	9777.2
1065.03	13376.8
1068.4	14797
1071.77	12826
1075.15	9829.24
1078.52	6910.2
1081.9	4649.44
1085.27	3254.91
1088.65	2241.35
1092.02	1608.4
1095.4	1157.1
1098.77	850.835
1102.15	706.678
1105.52	649.989
1108.9	598.888
1112.27	577.913
1115.65	441.621
1119.02	250.867
1122.4	234.347
1125.77	414.875
1129.15	625.37
1132.52	689.032
1135.9	669.802
1139.27	445.001
1142.64	301.13
1146.02	132.582
1149.39	71.9873
1152.77	47.4707
1156.14	95.4717
1159.52	7.67773
1162.89	22.2822
1166.27	35.6045
1169.64	14.0879
1173.02	114.451
1176.39	242.981
1179.77	355.476
1183.14	311.991
1186.52	225.057
1189.89	222.814
1193.27	195.441
1196.64	122.955
1200.02	181.242
1203.39	138.161
1206.77	202.08
1210.14	331.685
1213.52	392.021
1216.89	402.027
1220.27	455.951
1223.64	494.669
1227.02	483.64
1230.39	527.388
1233.77	545.702
1237.14	525.488
1240.52	373.263
1243.89	347.243
1247.26	333.837
1250.64	318.914
1254.01	133.517
1257.39	138.373
1260.76	87.4648
1264.14	79.1318
1267.51	64.5205
1270.89	248.031
1274.26	200.468
1277.64	127.766
1281.01	165.047
1284.39	92.8438
1287.76	85.4551
1291.14	118.92
1294.51	14.498
1297.89	6.45703
