Measurement: Raman, 780 nm, unoriented, Raman Data Processed
Mineral: Beryllonite
Rruff sample: R060552
Ideal chemistry: NaBePO_4_
Locality: Afghanistan
Source: Gemological Institute of America
Description: Colorless fragment
Measured chemistry: Na_1.00_Be_1.00_P_1.00_O_4_ ; Be not measured but estimated by difference and stoichiometry
Raman shift (cm-1)	intensity
104.39	0
107.765	7.00653
111.139	3.69086
114.514	2.55899
117.889	17.8292
121.264	40.9419
124.639	3.10275
128.013	1.4325
131.388	14.1402
134.763	13.5014
138.138	15.5545
141.513	32.8758
144.888	80.3306
148.262	79.771
151.637	20.945
155.012	10.7859
158.387	18.1539
161.762	38.2417
165.137	36.8114
168.511	60.9686
171.886	67.5912
175.261	7.67378
178.636	2.73956
182.011	2.36999
185.385	2.52734
188.76	1.61351
192.135	9.94339
195.51	12.3621
198.885	6.43132
202.26	4.44505
205.634	13.3606
209.009	16.6267
212.384	22.9938
215.759	29.3237
219.134	38.6393
222.508	51.5408
225.883	64.2224
229.258	82.8311
232.633	90.2977
236.008	63.9218
239.382	43.3434
242.757	20.7136
246.132	15.2397
249.507	15.5112
252.882	4.20818
256.257	6.23274
259.631	9.67133
263.006	15.9089
266.381	27.9705
269.756	35.5797
273.131	49.608
276.505	70.5003
279.88	88.2789
283.255	90.0377
286.63	68.5778
290.005	51.334
293.38	48.2871
296.755	47.8828
300.129	50.5975
303.504	61.9007
306.879	49.2996
310.254	10.6264
313.628	0.025238
317.003	7.37964
320.378	3.01984
323.753	4.31528
327.128	11.5058
330.503	25.241
333.877	44.8021
337.252	81.2925
340.627	129.465
344.002	175.553
347.377	255.323
350.752	388.72
354.126	516.808
357.501	452.887
360.876	246.088
364.251	113.534
367.626	57.935
371	27.3269
374.375	16.7841
377.75	7.35416
381.125	11.0564
384.5	19.9309
387.875	25.3687
391.249	49.8532
394.624	97.0981
397.999	191.201
401.374	189.598
404.749	60.4645
408.123	13.9748
411.498	0.99295
414.873	4.14505
418.248	0.910553
421.623	2.00974
424.998	8.70282
428.372	31.4649
431.747	73.1316
435.122	52.6742
438.497	25.2669
441.872	33.3978
445.247	58.8436
448.621	119.959
451.996	208.102
455.371	314.934
458.746	443.367
462.121	728.909
465.495	1073.53
468.87	894.314
472.245	481.606
475.62	223.915
478.995	111.175
482.37	62.2591
485.744	39.4719
489.119	28.8261
492.494	20.6639
495.869	5.4339
499.244	0.394348
502.618	1.43732
505.993	5.18424
509.368	0.713654
512.743	4.92462
516.118	26.0694
519.492	52.4897
522.867	106.121
526.242	111.838
529.617	140.892
532.992	115.792
536.367	67.9441
539.741	81.6666
543.116	155.264
546.491	297.125
549.866	199.182
553.241	97.2955
556.615	92.7421
559.99	123.246
563.365	220.491
566.74	441.878
570.115	427.721
573.49	145.56
576.864	49.0811
580.239	32.588
583.614	32.2565
586.989	45.8574
590.364	80.9665
593.739	75.6401
597.113	55.255
600.488	60.9703
603.863	31.5131
607.238	7.53412
610.613	3.02939
613.987	1.03076
617.362	0.329987
620.737	2.68704
624.112	0.380432
627.487	1.45831
630.861	2.55994
634.236	0.721069
637.611	11.1763
640.986	24.0549
644.361	13.519
647.736	7.49439
651.11	3.7424
654.485	6.70254
657.86	8.19315
661.235	5.66357
664.61	7.58441
667.985	7.40186
671.359	7.51526
674.734	5.12237
678.109	4.56009
681.484	0.569977
684.859	2.0867
688.233	0.074768
691.608	1.89139
694.983	4.71335
698.358	1.45898
701.733	1.64786
705.107	2.62247
708.482	3.30301
711.857	3.7063
715.232	1.33469
718.607	4.96903
721.982	8.21094
725.356	10.3023
728.731	6.35165
732.106	11.0568
735.481	20.2234
738.856	18.6285
742.231	22.9551
745.605	29.9609
748.98	19.4927
752.355	17.1751
755.73	9.53586
759.105	8.17908
762.479	1.20633
765.854	5.8736
769.229	6.8934
772.604	11.4413
775.979	6.56293
779.354	4.39914
782.728	0.220825
786.103	1.07635
789.478	2.54349
792.853	9.68298
796.228	9.11102
799.602	11.9303
802.977	19.2713
806.352	20.8276
809.727	21.1919
813.102	20.9695
816.477	21.0058
819.851	26.4155
823.226	27.4201
826.601	25.9077
829.976	18.4306
833.351	20.7778
836.726	24.5496
840.1	23.2112
843.475	23.5467
846.85	24.1591
850.225	16.4778
853.6	14.4766
856.974	14.2759
860.349	12.038
863.724	9.29627
867.099	10.7462
870.474	6.94525
873.848	8.07263
877.223	7.7503
880.598	9.18073
883.973	4.39404
887.348	8.21374
890.722	1.61529
894.097	7.14508
897.472	1.70239
900.847	5.21014
904.222	9.30518
907.597	0.527954
910.971	0.993591
914.346	5.71338
917.721	4.69482
921.096	12.7536
924.471	3.12176
927.846	4.7215
931.22	0.981018
934.595	0.715881
937.97	3.32977
941.345	4.51007
944.72	0.418945
948.095	1.82294
951.469	1.48932
954.844	0.065735
958.219	3.69086
961.594	0.564148
964.969	5.30249
968.343	12.5153
971.718	15.6252
975.093	22.8295
978.468	37.3285
981.843	58.1362
985.217	92.3297
988.592	139.613
991.967	213.913
995.342	352.035
998.717	585.63
1002.09	923.719
1005.47	1430.16
1008.84	2138.75
1012.22	2488.59
1015.59	1725.05
1018.97	911.427
1022.34	505.6
1025.71	343.893
1029.09	255.751
1032.46	203.079
1035.84	178.896
1039.21	194.394
1042.59	235.165
1045.96	285.431
1049.34	306.052
1052.71	249.841
1056.09	182.313
1059.46	134.794
1062.84	150.326
1066.21	223.646
1069.59	188.018
1072.96	98.7538
1076.34	68.2452
1079.71	37.5475
1083.09	9.04602
1086.46	5.763
1089.84	2.54144
1093.21	1.86548
1096.59	0.569275
1099.96	6.96973
1103.34	2.95343
1106.71	1.37372
1110.09	13.689
1113.46	28.827
1116.84	13.9894
1120.21	4.26251
1123.59	3.2699
1126.96	3.70496
1130.34	1.77795
1133.71	8.78424
1137.08	8.63928
1140.46	20.8293
1143.83	25.0959
1147.21	38.1403
1150.58	32.4484
1153.96	21.4297
1157.33	5.87372
1160.71	7.11529
1164.08	1.29437
1167.46	1.50452
1170.83	7.08014
1174.21	11.122
1177.58	9.82367
1180.96	12.9771
1184.33	17.6979
1187.71	16.0543
1191.08	15.5107
1194.46	7.23492
1197.83	3.76978
1201.21	3.48065
1204.58	4.57196
1207.96	8.65204
1211.33	6.60315
1214.7	7.66876
1218.08	11.0341
1221.45	8.13721
1224.83	6.44434
1228.2	11.3582
1231.58	11.6119
1234.95	6.51471
1238.33	11.7247
1241.7	2.75342
1245.08	1.76801
1248.45	0.040771
1251.83	7.22736
1255.2	13.0645
1258.58	12.7173
1261.95	7.64368
1265.33	6.37585
1268.7	6.65002
1272.08	10.319
1275.45	3.28796
1278.83	8.05994
1282.2	4.49011
1285.58	0.298706
