Measurement: Raman, 532 nm, unoriented, Raman Data Processed
Mineral: Beta-fergusonite-(Ce)
Rruff sample: R080102
Ideal chemistry: CeNbO_4_
Locality: Amherst County, Virginia, USA
Source: Michael Scott
Description: Tan to light brown colored fragment from metamict sample R070300, after heating at T = 1000 C for 20 hours
Raman shift (cm-1)	intensity
150.308	0
153.201	97.8906
156.094	308.184
158.986	240.607
161.879	206.697
164.772	347.635
167.664	340.096
170.557	168.666
173.45	80.6797
176.343	30.748
179.235	37.4082
182.128	11.666
185.021	182.998
187.913	415.945
190.806	623.08
193.699	923.594
196.591	1073.87
199.484	1258.54
202.377	1374.74
205.269	1537.18
208.162	1725.69
211.055	1949.53
213.948	2266.4
216.84	2646.86
219.733	3200.26
222.626	3747.95
225.518	4340
228.411	4851.39
231.304	5342.23
234.196	5618.2
237.089	5657.54
239.982	5454.85
242.875	4866.81
245.767	3940.21
248.66	2825.18
251.553	1819.82
254.445	1059.75
257.338	469.904
260.231	200.889
263.123	119.894
266.016	224.26
268.909	461.519
271.802	589.615
274.694	1105.57
277.587	1477.95
280.48	2022.91
283.372	2628.96
286.265	3173.25
289.158	3448.84
292.05	3345.53
294.943	3026.42
297.836	2503.35
300.729	1916.67
303.621	1401.24
306.514	942.074
309.407	721.539
312.299	589.641
315.192	636.801
318.085	666.896
320.978	790.367
323.87	801.789
326.763	685.922
329.656	414.654
332.548	66.4805
335.441	292.67
338.334	682.611
341.226	947.842
344.119	849.668
347.012	193.922
349.904	990.594
352.797	2863.88
355.69	5759.16
358.583	9582.72
361.475	14685.3
364.368	21096.8
367.261	28691
370.153	37035.5
373.046	45278.1
375.939	52194.2
378.832	56084.4
381.724	56404.5
384.617	53142.7
387.51	48493.8
390.402	43650.2
393.295	39283.8
396.188	34654.3
399.08	28632.1
401.973	21652.9
404.866	15437.4
407.759	11004
410.651	8929.68
413.544	9504.84
416.437	12507.2
419.329	18016.1
422.222	25243.7
425.115	31887.8
428.007	33645.2
430.9	29222.1
433.793	21350.6
436.685	14101.1
439.578	8982.44
442.471	7139.7
445.364	7718.58
448.256	8687.57
451.149	7428.5
454.042	4159.79
456.934	1102.58
459.827	143.074
462.72	828.34
465.613	3767.71
468.505	7900.51
471.398	12640.3
474.291	16746
477.183	18716.6
480.076	17786
482.969	14458.8
485.861	10832.5
488.754	8650.28
491.647	8077.09
494.539	8186.83
497.432	8015.68
500.325	7103.31
503.218	5569.8
506.11	3890.26
509.003	2414.77
511.896	1185.18
514.788	284.148
517.681	203.178
520.574	415.178
523.466	389.514
526.359	258.082
529.252	129.99
532.145	12.9707
535.037	4.13867
537.93	110.633
540.823	256.461
543.715	380.947
546.608	474.283
549.501	577.713
552.394	829.445
555.286	1090.27
558.179	1415.68
561.072	1705.74
563.964	2015.27
566.857	2213.27
569.75	2516.14
572.642	2733.24
575.535	3022.5
578.428	3305.28
581.321	3646.81
584.213	3997.12
587.106	4486.42
589.999	5138.98
592.891	5704.83
595.784	6261.38
598.677	6609.58
601.569	6809.57
604.462	6820
607.355	6612.17
610.247	6236.48
613.14	5735.38
616.033	5097.33
618.926	4352.38
621.818	3630.67
624.711	2958.22
627.604	2404.5
630.496	1823.72
633.389	1276.68
636.282	839.805
639.174	388.514
642.067	68.918
644.96	478.957
647.852	890.078
650.745	1128.18
653.638	1166.79
656.531	1144.74
659.423	987.481
662.316	815.016
665.209	499.316
668.101	72.7422
670.994	815.457
673.887	1404.23
676.779	2137.35
679.672	2689.64
682.565	3196.53
685.458	3446.84
688.35	3765.03
691.243	4329.77
694.136	5505.36
697.028	7513.45
699.921	10715.1
702.814	14746.5
705.707	19899.8
708.599	25383.1
711.492	30551
714.385	34969.4
717.277	37890.4
720.17	39197.6
723.063	39207.1
725.955	38289
728.848	37164.5
731.741	36041.1
734.634	35210.9
737.526	34000.5
740.419	32580.2
743.312	30412.4
746.204	28685.5
749.097	27824.5
751.99	29171.7
754.882	32659.3
757.775	38078.8
760.668	44429.9
763.561	50397.7
766.453	54726.5
769.346	56600.6
772.239	55265.9
775.131	51057.1
778.024	44451.7
780.917	37719
783.809	31919.2
786.702	28342.2
789.595	26511.3
792.487	26493
795.38	26979.1
798.273	27198.7
801.166	27318.9
804.058	27491
806.951	27434.9
809.844	27045.5
812.736	25655.6
815.629	23899.8
818.522	21138.8
821.415	17985.3
824.307	14513
827.2	11150.2
830.093	8337.55
832.985	5770.92
835.878	3721.66
838.771	2153.77
841.663	970.871
844.556	1.01562
847.449	688.412
850.342	1120.17
853.234	1278.17
856.127	1280.9
859.02	1226.07
861.912	1000.67
864.805	717.758
867.698	370.148
870.591	6.65234
873.483	479.121
876.376	960.273
879.269	1521.58
882.161	2036.73
885.054	2552.7
887.947	3150.76
890.839	3673.21
893.732	4160.97
896.625	4646.22
899.518	5087.07
902.41	5615.81
905.303	5980.85
908.196	6127.5
911.088	6173.57
913.981	6102.57
916.874	5893.17
919.766	5590.93
922.659	5237.08
925.552	4849.33
928.444	4440.9
931.337	4117.92
934.23	3795.97
937.123	3507.28
940.015	3278.69
942.908	3074.58
945.801	2893.27
948.693	2701.48
951.586	2514.3
954.479	2390.35
957.371	2219.79
960.264	2031.82
963.157	1930.19
966.05	1792.14
968.942	1678.26
971.835	1552.07
974.728	1452.3
977.62	1371.47
980.513	1300.97
983.406	1229.55
986.298	1128.46
989.191	1089.94
992.084	998.359
994.977	953.099
997.869	915.971
1000.76	852.928
1003.65	787.306
1006.55	730.537
1009.44	685.401
1012.33	623.139
1015.23	579.489
1018.12	508.825
1021.01	468.073
1023.9	414.595
1026.8	366.484
1029.69	308.891
1032.58	270.228
1035.47	242.347
1038.37	180.193
1041.26	134.793
1044.15	124.581
1047.05	102.451
1049.94	63.9043
1052.83	10.2908
1055.72	6.65039
1058.62	18.0847
1061.51	22.928
1064.4	53.0627
1067.29	49.2556
1070.19	55.9504
1073.08	41.1682
1075.97	37.7681
1078.87	43.7043
1081.76	36.9214
1084.65	26.8315
1087.54	22.3726
1090.44	4.34814
1093.33	7.70459
1096.22	29.0269
1099.11	30.3008
1102.01	64.9133
1104.9	94.1704
1107.79	86.7437
1110.68	116.034
1113.58	123.534
1116.47	130.97
1119.36	132.391
1122.26	182.31
1125.15	154.669
1128.04	169.014
1130.93	170.745
1133.83	179.006
1136.72	158.671
1139.61	139.639
1142.5	116.224
1145.4	98.4136
1148.29	86.0449
1151.18	75.7263
1154.08	57.8145
1156.97	54.908
1159.86	49.7869
1162.75	36.1602
1165.65	44.4958
1168.54	23.4321
1171.43	11.0767
1174.32	26.741
1177.22	26.7034
1180.11	17.0044
1183	20.3706
1185.89	13.6942
1188.79	16.1757
1191.68	38.5588
1194.57	36.6809
1197.47	21.8945
1200.36	42.9608
1203.25	49.411
1206.14	51.0159
1209.04	61.3585
1211.93	59.191
1214.82	63.6243
1217.71	63.6505
1220.61	77.717
1223.5	79.4341
1226.39	80.2141
1229.29	90.9662
1232.18	81.1572
1235.07	86.5773
1237.96	92.9089
1240.86	82.9601
1243.75	65.2666
1246.64	48.833
1249.53	65.5641
1252.43	60.8673
1255.32	51.6548
1258.21	41.2164
1261.11	50.3671
1264	35.4775
1266.89	38.5562
1269.78	26.61
1272.68	19.2939
1275.57	29.1764
1278.46	15.1621
1281.35	15.5402
1284.25	23.9773
1287.14	15.3425
1290.03	20.6227
1292.92	26.7053
1295.82	13.3041
1298.71	1.38367
1301.6	7.48486
