Measurement: Raman, 532 nm, unoriented, Raman Data Processed
Mineral: Beta-fergusonite-(Ce)
Rruff sample: R070225
Ideal chemistry: CeNbO_4_
Locality: Hongcheon, Kangwon-Do Province, Korea
Source: Michael Scott
Description: Reddish brown subhedral crystal; associated with manganotantalite, siderite, pyrite in a polished grain mount
Raman shift (cm-1)	intensity
176.178	0
179.071	0.549805
181.964	77.1821
184.856	106.953
187.749	117.644
190.642	159.071
193.535	169.496
196.427	247.047
199.32	321.665
202.213	412.765
205.105	608.631
207.998	710.942
210.891	593.431
213.783	439.913
216.676	226.548
219.569	284.608
222.462	178.032
225.354	58.8584
228.247	29.6953
231.14	9.44971
234.032	10.3565
236.925	23.6553
239.818	39.4199
242.71	179.612
245.603	224.576
248.496	169.947
251.388	87.188
254.281	22.5503
257.174	56.9517
260.067	35.8037
262.959	43.6733
265.852	33.2412
268.745	23.0093
271.637	49.8652
274.53	1.12061
277.423	155.645
280.315	88.2075
283.208	102.864
286.101	115.081
288.994	224.657
291.886	238.58
294.779	368.923
297.672	425.046
300.564	689.64
303.457	903.873
306.35	1166.04
309.243	1512.14
312.135	1857.61
315.028	2295.91
317.921	2629.55
320.813	2862.16
323.706	2760.47
326.599	2586.99
329.491	2384.67
332.384	2049.42
335.277	1784.15
338.17	1460.5
341.062	1280.96
343.955	1134.46
346.848	1045.67
349.74	943.759
352.633	878.76
355.526	840.829
358.418	854.023
361.311	836.561
364.204	880.695
367.097	788.744
369.989	879.23
372.882	915.043
375.775	877.761
378.667	965.218
381.56	1112.26
384.453	1316.84
387.346	1611.16
390.238	1869.23
393.131	2116.5
396.024	2365.41
398.916	2430.55
401.809	2233.5
404.702	1812.54
407.594	1331.33
410.487	933.437
413.38	723.415
416.272	434.457
419.165	366.723
422.058	316.04
424.951	223.93
427.843	141.993
430.736	119.584
433.629	93.4522
436.521	28.1069
439.414	99.2485
442.307	13.7598
445.2	71.9458
448.092	58.5132
450.985	51.3638
453.878	26.1982
456.77	76.2627
459.663	9.77637
462.556	18.0405
465.448	29.9521
468.341	55.0664
471.234	99.0063
474.127	154.472
477.019	199.241
479.912	269.847
482.805	220.783
485.697	217.477
488.59	198.445
491.483	210.638
494.375	140.848
497.268	55.7056
500.161	122.597
503.053	98.8276
505.946	203.785
508.839	264.565
511.732	494.554
514.624	709.585
517.517	1007.24
520.41	1366.43
523.302	1660.12
526.195	1836
529.088	1854.55
531.981	1555.95
534.873	1208.58
537.766	925.346
540.659	561.61
543.551	386.891
546.444	249.815
549.337	148.401
552.229	56.0425
555.122	44.2827
558.015	26.1802
560.908	36.6851
563.8	25.2114
566.693	12.0415
569.586	10.1274
572.478	14.446
575.371	16
578.264	53.2332
581.156	39.6758
584.049	69.6248
586.942	120.689
589.835	172.102
592.727	219.683
595.62	262.714
598.513	314.031
601.405	368.128
604.298	360.641
607.191	411.584
610.083	411.271
612.976	442.379
615.869	373.281
618.762	445.358
621.654	436.546
624.547	424.397
627.44	472.251
630.332	440.206
633.225	488.739
636.118	556.096
639.01	526.55
641.903	542.3
644.796	522.823
647.689	537.806
650.581	568.264
653.474	549.454
656.367	538.543
659.259	615.735
662.152	646.945
665.045	636.358
667.938	629.758
670.83	598.568
673.723	558.188
676.616	453.261
679.508	376.801
682.401	351.149
685.294	252.643
688.186	208.322
691.079	162.265
693.972	85.7263
696.865	47.4724
699.757	32.1106
702.65	60.6296
705.543	29.3061
708.435	7.91748
711.328	10.1946
714.221	37.6987
717.113	42.3118
720.006	102.879
722.899	54.8623
725.792	38.4309
728.684	84.4758
731.577	18.7754
734.47	16.9045
737.362	66.6873
740.255	70.8945
743.148	109.904
746.04	244.928
748.933	338.317
751.826	420.216
754.719	498.659
757.611	670.388
760.504	796.694
763.397	898.242
766.289	1106.83
769.182	1257.25
772.075	1498.9
774.967	1716.87
777.86	1957.97
780.753	2219.98
783.646	2615.11
786.538	3012.43
789.431	3358.68
792.324	3740.53
795.216	3990.72
798.109	4268.03
801.002	4310.14
803.894	4151.9
806.787	3930.63
809.68	3571.92
812.573	3279.43
815.465	2916.89
818.358	2757.33
821.251	2459.41
824.143	2105.56
827.036	1842.39
829.929	1490.74
832.822	1149.64
835.714	874.225
838.607	709.688
841.5	647.208
844.392	638.174
847.285	690.677
850.178	920.926
853.07	1353.37
855.963	2023.12
858.856	2942.58
861.749	4151.46
864.641	5810.37
867.534	7991.43
870.427	10446.8
873.319	12782.5
876.212	14317.3
879.105	14242.4
881.997	12526.5
884.89	9765.53
887.783	6797.44
890.676	4283.02
893.568	2515.15
896.461	1365.42
899.354	650.92
902.246	319.43
905.139	26.4731
908.032	41.5481
910.924	60.2435
913.817	96.0095
916.71	102.529
919.602	75.0488
922.495	62.6968
925.388	58.6246
928.281	0.15979
931.173	21.6553
934.066	51.9479
936.959	88.978
939.851	102.673
942.744	153.445
945.637	156.612
948.529	193.417
951.422	245.925
954.315	236.964
957.208	281.959
960.1	319.433
962.993	327.85
965.886	349.574
968.778	350.92
971.671	350.223
974.564	351.202
977.457	352.151
980.349	282.593
983.242	260.995
986.135	276.224
989.027	211.074
991.92	214.598
994.813	210.637
997.705	210.455
1000.6	173.859
1003.49	161.342
1006.38	146.108
1009.28	111.161
1012.17	149.983
1015.06	138.61
1017.95	113.998
1020.85	111.795
1023.74	100.998
1026.63	81.6204
1029.53	95.4556
1032.42	65.4156
1035.31	65.7534
1038.2	77.818
1041.1	69.7538
1043.99	79.2599
1046.88	58.8748
1049.77	81.7147
1052.67	36.8109
1055.56	38.1128
1058.45	52.7754
1061.35	63.8391
1064.24	67.2225
1067.13	30.5183
1070.02	36.6082
1072.92	25.6666
1075.81	60.2548
1078.7	11.6075
1081.59	2.26404
1084.49	28.9785
1087.38	9.82239
1090.27	2.12463
1093.16	21.5096
1096.06	13.6227
1098.95	16.6832
1101.84	21.9605
1104.73	15.4996
1107.63	27.0093
1110.52	18.5922
1113.41	8.46289
1116.31	4.83936
1119.2	34.0551
1122.09	18.5642
1124.98	13.1459
1127.88	6.59387
1130.77	39.5243
1133.66	36.3931
1136.56	21.2372
1139.45	0.860596
1142.34	20.3153
1145.23	2.24353
1148.13	20.2233
1151.02	38.9708
1153.91	9.56885
1156.8	40.006
1159.7	4.82568
1162.59	6.6167
1165.48	4.401
1168.38	42.2151
1171.27	7.94409
1174.16	24.5524
1177.05	0.421143
1179.95	38.7954
1182.84	19.9304
1185.73	12.8661
1188.62	48.7329
1191.52	19.7041
1194.41	40.9901
1197.3	17.8146
1200.19	22.7714
1203.09	26.5059
1205.98	30.9277
1208.87	49.1352
1211.77	37.4835
1214.66	26.2395
1217.55	19.5754
