Measurement: Raman, 785 nm, unoriented, Raman Data Processed
Mineral: Beta-fergusonite-(Ce)
Rruff sample: R070225
Ideal chemistry: CeNbO_4_
Locality: Hongcheon, Kangwon-Do Province, Korea
Source: Michael Scott
Description: Reddish brown subhedral crystal; associated with manganotantalite, siderite, pyrite in a polished grain mount
Raman shift (cm-1)	intensity
157.178	0
159.589	114.119
161.999	8.12348
164.41	60.785
166.821	68.5839
169.231	123.754
171.642	113.562
174.052	29.4867
176.463	137.326
178.873	179.887
181.284	214.249
183.695	256.306
186.105	175.401
188.516	15.4682
190.926	14.0912
193.337	27.0882
195.748	202.395
198.158	539.736
200.569	831.461
202.979	1271.84
205.39	1733.67
207.8	2231.37
210.211	2499.54
212.622	2478.53
215.032	2036.11
217.443	1422.41
219.853	1052.58
222.264	1015.61
224.674	1047.8
227.085	1340.08
229.496	1732.06
231.906	2237.84
234.317	2627.2
236.727	3027.74
239.138	3495.86
241.549	3762.49
243.959	3841.42
246.37	3919.29
248.78	3605.87
251.191	2962.7
253.601	2177.61
256.012	1547.44
258.423	934.757
260.833	645.943
263.244	431.418
265.654	298.6
268.065	165.03
270.476	221.456
272.886	224.015
275.297	109.389
277.707	138.822
280.118	275.389
282.529	133.032
284.939	65.6891
287.35	179.279
289.76	287.071
292.171	90.2211
294.581	619.972
296.992	958.978
299.403	1900.11
301.813	2792.4
304.224	3635.22
306.634	4315.66
309.045	5025.59
311.455	5713.22
313.866	6292.13
316.277	7021.34
318.687	7455.64
321.098	7657.34
323.508	7570.4
325.919	7238.08
328.33	6874.24
330.74	6738.92
333.151	7076.76
335.561	7637.58
337.972	8380.81
340.382	9226.65
342.793	10295.9
345.204	11132
347.614	11880.4
350.025	12345
352.435	12652.2
354.846	12503.4
357.257	12112.5
359.667	11594
362.078	10806.1
364.488	9971.45
366.899	9034.47
369.31	8111.85
371.72	7149.44
374.131	6332.67
376.541	5643.42
378.952	4894.75
381.362	4536.83
383.773	4680.68
386.184	4640.42
388.594	5110.67
391.005	5850.66
393.415	6642.95
395.826	7690.29
398.236	8643.7
400.647	9057.57
403.058	8245.77
405.468	6255
407.879	4015.46
410.289	2292.86
412.7	1187.09
415.111	457.823
417.521	7.9043
419.932	316.901
422.342	277.202
424.753	50.9374
427.163	89.7202
429.574	8.02719
431.985	22.9992
434.395	140.437
436.806	222.816
439.216	121.117
441.627	291.026
444.038	766.311
446.448	1016.09
448.859	1328.97
451.269	1922.5
453.68	2359.99
456.091	2668.98
458.501	3353.27
460.912	3932.86
463.322	4541.98
465.733	4949.66
468.143	5290.43
470.554	5600.13
472.965	5795.38
475.375	5634.06
477.786	5564.03
480.196	5401.25
482.607	5039.07
485.017	4421.1
487.428	3882.63
489.839	3369.88
492.249	2755.96
494.66	2258.92
497.07	1883.73
499.481	1563.03
501.892	1461.51
504.302	1496.19
506.713	1673.14
509.123	2010.32
511.534	2518.73
513.944	3335.14
516.355	4290.26
518.766	5461.6
521.176	6925.1
523.587	8332.63
525.997	9593.2
528.408	10093
530.819	9631.13
533.229	8196.56
535.64	6301.41
538.05	4601.29
540.461	3182.7
542.871	2184.16
545.282	1454.5
547.693	920.778
550.103	554.449
552.514	289.146
554.924	109.118
557.335	102.119
559.745	46.6018
562.156	101.155
564.567	50.0022
566.977	70.3299
569.388	3.73113
571.798	54.0362
574.209	30.8601
576.62	22.2443
579.03	2.13161
581.441	25.1979
583.851	88.879
586.262	152.039
588.673	380.098
591.083	534.182
593.494	756.987
595.904	981.819
598.315	1351.05
600.726	1478.26
603.136	1640.12
605.547	1727.36
607.957	1613.78
610.368	1463.88
612.778	1320.37
615.189	1137.76
617.6	969.609
620.01	931.871
622.421	835.645
624.831	887.07
627.242	851.629
629.653	815.923
632.063	843.71
634.474	885.803
636.884	924.687
639.295	859.268
641.705	883.009
644.116	714.294
646.527	657.902
648.937	634.73
651.348	442.303
653.758	418.062
656.169	400.889
658.58	346.31
660.99	335.981
663.401	154.299
665.811	269.926
668.222	222.444
670.632	214.356
673.043	112.359
675.454	118.482
677.864	52.2738
680.275	43.2
682.685	11.6378
685.096	42.4909
687.506	3.68178
689.917	15.2733
692.328	13.1634
694.738	26.6293
697.149	26.7007
699.559	62.6818
701.97	183.798
704.381	65.2988
706.791	223.13
709.202	237.788
711.612	218.331
714.023	313.73
716.433	351.784
718.844	354.582
721.255	434.948
723.665	357.308
726.076	438.547
728.486	390.186
730.897	419.665
733.308	433.291
735.718	422.68
738.129	421.524
740.539	403.115
742.95	380.23
745.361	354.648
747.771	211.693
750.182	239.427
752.592	160.373
755.003	49.5155
757.413	11.6524
759.824	8.11915
762.235	12.4486
764.645	57.0583
767.056	30.2634
769.466	45.2816
771.877	13.0072
774.288	1.35651
776.698	60.74
779.109	32.739
781.519	28.2849
783.93	70.1563
786.34	164.108
788.751	350.879
791.162	539.045
793.572	571.824
795.983	804.484
798.393	946.141
800.804	985.078
803.215	958.721
805.625	1060.98
808.036	926.165
810.446	874.038
812.857	852.804
815.267	919.16
817.678	1025.31
820.089	1097.77
822.499	1173.07
824.91	1269.35
827.32	1197.6
829.731	1131.72
832.141	945.501
834.552	794.61
836.963	831.469
839.373	670.284
841.784	769.365
844.194	946.26
846.605	1116.53
849.016	1577.38
851.426	2227.64
853.837	2874.2
856.247	3914.45
858.658	5457.19
861.068	7265.14
863.479	9794.75
865.89	13140.7
868.3	17625.4
870.711	22830.2
873.121	28659.5
875.532	34268.6
877.943	37847.8
880.353	38126
882.764	35124.6
885.174	29516.3
887.585	22664.3
889.995	16262.2
892.406	10983.1
894.817	6978.32
897.227	4395.79
899.638	2592.19
902.048	1514.92
904.459	853.504
906.87	516.356
909.28	159.349
911.691	73.7774
914.101	40.7431
916.512	85.4815
918.923	9.6169
921.333	24.7789
923.744	20.8552
926.154	22.2804
928.565	13.8864
930.975	31.1665
933.386	45.1774
935.797	18.0784
938.207	6.9478
940.618	62.7907
943.028	64.1109
945.439	159.475
947.85	135.776
950.26	189.893
952.671	246.662
955.081	257.89
957.492	381.719
959.902	397.606
962.313	463.076
964.724	464.55
967.134	476.116
969.545	536.351
971.955	590.534
974.366	616.106
976.777	594.785
979.187	625.258
981.598	596.024
984.008	589.16
986.419	590.722
988.829	475.344
991.24	465.113
993.651	497.605
996.061	477.032
998.472	482.174
1000.88	497.78
1003.29	565.86
1005.7	552.975
1008.11	602.103
1010.52	633.856
1012.93	581.065
1015.35	540.188
1017.76	616.772
1020.17	599.168
1022.58	568.301
1024.99	509.477
1027.4	554.773
1029.81	548.837
1032.22	491.431
1034.63	543.65
1037.04	447.187
1039.45	395.423
1041.86	374.043
1044.27	357.228
1046.68	322.485
1049.09	230.401
1051.51	226.745
1053.91	82.8541
1056.33	43.8334
1058.74	14.6914
1061.15	5.20583
1063.56	41.375
1065.97	38.6512
1068.38	56.2642
1070.79	146.708
1073.2	58.7371
1075.61	147.332
1078.02	134.49
1080.43	204.566
1082.84	255.361
1085.25	371.408
1087.66	368.877
1090.07	290.501
1092.48	324.264
1094.89	206.756
1097.31	169.076
1099.72	189.259
1102.13	97.7469
1104.54	200.92
1106.95	34.9749
1109.36	4.27129
1111.77	7.52675
1114.18	41.6561
1116.59	2.66652
