Measurement: Raman, 780 nm, unoriented, Raman Data Processed
Mineral: Beta-fergusonite-(Ce)
Rruff sample: R080102
Ideal chemistry: CeNbO_4_
Locality: Amherst County, Virginia, USA
Source: Michael Scott
Description: Tan to light brown colored fragment from metamict sample R070300, after heating at T = 1000 C for 20 hours
Raman shift (cm-1)	intensity
150.191	0
153.084	111.75
155.976	227.693
158.869	305.882
161.762	292.597
164.654	279.415
167.547	201.278
170.44	105.444
173.333	20.2671
176.225	13.5283
179.118	1.00098
182.011	50.043
184.903	152.771
187.796	293.308
190.689	460.985
193.581	660.704
196.474	859.441
199.367	1041.44
202.26	1227.34
205.152	1441.73
208.045	1587.28
210.938	1668.31
213.83	1685.07
216.723	1687.52
219.616	1635.79
222.508	1580.06
225.401	1504.98
228.294	1413.5
231.186	1283.04
234.079	1123.49
236.972	902.669
239.865	688.589
242.757	493.726
245.65	324.076
248.543	190.879
251.435	99.0151
254.328	21.6113
257.221	30.2051
260.114	38.2251
263.006	45.4746
265.899	44.7065
268.792	60.3467
271.684	41.2978
274.577	31.519
277.47	14.1773
280.363	25.9785
283.255	57.1528
286.148	92.9683
289.041	129.327
291.933	174.218
294.826	217.741
297.719	308.149
300.611	424.066
303.504	583.059
306.397	771.756
309.289	1008.49
312.182	1275.82
315.075	1551.75
317.968	1843.37
320.86	2081.12
323.753	2271.71
326.646	2329.72
329.538	2291.45
332.431	2165.61
335.324	1972.27
338.216	1746.01
341.109	1481.2
344.002	1275.24
346.895	1161.71
349.787	1119.02
352.68	1113.62
355.573	1091.82
358.465	1098.39
361.358	1073.99
364.251	1073.2
367.144	1044.35
370.036	1000.35
372.929	958.186
375.822	879.092
378.714	802.748
381.607	692.564
384.5	594.339
387.392	505.692
390.285	407.012
393.178	343.78
396.071	303.947
398.963	296.457
401.856	286.214
404.749	291.984
407.641	297.592
410.534	315.296
413.427	315.616
416.32	301.917
419.212	291.512
422.105	319.992
424.998	382.994
427.89	472.782
430.783	609.952
433.676	788.307
436.568	970.335
439.461	1130.8
442.354	1249.09
445.247	1340.14
448.139	1343.73
451.032	1276.08
453.925	1147.83
456.817	954.987
459.71	751.184
462.603	554.418
465.495	363.129
468.388	207.026
471.281	78.7998
474.173	4.00391
477.066	65.8535
479.959	86.7837
482.852	102.137
485.744	87.1328
488.637	72.5342
491.53	41.8296
494.422	15.2134
497.315	32.6011
500.208	102.838
503.101	179.616
505.993	260.065
508.886	341.817
511.779	419.695
514.671	496.883
517.564	573.205
520.457	656.726
523.349	749.015
526.242	820.798
529.135	908.028
532.028	965.499
534.92	974.397
537.813	988.155
540.706	987.214
543.598	997.825
546.491	1009.52
549.384	1032.66
552.276	1082.61
555.169	1149.53
558.062	1208.85
560.955	1266.16
563.847	1303.46
566.74	1322.51
569.633	1333.4
572.525	1299.14
575.418	1250.79
578.311	1179.21
581.203	1089.88
584.096	981.841
586.989	881.812
589.882	796.588
592.774	724.506
595.667	667.54
598.56	629.354
601.452	589.597
604.345	565.198
607.238	534.122
610.13	485.274
613.023	449.216
615.916	391.666
618.809	332.476
621.701	282.106
624.594	235.679
627.487	192.12
630.379	151.138
633.272	111.158
636.165	115.697
639.058	81.1108
641.95	78.4766
644.843	65.6309
647.736	61.1265
650.628	45.5701
653.521	42.8648
656.414	28.0205
659.306	17.7446
662.199	14.0757
665.092	6.78638
667.985	7.56811
670.877	13.6956
673.77	19.167
676.663	22.2769
679.555	25.2122
682.448	23.7261
685.341	21.21
688.233	10.5498
691.126	1.80176
694.019	8.729
696.912	9.29126
699.804	15.4377
702.697	14.6025
705.59	16.4119
708.482	17.5538
711.375	17.7595
714.268	18.4816
717.16	14.8424
720.053	15.2428
722.946	12.9748
725.839	6.71814
728.731	1.59717
731.624	5.46057
734.517	10.7181
737.409	20.2062
740.302	28.0055
743.195	43.943
746.087	55.0264
748.98	73.7424
751.873	92.6934
754.766	112.651
757.658	125.896
760.551	146.577
763.444	166.061
766.336	191.544
769.229	214.454
772.122	239.117
775.014	264.663
777.907	291.439
780.8	325.733
783.693	368.317
786.585	421.443
789.478	484.483
792.371	561.647
795.263	641.86
798.156	731.942
801.049	815.322
803.942	875.511
806.834	917.549
809.727	905.286
812.62	825.603
815.512	730.335
818.405	625.403
821.298	525.628
824.19	442.239
827.083	371.699
829.976	315.296
832.869	263.565
835.761	214.654
838.654	177.81
841.547	141.676
844.439	107.142
847.332	76.615
850.225	47.2022
853.117	25.3765
856.01	10.7997
858.903	4.37799
861.795	6.92395
864.688	8.49115
867.581	14.6158
870.474	22.0778
873.366	27.9719
876.259	37.6364
879.152	42.1117
882.044	50.0146
884.937	52.6928
887.83	60.4036
890.722	58.2455
893.615	62.9733
896.508	64.8702
899.401	76.5356
902.293	89.2083
905.186	101.017
908.079	116.507
910.971	131.426
913.864	146.298
916.757	151.548
919.65	160.491
922.542	160.082
925.435	151.953
928.328	141.148
931.22	124
934.113	104.41
937.006	79.4373
939.899	59.1747
942.791	36.0854
945.684	21.4291
948.577	6.59106
951.469	4.94183
954.362	9.00537
957.255	12.5248
960.147	14.156
963.04	7.74374
965.933	3.25751
968.826	3.71982
971.718	13.2946
974.611	24.9495
977.504	38.006
980.396	51.6334
983.289	71.2632
986.182	88.159
989.074	112.569
991.967	135.218
994.86	159.363
997.753	182.031
1000.64	211.039
1003.54	230.879
1006.43	254.71
1009.32	269.524
1012.22	280.951
1015.11	283.541
1018	284.623
1020.89	280.9
1023.79	276.021
1026.68	268.408
1029.57	261.173
1032.46	257.344
1035.36	252.861
1038.25	249.13
1041.14	244.742
1044.04	237.629
1046.93	227.66
1049.82	219.757
1052.71	205.92
1055.61	191.119
1058.5	172.379
1061.39	151.475
1064.29	129.756
1067.18	105.703
1070.07	84.4409
1072.96	66.0495
1075.86	49.5611
1078.75	35.2659
1081.64	23.6075
1084.53	14.4956
1087.43	9.73047
1090.32	3.61429
1093.21	0.400269
1096.1	0.621613
1099	2.45383
1101.89	1.78351
1104.78	0.439941
1107.67	0.865479
1110.57	9.45355
1113.46	0.16684
1116.35	0.282654
1119.25	0.290466
1122.14	0.526306
1125.03	1.24472
1127.92	2.93014
1130.82	3.2677
1133.71	5.73022
1136.6	5.45828
1139.49	4.94189
1142.39	7.09576
1145.28	7.5766
1148.17	7.28891
1151.07	7.95636
1153.96	8.98825
1156.85	9.52414
1159.74	9.61896
1162.64	10.5205
1165.53	12.0016
1168.42	12.0841
1171.32	13.5717
1174.21	14.9671
1177.1	14.5838
1179.99	16.2153
1182.88	16.2273
1185.78	17.2765
1188.67	13.5755
1191.56	13.1152
1194.46	13.5649
1197.35	15.27
1200.24	14.262
1203.13	16.0586
1206.03	17.0402
1208.92	16.8086
1211.81	15.9187
1214.7	14.3541
1217.6	12.0997
1220.49	7.45746
1223.38	5.24793
1226.28	3.92194
1229.17	0.999573
1232.06	1.89392
1234.95	1.69739
1237.85	0.448669
1240.74	4.16791
1243.63	10.8878
1246.53	0.094482
1249.42	2.9549
1252.31	2.43103
1255.2	3.81824
1258.1	5.73315
1260.99	5.90918
1263.88	5.43762
1266.77	8.44843
1269.67	7.11652
1272.56	7.39014
1275.45	2.85919
1278.35	2.36365
1281.24	2.80103
1284.13	1.48718
1287.02	0
