Measurement: Raman, 532 nm, unoriented, Raman Data Processed
Mineral: Beta-fergusonite-(Y)
Rruff sample: R070600
Ideal chemistry: YNbO_4_
Locality: Arendal, Aust-Agder, Norway
Source: James Shigley
Description: Gray-brown to black vitreous, results for the heated sample are given in R080103
Raman shift (cm-1)	intensity
159.976	0
162.869	128.391
165.762	113.434
168.654	602.516
171.547	551.555
174.44	364.875
177.332	358.461
180.225	478.738
183.118	646.914
186.01	589.59
188.903	439.078
191.796	323.492
194.689	448.754
197.581	178.019
200.474	786.578
203.367	364.156
206.259	19.4688
209.152	228.188
212.045	153.035
214.937	104.707
217.83	479.348
220.723	651.324
223.615	798.008
226.508	1250.82
229.401	1205.88
232.294	1384.3
235.186	1400.34
238.079	1433.69
240.972	1737.48
243.864	1794.23
246.757	1836.38
249.65	1787.21
252.542	1496.81
255.435	1239.46
258.328	1117.6
261.221	1014.81
264.113	735.824
267.006	545.234
269.899	433.664
272.791	793.894
275.684	932.199
278.577	1394.76
281.469	1686.88
284.362	2141.06
287.255	2582.36
290.148	2885.52
293.04	3270.11
295.933	2934.43
298.826	2249.67
301.718	1678.03
304.611	1407.41
307.504	988.231
310.397	803.184
313.289	617.152
316.182	669.684
319.075	437.25
321.967	182.106
324.86	158.129
327.753	132.777
330.645	330.152
333.538	219.07
336.431	202.254
339.323	329.023
342.216	389.242
345.109	195.227
348.002	485.945
350.894	1367.5
353.787	1886.72
356.68	3316.9
359.572	4815.56
362.465	6301.27
365.358	8225.19
368.25	10216
371.143	11802.7
374.036	11498.7
376.928	9499.44
379.821	6742
382.714	4453.58
385.607	3064.94
388.499	2607.85
391.392	2451.29
394.285	2545.86
397.177	2910.67
400.07	3403.63
402.963	4063.09
405.856	4436.59
408.748	5071.95
411.641	4836.93
414.534	5651.28
417.426	7267.75
420.319	9185.39
423.212	12273.4
426.104	12178.2
428.997	8590.4
431.89	4659.55
434.783	1910.85
437.675	195.492
440.568	487.93
443.461	451.941
446.353	184.949
449.246	865.125
452.139	1954.84
455.031	3600.73
457.924	5009.71
460.817	5761.43
463.709	6865.47
466.602	8880.18
469.495	12053.2
472.387	15185
475.28	17339.3
478.173	16833.3
481.066	14218.3
483.958	10385.9
486.851	7297.68
489.744	5779.84
492.636	5127.4
495.529	5791.75
498.422	6647.96
501.315	8016.6
504.207	9894.84
507.1	12695.1
509.993	15323.5
512.885	17554.1
515.778	18865.9
518.671	18451
521.563	16338
524.456	13166.9
527.349	9663.34
530.241	6561.16
533.134	4258.51
536.027	2330.77
538.92	1077.49
541.812	236.043
544.705	228.016
547.598	559.988
550.49	586.352
553.383	376.184
556.276	121.715
559.168	687.223
562.061	1577.28
564.954	2669.66
567.847	3542.63
570.739	4193
573.632	4333.53
576.525	4302.76
579.417	4395.57
582.31	4535.34
585.203	5270.16
588.096	6562.69
590.988	8525.58
593.881	10301
596.774	12181.7
599.666	13309.6
602.559	13780.3
605.452	13687.3
608.344	12992.9
611.237	11557.2
614.13	9893.52
617.023	8788.66
619.915	7423.02
622.808	6177.09
625.701	5001.16
628.593	4065.54
631.486	3811.67
634.379	3554.24
637.271	3764.32
640.164	4088.75
643.057	4959.8
645.949	6018.62
648.842	6746.79
651.735	7124.32
654.628	7712.58
657.52	8041.36
660.413	8044.38
663.306	7675.58
666.198	7344.5
669.091	6620.19
671.984	5713.38
674.876	4825.65
677.769	3953.03
680.662	2940.85
683.554	2386.6
686.447	1769.78
689.34	1470.15
692.233	1457.94
695.125	1238.62
698.018	983.797
700.911	537.812
703.803	255.402
706.696	129.934
709.589	62.2617
712.481	13.0117
715.374	26.2539
718.267	178.32
721.16	302.352
724.052	291.047
726.945	308.519
729.838	300.144
732.73	216.805
735.623	205.418
738.516	13.5625
741.409	78.3672
744.301	168
747.194	241.574
750.087	453.258
752.979	657.332
755.872	1098.91
758.765	1300.33
761.657	1606.38
764.55	1920.86
767.443	2339.38
770.335	2523.73
773.228	2952.79
776.121	3215.5
779.014	3672.65
781.906	3829.61
784.799	3953.77
787.692	3986.41
790.584	4335.17
793.477	4688.12
796.37	4866.6
799.263	4872.93
802.155	5354.88
805.048	5382.99
807.941	5612.48
810.833	5746.58
813.726	5861.81
816.619	5915.87
819.511	5976.45
822.404	5805.33
825.297	6024.1
828.189	5632.96
831.082	5818.67
833.975	5411.69
836.868	5399.88
839.76	5384.54
842.653	4988.73
845.546	4979.3
848.438	4651.01
851.331	4306.29
854.224	4022.97
857.116	3844.98
860.009	3480.47
862.902	3343.02
865.794	3082.77
868.687	2882.64
871.58	2808.83
874.473	2333.98
877.365	2230.59
880.258	2054.34
883.151	2019.21
886.043	1959.85
888.936	1802.1
891.829	1613.12
894.721	1527.53
897.614	1328.06
900.507	1153.12
903.4	980.723
906.292	680.436
909.185	639.141
912.078	550.357
914.97	466.81
917.863	304.394
920.756	148.463
923.649	76.7246
926.541	79.541
929.434	178.328
932.327	112.121
935.219	188.818
938.112	287.502
941.005	156.15
943.897	10.0723
946.79	133.525
949.683	13.9121
952.575	207.022
955.468	200.223
958.361	352.84
961.254	353.795
964.146	691.523
967.039	591.492
969.932	921.07
972.824	924.295
975.717	1149.65
978.61	1466.65
981.502	1881.11
984.395	2452.66
987.288	3492.15
990.181	4381.01
993.073	5743.99
995.966	7456.69
998.859	7526.58
1001.75	4108.27
1004.64	2709.34
1007.54	2326.49
1010.43	2360.21
1013.32	2538.55
1016.22	2676.73
1019.11	3003.26
1022	3384.2
1024.89	3513.65
1027.79	3043.22
1030.68	2972.32
1033.57	2852.73
1036.46	2705.9
1039.36	2661.75
1042.25	2814.78
1045.14	2916.56
1048.04	3238.9
1050.93	3753
1053.82	4659.37
1056.71	4392.44
1059.61	2502.37
1062.5	1763.03
1065.39	1258.13
1068.28	996.725
1071.18	885.977
1074.07	711.49
1076.96	569.375
1079.85	574.705
1082.75	445.723
1085.64	470.766
1088.53	240.137
1091.42	237.156
1094.32	144.238
1097.21	142.754
1100.1	111.537
1103	22.4258
1105.89	6.53516
1108.78	83.2695
1111.67	16.8789
1114.57	95.2383
1117.46	17.7773
1120.35	114.772
1123.24	39.752
1126.14	43.2207
1129.03	10.0527
1131.92	89.3047
1134.82	149.131
1137.71	246.912
1140.6	251.506
1143.49	118.938
1146.39	227.732
1149.28	307.988
1152.17	244.414
1155.06	307.844
1157.96	384.988
1160.85	456.984
1163.74	249.5
1166.63	301.027
1169.53	381.908
1172.42	351.375
1175.31	259.779
1178.21	258.713
1181.1	139.883
1183.99	140.211
1186.88	154.879
1189.78	138.75
1192.67	72.584
1195.56	215.994
1198.45	192.57
1201.35	158.734
1204.24	144.272
1207.13	181.705
1210.03	168.004
1212.92	296.65
1215.81	214.711
1218.7	178.619
1221.6	21.3379
1224.49	171.283
1227.38	2.66406
1230.28	63.0117
1233.17	38.2324
1236.06	6.61328
1238.95	18.7227
1241.85	64.5664
1244.74	31.2988
1247.63	47.668
1250.52	61.9043
1253.42	2.95117
1256.31	2.92578
1259.2	167.996
1262.09	106.953
1264.99	0.568359
