Measurement: Raman, 532 nm, unoriented, Raman Data Processed
Mineral: Beta-fergusonite-(Y)
Rruff sample: R080103
Ideal chemistry: YNbO_4_
Locality: Arendal, Aust-Agder, Norway
Source: James Shigley
Description: Olive green fragment from metamict sample R070600, after heating at T = 1000 C for 20 hours
Raman shift (cm-1)	intensity
150.308	0
153.201	206.668
156.094	747.773
158.986	822.32
161.879	994.727
164.772	1339.3
167.664	1199.29
170.557	651.43
173.45	176.949
176.343	155.391
179.235	166.316
182.128	200.731
185.021	1221.66
187.913	2672.71
190.806	3923.39
193.699	5189.33
196.591	6145.35
199.484	7092.42
202.377	7758.08
205.269	9096.49
208.162	10147.6
211.055	11489.9
213.948	12373.1
216.84	13636.3
219.733	15579.8
222.626	17390.3
225.518	19524
228.411	21371.7
231.304	23108.3
234.196	24498.3
237.089	24977.1
239.982	24176.4
242.875	20856.2
245.767	15904
248.66	10456.8
251.553	6149.49
254.445	3519.91
257.338	2482.84
260.231	2544
263.123	3305.77
266.016	4120.24
268.909	4603.11
271.802	5710.85
274.694	6720.58
277.587	7950.31
280.48	9455.97
283.372	10481.2
286.265	11303.6
289.158	11680.6
292.05	10914.9
294.943	9418.09
297.836	6858.33
300.729	4254.95
303.621	2630.72
306.514	737.922
309.407	560.133
312.299	1358.06
315.192	1586.55
318.085	1006.27
320.978	163.008
323.87	1230.68
326.763	1702.73
329.656	1724.76
332.548	1023.74
335.441	187.336
338.334	322.906
341.226	588.984
344.119	413.539
347.012	3595.78
349.904	9378.08
352.797	18277.1
355.69	31149.1
358.583	48462.2
361.475	71430.7
364.368	98963.1
367.261	130483
370.153	164420
373.046	194810
375.939	210407
378.832	205245
381.724	180875
384.617	154434
387.51	138714
390.402	135880
393.295	133835
396.188	117557
399.08	86280.9
401.973	54984.7
404.866	32663.6
407.759	21282.8
410.651	20968.6
413.544	30134.6
416.437	48987.8
419.329	77361.1
422.222	113400
425.115	140558
428.007	137650
430.9	107783
433.793	70877.9
436.685	41229.5
439.578	25728.1
442.471	25105.4
445.364	32971.4
448.256	36944.1
451.149	25666.6
454.042	8901.63
456.934	1639.59
459.827	4572.1
462.72	1527.66
465.613	8315.84
468.505	23265.4
471.398	43571.9
474.291	65767.3
477.183	81954.1
480.076	82984.5
482.969	68586.7
485.861	49914.8
488.754	39148.9
491.647	37722.2
494.539	40192.6
497.432	40272
500.325	35114.2
503.218	26831.7
506.11	18946
509.003	12365.4
511.896	7805.14
514.788	4207.3
517.681	1260.14
520.574	481.375
523.466	461.422
526.359	69.3672
529.252	1090.96
532.145	1757.59
535.037	1881.57
537.93	2080.7
540.823	1916.63
543.715	2110.99
546.608	1762.65
549.501	1362.78
552.394	1344.65
555.286	1970.13
558.179	2503.43
561.072	3450.73
563.964	4443.71
566.857	4864.83
569.75	5786.66
572.642	6116.09
575.535	6902.86
578.428	7827.18
581.321	9043.46
584.213	10488.4
587.106	12360
589.999	14359
592.891	16763.4
595.784	18977.9
598.677	21116.6
601.569	22614.5
604.462	23864
607.355	24330.1
610.247	23917.1
613.14	22661.8
616.033	20488.5
618.926	18057.9
621.818	15319.8
624.711	12764.8
627.604	10199.7
630.496	7925.13
633.389	5626.96
636.282	3955.74
639.174	2512.86
642.067	1193.85
644.96	348.008
647.852	1925.14
650.745	3240.37
653.638	3859.27
656.531	4180.5
659.423	4435.61
662.316	4027.42
665.209	3230.2
668.101	1700.7
670.994	739.531
673.887	3082.31
676.779	5665.94
679.672	8321.77
682.565	10236.7
685.458	10867.9
688.35	10276.8
691.243	9293.45
694.136	9073.61
697.028	10873.6
699.921	16186.8
702.814	26716.8
705.707	42246.2
708.599	62463.1
711.492	85652.8
714.385	109300
717.277	130775
720.17	147700
723.063	156226
725.955	156278
728.848	149964
731.741	141628
734.634	135816
737.526	131878
740.419	128370
743.312	118930
746.204	104306
749.097	86435.2
751.99	73733.8
754.882	69095.3
757.775	76212.9
760.668	94124
763.561	120750
766.453	151580
769.346	182613
772.239	207716
775.131	221928
778.024	216582
780.917	193337
783.809	159681
786.702	127926
789.595	106789
792.487	99505.9
795.38	100717
798.273	103520
801.166	106125
804.058	106599
806.951	106685
809.844	107434
812.736	107370
815.629	108455
818.522	105167
821.415	99480
824.307	88698.9
827.2	75472.5
830.093	60920.9
832.985	47149.3
835.878	34415
838.771	23683.3
841.663	15045.9
844.556	7996.38
847.449	2942.26
850.342	766.375
853.234	2888.14
856.127	4107.89
859.02	4678.04
861.912	4683.38
864.805	4156.17
867.698	3444.09
870.591	2154.42
873.483	985.078
876.376	695.035
879.269	2613.75
882.161	4459.74
885.054	6378.98
887.947	8360.14
890.839	10401.9
893.732	12381.7
896.625	14276.2
899.518	16288.5
902.41	18049.7
905.303	19631.4
908.196	21297.1
911.088	22605.6
913.981	23207.3
916.874	23179.7
919.766	22562.6
922.659	21735.5
925.552	20424.9
928.444	18922.8
931.337	17400
934.23	16049.2
937.123	14859.7
940.015	13735.5
942.908	12784.1
945.801	12006.2
948.693	11193.3
951.586	10382.8
954.479	9749.91
957.371	9200.28
960.264	8472.5
963.157	7988.48
966.05	7381.71
968.942	6777.56
971.835	6380.44
974.728	6017.94
977.62	5524.54
980.513	5294.94
983.406	4990.63
986.298	4431.02
989.191	4225.93
992.084	3820.21
994.977	3633.07
997.869	3495.4
1000.76	3325.68
1003.65	3073.4
1006.55	2859.67
1009.44	2724.41
1012.33	2564.06
1015.23	2167.12
1018.12	2105.03
1021.01	1872.64
1023.9	1688.51
1026.8	1562.16
1029.69	1299.26
1032.58	1157.63
1035.47	1061.99
1038.37	898.344
1041.26	747.729
1044.15	594.077
1047.05	486.72
1049.94	373.35
1052.83	283.547
1055.72	103.735
1058.62	93.3555
1061.51	119.09
1064.4	119.98
1067.29	225.704
1070.19	205.641
1073.08	213.489
1075.97	234.069
1078.87	206.923
1081.76	188.444
1084.65	73.7559
1087.54	130.535
1090.44	89.166
1093.33	40.8623
1096.22	77.6641
1099.11	173.105
1102.01	268.348
1104.9	327.12
1107.79	396.151
1110.68	444.464
1113.58	465.836
1116.47	574.116
1119.36	678.851
1122.26	716.725
1125.15	797.226
1128.04	885.868
1130.93	920.995
1133.83	954.356
1136.72	912.169
1139.61	818.861
1142.5	660.869
1145.4	625.625
1148.29	505.651
1151.18	527.549
1154.08	422.85
1156.97	286.412
1159.86	287.704
1162.75	278.228
1165.65	114.272
1168.54	101.087
1171.43	153.351
1174.32	8.86279
1177.22	158.795
1180.11	103.073
1183	54.4741
1185.89	134.138
1188.79	122.846
1191.68	50.4273
1194.57	125.561
1197.47	116.23
1200.36	171.5
1203.25	100.024
1206.14	186.755
1209.04	133.861
1211.93	214.762
1214.82	178.799
1217.71	258.107
1220.61	249.186
1223.5	331.968
1226.39	241.732
1229.29	320.18
1232.18	276.842
1235.07	324.495
1237.96	272.738
1240.86	292.5
1243.75	277.051
1246.64	296.199
1249.53	291.548
1252.43	343.998
1255.32	300.516
1258.21	256.508
1261.11	260.443
1264	233.588
1266.89	242.492
1269.78	156.981
1272.68	160.674
1275.57	98.8193
1278.46	149.543
1281.35	132.403
1284.25	71.5884
1287.14	39.5947
1290.03	4.48047
1292.92	59.1777
1295.82	93.5649
1298.71	76.8086
1301.6	44.0293
