Measurement: Raman, 532 nm, unoriented, Raman Data Processed
Mineral: Beta-roselite
Rruff sample: R060830
Ideal chemistry: Ca_2_Co^2+^(As^5+^O_4_)_2_2H_2_O
Locality: Bou Azzer, Morocco
Source: Michael Scott
Description: Aggregates of reddish orange platy crystals associated with reddish purple erythrite
Raman shift (cm-1)	intensity
111.399	0
114.773	52.1979
118.148	275.693
121.523	506.382
124.898	213.58
128.273	57.4935
131.648	34.4817
135.022	20.8072
138.397	34.0117
141.772	82.7227
145.147	145.299
148.522	362.966
151.896	925.213
155.271	1777.22
158.646	3003.45
162.021	3696.32
165.396	1632.99
168.77	1409.88
172.145	1908.01
175.52	2642.55
178.895	2485.02
182.27	1533
185.644	1503.29
189.019	2026.5
192.394	2844.71
195.769	3261.49
199.144	1833.86
202.519	801.884
205.893	669.443
209.268	853.832
212.643	1138.76
216.018	848.617
219.393	207.038
222.767	51.8823
226.142	60.3638
229.517	72.49
232.892	277.088
236.267	554.543
239.642	728.72
243.016	801.367
246.391	919.051
249.766	1079.85
253.141	1270.92
256.516	939.044
259.89	717.923
263.265	998.712
266.64	1741.21
270.015	2707.62
273.39	3350.77
276.764	2791.03
280.139	1380.61
283.514	390.625
286.889	20.6133
290.264	71.4949
293.639	188.276
297.013	627.602
300.388	1239.8
303.763	1980.74
307.138	1814.24
310.513	707.444
313.887	117.596
317.262	99.8223
320.637	83.2981
324.012	99.2063
327.387	289.856
330.762	839.511
334.136	1514.92
337.511	2695.37
340.886	4671.28
344.261	7445.66
347.635	10840.8
351.01	14245.3
354.385	15856.8
357.76	15156.2
361.135	13896.9
364.51	10135.1
367.884	5845.71
371.259	3714.86
374.634	3121.79
378.009	3652.38
381.384	4686.25
384.759	6098.24
388.133	6562.48
391.508	4040.95
394.883	1810.28
398.258	756.343
401.633	336.627
405.007	114.949
408.382	22.4053
411.757	42.5474
415.132	55.0625
418.507	15.3547
421.881	54.4402
425.256	196.197
428.631	360.1
432.006	765.877
435.381	1481.71
438.755	2555.78
442.13	4291.68
445.505	6593.78
448.88	8619.95
452.255	8923.64
455.63	9219.42
459.004	9199.02
462.379	6744.28
465.754	4015.09
469.129	2246.96
472.504	1352.53
475.878	805.793
479.253	448.337
482.628	304.475
486.003	176.284
489.378	119.773
492.752	79.3389
496.127	33.3055
499.502	23.3624
502.877	45.973
506.252	7.5144
509.627	4.13074
513.001	43.3295
516.376	7.72021
519.751	8.38269
523.126	18.5078
526.501	3.03662
529.875	3.61182
533.25	3.62305
536.625	68.8625
540	37.3126
543.375	62.4315
546.75	101.755
550.124	94.8541
553.499	124.437
556.874	98.5476
560.249	110.701
563.624	83.8026
566.998	118.344
570.373	133.551
573.748	96.5327
577.123	126.418
580.498	85.0768
583.872	122.221
587.247	141.796
590.622	142.049
593.997	167.452
597.372	180.228
600.747	161.903
604.121	203.367
607.496	221.114
610.871	219.255
614.246	195.596
617.621	199.163
620.995	285.295
624.37	302.525
627.745	311.524
631.12	344.787
634.495	373.605
637.87	370.345
641.244	377.039
644.619	360.276
647.994	408.922
651.369	437.529
654.744	492.252
658.118	542.856
661.493	584.942
664.868	643.202
668.243	741.928
671.618	799.737
674.992	822.715
678.367	773.488
681.742	802.695
685.117	730.631
688.492	680.317
691.866	590.311
695.241	501.242
698.616	416.416
701.991	359.876
705.366	240.616
708.741	140.092
712.115	101.542
715.49	5.43311
718.865	51.2644
722.24	173.805
725.615	197.762
728.99	228.56
732.364	195.646
735.739	144.219
739.114	31.6787
742.489	142.222
745.864	433.308
749.238	683.728
752.613	721.57
755.988	1270.79
759.363	1767.4
762.738	2305.74
766.112	2534.64
769.487	2445.05
772.862	2356.85
776.237	2302.61
779.612	2495.77
782.986	2795.2
786.361	2771.86
789.736	2409.59
793.111	2316.35
796.486	3305.64
799.861	5548.41
803.235	8283.15
806.61	10104.3
809.985	10318.6
813.36	9664.14
816.735	9172.01
820.109	11159.4
823.484	17179.5
826.859	28334.2
830.234	46062.2
833.609	65791.7
836.984	60726.1
840.358	29297.8
843.733	11894.5
847.108	5204.45
850.483	2410.76
853.858	1494.31
857.232	1649.95
860.607	2921.99
863.982	5725.52
867.357	10301.2
870.732	16908.5
874.106	25052.3
877.481	28098.2
880.856	17691.3
884.231	8051.89
887.606	3649.59
890.981	1689.93
894.355	782.107
897.73	310.103
901.105	74.5088
904.48	25.4502
907.855	161.812
911.229	206.028
914.604	184.393
917.979	185.481
921.354	131.024
924.729	73.905
928.104	42.7793
931.478	27.5569
934.853	86.0754
938.228	163.703
941.603	234.792
944.977	341.187
948.352	374.082
951.727	466.253
955.102	528.481
958.477	591.839
961.852	679.658
965.226	684.471
968.601	694.21
971.976	697.096
975.351	713.056
978.726	700.155
982.101	599.476
985.475	579.201
988.85	520.797
992.225	507.195
995.6	468.144
998.975	448.198
1002.35	421.61
1005.72	370.196
1009.1	382.831
1012.47	326.377
1015.85	316.272
1019.22	284.739
1022.6	265.122
1025.97	286.444
1029.35	270.454
1032.72	281.949
1036.1	276.814
1039.47	287.853
1042.85	242.725
1046.22	296.71
1049.6	254.134
1052.97	295.245
1056.35	291.979
1059.72	302.49
1063.1	347.714
1066.47	178.669
1069.85	139.071
1073.22	50.0676
1076.6	87.5156
1079.97	47.7305
1083.35	31.5447
1086.72	46.4722
1090.09	20.3267
1093.47	19.0349
1096.84	20.6848
1100.22	5.04614
1103.59	0.324219
1106.97	43.6958
1110.34	0.883301
1113.72	1.40234
1117.09	26.4006
1120.47	10.8359
1123.84	5.23706
1127.22	3.54736
1130.59	12.9087
1133.97	7.09009
1137.34	18.6328
1140.72	14.4443
1144.09	105.14
1147.47	30.2488
1150.84	22.8271
1154.22	63.5977
1157.59	75.5164
1160.97	52.1516
1164.34	11.2058
1167.71	3.88159
1171.09	11.2417
1174.46	37.1326
1177.84	164.621
1181.21	33.041
1184.59	49.1548
1187.96	28.624
1191.34	51.4067
1194.71	38.9067
1198.09	70.9612
1201.46	42.9355
1204.84	45.1526
1208.21	33.1355
1211.59	37.875
1214.96	110.508
1218.34	64.9133
1221.71	118.061
1225.09	50.3191
1228.46	15.135
1231.84	34.6006
1235.21	81.2874
1238.59	41.7107
1241.96	41.3337
1245.34	44.9451
1248.71	67.0903
1252.09	7.17212
1255.46	24.4688
1258.84	39.3818
1262.21	35.8044
1265.59	40.335
1268.96	84.8032
1272.33	92.2068
1275.71	43.5413
1279.08	45.8674
1282.46	50.0488
1285.83	3.15234
1289.21	37.2458
1292.58	14.8582
1295.96	27.6807
