Measurement: Raman, 532 nm, unoriented, Raman Data Processed
Mineral: Betpakdalite-CaMg
Rruff sample: R060242
Ideal chemistry: [Ca_2_(H_2_O)_17_Mg(H_2_O)_6_][Mo^6+^_8_As^5+^_2_Fe^3+^_3_O_36_(OH)]
Locality: Tsumeb mine, Tsumeb, Otavi District, Oshikoto, Namibia
Source: William W. Pinch
Description: Yellow short prismatic crystals
Measured chemistry: Mg_1.00_Ca_2.00_Fe^3+^_3.00_(Mo_7.89_W_0.11_)_Σ=8_((As_1.94_P_0.06_)_Σ=1_O_4_)_2_O_28_(OH)·23H_2_O ; H not mesured but estimated by difference and stoichiometry; the lighter areas are richer in W.
Raman shift (cm-1)	intensity
166.26	0
169.153	6.71965
172.046	9.71413
174.938	12.3494
177.831	1.83736
180.724	3.29608
183.616	5.43301
186.509	10.1112
189.402	28.7186
192.294	48.1287
195.187	84.9145
198.08	134.475
200.972	207.458
203.865	302.796
206.758	421.255
209.651	566.866
212.543	739.369
215.436	932.75
218.329	1112.92
221.221	1274.21
224.114	1368.05
227.007	1342.94
229.899	1213.58
232.792	998.916
235.685	782.377
238.578	591.511
241.47	453.24
244.363	367.418
247.256	315.27
250.148	284.061
253.041	279.824
255.934	288.853
258.827	311.364
261.719	332.32
264.612	388.467
267.505	465.633
270.397	533.453
273.29	596.752
276.183	674.848
279.075	760.318
281.968	834.221
284.861	867.925
287.753	842.57
290.646	747.191
293.539	600.194
296.432	438.779
299.324	290.59
302.217	171.649
305.11	97.2764
308.002	15.9946
310.895	28.7526
313.788	6.84095
316.68	6.43763
319.573	13.4166
322.466	12.1779
325.359	2.45412
328.251	11.7307
331.144	1.00929
334.037	13.1551
336.929	37.2705
339.822	57.3417
342.715	70.745
345.608	63.0776
348.5	63.8118
351.393	83.821
354.286	100.545
357.178	116.843
360.071	119.945
362.964	106.874
365.856	85.4603
368.749	52.6086
371.642	16.3235
374.534	6.66303
377.427	10.3658
380.32	10.5245
383.213	10.4034
386.105	46.0491
388.998	104.876
391.891	172.402
394.783	254.165
397.676	333.075
400.569	396.183
403.462	442.929
406.354	465.318
409.247	459.549
412.14	442.192
415.032	415.466
417.925	376.746
420.818	348.583
423.71	317.592
426.603	288.732
429.496	266.703
432.389	230.993
435.281	193.667
438.174	150.067
441.067	115.202
443.959	85.9798
446.852	72.2215
449.745	62.1852
452.637	54.804
455.53	49.5108
458.423	46.4365
461.315	44.6306
464.208	37.7258
467.101	51.1382
469.994	84.903
472.886	132.204
475.779	207.867
478.672	298.69
481.564	401.269
484.457	493.553
487.35	572.093
490.243	602.428
493.135	583.971
496.028	512.226
498.921	428.372
501.813	345.425
504.706	260.075
507.599	187.742
510.491	129.665
513.384	79.604
516.277	37.7403
519.169	14.7557
522.062	15.2741
524.955	12.6611
527.848	1.58382
530.74	5.3752
533.633	5.05182
536.526	2.15542
539.418	10.0335
542.311	1.64267
545.204	15.7739
548.096	37.294
550.989	54.2613
553.882	73.0018
556.775	87.4186
559.667	102.257
562.56	110.183
565.453	125.067
568.345	128.825
571.238	139.911
574.131	142.24
577.024	146.315
579.916	146.229
582.809	142.165
585.702	140.456
588.594	132.035
591.487	119.757
594.38	112.037
597.272	98.051
600.165	89.9407
603.058	83.0667
605.95	84.9343
608.843	83.5904
611.736	79.3274
614.629	74.1866
617.521	69.7211
620.414	67.0825
623.307	61.6708
626.199	57.722
629.092	54.8727
631.985	48.4447
634.877	45.9519
637.77	42.1043
640.663	40.0084
643.556	37.9829
646.448	34.395
649.341	29.468
652.234	30.1355
655.126	33.738
658.019	31.8187
660.912	23.6534
663.804	20.0432
666.697	17.9261
669.59	14.0345
672.482	5.87505
675.375	6.63255
678.268	2.25934
681.161	1.38232
684.053	3.35243
686.946	1.57595
689.839	0.590277
692.731	1.37753
695.624	3.41782
698.517	1.42905
701.409	3.11105
704.302	2.54862
707.195	6.86338
710.088	14.6005
712.98	10.45
715.873	2.96671
718.766	0.947891
721.658	15.1605
724.551	29.5515
727.444	56.6443
730.337	86.3178
733.229	122.921
736.122	173.444
739.015	226.359
741.907	291.512
744.8	370.698
747.693	448.036
750.585	520.869
753.478	586.573
756.371	629.158
759.264	666.708
762.156	688.842
765.049	711.124
767.942	738.151
770.834	755.663
773.727	767.493
776.62	737.664
779.513	689.809
782.405	604.96
785.298	523.782
788.191	441.888
791.083	352.596
793.976	297.839
796.869	280.026
799.761	289.107
802.654	328.492
805.547	404.071
808.439	506.272
811.332	608.294
814.225	705.861
817.118	754.248
820.01	753.271
822.903	705.73
825.796	616.8
828.688	513.987
831.581	413.392
834.474	318.243
837.366	227.9
840.259	159.206
843.152	96.1322
846.045	44.6502
848.937	4.29701
851.83	24.8417
854.723	15.552
857.615	0.911951
860.508	1.38299
863.401	0.708399
866.293	9.76869
869.186	23.4931
872.079	8.17306
874.972	26.5954
877.864	74.1843
880.757	137.168
883.65	221.489
886.542	318.882
889.435	428.946
892.328	543.583
895.221	658.353
898.113	787.442
901.006	951.143
903.899	1146.11
906.791	1353.34
909.684	1557.29
912.577	1742.61
915.469	1886.05
918.362	2000.8
921.255	2048.67
924.148	2043.12
927.04	1991.33
929.933	1933.75
932.826	1885.25
935.718	1868.56
938.611	1917.98
941.504	2074.02
944.396	2400.31
947.289	2910.03
950.182	3549.03
953.074	4125.64
955.967	4310.17
958.86	3845.02
961.753	3011.09
964.645	2174.58
967.538	1478.5
970.431	960.402
973.323	594.443
976.216	350.449
979.109	202.237
982.001	103.157
984.894	46.1486
987.787	9.03633
990.68	8.47726
993.572	15.9242
996.465	7.09994
999.358	2.85665
1002.25	1.10747
1005.14	3.559
1008.04	1.77638
1010.93	2.34945
1013.82	2.4476
1016.71	0.807119
1019.61	4.60034
1022.5	11.6168
1025.39	17.2462
1028.29	23.5573
1031.18	26.0149
1034.07	32.6841
1036.96	38.3818
1039.86	43.044
1042.75	50.1321
1045.64	53.6138
1048.53	56.6175
1051.43	54.4368
1054.32	51.6725
1057.21	46.4686
1060.1	44.2778
1063	42.2569
1065.89	34.3383
1068.78	30.7907
1071.67	26.4269
1074.57	22.3302
1077.46	20.6189
1080.35	18.2993
1083.25	22.5123
1086.14	15.123
1089.03	17.9681
1091.92	12.7496
1094.82	11.5148
1097.71	10.3823
1100.6	9.48189
1103.49	7.62307
1106.39	8.37601
1109.28	5.30759
1112.17	2.71481
1115.07	2.90958
1117.96	1.32211
1120.85	1.74893
1123.74	2.31354
1126.64	0.133056
1129.53	0.886694
1132.42	0.900365
1135.32	1.54556
1138.21	1.31387
1141.1	1.50583
1143.99	1.42015
1146.88	2.53483
1149.78	0.464652
1152.67	1.52069
1155.56	2.0857
1158.46	0.161293
1161.35	0.406124
1164.24	0.734406
1167.13	0.708477
1170.03	0.44521
1172.92	1.40979
1175.81	0.171353
1178.7	1.13317
1181.6	0.757903
1184.49	0.419687
1187.38	0.162993
1190.28	0.746955
1193.17	0.020697
1196.06	1.30674
1198.95	0.050579
1201.85	0.851349
1204.74	0.170735
1207.63	1.56888
1210.53	1.52622
1213.42	2.18287
1216.31	0.406829
1219.2	0.769942
1222.1	3.59225
1224.99	0.014342
1227.88	1.2013
1230.77	1.36452
1233.67	2.80431
1236.56	0.121344
1239.45	0.721092
1242.34	3.52522
1245.24	1.26094
1248.13	0.77124
1251.02	2.63692
1253.91	0.683625
1256.81	7.10341
1259.7	0.999684
1262.59	2.39937
1265.49	4.13726
1268.38	4.40307
1271.27	1.54077
1274.16	9.69047
1277.06	2.02902
1279.95	1.88493
1282.84	0.833324
1285.73	0.746849
1288.63	0.321744
1291.52	1.78216
1294.41	0.912908
1297.31	0.054936
1300.2	0.946954
