Measurement: Raman, 780 nm, unoriented, Raman Data Processed
Mineral: Betpakdalite-CaMg
Rruff sample: R060242
Ideal chemistry: [Ca_2_(H_2_O)_17_Mg(H_2_O)_6_][Mo^6+^_8_As^5+^_2_Fe^3+^_3_O_36_(OH)]
Locality: Tsumeb mine, Tsumeb, Otavi District, Oshikoto, Namibia
Source: William W. Pinch
Description: Yellow short prismatic crystals
Measured chemistry: Mg_1.00_Ca_2.00_Fe^3+^_3.00_(Mo_7.89_W_0.11_)_Σ=8_((As_1.94_P_0.06_)_Σ=1_O_4_)_2_O_28_(OH)·23H_2_O ; H not mesured but estimated by difference and stoichiometry; the lighter areas are richer in W.
Raman shift (cm-1)	intensity
140.357	0
143.25	1.49446
146.142	4.71175
149.035	2.1953
151.928	2.37778
154.82	2.69127
157.713	0.775026
160.606	0.910378
163.499	0.947677
166.391	1.15968
169.284	2.3587
172.177	0.298943
175.069	2.03432
177.962	5.59739
180.855	10.1995
183.747	14.8009
186.64	22.7932
189.533	33.319
192.425	39.9879
195.318	53.8487
198.211	63.4828
201.104	85.5913
203.996	111.737
206.889	143.793
209.782	173.957
212.674	211.148
215.567	235.744
218.46	260.957
221.352	275.397
224.245	278.531
227.138	265.9
230.031	238.425
232.923	202.258
235.816	166.654
238.709	143.938
241.601	118.41
244.494	115.083
247.387	114.2
250.28	115.848
253.172	115.426
256.065	113.009
258.958	106.597
261.85	105.618
264.743	101.339
267.636	104.598
270.528	109.431
273.421	110.599
276.314	118.244
279.207	118.357
282.099	116.182
284.992	103.997
287.885	84.912
290.777	64.6667
293.67	34.4858
296.563	11.7084
299.455	7.36073
302.348	2.49678
305.241	1.75601
308.134	1.85031
311.026	1.67993
313.919	9.90351
316.812	1.89919
319.704	14.4487
322.597	30.7037
325.49	46.181
328.382	64.8432
331.275	78.7962
334.168	95.4804
337.06	119.61
339.953	138.099
342.846	147.846
345.739	152.722
348.631	154.017
351.524	159.769
354.417	163.607
357.309	165.248
360.202	150.989
363.095	128.363
365.988	101.951
368.88	78.1587
371.773	55.9267
374.666	35.8422
377.558	28.7613
380.451	20.6431
383.344	17.7476
386.236	21.1601
389.129	29.4127
392.022	34.4061
394.914	43.9638
397.807	52.4284
400.7	56.9294
403.593	59.4063
406.485	61.8841
409.378	54.0501
412.271	49.8906
415.163	43.4806
418.056	37.1835
420.949	31.3717
423.841	25.2923
426.734	23.0647
429.627	19.8685
432.52	19.7408
435.412	11.1766
438.305	8.22262
441.198	3.32973
444.09	1.19393
446.983	1.4739
449.876	1.68771
452.769	1.24104
455.661	1.24564
458.554	1.42498
461.447	0.339206
464.339	0.441792
467.232	0.668405
470.125	8.47229
473.017	20.4882
475.91	39.0251
478.803	56.9254
481.695	78.197
484.588	96.6913
487.481	108.661
490.374	117.235
493.266	112.574
496.159	107.38
499.052	91.8469
501.944	78.0749
504.837	66.0116
507.73	52.599
510.623	42.0549
513.515	30.7613
516.408	19.9499
519.301	11.6617
522.193	4.915
525.086	0.73766
527.979	0.366544
530.871	0.621395
533.764	1.22651
536.657	1.06239
539.549	1.28839
542.442	1.29354
545.335	4.37645
548.228	6.09196
551.12	10.1304
554.013	13.5581
556.906	19.4675
559.798	22.562
562.691	23.0187
565.584	26.5345
568.476	29.3786
571.369	33.4849
574.262	34.8296
577.155	38.316
580.047	40.1404
582.94	41.3235
585.833	43.0096
588.725	41.1339
591.618	41.4221
594.511	38.8428
597.404	35.7008
600.296	34.0127
603.189	35.3642
606.082	33.4459
608.974	30.2209
611.867	33.9008
614.76	30.2384
617.652	30.7949
620.545	28.3187
623.438	28.3293
626.331	26.807
629.223	26.6466
632.116	28.6097
635.009	23.9437
637.901	23.2041
640.794	21.1687
643.687	19.594
646.579	20.0911
649.472	15.9835
652.365	14.7497
655.258	12.4279
658.15	10.6939
661.043	8.65323
663.936	5.78536
666.828	5.92031
669.721	1.61831
672.614	1.6827
675.506	1.06388
678.399	0.775709
681.292	0.460088
684.184	1.00348
687.077	0.751786
689.97	1.14729
692.863	0.415872
695.755	0.662337
698.648	3.7165
701.541	3.62441
704.433	2.30947
707.326	0.253107
710.219	4.93987
713.111	10.2168
716.004	14.8178
718.897	25.2385
721.79	31.9689
724.682	42.0122
727.575	51.5554
730.468	65.4362
733.36	74.2018
736.253	83.5399
739.146	95.0336
742.038	107.129
744.931	114.561
747.824	125.003
750.717	137.391
753.609	142.453
756.502	150.062
759.395	159.89
762.287	173.362
765.18	188.489
768.073	208.667
770.966	216.233
773.858	227.424
776.751	224.446
779.644	218.39
782.536	197.605
785.429	170.994
788.322	146.558
791.214	123.166
794.107	104.971
797	88.6708
799.893	77.0851
802.785	73.9304
805.678	81.694
808.571	85.2116
811.463	97.258
814.356	109.034
817.249	113.044
820.141	113.129
823.034	108.523
825.927	92.1009
828.819	77.6495
831.712	64.332
834.605	46.7763
837.498	31.875
840.39	18.3905
843.283	6.87101
846.176	0.578685
849.068	6.72632
851.961	2.09213
854.854	1.55325
857.746	1.53938
860.639	0.008566
863.532	1.8548
866.425	3.51273
869.317	5.91997
872.21	0.411493
875.103	7.13649
877.995	14.915
880.888	24.8866
883.781	42.839
886.673	64.3685
889.566	81.4458
892.459	107.656
895.352	140.841
898.244	173.877
901.137	221.405
904.03	268.319
906.922	328.027
909.815	386.005
912.708	445.005
915.601	501.166
918.493	554.333
921.386	593.141
924.279	627.439
927.171	649.161
930.064	666.579
932.957	690.155
935.849	706.453
938.742	738.445
941.635	792.478
944.528	852.5
947.42	939.694
950.313	1034.66
953.206	1101.36
956.098	1107.24
958.991	1019.3
961.884	865.297
964.776	688.041
967.669	517.692
970.562	362.639
973.455	239.968
976.347	150.443
979.24	88.0927
982.133	49.8232
985.025	21.255
987.918	8.02013
990.811	2.35643
993.703	5.11224
996.596	1.39756
999.489	0.204615
1002.38	0.819873
1005.27	0.291757
1008.17	1.96706
1011.06	1.44328
1013.95	0.620118
1016.85	1.06487
1019.74	4.36407
1022.63	5.89865
1025.52	8.52707
1028.42	10.5916
1031.31	12.1628
1034.2	14.5986
1037.09	17.0808
1039.99	20.3334
1042.88	20.0981
1045.77	22.8623
1048.66	23.4589
1051.56	22.8199
1054.45	22.6661
1057.34	19.9628
1060.24	18.3968
1063.13	15.7579
1066.02	12.1944
1068.91	11.741
1071.81	9.58918
1074.7	8.93886
1077.59	7.397
1080.48	8.37772
1083.38	8.95207
1086.27	7.15432
1089.16	5.91264
1092.06	5.38817
1094.95	4.98499
1097.84	4.92894
1100.73	4.74559
1103.63	4.33589
1106.52	3.20545
1109.41	3.62188
1112.3	2.20436
1115.2	0.874532
1118.09	1.56866
1120.98	0.067028
1123.88	1.08503
1126.77	0.678668
1129.66	0.037521
1132.55	0.591413
1135.45	0.446022
1138.34	0.350604
1141.23	0.332699
1144.12	0.176242
1147.02	0.453884
1149.91	1.43749
1152.8	0.192404
1155.69	1.31675
1158.59	0.226433
1161.48	0.15417
1164.37	0.558885
1167.27	0.124753
1170.16	0.708202
1173.05	0.325022
1175.94	0.892268
1178.84	0.792678
1181.73	1.09432
1184.62	1.96975
1187.51	0.396675
1190.41	0.323629
1193.3	0.81689
1196.19	0.476912
1199.09	0.314041
1201.98	0.009274
1204.87	0.582372
1207.76	1.9348
1210.66	0.764341
1213.55	1.25782
1216.44	0.459664
1219.33	1.2672
1222.23	1.14536
1225.12	0.24353
1228.01	1.53579
1230.9	1.25531
1233.8	0.365187
1236.69	2.5788
1239.58	0.945319
1242.48	1.9299
1245.37	0.556336
1248.26	2.02438
1251.15	1.29204
1254.05	0.274014
1256.94	1.85627
1259.83	0.376243
1262.72	1.07157
1265.62	1.76064
1268.51	2.15815
1271.4	1.16515
1274.3	1.76256
1277.19	0.075772
1280.08	0.766604
1282.97	0.015162
