Measurement: Raman, 532 nm, unoriented, Raman Data Processed
Mineral: Beudantite
Rruff sample: R060985
Ideal chemistry: Pb^2+^Fe^3+^_3_(As^5+^O_4_)(S^6+^O_4_)(OH)_6_
Locality: Kintore Opencut, Broken Hill, New South Wales, Australia
Source: Bob Jenkins
Description: Pale green rhombohedra
Measured chemistry: (Pb_0.92_Cu_0.06_Zn_0.02_)_Σ=1_(Fe^3+^_2.46_Al_0.54_)_Σ=3_(As_1.00_O_4_)(S_0.54_As_0.46_)_Σ=1_O_4_)((OH)_5.00_(H_2_O)_1.00_)_Σ=6_
Raman shift (cm-1)	intensity
121.041	0
124.416	949.201
127.79	2226.19
131.165	3532.32
134.54	4644.9
137.915	5260.04
141.29	5026.16
144.665	4073.2
148.039	2640.32
151.414	1255.25
154.789	465.936
158.164	4.93895
161.539	8.28908
164.913	15.8648
168.288	31.7199
171.663	-11.5957
175.038	438.788
178.413	1238.17
181.788	2327.31
185.162	3574.35
188.537	4829.92
191.912	5894.98
195.287	6199.15
198.662	6019.6
202.036	5465.16
205.411	4853.16
208.786	3994.5
212.161	3166.02
215.536	2385.48
218.911	1711.24
222.285	1166.93
225.66	740.559
229.035	522.101
232.41	340.019
235.785	345.34
239.159	390.7
242.534	406.952
245.909	513.502
249.284	462.2
252.659	442.332
256.033	327.781
259.408	347.756
262.783	330.676
266.158	232.061
269.533	240.844
272.908	268.144
276.282	405.136
279.657	666.468
283.032	1160.34
286.407	1697.86
289.782	2513.77
293.156	3155.05
296.531	3735.93
299.906	4075.05
303.281	4204.86
306.656	3923.55
310.031	3550.45
313.405	2900.76
316.78	2225.86
320.155	1608.44
323.53	1009.12
326.904	571.883
330.279	223.944
333.654	10.0761
337.029	18.2213
340.404	30.592
343.779	51.242
347.153	12.7214
350.528	33.8081
353.903	165.21
357.278	321.525
360.653	628.837
364.027	884.88
367.402	1135.73
370.777	1279.47
374.152	1286.59
377.527	1181.69
380.902	1100.62
384.276	1170.54
387.651	1201.15
391.026	1321.66
394.401	1403.87
397.776	1649.52
401.151	1828.23
404.525	2233.51
407.9	2502.63
411.275	3156.59
414.65	3578.54
418.024	3952.91
421.399	4153.57
424.774	4105.02
428.149	3900.71
431.524	3828.19
434.899	3631.5
438.273	3272.09
441.648	3082.52
445.023	2895.17
448.398	2607.91
451.773	2562.41
455.147	2909.15
458.522	3456.29
461.897	4076.38
465.272	5121.99
468.647	6179.19
472.022	6984.13
475.396	7347.07
478.771	6876.77
482.146	5875
485.521	4794.91
488.896	3544.75
492.27	2345.51
495.645	1507.29
499.02	842.12
502.395	385.418
505.77	200.888
509.144	21.2026
512.519	41.6549
515.894	61.6212
519.269	10.918
522.644	28.8469
526.019	54.4702
529.393	294.714
532.768	533.691
536.143	813.391
539.518	1073.63
542.893	1432.56
546.268	1731.39
549.642	1995.26
553.017	2071.29
556.392	2122.98
559.767	2016.93
563.141	1984.06
566.516	1843.05
569.891	1642
573.266	1386.9
576.641	1194.69
580.016	924.215
583.39	803.116
586.765	684.999
590.14	548.637
593.515	465.552
596.89	356.447
600.264	225.329
603.639	211.825
607.014	156.481
610.389	141.593
613.764	215.232
617.139	228.022
620.513	201.686
623.888	235.626
627.263	184.2
630.638	20.3005
634.013	12.4783
637.387	17.2839
640.762	33.5369
644.137	0.836182
647.512	18.145
650.887	69.2669
654.261	127.725
657.636	212.893
661.011	221.433
664.386	256.216
667.761	369.733
671.135	438.619
674.51	495.281
677.885	494.46
681.26	580.945
684.635	622.873
688.01	591.49
691.384	536.405
694.759	460.955
698.134	446.646
701.509	317.792
704.884	264.956
708.259	219.764
711.633	184.74
715.008	257.197
718.383	198.014
721.758	235.992
725.133	195.332
728.507	174.431
731.882	179.867
735.257	131.013
738.632	108.219
742.007	52.1306
745.381	65.0933
748.756	58.1433
752.131	4.41431
755.506	60.9944
758.881	26.3303
762.255	74.3672
765.63	70.3901
769.005	50.9199
772.38	37.8245
775.755	59.8008
779.13	51.7927
782.504	203.951
785.879	416.165
789.254	582.467
792.629	893.885
796.004	1151.45
799.378	1394.44
802.753	1671.94
806.128	1982.75
809.503	2267.88
812.878	2568.32
816.253	2837.55
819.627	3231.88
823.002	3689.02
826.377	4245.85
829.752	5173.58
833.127	6170.11
836.501	7191.67
839.876	8325.82
843.251	9183.78
846.626	9285.44
850.001	8881.62
853.375	8021.04
856.75	7183.94
860.125	6452.27
863.5	5667.91
866.875	4967.3
870.25	4363.4
873.624	3725.41
876.999	3120.35
880.374	2563.66
883.749	2132.28
887.124	1747.2
890.498	1366.31
893.873	1083.62
897.248	924.233
900.623	689.375
903.998	554.05
907.372	379.781
910.747	292.599
914.122	233.553
917.497	153.032
920.872	54.273
924.246	77.2256
927.621	53.5156
930.996	10.561
934.371	34.4465
937.746	5.18677
941.121	51.0928
944.495	52.8816
947.87	22.7654
951.245	42.22
954.62	37.4363
957.995	47.9812
961.37	10.054
964.744	25.792
968.119	10.0418
971.494	7.46411
974.869	116.214
978.244	209.768
981.618	337.357
984.993	513.375
988.368	767.942
991.743	995.108
995.118	1126.86
998.492	985.633
1001.87	702.971
1005.24	428.695
1008.62	225.398
1011.99	167.454
1015.37	115.777
1018.74	64.3999
1022.12	17.0901
1025.49	17.02
1028.87	20.0146
1032.24	37.9321
1035.62	16.9145
1038.99	24.3271
1042.37	45.9646
1045.74	113.996
1049.12	115.043
1052.49	134.437
1055.86	150.765
1059.24	210.351
1062.61	245.95
1065.99	203.507
1069.36	224.036
1072.74	293.207
1076.11	253.081
1079.49	317.4
1082.86	304.729
1086.24	302.06
1089.61	321.033
1092.99	330.414
1096.36	376.374
1099.74	389.591
1103.11	383.539
1106.49	379.023
1109.86	392.404
1113.24	330.411
1116.61	261.522
1119.99	272.531
1123.36	277.19
1126.73	192.582
1130.11	196.483
1133.48	133.998
1136.86	171.302
1140.23	193.57
1143.61	148.688
1146.98	161.832
1150.36	140.26
1153.73	166.685
1157.11	158.481
1160.48	175.405
1163.86	161.776
1167.23	134.275
1170.61	86.7649
1173.98	136.948
1177.36	104.275
1180.73	56.7705
1184.11	43.1206
1187.48	35.2407
1190.86	17.9297
1194.23	8.71533
1197.61	29.6348
1200.98	32.6631
1204.36	28.9929
1207.73	13.5029
1211.11	10.1716
1214.48	14.8362
1217.86	30.9075
1221.23	4.8645
1224.61	14.269
1227.98	15.219
1231.36	61.4543
1234.73	65.3713
1238.1	93.6643
1241.48	76.7839
1244.85	118.841
1248.23	64.8115
1251.6	55.5383
1254.98	57.6812
1258.35	37.3716
1261.73	49.4546
1265.1	43.7568
1268.48	1.06421
1271.85	15.9346
1275.23	49.6489
1278.6	0.390381
