Measurement: Raman, 532 nm, unoriented, Raman Data Processed
Mineral: Beudantite
Rruff sample: R070190
Ideal chemistry: Pb^2+^Fe^3+^_3_(As^5+^O_4_)(S^6+^O_4_)(OH)_6_
Locality: Tsumeb mine, Tsumeb, Otavi District, Oshikoto, Namibia
Source: William W. Pinch
Description: Rootbeer brown thin tabular plates
Measured chemistry: Pb_1.00_(Fe^3+^_2.71_Al_0.30_)_Σ=3_[(As_0.58_S_0.42_)_Σ=1_O_4_]_2_((OH)_5.87_(H_2_O)_0.13_)_Σ=6_
Raman shift (cm-1)	intensity
170.393	0
173.286	42.1682
176.178	17.5334
179.071	126.041
181.964	446.629
184.856	938.896
187.749	1589.84
190.642	2585.92
193.535	3622.15
196.427	4783.84
199.32	5510.04
202.213	5775.09
205.105	5495.99
207.998	5068.53
210.891	4596.24
213.783	4159.07
216.676	3742.13
219.569	3249.92
222.462	2905.64
225.354	2547.06
228.247	2255.9
231.14	1985.37
234.032	1837.78
236.925	1771.33
239.818	1746.02
242.71	1770.11
245.603	1760.91
248.496	1669.8
251.388	1545.44
254.281	1352.65
257.174	1116.43
260.067	857.567
262.959	736.492
265.852	561.237
268.745	325.672
271.637	236.678
274.53	90.3318
277.423	23.1118
280.315	21.4341
283.208	18.5537
286.101	44.9312
288.994	117.218
291.886	238.655
294.779	276.112
297.672	354.214
300.564	391.583
303.457	353.286
306.35	328.485
309.243	234.288
312.135	232.142
315.028	170.247
317.921	144.647
320.813	171.987
323.706	167.631
326.599	124.044
329.491	82.7026
332.384	28.5189
335.277	12.3004
338.17	50.3157
341.062	41.9447
343.955	38.0193
346.848	38.1538
349.74	46.6588
352.633	16.6694
355.526	20.5104
358.418	33.364
361.311	19.2683
364.204	5.43164
367.097	65.9156
369.989	87.1171
372.882	154.781
375.775	165.069
378.667	193.66
381.56	182.332
384.453	154.8
387.346	138.935
390.238	153.307
393.131	114.647
396.024	53.0171
398.916	94.9683
401.809	95.5927
404.702	152.084
407.594	232.561
410.487	360.186
413.38	574.239
416.272	800.062
419.165	1139.24
422.058	1602.96
424.951	2080.4
427.843	2626.43
430.736	3184.41
433.629	3654.1
436.521	3940.84
439.414	4001.36
442.307	3863.91
445.2	3578.45
448.092	3355.98
450.985	3232.29
453.878	3333.71
456.77	3704.08
459.663	4378.78
462.556	5367.76
465.448	6648.73
468.341	8128.21
471.234	9478.42
474.127	10190.9
477.019	9854.93
479.912	8581.46
482.805	6917.47
485.697	5556.96
488.59	4326.37
491.483	3218.34
494.375	2258.68
497.268	1534.39
500.161	1050.84
503.053	764.092
505.946	489.947
508.839	270.72
511.732	145.538
514.624	27.5035
517.517	44.2246
520.41	63.517
523.302	85.7034
526.195	86.0458
529.088	39.0444
531.981	22.1517
534.873	91.7598
537.766	244.043
540.659	361.272
543.551	505.8
546.444	686.507
549.337	944.183
552.229	1247.97
555.122	1444.33
558.015	1676.66
560.908	1794.89
563.8	1818.48
566.693	1773.7
569.586	1603.78
572.478	1436.03
575.371	1289.28
578.264	1097.75
581.156	965.716
584.049	766.269
586.942	594.962
589.835	492.605
592.727	447.586
595.62	334.678
598.513	326.406
601.405	369.02
604.298	452.588
607.191	650.276
610.083	914.465
612.976	1226.08
615.869	1536.52
618.762	1747.3
621.654	1721.46
624.547	1433.48
627.44	958.389
630.332	571.48
633.225	302.398
636.118	190.687
639.01	102.669
641.903	63.2266
644.796	18.34
647.689	13.2817
650.581	10.0204
653.474	41.1161
656.367	19.3119
659.259	4.37317
662.152	4.71655
665.045	9.15491
667.938	20.7571
670.83	45.0461
673.723	75.9702
676.616	89.0688
679.508	109.392
682.401	113.018
685.294	150.397
688.186	186.109
691.079	175.718
693.972	210.166
696.865	228.087
699.757	279.094
702.65	245.938
705.543	252.717
708.435	230.704
711.328	225.39
714.221	217.999
717.113	226.502
720.006	221.458
722.899	192.143
725.792	161.221
728.684	167.696
731.577	133.66
734.47	100.054
737.362	80.8473
740.255	51.8177
743.148	23.8033
746.04	3.40295
748.933	1.39331
751.826	2.0896
754.719	44.0625
757.611	21.9135
760.504	37.7982
763.397	45.8186
766.289	48.2186
769.182	58.6619
772.075	42.7279
774.967	39.9619
777.86	48.0173
780.753	107.061
783.646	272.002
786.538	547.95
789.431	895.6
792.324	1334.42
795.216	1912.51
798.109	2475.64
801.002	3089.23
803.894	3666.91
806.787	4176.28
809.68	4488.47
812.573	4803.7
815.465	4995.72
818.358	5162.17
821.251	5186.39
824.143	5171.15
827.036	5040.51
829.929	4988.58
832.822	4906.8
835.714	4900.95
838.607	5014.99
841.5	5165.86
844.392	5353.98
847.285	5493.61
850.178	5388.57
853.07	5174
855.963	4820.45
858.856	4183.48
861.749	3589.4
864.641	3153.75
867.534	2811.86
870.427	2473.33
873.319	2176.57
876.212	1946.73
879.105	1625.34
881.997	1380.32
884.89	1261.12
887.783	877.136
890.676	697.048
893.568	524.026
896.461	410.118
899.354	281.039
902.246	191.306
905.139	159.95
908.032	137.096
910.924	186.199
913.817	156.826
916.71	209.1
919.602	231.057
922.495	228.997
925.388	192.026
928.281	176.158
931.173	128.742
934.066	109.162
936.959	66.8991
939.851	25.2565
942.744	0.472778
945.637	23.3463
948.529	41.0336
951.422	61.3923
954.315	59.9186
957.208	29.8934
960.1	28.2097
962.993	32.9757
965.886	27.0196
968.778	29.8099
971.671	13.9073
974.564	43.8652
977.457	50.3522
980.349	143.733
983.242	285.586
986.135	630.296
989.027	1203.01
991.92	2119.2
994.813	3078.65
997.705	3772.19
1000.6	3530.77
1003.49	2618.12
1006.38	1591.89
1009.28	914.914
1012.17	468.53
1015.06	291.112
1017.95	223.056
1020.85	126.963
1023.74	57.8199
1026.63	43.2548
1029.53	22.278
1032.42	29.5945
1035.31	28.7977
1038.2	24.6769
1041.1	7.96338
1043.99	59.6578
1046.88	110.881
1049.77	152.322
1052.67	233.24
1055.56	310.361
1058.45	418.222
1061.35	539.193
1064.24	630.849
1067.13	787.244
1070.02	887.958
1072.92	1089.48
1075.81	1228.38
1078.7	1320.06
1081.59	1481.6
1084.49	1538.24
1087.38	1531.27
1090.27	1549.62
1093.16	1522.3
1096.06	1512.59
1098.95	1424.12
1101.84	1376.72
1104.73	1300.67
1107.63	1170.28
1110.52	1100
1113.41	969.348
1116.31	820.741
1119.2	689.877
1122.09	539.884
1124.98	487.735
1127.88	371.708
1130.77	377.538
1133.66	331.43
1136.56	336.155
1139.45	377.298
1142.34	333.054
1145.23	412.36
1148.13	397.781
1151.02	440.76
1153.91	416.293
1156.8	382.98
1159.7	340.233
1162.59	329.499
1165.48	280.733
1168.38	223.644
1171.27	209.137
1174.16	181.226
1177.05	133.627
1179.95	116.813
1182.84	88.3765
1185.73	45.5838
1188.62	20.4755
1191.52	8.52191
1194.41	8.58453
1197.3	9.40674
1200.19	18.1672
1203.09	26.2577
1205.98	27.3474
1208.87	15.226
1211.77	17.3611
1214.66	5.47693
1217.55	21.085
1220.44	7.11447
1223.34	37.8174
1226.23	54.1161
1229.12	53.6629
1232.01	60.8388
1234.91	63.0863
1237.8	85.7001
1240.69	69.1816
1243.59	71.6047
1246.48	90.9481
1249.37	87.9492
1252.26	80.6403
1255.16	79.7543
1258.05	76.826
1260.94	65.2635
1263.83	48.032
1266.73	39.9367
1269.62	22.6503
1272.51	13.7876
1275.4	25.268
1278.3	36.879
1281.19	44.9051
1284.08	41.8132
1286.98	25.0674
1289.87	46.5635
1292.76	39.2726
1295.65	24.5182
1298.55	6.80472
1301.44	25.4383
1304.33	13.7093
1307.22	7.47546
1310.12	4.90457
1313.01	2.15497
