Measurement: Raman, 785 nm, unoriented, Raman Data Processed
Mineral: Beudantite
Rruff sample: R060985
Ideal chemistry: Pb^2+^Fe^3+^_3_(As^5+^O_4_)(S^6+^O_4_)(OH)_6_
Locality: Kintore Opencut, Broken Hill, New South Wales, Australia
Source: Bob Jenkins
Description: Pale green rhombohedra
Measured chemistry: (Pb_0.92_Cu_0.06_Zn_0.02_)_Σ=1_(Fe^3+^_2.46_Al_0.54_)_Σ=3_(As_1.00_O_4_)(S_0.54_As_0.46_)_Σ=1_O_4_)((OH)_5.00_(H_2_O)_1.00_)_Σ=6_
Raman shift (cm-1)	intensity
132.135	0
135.027	1.75366
137.92	78.8472
140.813	438.689
143.705	885.646
146.598	988.615
149.491	834.663
152.383	495.745
155.276	144.94
158.169	8.46045
161.062	30.0132
163.954	70.5801
166.847	132.919
169.74	219.14
172.632	227.899
175.525	350.856
178.418	494.711
181.31	772.183
184.203	1170.45
187.096	1649.7
189.989	2201.51
192.881	2620.23
195.774	2874.71
198.667	2924.72
201.559	2843.36
204.452	2614.95
207.345	2272.87
210.238	1873.62
213.13	1482.38
216.023	1195.24
218.916	924.666
221.808	756.537
224.701	559.714
227.594	474.256
230.486	436.673
233.379	402.922
236.272	455.41
239.164	502.414
242.057	602.138
244.95	586.184
247.843	467.307
250.735	458.136
253.628	333.553
256.521	301.457
259.413	244.633
262.306	141.149
265.199	72.4883
268.091	30.6155
270.984	4.02393
273.877	25.7163
276.769	15.8396
279.662	121.598
282.555	221.731
285.448	480.606
288.34	679.043
291.233	998.922
294.126	1448.28
297.018	1685.08
299.911	1876.22
302.804	1933.02
305.697	1834.65
308.589	1627.69
311.482	1507.87
314.375	1352.19
317.267	1113.81
320.16	895.779
323.053	651.853
325.945	473.249
328.838	293.562
331.731	152.654
334.623	37.0658
337.516	15.1927
340.409	14.2787
343.302	4.03599
346.194	2.90663
349.087	13.5576
351.98	32.8008
354.872	48.3411
357.765	132.125
360.658	228.851
363.55	355.34
366.443	505
369.336	663.407
372.229	860.504
375.121	1031.45
378.014	1160.12
380.907	1319.83
383.799	1501.56
386.692	1674.71
389.585	1815.13
392.477	1897.68
395.37	1943.96
398.263	1907.07
401.156	1806.83
404.048	1691.28
406.941	1539.8
409.834	1523.27
412.726	1608.61
415.619	1696.61
418.512	1768.6
421.404	1792.54
424.297	1798.6
427.19	1802.97
430.082	1814.41
432.975	1800.19
435.868	1790
438.761	1699.55
441.653	1562.37
444.546	1423
447.439	1255.61
450.331	1198.5
453.224	1190.35
456.117	1257.75
459.01	1411.5
461.902	1708.73
464.795	2055.44
467.688	2585.62
470.58	3165.16
473.473	3546.87
476.366	3699.14
479.258	3550.9
482.151	3122.76
485.044	2606.91
487.937	2134.25
490.829	1557.07
493.722	1112.52
496.615	731.368
499.507	453.193
502.4	276.463
505.293	142.528
508.185	53.3242
511.078	13.5727
513.971	6.38957
516.864	-13.2839
519.756	-18.0118
522.649	-3.82634
525.542	24.5293
528.434	48.764
531.327	87.506
534.22	123.947
537.112	261.062
540.005	397.915
542.898	530.042
545.79	727.985
548.683	843.008
551.576	951.198
554.469	1008.42
557.361	996.306
560.254	984.437
563.147	903.315
566.039	821.171
568.932	712.523
571.825	610.314
574.717	488.343
577.61	370.154
580.503	323.764
583.395	260.449
586.288	197.047
589.181	164.57
592.074	96.9887
594.966	100.428
597.859	66.4658
600.752	67.2205
603.644	76.1595
606.537	47.811
609.43	97.516
612.322	113.399
615.215	151.041
618.108	167.353
621.001	191.994
623.893	161.522
626.786	120.672
629.679	54.0826
632.571	39.8456
635.464	20.604
638.357	6.52222
641.25	1.66309
644.142	2.30847
647.035	2.92334
649.928	15.823
652.82	4.6654
655.713	20.3668
658.606	17.8856
661.498	33.439
664.391	53.5677
667.284	89.6009
670.177	120.109
673.069	168.497
675.962	168.703
678.855	211.219
681.747	178.19
684.64	209.704
687.533	220.481
690.425	211.212
693.318	229.013
696.211	192.964
699.104	185.675
701.996	152.143
704.889	131.337
707.782	152.195
710.674	105.07
713.567	87.5345
716.46	84.1513
719.352	85.6993
722.245	94.4617
725.138	79.8561
728.03	86.5058
730.923	52.158
733.816	87.2477
736.709	29.2285
739.601	34.3582
742.494	6.24231
745.387	19.3535
748.279	0.327393
751.172	20.5651
754.065	0.975952
756.957	0.136597
759.85	7.81482
762.743	38.4827
765.635	44.1918
768.528	46.3927
771.421	1.63586
774.314	36.8206
777.206	1.77698
780.099	4.43652
782.992	91.3235
785.884	118.026
788.777	192.981
791.67	282.049
794.562	361.662
797.455	405.36
800.348	480.95
803.241	574.238
806.133	638.703
809.026	761.418
811.919	824.51
814.811	879.765
817.704	947.913
820.597	988.728
823.49	1115.56
826.382	1234.53
829.275	1413
832.168	1651.56
835.06	1994.52
837.953	2387.24
840.846	2757.17
843.738	3140.22
846.631	3395.18
849.524	3409.87
852.416	3212.39
855.309	3005.34
858.202	2724.83
861.095	2434.56
863.987	2166.54
866.88	1965.37
869.773	1798.17
872.665	1553.16
875.558	1350.64
878.451	1165.16
881.343	988.545
884.236	841.852
887.129	708.137
890.021	594.492
892.914	468.317
895.807	428.583
898.7	310.12
901.592	288.474
904.485	211.719
907.378	175.041
910.27	123.08
913.163	76.9054
916.056	78.5825
918.948	32.0498
921.841	10.5967
924.734	21.3014
927.627	9.48193
930.519	1.71948
933.412	8.54675
936.305	9.82422
939.197	25.9171
942.09	37.8631
944.983	4.38477
947.875	19.358
950.768	19.4144
953.661	23.8886
956.554	13.1885
959.446	6.66772
962.339	17.4214
965.232	13.249
968.124	28.1443
971.017	50.913
973.91	70.3787
976.803	95.8561
979.695	135.238
982.588	176.03
985.481	291.735
988.373	375.169
991.266	513.3
994.159	625.372
997.051	671.349
999.944	604.749
1002.84	407.954
1005.73	301.864
1008.62	201.407
1011.51	121.519
1014.41	107.24
1017.3	86.8094
1020.19	34.0961
1023.09	11.6779
1025.98	22.4681
1028.87	15.9506
1031.76	44.8176
1034.66	10.3468
1037.55	40.3574
1040.44	34.1303
1043.34	54.0559
1046.23	50.8726
1049.12	76.4149
1052.01	46.0086
1054.9	89.0006
1057.8	63.8777
1060.69	78.8339
1063.58	87.809
1066.48	92.8452
1069.37	94.8141
1072.26	73.8662
1075.15	109.164
1078.05	81.3986
1080.94	109.506
1083.83	91.7839
1086.72	91.9073
1089.62	78.5848
1092.51	111.329
1095.4	77.5269
1098.3	79.2214
1101.19	84.345
1104.08	111.361
1106.97	100.829
1109.87	88.3446
1112.76	77.3152
1115.65	80.8213
1118.55	54.0652
1121.44	58.2449
1124.33	52.2854
1127.22	60.2325
1130.12	33.4775
1133.01	26.0746
1135.9	29.314
1138.79	10.6186
1141.69	26.3889
1144.58	24.9697
1147.47	37.6242
1150.36	55.1712
1153.26	40.3203
1156.15	36.2839
1159.04	52.2571
1161.93	28.6392
1164.83	34.5475
1167.72	21.7068
1170.61	36.697
1173.51	54.4574
1176.4	39.6727
1179.29	24.738
1182.18	3.03247
1185.08	21.1519
1187.97	42.9982
1190.86	7.92963
1193.76	15.5812
1196.65	23.6457
1199.54	21.3616
1202.43	9.82123
1205.33	7.52637
1208.22	4.14514
1211.11	28.2634
1214	47.3646
1216.9	33.1571
1219.79	52.0507
1222.68	38.4753
1225.58	54.7781
1228.47	84.5714
1231.36	36.419
1234.25	50.5487
1237.14	8.56812
1240.04	7.42511
1242.93	33.0745
1245.82	21.8797
1248.72	17.512
1251.61	8.36914
1254.5	27.1436
1257.39	8.30566
1260.29	29.267
1263.18	24.8934
1266.07	0
