Measurement: Raman, 785 nm, unoriented, Raman Data Processed
Mineral: Beudantite
Rruff sample: R070190
Ideal chemistry: Pb^2+^Fe^3+^_3_(As^5+^O_4_)(S^6+^O_4_)(OH)_6_
Locality: Tsumeb mine, Tsumeb, Otavi District, Oshikoto, Namibia
Source: William W. Pinch
Description: Rootbeer brown thin tabular plates
Measured chemistry: Pb_1.00_(Fe^3+^_2.71_Al_0.30_)_Σ=3_[(As_0.58_S_0.42_)_Σ=1_O_4_]_2_((OH)_5.87_(H_2_O)_0.13_)_Σ=6_
Raman shift (cm-1)	intensity
171.16	0
174.052	9.1228
176.945	26.8213
179.838	208.201
182.73	653.299
185.623	1263.64
188.516	2178.07
191.408	3275.69
194.301	4630.34
197.194	5988.82
200.087	7032.55
202.979	7333.53
205.872	7016.65
208.765	6330.21
211.657	5545.67
214.55	4902.84
217.443	4243.08
220.335	3671.64
223.228	3147.12
226.121	2719.23
229.013	2320.19
231.906	1942.11
234.799	1692.18
237.692	1553.63
240.584	1445.54
243.477	1477.95
246.37	1434.53
249.262	1312.11
252.155	1170.1
255.048	982.53
257.941	803.629
260.833	570.816
263.726	415.064
266.619	295.5
269.511	152.713
272.404	42.1435
275.297	39.4138
278.19	51.5708
281.082	90.0606
283.975	15.4207
286.868	105.903
289.76	278.661
292.653	460.399
295.546	603.371
298.438	691.506
301.331	778.332
304.224	768.813
307.116	656.23
310.009	654.963
312.902	582.252
315.795	606.718
318.687	568.709
321.58	608.668
324.473	594.613
327.365	574.582
330.258	460.19
333.151	328.942
336.043	191.125
338.936	68.9352
341.829	16.7909
344.721	19.2248
347.614	22.0159
350.507	21.8016
353.4	25.8094
356.292	1.22498
359.185	15.1419
362.078	10.7063
364.97	31.6727
367.863	5.13464
370.756	0.857117
373.649	44.0621
376.541	53.6872
379.434	82.1263
382.327	64.4015
385.219	77.8145
388.112	67.4836
391.005	82.7062
393.897	80.4756
396.79	64.1051
399.683	90.5754
402.575	122.993
405.468	199.189
408.361	250.238
411.254	381.877
414.146	557.79
417.039	809.829
419.932	1057.51
422.824	1435.73
425.717	1864.51
428.61	2415.65
431.502	2922.85
434.395	3380.41
437.288	3573.56
440.181	3574.4
443.073	3375.42
445.966	3020.55
448.859	2821.05
451.751	2735.4
454.644	2854.83
457.537	3293.71
460.43	3977.92
463.322	4960.61
466.215	6162.51
469.108	7597.88
472	8893.54
474.893	9798.17
477.786	9482.5
480.678	7955.26
483.571	6304.95
486.464	4854.66
489.356	3661.34
492.249	2669.22
495.142	1894.15
498.035	1276.18
500.927	897.689
503.82	594.905
506.713	418.238
509.605	219.917
512.498	119.596
515.391	57.9122
518.284	26.7801
521.176	56.797
524.069	58.9033
526.962	63.4165
529.854	52.574
532.747	20.0366
535.64	27.0076
538.533	81.2281
541.425	171.235
544.318	257.135
547.211	422.023
550.103	550.96
552.996	736.333
555.889	906.55
558.781	1040.63
561.674	1086.82
564.567	1046.14
567.459	957.231
570.352	885.766
573.245	761.545
576.138	631.555
579.03	535.583
581.923	470.678
584.816	346.182
587.708	251.9
590.601	194.603
593.494	146.305
596.386	153.928
599.279	137.187
602.172	230.121
605.064	343.715
607.957	497.269
610.85	739.349
613.743	1008.89
616.635	1288.61
619.528	1520.36
622.421	1482.74
625.313	1235.88
628.206	826.022
631.099	474.699
633.991	261.846
636.884	144.803
639.777	93.1869
642.67	77.0378
645.562	22.5669
648.455	15.5945
651.348	8.29395
654.24	4.6604
657.133	6.76154
660.026	0.876953
662.918	8.95013
665.811	1.75458
668.704	28.178
671.597	29.2574
674.489	50.3288
677.382	68.1683
680.275	87.2125
683.167	98.1646
686.06	119.333
688.953	144.783
691.846	151.349
694.738	163.299
697.631	173.22
700.524	174.45
703.416	157.575
706.309	164.983
709.202	161.038
712.094	157.354
714.987	152.028
717.88	141.066
720.773	125.365
723.665	104.608
726.558	121.02
729.451	98.7615
732.343	63.8481
735.236	56.4385
738.129	36.1252
741.021	33.0774
743.914	30.9564
746.807	1.75378
749.699	17.5207
752.592	4.35266
755.485	28.3575
758.378	22.2672
761.27	26.8088
764.163	27.7095
767.056	30.0541
769.948	19.7098
772.841	21.6716
775.734	22.9586
778.626	8.35852
781.519	51.7949
784.412	153.124
787.305	271.637
790.197	441.47
793.09	648.075
795.983	909.191
798.875	1203.82
801.768	1567.88
804.661	1820.66
807.553	2090.4
810.446	2272.84
813.339	2375.68
816.232	2538.55
819.124	2599.08
822.017	2650.52
824.91	2688.68
827.802	2776.89
830.695	2772.64
833.588	2865.16
836.481	3056.24
839.373	3282.62
842.266	3478.89
845.159	3684.62
848.051	3811.32
850.944	3887.79
853.837	3691.97
856.729	3360.43
859.622	2832.15
862.515	2472.93
865.408	2026.85
868.3	1757.11
871.193	1438.43
874.086	1272.48
876.978	1048.09
879.871	917.924
882.764	767.245
885.656	565.941
888.549	435.604
891.442	374.26
894.335	235.641
897.227	171.905
900.12	115.012
903.013	85.9677
905.905	82.3822
908.798	97.4908
911.691	106.061
914.583	98.0525
917.476	132.066
920.369	133.1
923.261	120.981
926.154	129.648
929.047	92.291
931.94	103.318
934.832	78.5839
937.725	32.515
940.618	9.23596
943.51	6.37176
946.403	28.2632
949.296	27.1623
952.188	24.4943
955.081	22.1965
957.974	16.3771
960.867	18.6825
963.759	29.6288
966.652	3.8194
969.545	14.1641
972.437	27.3795
975.33	54.5284
978.223	80.5593
981.115	139.828
984.008	291.072
986.901	592.443
989.794	1095.45
992.686	1837.02
995.579	2782.94
998.472	3387.94
1001.36	3105.11
1004.26	2156.79
1007.15	1226.6
1010.04	644.471
1012.93	350.188
1015.83	225.522
1018.72	129.321
1021.61	118.833
1024.51	49.7164
1027.4	30.6304
1030.29	13.6566
1033.18	11.1149
1036.08	2.77673
1038.97	0.193634
1041.86	17.1861
1044.76	33.1217
1047.65	49.8259
1050.54	92.7705
1053.43	119.8
1056.33	162.235
1059.22	171.264
1062.11	238.065
1065	298.939
1067.9	325.579
1070.79	409.589
1073.68	477.868
1076.58	542.256
1079.47	609.053
1082.36	623.394
1085.25	643.749
1088.14	650.613
1091.04	603.581
1093.93	595.489
1096.82	574.058
1099.72	557.185
1102.61	533.327
1105.5	499.05
1108.39	434.224
1111.29	389.948
1114.18	330.813
1117.07	286.523
1119.96	232.412
1122.86	192.635
1125.75	159.305
1128.64	129.959
1131.54	131.358
1134.43	120.752
1137.32	103.224
1140.21	144.832
1143.11	138.118
1146	151.087
1148.89	136.747
1151.79	140.01
1154.68	112.403
1157.57	138.26
1160.46	112.772
1163.36	86.4475
1166.25	73.1804
1169.14	52.3229
1172.03	42.5992
1174.93	25.4491
1177.82	38.9428
1180.71	17.9498
1183.6	5.87228
1186.5	5.57458
1189.39	2.29895
1192.28	7.54169
1195.17	1.25717
1198.07	0.049423
1200.96	9.27191
1203.85	5.88829
1206.75	5.89551
1209.64	12.646
1212.53	14.6811
1215.42	24.9785
1218.32	44.2501
1221.21	49.1963
1224.1	41.537
1226.99	38.0231
1229.89	19.2401
1232.78	28.7483
1235.67	5.23086
1238.57	7.43669
1241.46	3.28868
