Measurement: Raman, 532 nm, unoriented, Raman Data Processed
Mineral: Beudantite
Rruff sample: R070189
Ideal chemistry: Pb^2+^Fe^3+^_3_(As^5+^O_4_)(S^6+^O_4_)(OH)_6_
Locality: Tsumeb mine, Tsumeb, Otavi District, Oshikoto, Namibia
Source: William W. Pinch
Description: Transparent brown rhombohedra or pseudocubes associated with green duftite
Measured chemistry: (Pb_0.92_[box]_0.07_Cu_0.01_)_Σ=1_(Fe^3+^_2.80_Al_0.20_)_Σ=3_(As_1.00_O_4_)((S_0.80_As_0.20_)_Σ=1_O_4_)((OH)_5.66_(H_2_O)_0.34_)_Σ=6_ ; trace amounts of P; (OH) estimated by charge balance; H_2_O by difference:  H_2_O=6-(OH)
Raman shift (cm-1)	intensity
148.215	0
151.108	233.893
154.001	342.644
156.894	527.99
159.786	376.808
162.679	126.836
165.572	59.1299
168.464	62.5068
171.357	28.4346
174.25	300.827
177.143	895.127
180.035	1753.79
182.928	3053.8
185.821	4815.21
188.713	7264
191.606	10461.2
194.499	14086
197.391	17124.3
200.284	18848.6
203.177	18719
206.07	17011.8
208.962	14297.6
211.855	11557.5
214.748	9135.9
217.64	7090.29
220.533	5273.23
223.426	3809.24
226.318	2715.68
229.211	2057.13
232.104	1458.08
234.996	1206.03
237.889	1141.17
240.782	1259.29
243.675	1430.81
246.567	1697.26
249.46	1781.5
252.353	1885.18
255.245	1819.05
258.138	1704.92
261.031	1432.35
263.923	1223.51
266.816	981.68
269.709	778.31
272.602	485.631
275.494	339.33
278.387	204.132
281.28	245.686
284.173	433.076
287.065	911.121
289.958	1559.1
292.851	2436.27
295.743	3360.99
298.636	4142.53
301.529	4647.2
304.421	4973.43
307.314	4958.76
310.207	4811.27
313.099	4605.97
315.992	4236.85
318.885	3922.14
321.778	3757.05
324.67	3555.48
327.563	3297.22
330.456	2778.18
333.348	2142.61
336.241	1400.21
339.134	684.551
342.026	233.062
344.919	116.206
347.812	319.298
350.705	332.861
353.597	349.106
356.49	198.784
359.383	5.56152
362.275	220.781
365.168	542.628
368.061	697.534
370.954	962.143
373.846	991.212
376.739	866.699
379.632	670.123
382.524	516.595
385.417	432.618
388.31	427.752
391.202	407.895
394.095	610.123
396.988	1034.38
399.88	1589.64
402.773	2241.06
405.666	2935.61
408.559	3633.3
411.451	4499.27
414.344	5420.75
417.237	6539.94
420.129	7911.64
423.022	9358.82
425.915	10923
428.808	12241
431.7	13391.4
434.593	14047.6
437.486	14123.6
440.378	13405.4
443.271	12388.2
446.164	11022.4
449.056	9869.41
451.949	9098.55
454.842	8576.35
457.735	8494.13
460.627	9012.31
463.52	10531.1
466.413	12624.3
469.305	15122.1
472.198	17163.8
475.091	18024.3
477.983	16791.6
480.876	13911.4
483.769	10852.7
486.661	8171.91
489.554	5921.38
492.447	4035.85
495.34	2661.02
498.232	1673.67
501.125	1000.26
504.018	515.751
506.911	221.433
509.803	6.06348
512.696	178.036
515.589	195.341
518.481	265.258
521.374	188.056
524.267	143.908
527.159	18.2021
530.052	214.799
532.945	495.9
535.837	863.83
538.73	1354.13
541.623	1995.61
544.516	2724.27
547.408	3621.26
550.301	4659.64
553.194	5673.94
556.086	6533.61
558.979	7025.63
561.872	7029.3
564.764	6658.69
567.657	5980.25
570.55	5129.47
573.443	4294.09
576.335	3515.49
579.228	2762.11
582.121	2152.55
585.013	1672.37
587.906	1261.13
590.799	957.25
593.692	740.911
596.584	577.192
599.477	555.381
602.37	551.461
605.262	671.726
608.155	1000.37
611.048	1380.95
613.94	1923.35
616.833	2333.37
619.726	2587.46
622.619	2476.2
625.511	1956.84
628.404	1228.95
631.297	685.228
634.189	397.506
637.082	231.875
639.975	147.022
642.867	63.6428
645.76	36.0715
648.653	22.7139
651.545	64.2214
654.438	35.9727
657.331	43.9773
660.224	0.255615
663.116	45.7698
666.009	76.4695
668.902	178.674
671.794	215.791
674.687	286.469
677.58	322.512
680.472	372.014
683.365	460.584
686.258	483.411
689.151	493.026
692.043	524.982
694.936	501.481
697.829	540.556
700.721	476.274
703.614	496.341
706.507	456.326
709.399	418.693
712.292	390.795
715.185	360.209
718.078	333.839
720.97	281.255
723.863	218.149
726.756	225.53
729.648	184.856
732.541	185.416
735.434	112.649
738.327	125.839
741.219	132.56
744.112	41.812
747.005	30.821
749.897	18.3638
752.79	21.2715
755.683	44.3298
758.576	36.3923
761.468	86.0105
764.361	110.057
767.254	135.8
770.146	79.9175
773.039	86.8603
775.932	15.1428
778.824	125.105
781.717	399.206
784.61	758.392
787.503	1285.41
790.395	1936.48
793.288	2772.37
796.181	3629.36
799.073	4762.49
801.966	5705.83
804.859	6667.44
807.751	7436.14
810.644	8067.58
813.537	8587.71
816.429	9184.33
819.322	9694.66
822.215	10308.6
825.108	10682.7
828	11285.2
830.893	11919
833.786	12866.2
836.678	13900.2
839.571	14863.9
842.464	15653.1
845.356	15893.2
848.249	15659.4
851.142	14898.5
854.035	13605.3
856.927	11925.6
859.82	10235.2
862.713	8744.62
865.605	7625.73
868.498	6626
871.391	5798.98
874.284	4958.88
877.176	4272.68
880.069	3707.34
882.962	3129.89
885.854	2691.7
888.747	2205.76
891.64	1849.8
894.533	1501.97
897.425	1215.83
900.318	952.861
903.211	697.589
906.103	537.954
908.996	332.731
911.889	172.091
914.781	61.022
917.674	27.8977
920.567	76.6081
923.46	84.1294
926.352	82.9951
929.245	69.3726
932.138	88.4175
935.03	68.6035
937.923	21.3208
940.816	44.9539
943.708	13.3423
946.601	8.24658
949.494	3.98755
952.386	55.0796
955.279	75.0828
958.172	29.322
961.065	52.8433
963.957	38.345
966.85	19.135
969.743	9.5293
972.635	45.9665
975.528	130.305
978.421	248.079
981.313	524.78
984.206	1062.8
987.099	2044.18
989.992	3829.97
992.884	6368.68
995.777	8637.78
998.67	9265.29
1001.56	7587.65
1004.46	4777.05
1007.35	2482.61
1010.24	1228.43
1013.13	644.152
1016.03	361.506
1018.92	193.193
1021.81	94.2942
1024.7	44.103
1027.6	22.3919
1030.49	116.885
1033.38	61.3486
1036.28	91.1538
1039.17	48.0054
1042.06	61.9033
1044.95	190.592
1047.85	387.645
1050.74	572.734
1053.63	855.004
1056.52	1176.51
1059.42	1524.29
1062.31	1911.04
1065.2	2402.78
1068.09	2816.59
1070.99	3357.93
1073.88	3763.73
1076.77	4222.91
1079.66	4488.18
1082.56	4669.52
1085.45	4689.47
1088.34	4678.07
1091.24	4602.53
1094.13	4556.15
1097.02	4476.49
1099.91	4437.98
1102.81	4086.51
1105.7	3970.94
1108.59	3778.86
1111.48	3482.83
1114.38	3166.81
1117.27	2781.45
1120.16	2452.04
1123.06	2128.53
1125.95	1843.11
1128.84	1588.09
1131.73	1487.41
1134.63	1485.07
1137.52	1470.57
1140.41	1571.56
1143.31	1580.02
1146.2	1683.62
1149.09	1673.67
1151.98	1637.23
1154.88	1553.83
1157.77	1437.31
1160.66	1295.15
1163.55	1099.51
1166.45	1005.24
1169.34	792.93
1172.23	669.856
1175.12	534.635
1178.02	435.484
1180.91	351.305
1183.8	249.276
1186.69	174.7
1189.59	105.931
1192.48	39.6361
1195.37	29.924
1198.27	66.855
1201.16	79.2529
1204.05	76.0217
1206.94	69.5795
1209.84	44.8287
1212.73	44.2325
1215.62	2.90405
1218.52	7.9126
1221.41	53.6088
1224.3	121.557
1227.19	80.6454
1230.09	145.099
1232.98	146.782
1235.87	149.954
1238.76	169.828
1241.66	180.502
1244.55	199.1
1247.44	217.583
1250.34	243.335
1253.23	179.614
1256.12	126.249
1259.01	81.0395
1261.91	75.9678
1264.8	71.1931
1267.69	80.0829
1270.58	77.1981
1273.48	62.9626
1276.37	47.8631
1279.26	57.2072
1282.15	62.358
1285.05	67.1093
1287.94	50.9253
1290.83	33.4496
1293.72	30.5824
1296.62	30.1929
1299.51	6.7298
