Measurement: Raman, 785 nm, unoriented, Raman Data Processed
Mineral: Beudantite
Rruff sample: R070189
Ideal chemistry: Pb^2+^Fe^3+^_3_(As^5+^O_4_)(S^6+^O_4_)(OH)_6_
Locality: Tsumeb mine, Tsumeb, Otavi District, Oshikoto, Namibia
Source: William W. Pinch
Description: Transparent brown rhombohedra or pseudocubes associated with green duftite
Measured chemistry: (Pb_0.92_[box]_0.07_Cu_0.01_)_Σ=1_(Fe^3+^_2.80_Al_0.20_)_Σ=3_(As_1.00_O_4_)((S_0.80_As_0.20_)_Σ=1_O_4_)((OH)_5.66_(H_2_O)_0.34_)_Σ=6_ ; trace amounts of P; (OH) estimated by charge balance; H_2_O by difference:  H_2_O=6-(OH)
Raman shift (cm-1)	intensity
149.464	0
152.357	182.155
155.25	363.249
158.142	174.599
161.035	16.4795
163.928	15.8418
166.821	5.17944
169.713	82.3301
172.606	148.928
175.499	354.515
178.391	714.332
181.284	1271.78
184.177	1991.53
187.069	3090.15
189.962	4447.59
192.855	6371.84
195.748	8466.61
198.64	10130.6
201.533	10860.6
204.426	10612.3
207.318	9307.49
210.211	7742.19
213.104	6346.89
215.996	5016.64
218.889	3945.68
221.782	3013.76
224.674	2281.72
227.567	1732.57
230.46	1255.87
233.353	978.89
236.245	851.523
239.138	771.589
242.031	825.083
244.923	946.231
247.816	972.148
250.709	988.583
253.601	1023.71
256.494	955.335
259.387	868.629
262.28	799.812
265.172	646.476
268.065	525.806
270.958	356.748
273.85	218.084
276.743	192.367
279.636	219.685
282.529	322.212
285.421	581.388
288.314	935.467
291.207	1489.79
294.099	2049.58
296.992	2671.38
299.885	3149.94
302.777	3485.07
305.67	3523.14
308.563	3460.47
311.455	3224.3
314.348	2864.34
317.241	2516.29
320.134	2180.88
323.026	1932.66
325.919	1747.8
328.812	1504.49
331.704	1202.14
334.597	834.252
337.49	455.303
340.382	170.626
343.275	14.4368
346.168	157.412
349.061	170.072
351.953	203.043
354.846	140.791
357.739	73.5923
360.631	21.99
363.524	131.144
366.417	240.014
369.31	366.597
372.202	474.336
375.095	463.172
377.988	392.719
380.88	286.264
383.773	219.423
386.666	231.37
389.558	237.28
392.451	274.116
395.344	373.262
398.236	588.448
401.129	825.774
404.022	1131.87
406.915	1437.94
409.807	1760.52
412.7	2171.12
415.593	2621.65
418.485	3250.75
421.378	3880.3
424.271	4641.34
427.163	5323.94
430.056	5998.02
432.949	6615.16
435.842	6869.45
438.734	6793.73
441.627	6376.74
444.52	5664.75
447.412	5070.04
450.305	4504.23
453.198	4149.19
456.091	3949.52
458.983	4030.78
461.876	4502.61
464.769	5295.19
467.661	6424.1
470.554	7680.82
473.447	8747.83
476.339	9019.38
479.232	8193.34
482.125	6631.44
485.017	5026.1
487.91	3678.21
490.803	2598.86
493.696	1775.38
496.588	1152.05
499.481	704.57
502.374	408.76
505.266	229.514
508.159	76.9078
511.052	5.53406
513.944	41.6534
516.837	80.2295
519.73	125.256
522.623	83.1178
525.515	47.4806
528.408	7.90808
531.301	55.3778
534.193	192.47
537.086	315.923
539.979	470.634
542.871	690.644
545.764	968.998
548.657	1331.18
551.55	1689.76
554.442	2105.97
557.335	2404.41
560.228	2624.22
563.12	2601.5
566.013	2479.49
568.906	2179.84
571.798	1862.21
574.691	1529.08
577.584	1209.87
580.477	920.606
583.369	728.273
586.262	523.095
589.155	398.468
592.047	304.326
594.94	234.329
597.833	206.518
600.726	228.394
603.618	265.654
606.511	356.7
609.404	487.587
612.296	698.293
615.189	933.256
618.082	1119.16
620.974	1264.11
623.867	1171.73
626.76	851.388
629.653	501.091
632.545	279.797
635.438	161.018
638.331	89.5179
641.223	70.4953
644.116	12.4278
647.009	14.1213
649.901	0.813843
652.794	19.376
655.687	14.2665
658.58	4.03979
661.472	0.660217
664.365	34.7491
667.258	24.1195
670.15	70.4346
673.043	111.523
675.936	128.767
678.828	162.554
681.721	186.448
684.614	212.113
687.506	210.806
690.399	260.815
693.292	245.287
696.185	232.187
699.077	215.496
701.97	214.618
704.863	225.315
707.755	186.135
710.648	195.485
713.541	168.624
716.433	137.771
719.326	125.862
722.219	123.368
725.112	117.621
728.004	94.9313
730.897	94.9068
733.79	57.4252
736.682	48.7639
739.575	50.3588
742.468	50.8495
745.361	18.0768
748.253	33.807
751.146	0.247314
754.039	1.56927
756.931	1.41888
759.824	30.9644
762.717	18.4851
765.609	55.9433
768.502	51.5783
771.395	20.0666
774.288	33.8993
777.18	15.7267
780.073	43.2954
782.966	111.695
785.858	260.738
788.751	395.68
791.644	606.625
794.536	876.284
797.429	1166.45
800.322	1440.06
803.215	1750.73
806.107	2040.65
809	2268.24
811.893	2510.97
814.785	2703.26
817.678	2933.39
820.571	3215.78
823.463	3509.32
826.356	3832.48
829.249	4283.36
832.141	4837.32
835.034	5486.68
837.927	6170.69
840.82	6829.09
843.712	7272.47
846.605	7495.1
849.498	7395.72
852.39	6918.21
855.283	6262.03
858.176	5264.04
861.068	4397.29
863.961	3703.54
866.854	3161
869.747	2723.86
872.639	2318.34
875.532	1944.04
878.425	1671.58
881.317	1419.17
884.21	1195.08
887.103	969.873
889.995	785.867
892.888	651.993
895.781	539.808
898.674	390.029
901.566	298.799
904.459	207.213
907.352	155.435
910.244	73.6066
913.137	47.5747
916.03	28.7635
918.923	9.16162
921.815	35.2495
924.708	21.9252
927.601	30.5394
930.493	23.4927
933.386	22.52
936.279	21.2941
939.171	10.8176
942.064	0.08374
944.957	21.2931
947.85	0.451233
950.742	39.6517
953.635	12.8218
956.528	33.3895
959.42	38.5457
962.313	20.6041
965.206	25.0304
968.098	4.4256
970.991	3.13715
973.884	44.5417
976.777	77.9152
979.669	134.153
982.562	294.919
985.455	604.747
988.347	1207.79
991.24	2202.2
994.133	3698.84
997.025	5000.76
999.918	5189.07
1002.81	3962.52
1005.7	2259.4
1008.6	1110.53
1011.49	512.113
1014.38	261.54
1017.27	169.646
1020.17	108.324
1023.06	56.2524
1025.95	28.9639
1028.85	18.4518
1031.74	32.9055
1034.63	26.5983
1037.52	21.4366
1040.42	9.72595
1043.31	24.3864
1046.2	37.0956
1049.09	76.3082
1051.99	137.349
1054.88	191.219
1057.77	269.744
1060.66	344.344
1063.56	449.978
1066.45	546.546
1069.34	636.129
1072.24	779.001
1075.13	872.873
1078.02	971.286
1080.91	1052.14
1083.81	1083.92
1086.7	1089.15
1089.59	1035.77
1092.48	1025.39
1095.38	1050.24
1098.27	1041.86
1101.16	1012.75
1104.06	1005.36
1106.95	974.511
1109.84	917.852
1112.73	856.835
1115.63	757.249
1118.52	663.469
1121.41	584.155
1124.3	510.066
1127.2	481.295
1130.09	456.364
1132.98	428.063
1135.88	453.401
1138.77	488.825
1141.66	519.198
1144.55	544.846
1147.45	545.855
1150.34	546.859
1153.23	561.504
1156.12	491.72
1159.02	458.417
1161.91	377.158
1164.8	334.257
1167.69	266.831
1170.59	195.897
1173.48	173.07
1176.37	130.659
1179.27	110.078
1182.16	74.0797
1185.05	53.3089
1187.94	18.3399
1190.84	9.83322
1193.73	13.8733
1196.62	1.45901
1199.51	20.5641
1202.41	8.00668
1205.3	0.617706
1208.19	15.3714
1211.09	31.2846
1213.98	55.803
1216.87	61.0043
1219.76	46.5824
1222.66	50.7109
1225.55	45.5426
1228.44	9.34164
1231.33	5.02475
1234.23	4.22006
