Measurement: Raman, 532 nm, unoriented, Raman Data Processed
Mineral: Bianchite
Rruff sample: R070020
Ideal chemistry: ZnSO_4_6H_2_O
Locality: Equatorial part of Midatlantic Ridge, 5000 m depth, Atlantic Ocean
Source: Michael Scott
Description: White efflorescence associated with wurtzite
Raman shift (cm-1)	intensity
169.949	0
172.842	437.289
175.734	19.3516
178.627	226.492
181.52	500.148
184.412	696.562
187.305	1571.15
190.198	1904.1
193.09	2691.52
195.983	3346.86
198.876	4190
201.769	5021.06
204.661	6056.5
207.554	6609.85
210.447	7070.88
213.339	7184.52
216.232	6576.73
219.125	6126.74
222.018	5507.55
224.91	4808.19
227.803	4064.62
230.696	3462.47
233.588	3025.05
236.481	2334.99
239.374	1974.72
242.266	1889.71
245.159	1726.38
248.052	1614.51
250.945	1757.93
253.837	2104.19
256.73	2670.31
259.623	3171.56
262.515	3749.02
265.408	4738.74
268.301	5427.69
271.193	5935.39
274.086	5830.59
276.979	5089.75
279.871	4171.17
282.764	3575.6
285.657	2663.22
288.55	1977.28
291.442	1647.02
294.335	1332.26
297.228	1175.56
300.12	880.344
303.013	762.742
305.906	607.766
308.798	444.766
311.691	492.578
314.584	256.477
317.476	136.883
320.369	19.3594
323.262	65.0938
326.155	61.5469
329.047	350.508
331.94	14.1797
334.833	80.3047
337.725	45.9141
340.618	5.23438
343.511	41.3594
346.403	148.852
349.296	143.031
352.189	14.8125
355.082	108.93
357.974	26.7812
360.867	83.0156
363.76	6.85156
366.652	224.773
369.545	98.6953
372.438	174.43
375.33	133.969
378.223	92.3438
381.116	84.5859
384.009	181.414
386.901	120.414
389.794	114.719
392.687	309.539
395.579	231.109
398.472	411.352
401.365	423.156
404.257	866.883
407.15	1654.84
410.043	2762.77
412.935	4336.62
415.828	6748.06
418.721	8744.73
421.614	10314.3
424.506	9031.26
427.399	5695.55
430.292	3101.43
433.184	1755.88
436.077	1140.16
438.97	832.93
441.862	455.758
444.755	555.945
447.648	197.664
450.541	314.266
453.433	458.656
456.326	471.039
459.219	246.289
462.111	340.531
465.004	728.758
467.897	864.133
470.789	1170.38
473.682	1320.8
476.575	2115.03
479.467	2658.88
482.36	3112.45
485.253	4343.62
488.146	5161.81
491.038	5881.38
493.931	6427.63
496.824	6720.91
499.716	6504.09
502.609	5696.62
505.502	4876.3
508.394	3726.08
511.287	2746.38
514.18	2151.39
517.073	1746.62
519.965	1111.91
522.858	1099.44
525.751	795.562
528.643	422.375
531.536	363.156
534.429	113.234
537.321	289.125
540.214	241.625
543.107	41.8125
546	99.2031
548.892	59.6719
551.785	26.0938
554.678	223.75
557.57	182.562
560.463	8.67188
563.356	14.5625
566.248	305.641
569.141	64.8906
572.034	10.9062
574.927	87.25
577.819	272.969
580.712	129.516
583.605	237.953
586.497	295.156
589.39	398.969
592.283	536.656
595.175	951.359
598.068	1426
600.961	1426.94
603.854	2428.78
606.746	3349.22
609.639	4971.36
612.532	7081.81
615.424	9621.42
618.317	11565.7
621.21	12196.5
624.102	11668.8
626.995	9814.23
629.888	7058.22
632.78	4685.88
635.673	3772.31
638.566	3097.66
641.458	3107.31
644.351	2954.7
647.244	3099.92
650.137	3485.53
653.029	3330
655.922	3582.06
658.815	3400.14
661.707	3014.83
664.6	2671.52
667.493	2176.12
670.385	1753.75
673.278	1388.33
676.171	1034.23
679.063	837.047
681.956	614.031
684.849	869.516
687.742	268.594
690.634	89.3125
693.527	654.766
696.42	479.875
699.312	118.828
702.205	301.453
705.098	546.266
707.99	267.688
710.883	30.3281
713.776	422.625
716.669	77.6719
719.561	38.7812
722.454	200.969
725.347	122.438
728.239	323.688
731.132	33.6094
734.025	58.2969
736.918	145.875
739.81	411.25
742.703	133.969
745.596	21.875
748.488	111.688
751.381	260.266
754.274	193.812
757.166	150.531
760.059	199.016
762.952	162.688
765.845	234.031
768.737	58
771.63	323.516
774.523	247.344
777.415	179.781
780.308	116.547
783.201	284.297
786.093	211.562
788.986	557.188
791.879	381.406
794.771	235.828
797.664	360.797
800.557	265.484
803.449	22.1406
806.342	267.984
809.235	57.3281
812.128	144.469
815.02	188.047
817.913	406.812
820.806	175.5
823.698	375.906
826.591	44.6875
829.484	484.625
832.376	444.656
835.269	454.203
838.162	429.359
841.055	203.516
843.947	489.953
846.84	599.781
849.733	539.797
852.625	300.281
855.518	535.172
858.411	347.75
861.303	24.6094
864.196	395.75
867.089	410.453
869.981	603.922
872.874	363.234
875.767	332.656
878.66	476.344
881.552	494.281
884.445	511.062
887.338	344.656
890.23	548.516
893.123	621.984
896.016	671.578
898.909	624.859
901.801	582.734
904.694	687.656
907.587	493.594
910.479	491.828
913.372	391.797
916.265	481.688
919.157	613.375
922.05	305.516
924.943	163.922
927.835	261.25
930.728	176.234
933.621	92.4844
936.514	30.3125
939.406	344.031
942.299	89.25
945.192	382.969
948.084	104.422
950.977	259.391
953.87	112.094
956.763	163.531
959.655	83.9375
962.548	204.156
965.441	192.344
968.333	82.3594
971.226	73.2188
974.119	4.76562
977.011	135.078
979.904	398.031
982.797	268.766
985.689	671.688
988.582	1192.2
991.475	2023.66
994.367	2077.39
997.26	2861.81
1000.15	3688.64
1003.05	4987.84
1005.94	7238.91
1008.83	10363.6
1011.72	15376.5
1014.62	23386.2
1017.51	34691.6
1020.4	45761.6
1023.29	53831.9
1026.19	51959.1
1029.08	40402.8
1031.97	26285.6
1034.87	16026.2
1037.76	8977.64
1040.65	5742.88
1043.54	3505.78
1046.44	2724.89
1049.33	1820.47
1052.22	1881.44
1055.11	2206.12
1058.01	2942.98
1060.9	3689.91
1063.79	5376.09
1066.68	6964.3
1069.58	8582.2
1072.47	9865.64
1075.36	11001.2
1078.26	11318.2
1081.15	10609.7
1084.04	9115
1086.93	7302.77
1089.83	6038.47
1092.72	4212.42
1095.61	3296.95
1098.51	2424.44
1101.4	1706.66
1104.29	803.141
1107.18	742.031
1110.08	167.391
1112.97	74.8125
1115.86	100.594
1118.75	79.7969
1121.65	141.016
1124.54	282.844
1127.43	205.719
1130.32	84.1094
1133.22	257.766
1136.11	42.3438
1139	361.25
1141.89	222.5
1144.79	378.547
1147.68	475.219
1150.57	383.375
1153.47	435.484
1156.36	469.594
1159.25	865.906
1162.14	1108.25
1165.04	1325.08
1167.93	1459.92
1170.82	1676.92
1173.71	2301.06
1176.61	3435.52
1179.5	4602.5
1182.39	5546.27
1185.29	6012.39
1188.18	5918.48
1191.07	4363.31
1193.96	3391.39
1196.86	2306.53
1199.75	1218.14
1202.64	1110.06
1205.53	796.594
1208.43	430.062
1211.32	562.266
1214.21	254.141
1217.11	217.172
1220	447.141
1222.89	244.406
1225.78	160.062
1228.68	542.469
1231.57	142.109
1234.46	317.594
1237.35	68.25
1240.25	689.672
1243.14	282.609
1246.03	409.281
1248.92	528.609
1251.82	407.438
1254.71	316.281
1257.6	645.547
1260.5	426.906
1263.39	828.703
1266.28	366.891
1269.17	189.375
1272.07	9.65625
1274.96	265.266
1277.85	416
1280.74	454.156
1283.64	361.641
1286.53	620.125
1289.42	459.984
1292.32	218.344
