Measurement: Raman, 780 nm, unoriented, Raman Data Processed
Mineral: Bicchulite
Rruff sample: R080049
Ideal chemistry: Ca_2_Al_2_SiO_6_(OH)_2_
Locality: Fuka Mine, Bitchu-Cho, Okayama Prefecture, Chugoku Region, Honshu Island, Japan
Source: Michael Scott
Description: White microcrystalline associated with calcite and vesuvianite
Raman shift (cm-1)	intensity
150.457	0
153.35	0.262932
156.243	1.10885
159.135	0.95446
162.028	2.84271
164.921	2.764
167.813	3.48954
170.706	4.23362
173.599	4.95956
176.491	3.96959
179.384	4.0654
182.277	3.18723
185.169	2.00691
188.062	1.36581
190.955	0.277763
193.848	0.764816
196.74	0.919144
199.633	0.018791
202.526	0.326622
205.418	1.29348
208.311	2.60543
211.204	3.54608
214.096	3.69629
216.989	5.01845
219.882	4.0897
222.775	3.03299
225.667	4.11974
228.56	3.01857
231.453	3.47784
234.345	2.4455
237.238	1.79945
240.131	2.67471
243.024	3.15916
245.916	3.61085
248.809	1.86418
251.702	3.33738
254.594	3.66067
257.487	3.5172
260.38	2.82542
263.272	2.78947
266.165	1.60387
269.058	0.864052
271.95	3.1196
274.843	2.63692
277.736	4.2762
280.629	4.48024
283.521	4.70492
286.414	4.28208
289.307	3.4745
292.199	1.49309
295.092	1.50306
297.985	0.700081
300.877	1.76643
303.77	0.65551
306.663	1.24141
309.556	1.44984
312.448	0.032608
315.341	0.354225
318.234	1.07276
321.126	0.958351
324.019	1.54291
326.912	0.391068
329.805	0.734772
332.697	2.20458
335.59	3.14805
338.483	3.09504
341.375	4.10729
344.268	4.26079
347.161	4.61775
350.053	6.39908
352.946	8.25799
355.839	10.6462
358.731	11.798
361.624	12.121
364.517	12.4563
367.41	8.98724
370.302	8.19473
373.195	6.51701
376.088	7.29176
378.98	5.68456
381.873	5.21465
384.766	4.27171
387.659	3.60172
390.551	3.99794
393.444	3.58171
396.337	4.24789
399.229	4.76728
402.122	5.02964
405.015	5.36276
407.907	5.63392
410.8	5.45751
413.693	3.88861
416.586	3.40102
419.478	2.02102
422.371	1.06835
425.264	0.461952
428.156	0.874809
431.049	0.103699
433.942	0.852913
436.834	0.684456
439.727	1.00971
442.62	0.380882
445.512	0.609215
448.405	0.523071
451.298	1.1983
454.191	1.7814
457.083	2.42409
459.976	2.59233
462.869	1.98867
465.761	4.70998
468.654	3.57579
471.547	6.7349
474.44	7.0413
477.332	6.86923
480.225	8.55927
483.118	8.86095
486.01	9.0677
488.903	9.41686
491.796	8.5001
494.688	9.88796
497.581	10.9114
500.474	9.88422
503.366	11.1265
506.259	11.6
509.152	12.0029
512.045	13.6112
514.937	11.9365
517.83	12.9639
520.723	12.8493
523.615	11.4722
526.508	10.6112
529.401	10.4503
532.293	9.05704
535.186	8.65622
538.079	7.30165
540.972	6.44872
543.864	5.05226
546.757	4.27955
549.65	2.22896
552.542	1.69489
555.435	1.73714
558.328	1.23805
561.221	0.518867
564.113	0.304344
567.006	0.209915
569.899	0.420059
572.791	0.339165
575.684	0.414963
578.577	0.093338
581.469	0.534599
584.362	0.716064
587.255	0.020966
590.148	0.935585
593.04	1.40217
595.933	1.58523
598.826	0.810852
601.718	1.24099
604.611	1.97926
607.504	1.19929
610.396	1.38563
613.289	3.34824
616.182	3.67659
619.074	5.73974
621.967	7.85063
624.86	9.33929
627.753	12.5654
630.645	15.2642
633.538	17.8267
636.431	21.1015
639.323	19.2216
642.216	17.1302
645.109	12.7651
648.001	7.9662
650.894	5.28109
653.787	3.37996
656.68	2.48513
659.572	2.66663
662.465	2.21308
665.358	1.57284
668.25	2.06616
671.143	2.81287
674.036	2.2076
676.928	3.31642
679.821	2.28993
682.714	2.77434
685.607	2.71069
688.499	3.45403
691.392	3.41123
694.285	3.50628
697.177	2.4482
700.07	2.22835
702.963	1.96654
705.856	1.08061
708.748	0.940903
711.641	1.05721
714.534	1.27327
717.426	0.753464
720.319	0.052696
723.212	0.34639
726.104	0.213753
728.997	0.06073
731.89	0.661118
734.783	1.0617
737.675	0.467201
740.568	0.068207
743.461	0.112473
746.353	0.081123
749.246	1.24331
752.139	0.84816
755.031	1.39083
757.924	0.085754
760.817	1.95551
763.71	0.259735
766.602	0.896324
769.495	0.750153
772.388	0.577454
775.28	1.3517
778.173	0.269363
781.066	1.01164
783.958	0.250687
786.851	1.01846
789.744	0.749207
792.636	1.48868
795.529	0.658211
798.422	0.893288
801.315	1.14915
804.207	1.29053
807.1	1.43291
809.993	2.02761
812.885	3.09148
815.778	2.87088
818.671	4.05071
821.563	3.66376
824.456	4.71674
827.349	4.5639
830.242	6.62067
833.134	7.63024
836.027	9.52881
838.92	10.4327
841.812	12.2655
844.705	13.763
847.598	13.9151
850.49	14.9604
853.383	16.8346
856.276	16.3239
859.169	17.1578
862.061	16.2889
864.954	16.4406
867.847	14.3289
870.739	13.3443
873.632	11.3699
876.525	10.6298
879.418	8.38218
882.31	7.49325
885.203	4.3503
888.096	4.93497
890.988	1.76331
893.881	1.74955
896.774	1.23917
899.666	0.087685
902.559	0.040543
905.452	0.021393
908.345	0.589821
911.237	0.424271
914.13	0.778015
917.023	0.41008
919.915	1.26903
922.808	1.48377
925.701	2.0506
928.593	1.67361
931.486	2.15659
934.379	2.0163
937.271	1.0539
940.164	1.19393
943.057	1.06018
945.95	1.15807
948.842	0.785568
951.735	0.679947
954.628	0.221756
957.52	0.52877
960.413	1.08273
963.306	1.63935
966.198	2.03217
969.091	1.66787
971.984	1.75855
974.877	2.37204
977.769	1.79928
980.662	0.522842
983.555	1.35184
986.447	0.555847
989.34	0.249916
992.233	0.456223
995.125	0.284973
998.018	0.404968
1000.91	0.031059
1003.8	0.374359
1006.7	0.560249
1009.59	0.128113
1012.48	0.572235
1015.37	1.08511
1018.27	0.522255
1021.16	0.710091
1024.05	1.30333
1026.94	0.668617
1029.84	1.25756
1032.73	1.31202
1035.62	1.58533
1038.52	0.949677
1041.41	0.253517
1044.3	1.41003
1047.19	1.94386
1050.09	0.442543
1052.98	1.35501
1055.87	0.439857
1058.77	1.71358
1061.66	1.13612
1064.55	2.03738
1067.44	1.44775
1070.34	1.10967
1073.23	1.46401
1076.12	3.37191
1079.01	3.99827
1081.91	6.11326
1084.8	9.64671
1087.69	12.7017
1090.59	2.19822
1093.48	1.31471
1096.37	0.964401
1099.26	1.53648
1102.15	1.17929
1105.05	1.3542
1107.94	0.389786
1110.83	1.35257
1113.73	0.980453
1116.62	0.081512
1119.51	1.16604
1122.4	0.743019
1125.3	0.646042
1128.19	0.584831
1131.08	1.25005
1133.97	0.158348
1136.87	1.03458
1139.76	0.068756
1142.65	0.757759
1145.55	1.46394
1148.44	0.529068
1151.33	0.646065
1154.22	1.09585
1157.12	0.456062
1160.01	0.358734
1162.9	0.921982
1165.8	1.63207
1168.69	0.565155
1171.58	0.697609
1174.47	1.01856
1177.37	0.53582
1180.26	1.15625
1183.15	0.338608
1186.04	0.16275
1188.94	1.17487
1191.83	0.576759
