Measurement: Raman, 532 nm, unoriented, Raman Data Processed
Mineral: Bicchulite
Rruff sample: R080049
Ideal chemistry: Ca_2_Al_2_SiO_6_(OH)_2_
Locality: Fuka Mine, Bitchu-Cho, Okayama Prefecture, Chugoku Region, Honshu Island, Japan
Source: Michael Scott
Description: White microcrystalline associated with calcite and vesuvianite
Raman shift (cm-1)	intensity
150.774	0
153.667	1.07315
156.56	4.30678
159.453	5.42946
162.345	7.12172
165.238	8.71103
168.131	12.6285
171.023	13.1031
173.916	14.3489
176.809	16.1889
179.702	14.4014
182.594	11.4662
185.487	7.27856
188.38	3.82281
191.272	1.20584
194.165	1.13496
197.058	0.940659
199.95	1.08879
202.843	0.428421
205.736	2.50807
208.629	3.20194
211.521	5.7616
214.414	8.54419
217.307	10.595
220.199	9.80757
223.092	8.93272
225.985	8.9424
228.877	6.33208
231.77	4.90666
234.663	4.4196
237.555	4.25156
240.448	4.09405
243.341	3.24147
246.234	2.74106
249.126	2.69876
252.019	3.76001
254.912	6.39053
257.804	5.30049
260.697	3.88236
263.59	0.340683
266.483	0.576691
269.375	2.14033
272.268	2.758
275.161	5.82568
278.053	8.11786
280.946	10.2882
283.839	9.47865
286.731	9.1131
289.624	6.60644
292.517	6.75044
295.409	4.65706
298.302	2.71256
301.195	4.45778
304.088	3.53557
306.98	3.43971
309.873	2.2691
312.766	2.39372
315.658	0.61554
318.551	0.491562
321.444	0.69635
324.337	1.06142
327.229	1.93481
330.122	1.72014
333.015	3.56401
335.907	2.43361
338.8	2.51267
341.693	3.62518
344.585	5.16365
347.478	7.83322
350.371	13.0943
353.264	16.6008
356.156	20.7332
359.049	26.9719
361.942	32.4149
364.834	30.8694
367.727	19.1415
370.62	17.3764
373.512	14.9181
376.405	12.2069
379.298	12.4555
382.19	13.1686
385.083	11.4118
387.976	12.4752
390.869	14.0362
393.761	15.6983
396.654	18.9983
399.547	23.5357
402.439	26.3523
405.332	26.7352
408.225	28.1576
411.118	23.2604
414.01	20.7236
416.903	15.6587
419.796	11.6881
422.688	8.23784
425.581	4.20341
428.474	2.56247
431.366	0.563004
434.259	1.57846
437.152	0.841492
440.044	0.270096
442.937	0.003891
445.83	1.11314
448.723	0.560883
451.615	2.2493
454.508	2.11566
457.401	2.50148
460.293	4.42117
463.186	5.16696
466.079	7.22182
468.971	10.4698
471.864	14.7305
474.757	17.6873
477.649	19.9521
480.542	22.0625
483.435	21.432
486.328	22.5167
489.22	23.8436
492.113	25.3543
495.006	25.7719
497.898	26.8925
500.791	28.5879
503.684	27.4018
506.577	28.6112
509.469	29.6835
512.362	29.544
515.255	30.0054
518.147	29.9498
521.04	29.5945
523.933	29.3038
526.825	27.9071
529.718	26.5983
532.611	25.2396
535.504	22.0852
538.396	22.0861
541.289	16.8005
544.182	14.8802
547.074	10.2003
549.967	6.60663
552.86	3.16274
555.752	2.23315
558.645	0.894409
561.538	1.10979
564.431	0.496979
567.323	0.053391
570.216	0.482864
573.109	0.053772
576.001	0.580261
578.894	3.06981
581.787	5.32431
584.679	6.3853
587.572	7.61995
590.465	8.17892
593.357	7.1411
596.25	8.45137
599.143	7.1783
602.036	7.86906
604.928	8.33878
607.821	9.53957
610.714	10.902
613.606	12.1522
616.499	16.1473
619.392	20.5062
622.284	27.4318
625.177	38.7238
628.07	50.8184
630.963	67.9552
633.855	84.9081
636.748	97.9288
639.641	97.9376
642.533	84.7233
645.426	62.8505
648.319	42.7595
651.212	26.3497
654.104	16.2702
656.997	9.16263
659.89	3.87073
662.782	2.3143
665.675	1.51068
668.568	1.10162
671.46	2.45633
674.353	2.83278
677.246	3.09567
680.139	4.29913
683.031	5.7702
685.924	6.16339
688.817	8.93245
691.709	11.6299
694.602	10.9397
697.495	8.92165
700.387	7.07921
703.28	5.79912
706.173	3.4891
709.066	3.05093
711.958	2.18713
714.851	0.598633
717.744	0.017456
720.636	0.050201
723.529	0.668655
726.422	0.207153
729.314	0.567749
732.207	0.829498
735.1	0.492599
737.992	0.710571
740.885	0.808792
743.778	0.663208
746.671	0.05249
749.563	0.557098
752.456	0.637375
755.349	1.07185
758.241	1.03
761.134	1.3008
764.027	0.871704
766.919	1.14632
769.812	1.38197
772.705	-0.183035
775.598	1.43051
778.49	1.58555
781.383	1.71098
784.276	0.846372
787.168	1.3663
790.061	0.725952
792.954	0.717056
795.846	0.600739
798.739	1.37675
801.632	0.009079
804.524	0.715988
807.417	0.121872
810.31	1.28653
813.203	1.5515
816.095	3.09065
818.988	4.22443
821.881	5.01797
824.773	7.91446
827.666	9.4263
830.559	10.4768
833.452	15.0804
836.344	16.8201
839.237	21.5136
842.13	27.2086
845.022	30.313
847.915	35.204
850.808	40.6524
853.7	45.1953
856.593	47.5537
859.486	49.3465
862.379	49.5098
865.271	47.4044
868.164	43.0654
871.057	39.6386
873.949	35.031
876.842	31.6194
879.735	25.9532
882.627	24.731
885.52	18.9835
888.413	14.5131
891.306	8.63177
894.198	5.02835
897.091	3.34729
899.984	0.409042
902.876	0.814758
905.769	0.925751
908.662	0.079193
911.554	2.81599
914.447	4.88734
917.34	8.6394
920.232	11.8553
923.125	15.7259
926.018	17.4344
928.911	19.7505
931.803	18.2378
934.696	18.2445
937.589	16.7525
940.481	13.9089
943.374	11.4622
946.267	10.1626
949.159	7.91348
952.052	5.28169
954.945	5.59201
957.838	6.01538
960.73	4.84932
963.623	6.13667
966.516	5.47832
969.408	6.25476
972.301	6.06314
975.194	6.83189
978.087	6.79063
980.979	5.72293
983.872	3.34456
986.765	3.25964
989.657	1.3434
992.55	0.170258
995.443	1.17824
998.335	0.793732
1001.23	0.362228
1004.12	0.042175
1007.01	1.6409
1009.91	2.47847
1012.8	2.145
1015.69	1.48752
1018.58	3.2226
1021.48	2.62143
1024.37	3.98634
1027.26	3.12312
1030.15	4.14297
1033.05	4.42248
1035.94	4.23126
1038.83	4.1835
1041.73	3.89879
1044.62	3.1564
1047.51	2.81598
1050.4	2.32877
1053.3	0.741409
1056.19	1.4947
1059.08	0.131592
1061.97	0.374741
1064.87	0.886349
1067.76	0.116196
1070.65	0.536789
1073.55	2.8194
1076.44	3.44199
1079.33	5.65564
1082.22	8.20523
1085.12	16.4104
1088.01	27.2734
1090.9	6.48737
1093.79	2.60792
1096.69	1.53127
1099.58	2.09833
1102.47	2.57712
1105.37	2.1527
1108.26	2.91455
1111.15	3.00124
1114.04	2.54198
1116.94	1.41985
1119.83	1.25354
1122.72	1.40767
1125.61	1.20187
1128.51	0.893524
1131.4	2.0068
1134.29	0.276657
1137.18	1.69234
1140.08	0.440887
1142.97	2.01177
1145.86	1.47664
1148.76	2.62871
1151.65	1.18318
1154.54	1.75285
1157.43	0.958572
1160.33	1.48453
1163.22	1.31647
1166.11	0.707367
1169.01	0.578796
1171.9	1.56303
1174.79	1.94077
1177.68	1.35457
1180.58	0.160446
1183.47	0.638229
1186.36	1.44949
1189.25	0.304504
1192.15	1.78503
1195.04	0.156693
1197.93	0.585693
1200.82	2.03828
1203.72	1.98885
1206.61	1.5293
1209.5	0.5186
1212.39	1.05345
1215.29	1.29576
1218.18	0.458328
1221.07	0.352783
1223.97	1.63782
1226.86	0.705368
1229.75	0.873093
1232.64	1.27411
1235.54	1.7679
1238.43	1.82321
1241.32	0.539566
1244.21	0.229523
1247.11	1.09276
1250	0.449799
1252.89	0.019302
1255.79	0.173859
1258.68	1.74916
1261.57	0.812561
1264.46	2.1843
1267.36	0.149063
1270.25	1.49255
1273.14	0.975647
1276.04	0.272034
1278.93	1.09061
1281.82	1.25467
1284.71	1.4379
1287.61	2.50394
1290.5	1.64853
1293.39	1.63873
1296.28	1.75932
1299.18	0.552109
1302.07	1.74704
1304.96	0.159088
