Measurement: Raman, 532 nm, unoriented, Raman Data Processed
Mineral: Bieberite
Rruff sample: R070595
Ideal chemistry: CoSO_4_7H_2_O
Locality: Nkana mine, Kitwe, Western Province, Zambia
Source: James Shigley
Description: Light pink massive coating blue chalcanthite
Raman shift (cm-1)	intensity
139.245	0
142.138	97.9443
145.03	219.084
147.923	283.358
150.816	310.641
153.709	163.173
156.601	123.261
159.494	21.7422
162.387	0.112305
165.279	75.5391
168.172	46.0166
171.065	129.718
173.958	79.8106
176.85	12.2119
179.743	20.2832
182.636	26.5654
185.528	87.3867
188.421	134.014
191.314	156.253
194.206	312.835
197.099	465.571
199.992	572.54
202.885	653.877
205.777	846.616
208.67	1082.57
211.563	1205.7
214.455	1543.43
217.348	1733.27
220.241	1921.94
223.133	2042.02
226.026	1823.6
228.919	1638.17
231.811	1462.19
234.704	1204.34
237.597	1136.81
240.49	1109.31
243.382	1091.53
246.275	978.316
249.168	1128.19
252.06	1132.53
254.953	1231.08
257.846	1423.91
260.738	1681.16
263.631	1834.37
266.524	1853.85
269.417	1919.2
272.309	1950.22
275.202	1800.48
278.095	1422.28
280.987	1102.9
283.88	744.762
286.773	457.447
289.665	393.764
292.558	220.388
295.451	103.884
298.344	3.49805
301.236	43.4551
304.129	18.8818
307.022	8.50098
309.914	11.2041
312.807	10.71
315.7	43.3115
318.592	28.2559
321.485	19.7578
324.378	135.713
327.271	138.28
330.163	197.014
333.056	274.277
335.949	344.837
338.841	223.097
341.734	267.401
344.627	307.322
347.519	232.674
350.412	202.401
353.305	189.394
356.197	204.561
359.09	109.244
361.983	53.3535
364.876	36.9688
367.768	47.79
370.661	1.47949
373.554	71.3037
376.446	44.1094
379.339	25.7275
382.232	46.6963
385.125	18.5566
388.017	10.8516
390.91	7.80176
393.803	76.8086
396.695	74.8945
399.588	181.048
402.481	270.205
405.373	455.244
408.266	786.216
411.159	1084.62
414.051	1448.58
416.944	1867.8
419.837	2413.58
422.73	2577.49
425.622	1977.1
428.515	1170.54
431.408	855.75
434.3	650.665
437.193	380.624
440.086	215.934
442.978	168.075
445.871	181.875
448.764	186.04
451.657	120.485
454.549	119.744
457.442	149.328
460.335	95.2178
463.227	141.884
466.12	226.749
469.013	367.963
471.905	367.264
474.798	493.899
477.691	568.695
480.584	762.602
483.476	1010.11
486.369	1168.46
489.262	1441.46
492.154	1719.95
495.047	1959.89
497.94	2152.89
500.832	2136.09
503.725	2083.63
506.618	1729.83
509.51	1452.72
512.403	1089.3
515.296	887.604
518.189	685.602
521.081	509.299
523.974	382.89
526.867	312.867
529.759	292.68
532.652	173.851
535.545	129.333
538.438	6.04883
541.33	49.2578
544.223	71.4443
547.116	19.4258
550.008	41.5185
552.901	20.9668
555.794	19.4111
558.686	45.2227
561.579	42.8935
564.472	50.8369
567.365	16.9629
570.257	2.20215
573.15	18.9414
576.043	46.7471
578.935	22.2559
581.828	99.5469
584.721	171.234
587.613	187.225
590.506	235.134
593.399	346.019
596.291	437.284
599.184	620.65
602.077	799.995
604.97	1076.36
607.862	1437.52
610.755	1774.12
613.648	2202.39
616.54	2521.47
619.433	2698.47
622.326	2828.18
625.218	2544.46
628.111	1926
631.004	1370.02
633.896	820.163
636.789	630.356
639.682	468.903
642.575	452.824
645.467	499.269
648.36	524.204
651.253	602.025
654.145	668.433
657.038	696.523
659.931	811.472
662.823	912.179
665.716	680.394
668.609	555.246
671.502	389.854
674.394	205.287
677.287	97.0098
680.18	88.7051
683.072	62.1309
685.965	49.3223
688.858	19.627
691.75	24.2725
694.643	77.7353
697.536	52.0576
700.429	16.5732
703.321	14.8008
706.214	56.6641
709.107	36.9609
711.999	3.97266
714.892	106.92
717.785	74.751
720.678	54.0898
723.57	24.1895
726.463	83.4023
729.356	19.4473
732.248	71.0527
735.141	22.0684
738.034	74.2246
740.926	121.011
743.819	34.169
746.712	91.9658
749.604	57.416
752.497	1.04297
755.39	83.582
758.283	109.166
761.175	30.8965
764.068	1.36035
766.961	118.218
769.853	82.0996
772.746	49.3477
775.639	4.82422
778.531	54.1367
781.424	87.3232
784.317	118.644
787.21	41.4648
790.102	30.4863
792.995	130.817
795.888	29.75
798.78	47.2236
801.673	70.4541
804.566	48.0869
807.458	57.9541
810.351	157.336
813.244	95.2588
816.136	160.874
819.029	129.226
821.922	129.916
824.815	159.019
827.707	154.086
830.6	69.7481
833.493	184.95
836.385	107.091
839.278	149.307
842.171	149.092
845.063	147.127
847.956	148.72
850.849	175.915
853.742	159.079
856.634	166.19
859.527	171.938
862.42	121.332
865.312	215.352
868.205	225.135
871.098	220.265
873.99	216.585
876.883	261.653
879.776	238.994
882.669	191.798
885.561	288.478
888.454	230.84
891.347	231.727
894.239	257.504
897.132	225.625
900.025	178.342
902.918	161.024
905.81	159.227
908.703	111.22
911.596	156.918
914.488	134.268
917.381	184.411
920.274	110.057
923.166	57.6338
926.059	90.4688
928.952	53.3994
931.844	63.0967
934.737	51.8232
937.63	14.7725
940.523	34.5596
943.415	60.1143
946.308	22.0117
949.201	30.7637
952.093	76.0459
954.986	54.082
957.879	62.0107
960.771	34.2744
963.664	81.3037
966.557	46.873
969.449	26.0869
972.342	58.4346
975.235	58.0576
978.128	150.932
981.02	238.684
983.913	524.663
986.806	627.276
989.698	765.521
992.591	1060.41
995.484	1374.88
998.376	1990.15
1001.27	2659.43
1004.16	3572.31
1007.05	4858.01
1009.95	6581.89
1012.84	8584.41
1015.73	10679.4
1018.62	12529.8
1021.52	13478
1024.41	13406.5
1027.3	11486
1030.2	9013.5
1033.09	7139.23
1035.98	5956.39
1038.87	5490.86
1041.77	4970.02
1044.66	4670.72
1047.55	4135.47
1050.44	3448.94
1053.34	2811.1
1056.23	2507.32
1059.12	2156.42
1062.02	1843.16
1064.91	1527.95
1067.8	1450.34
1070.69	1371.67
1073.59	1420.49
1076.48	1384.22
1079.37	1350.31
1082.27	1501.1
1085.16	1484.8
1088.05	1618.96
1090.94	1586.4
1093.84	1509.9
1096.73	1386.61
1099.62	1043.13
1102.51	801.891
1105.41	534.632
1108.3	314.228
1111.19	212.917
1114.08	147.244
1116.98	18.0059
1119.87	5.93066
1122.76	62.8916
1125.65	125.829
1128.55	80.0898
1131.44	7.87012
1134.33	41.333
1137.23	23.9238
1140.12	121.473
1143.01	38.2002
1145.9	38.502
1148.8	157.991
1151.69	186.069
1154.58	204.797
1157.47	256.048
1160.37	341.883
1163.26	411.408
1166.15	447.86
1169.05	544.394
1171.94	668.864
1174.83	674.607
1177.72	827.082
1180.62	984.838
1183.51	1092.67
1186.4	1194.13
1189.3	1250.44
1192.19	1266.07
1195.08	1394.96
1197.97	1500.35
1200.87	1499.08
1203.76	1308.17
1206.65	1116.81
1209.54	825.282
1212.44	674.458
1215.33	588.078
1218.22	427.541
1221.11	385.874
1224.01	295.688
1226.9	206.973
1229.79	120.121
1232.68	145.922
1235.58	41.1758
1238.47	103.518
1241.36	99.6768
1244.26	11.7412
1247.15	56.9609
1250.04	59.6562
1252.93	36.7041
1255.83	74.2324
1258.72	54.7891
1261.61	52.0488
1264.51	41.9346
1267.4	42.4785
1270.29	17.1611
1273.18	32.6016
1276.08	12.0117
1278.97	18.6035
1281.86	0
