Measurement: Raman, 780 nm, unoriented, Raman Data Processed
Mineral: Bigcreekite
Rruff sample: R060432
Ideal chemistry: BaSi_2_O_5_4H_2_O
Locality: Trumbull Peak, Mariposa County, California, USA
Source: Michael Scott
Description: White veinlets with distinctive cleavage, running through sanbornite
Measured chemistry: (Ba_0.99_Na_0.01_)_Σ=1_(Si_1.95_Fe^3+^_0.05_)_2_(O_4.94_(OH)_0.06_)_Σ=5_·4H_2_O
Raman shift (cm-1)	intensity
108.371	0
111.746	279.453
115.121	1578.58
118.496	720.657
121.87	135.992
125.245	288.069
128.62	1016
131.995	1895.34
135.37	1528.78
138.744	827.417
142.119	368.379
145.494	95.8503
148.869	47.9142
152.244	5.33594
155.619	65.2672
158.993	57.4602
162.368	42.6044
165.743	27.477
169.118	51.3415
172.493	92.7151
175.867	144.769
179.242	290.611
182.617	482.331
185.992	736.924
189.367	973.335
192.742	1205.12
196.116	1582.73
199.491	1942.88
202.866	2427.11
206.241	2993.79
209.616	3430.84
212.99	3328.56
216.365	2944.71
219.74	2634.97
223.115	2791.6
226.49	2933.35
229.864	2676.76
233.239	2175.39
236.614	1663.57
239.989	1247.96
243.364	989.582
246.738	782.625
250.113	717.61
253.488	713.916
256.863	767.49
260.238	903.674
263.613	1020.51
266.988	1355.25
270.362	1670.22
273.737	2291.6
277.112	2917.9
280.487	3190.2
283.861	2872.21
287.236	2205.72
290.611	1490.46
293.986	906.392
297.361	531.291
300.736	307.069
304.11	172.077
307.485	133.252
310.86	100.652
314.235	72.3638
317.61	43.7808
320.985	27.8337
324.359	21.0372
327.734	5.02997
331.109	29.9424
334.484	50.6835
337.859	18.9424
341.233	7.3158
344.608	14.2784
347.983	56.7665
351.358	2.83307
354.733	14.689
358.108	103.907
361.482	75.4188
364.857	110.259
368.232	162.895
371.607	107.975
374.982	184.188
378.356	54.1185
381.731	143.755
385.106	189.255
388.481	399.274
391.856	513.48
395.231	361.475
398.605	402.461
401.98	680.027
405.355	1186.3
408.73	1760.07
412.105	1207.9
415.479	504.465
418.854	205.888
422.229	92.6657
425.604	66.828
428.979	36.8522
432.353	154.435
435.728	129.223
439.103	282.285
442.478	594.623
445.853	1077.17
449.228	2002.61
452.602	2653.72
455.977	1732.55
459.352	690.139
462.727	344.034
466.102	186.168
469.476	56.3046
472.851	20.0751
476.226	1.4035
479.601	94.4028
482.976	308.331
486.351	559.818
489.725	818.427
493.1	658.374
496.475	395.316
499.85	224.469
503.225	132.438
506.599	14.5518
509.974	28.4304
513.349	43.3719
516.724	4.2713
520.099	9.12775
523.474	23.5087
526.848	42.0698
530.223	51.8497
533.598	47.8071
536.973	80.4804
540.348	20.3386
543.722	55.8168
547.097	33.526
550.472	39.9957
553.847	16.5888
557.222	57.482
560.597	10.5816
563.971	31.5536
567.346	32.1338
570.721	45.6374
574.096	62.4297
577.471	77.5189
580.846	116.172
584.22	94.9608
587.595	104.222
590.97	99.2281
594.345	81.0186
597.72	54.2769
601.094	45.7618
604.469	137.357
607.844	62.4484
611.219	27.6052
614.594	93.1803
617.968	88.3243
621.343	80.5611
624.718	99.8334
628.093	85.5353
631.468	65.0099
634.842	57.7339
638.217	12.0085
641.592	35.8588
644.967	8.75156
648.342	18.8609
651.717	46.0797
655.091	48.8365
658.466	42.9338
661.841	69.9697
665.216	4.70651
668.591	64.5537
671.966	18.516
675.34	4.02045
678.715	65.9495
682.09	23.3511
685.465	2.10382
688.84	48.2353
692.214	5.84708
695.589	26.9088
698.964	25.081
702.339	51.411
705.714	79.1788
709.088	25.1562
712.463	54.4174
715.838	13.1711
719.213	55.6783
722.588	76.7128
725.963	81.8404
729.337	65.4584
732.712	100.213
736.087	76.6473
739.462	53.1433
742.837	88.2265
746.212	12.1535
749.586	84.5482
752.961	47.2111
756.336	29.285
759.711	1.89838
763.086	25.2419
766.46	11.1125
769.835	3.15945
773.21	8.81174
776.585	7.50385
779.96	27.4177
783.335	9.98401
786.709	59.6393
790.084	19.5498
793.459	34.2401
796.834	29.9862
800.209	40.0617
803.583	22.3458
806.958	97.6556
810.333	135.164
813.708	256.38
817.083	243.819
820.457	227.126
823.832	207.455
827.207	106.965
830.582	62.3291
833.957	100.936
837.332	46.7125
840.706	9.2821
844.081	1.78543
847.456	56.8073
850.831	63.5452
854.206	44.4849
857.581	81.1216
860.955	33.5352
864.33	48.6778
867.705	43.9065
871.08	54.7706
874.455	65.885
877.829	52.1516
881.204	69.139
884.579	71.3476
887.954	70.6267
891.329	51.0037
894.703	65.5462
898.078	15.37
901.453	12.7301
904.828	17.6353
908.203	4.40793
911.578	5.70483
914.952	35.4404
918.327	16.1145
921.702	50.8516
925.077	74.6743
928.452	65.9805
931.827	81.251
935.201	52.4225
938.576	30.8439
941.951	34.1714
945.326	2.60451
948.701	57.1317
952.075	12.7641
955.45	47.2051
958.825	36.8163
962.2	78.1347
965.575	98.4185
968.949	63.14
972.324	30.0352
975.699	0.479156
979.074	1.25217
982.449	40.0443
985.823	19.1387
989.198	14.1782
992.573	10.3296
995.948	8.18247
999.323	58.33
1002.7	39.1134
1006.07	109.947
1009.45	127.541
1012.82	208.281
1016.2	225.827
1019.57	101.394
1022.95	136.28
1026.32	184.877
1029.7	136.654
1033.07	229.668
1036.45	295.13
1039.82	426.565
1043.19	565.68
1046.57	829.98
1049.94	1214.72
1053.32	1950.58
1056.69	2748.98
1060.07	3059.24
1063.44	2364.23
1066.82	1429.79
1070.19	810.65
1073.57	495.642
1076.94	334.121
1080.32	212.159
1083.69	144.877
1087.07	78.3793
1090.44	43.6167
1093.82	78.0124
1097.19	13.8344
1100.57	35.4283
1103.94	5.79552
1107.32	11.6065
1110.69	20.2994
1114.07	11.1123
1117.44	2.856
1120.82	63.1519
1124.19	62.7396
1127.57	101.94
1130.94	90.1778
1134.32	60.5677
1137.69	30.2967
1141.07	41.1108
1144.44	47.3476
1147.82	1.83054
1151.19	35.2678
1154.56	5.18398
1157.94	9.31293
1161.31	45.8089
1164.69	22.2688
1168.06	26.011
1171.44	14.981
1174.81	25.3882
1178.19	69.5607
1181.56	10.3777
1184.94	22.4373
1188.31	29.8857
1191.69	30.9962
1195.06	30.2549
1198.44	68.2335
1201.81	10.0162
1205.19	7.00751
1208.56	3.24268
1211.94	37.5513
1215.31	38.0088
1218.69	52.5996
1222.06	32.1085
1225.44	49.5659
1228.81	66.4679
1232.18	13.2989
1235.56	77.4122
1238.93	75.9917
1242.31	5.48077
1245.68	9.32718
1249.06	6.50076
1252.43	33.995
1255.81	32.3405
1259.18	59.7957
1262.56	61.6285
1265.93	64.6878
1269.31	43.0768
1272.68	54.8491
1276.06	15.9327
1279.43	1.72476
1282.81	45.5538
1286.18	20.0438
