Measurement: Raman, 532 nm, unoriented, Raman Data Processed
Mineral: Bigcreekite
Rruff sample: R060432
Ideal chemistry: BaSi_2_O_5_4H_2_O
Locality: Trumbull Peak, Mariposa County, California, USA
Source: Michael Scott
Description: White veinlets with distinctive cleavage, running through sanbornite
Measured chemistry: (Ba_0.99_Na_0.01_)_Σ=1_(Si_1.95_Fe^3+^_0.05_)_2_(O_4.94_(OH)_0.06_)_Σ=5_·4H_2_O
Raman shift (cm-1)	intensity
127.529	0
130.422	740.786
133.314	1357.93
136.207	1286.39
139.1	735.606
141.992	255.346
144.885	134.448
147.778	107.52
150.671	49.219
153.563	11.6888
156.456	3.22107
159.349	30.2791
162.241	43.5341
165.134	33.2903
168.027	3.17261
170.919	35.6703
173.812	73.6831
176.705	137.605
179.597	195.767
182.49	332.366
185.383	557.039
188.275	765.235
191.168	869.72
194.061	1064.9
196.954	1217.84
199.846	1318.7
202.739	1659.65
205.632	1857.38
208.524	2234.24
211.417	2347.86
214.31	2268.55
217.202	2135.49
220.095	2138.49
222.988	2419.86
225.881	2911.37
228.773	3526.24
231.666	3976.76
234.559	3722.32
237.451	3142.63
240.344	2715.66
243.237	2286.54
246.13	1895.81
249.022	1446.61
251.915	1091.48
254.808	913.863
257.7	861.849
260.593	904.81
263.486	1009.17
266.378	1155.84
269.271	1313.97
272.164	1486.07
275.057	1858.05
277.949	2172.98
280.842	2155.45
283.735	2032.4
286.627	1575.56
289.52	923.62
292.413	571.847
295.305	326.699
298.198	155.245
301.091	25.7136
303.983	31.5509
306.876	66.7775
309.769	27.6887
312.661	37.7136
315.554	28.8823
318.447	0.810059
321.34	49.4297
324.232	109.694
327.125	261.77
330.018	486.578
332.91	633.803
335.803	990.659
338.696	1224.92
341.589	1217.69
344.481	1056.62
347.374	966.07
350.267	713.86
353.159	588.577
356.052	600.697
358.945	638.782
361.837	717.556
364.73	680.44
367.623	314.541
370.515	178.894
373.408	163.687
376.301	215.913
379.194	345.404
382.086	629.538
384.979	1331.43
387.872	2820.04
390.764	3602.98
393.657	2036.39
396.55	1071.79
399.442	1018.3
402.335	1220.51
405.228	1899.86
408.12	2770.53
411.013	2143.85
413.906	884.858
416.799	293.813
419.691	0.505981
422.584	23.4924
425.477	74.724
428.369	40.1888
431.262	129.794
434.155	104.389
437.048	312.853
439.94	500.368
442.833	1026.44
445.726	1779.01
448.618	3144.59
451.511	4439.76
454.404	3860.91
457.296	2146.02
460.189	1229.21
463.082	866.469
465.974	569.985
468.867	311.908
471.76	257.064
474.653	396.772
477.545	653.46
480.438	1024.11
483.331	1618
486.223	2593.39
489.116	3422.89
492.009	3147.87
494.901	2015.91
497.794	1082.16
500.687	607.808
503.58	447.373
506.472	225.461
509.365	85.3303
512.258	129.146
515.15	56.2176
518.043	16.1107
520.936	19.2521
523.828	13.4675
526.721	25.3347
529.614	40.9397
532.506	23.1481
535.399	34.6365
538.292	3.67871
541.185	6.36487
544.077	14.2971
546.97	26.5979
549.863	1.48657
552.755	34.2666
555.648	53.0381
558.541	62.3733
561.433	25.5444
564.326	63.5651
567.219	63.2865
570.112	56.1492
573.004	81.8909
575.897	53.1732
578.79	80.4115
581.682	79.6785
584.575	54.3477
587.468	90.5723
590.361	93.7854
593.253	65.406
596.146	92.5206
599.039	55.4557
601.931	42.723
604.824	19.5972
607.717	56.7258
610.609	52.5125
613.502	96.7261
616.395	55.5626
619.288	78.3633
622.18	10.1309
625.073	78.7058
627.966	108.82
630.858	22.9541
633.751	49.1846
636.644	42.6293
639.536	23.589
642.429	3.58411
645.322	77.2609
648.214	94.5669
651.107	67.4781
654	35.4829
656.893	1.04627
659.785	58.4153
662.678	41.3792
665.571	15.2054
668.463	56.3188
671.356	79.4291
674.249	33.6409
677.141	64.7078
680.034	90.7428
682.927	76.1423
685.819	7.37793
688.712	68.2128
691.605	68.9518
694.498	75.9241
697.39	27.4321
700.283	81.3933
703.176	18.4498
706.068	68.3675
708.961	119.014
711.854	66.9019
714.746	80.7466
717.639	70.5269
720.532	80.5856
723.425	129.84
726.317	105.061
729.21	80.1731
732.103	100.321
734.995	92.0803
737.888	150.673
740.781	117.795
743.673	210.776
746.566	222.639
749.459	193.442
752.352	126.988
755.244	74.0322
758.137	67.5919
761.03	2.29565
763.922	98.6664
766.815	30.1249
769.708	53.0008
772.6	1.0968
775.493	42.5876
778.386	11.823
781.279	66.9235
784.171	4.07788
787.064	55.6227
789.957	23.5231
792.849	42.1863
795.742	14.658
798.635	0.768921
801.527	56.095
804.42	24.7227
807.313	125.21
810.206	142.405
813.098	167.618
815.991	163.926
818.884	230.656
821.776	233.188
824.669	146.786
827.562	77.7492
830.454	140.964
833.347	100.533
836.24	16.3301
839.132	16.7906
842.025	1.0199
844.918	46.5429
847.811	17.3049
850.703	104.858
853.596	114.023
856.489	58.5069
859.381	67.5749
862.274	93.1012
865.167	43.1112
868.059	48.8795
870.952	44.713
873.845	72.4571
876.737	89.853
879.63	80.0848
882.523	74.8082
885.416	61.0161
888.308	77.7158
891.201	91.863
894.094	51.8015
896.986	36.824
899.879	40.4235
902.772	10.4337
905.664	8.64807
908.557	40.3748
911.45	18.2177
914.343	41.2262
917.235	28.0778
920.128	57.8102
923.021	76.4556
925.913	78.2112
928.806	74.9396
931.699	74.9185
934.591	47.0869
937.484	55.7637
940.377	70.5542
943.27	68.9326
946.162	57.4076
949.055	12.5596
951.948	20.7033
954.84	30.6735
957.733	116.662
960.626	229.744
963.518	251.607
966.411	420.405
969.304	517.663
972.197	250.937
975.089	91.5057
977.982	0.884155
980.875	19.5657
983.767	30.9819
986.66	30.7567
989.553	31.8392
992.445	39.3053
995.338	19.7136
998.231	23.2832
1001.12	3.82764
1004.02	37.6974
1006.91	154.562
1009.8	142.213
1012.69	240.634
1015.59	235.731
1018.48	187.736
1021.37	126.925
1024.27	153.975
1027.16	228.964
1030.05	216.934
1032.94	408.298
1035.84	562.556
1038.73	696.194
1041.62	800.665
1044.51	1017.51
1047.41	1424.04
1050.3	2047.65
1053.19	2983.29
1056.09	4139.68
1058.98	5099.49
1061.87	4790.7
1064.76	3525.23
1067.66	2294.37
1070.55	1502.44
1073.44	1011.17
1076.33	704.729
1079.23	487.426
1082.12	387.375
1085.01	263.612
1087.9	190.44
1090.8	96.8197
1093.69	57.4235
1096.58	97.4086
1099.47	96.825
1102.37	0.641357
1105.26	49.864
1108.15	16.2183
1111.05	29.1979
1113.94	9.99573
1116.83	15.9781
1119.72	47.6288
1122.62	46.5546
1125.51	127.211
1128.4	122.198
1131.3	73.6383
1134.19	70.822
1137.08	72.4
1139.97	50.7893
1142.87	31.0162
1145.76	46.2444
1148.65	20.6122
1151.54	73.7526
1154.44	14.3475
1157.33	35.7296
1160.22	8.14838
1163.12	65.6193
1166.01	20.8871
1168.9	44.1118
1171.79	17.4618
1174.68	72.9199
1177.58	10.7281
1180.47	65.9199
1183.36	22.1467
1186.26	29.4908
1189.15	33.0985
1192.04	49.1377
1194.93	20.111
1197.83	82.1014
1200.72	32.2475
1203.61	27.8428
1206.51	8.24164
1209.4	22.4451
1212.29	11.7983
1215.18	21.2164
1218.08	76.7481
1220.97	15.5077
1223.86	54.3033
1226.75	72.8273
1229.65	51.9532
1232.54	30.72
1235.43	50.6713
1238.33	60.6661
1241.22	59.1544
1244.11	117.162
1247	53.9741
1249.9	39.2957
1252.79	85.1908
1255.68	87.68
1258.57	17.7858
1261.47	69.6581
1264.36	24.75
1267.25	10.2865
