Measurement: Raman, 532 nm, unoriented, Raman Data Processed
Mineral: Bikitaite
Rruff sample: R060032
Ideal chemistry: LiAlSi_2_O_6_H_2_O
Locality: Al Hyat mine, Bikita, Fort Victoria, Southern Rhodesia
Source: University of Arizona Mineral Museum
Description: A group of radiating white to colorless acicular crystals
Measured chemistry: Li_1.00_Al_1.00_Si_2.00_O_6_Â·H_2_O ; Li not measured but estimated by charge balance
Raman shift (cm-1)	intensity
171.818	0
174.71	4.729
177.603	8.96704
180.496	1.9021
183.388	10.7424
186.281	29.1357
189.174	48.1936
192.067	49.3391
194.959	75.3633
197.852	100.033
200.745	160.285
203.637	193.92
206.53	147.938
209.423	73.0073
212.315	45.7739
215.208	44.4797
218.101	67.5303
220.994	73.5169
223.886	62.8162
226.779	47.4929
229.672	37.0166
232.564	45.2134
235.457	64.8772
238.35	87.5718
241.243	118.38
244.135	168.266
247.028	210.82
249.921	233.469
252.813	243.551
255.706	254.276
258.599	225.209
261.491	136.974
264.384	69.4744
267.277	19.842
270.17	3.90674
273.062	4.14258
275.955	3.37158
278.848	2.78003
281.74	1.11304
284.633	15.3948
287.526	25.6895
290.418	41.7922
293.311	43.9634
296.204	33.5161
299.096	13.6221
301.989	25.0364
304.882	15.9543
307.775	19.8911
310.667	11.1289
313.56	21.6333
316.453	22.261
319.345	11.1438
322.238	2.8291
325.131	7.18921
328.024	14.2097
330.916	4.375
333.809	2.48779
336.702	2.4707
339.594	16.8848
342.487	46.0098
345.38	44.3237
348.272	34.9751
351.165	46.3442
354.058	37.9951
356.95	28.9966
359.843	36.8911
362.736	43.7402
365.629	75.8106
368.521	115.74
371.414	178.982
374.307	234.511
377.199	304.584
380.092	390.761
382.985	435.167
385.877	437.276
388.77	428.901
391.663	423.226
394.556	433.327
397.448	436.633
400.341	332.824
403.234	240.244
406.126	163.884
409.019	121.644
411.912	91.5073
414.805	73.7017
417.697	57.7808
420.59	51.8306
423.483	31.9609
426.375	37.0483
429.268	25.3584
432.161	17.5732
435.053	2.66113
437.946	8.70459
440.839	7.3584
443.731	0.013184
446.624	9.85303
449.517	1.12891
452.409	12.4375
455.302	13.7681
458.195	25.0156
461.088	48.3355
463.98	77.2822
466.873	95.7612
469.766	146.199
472.658	193.917
475.551	245.347
478.444	296.182
481.337	310.463
484.229	314.364
487.122	343.829
490.015	380.787
492.907	423.022
495.8	438.811
498.693	406.17
501.585	338.641
504.478	250.052
507.371	155.58
510.264	110.175
513.156	67.5078
516.049	53.3652
518.942	37.2871
521.834	16.0742
524.727	20.3623
527.62	12.9053
530.513	35.6152
533.405	29.5933
536.298	38.7446
539.191	35.3569
542.083	28.6328
544.976	21.9023
547.869	24.4878
550.761	13.5312
553.654	8.35107
556.547	4.87646
559.439	4.74023
562.332	0.44043
565.225	3.54199
568.118	4.15234
571.01	0.92627
573.903	7.35742
576.796	2.32617
579.688	14.0776
582.581	1.72803
585.474	6.14062
588.366	9.7085
591.259	16.1128
594.152	2.00098
597.044	8.69336
599.937	5.10644
602.83	17.729
605.723	10.7456
608.615	1.11231
611.508	7.96777
614.401	12.9683
617.293	18.0825
620.186	21.498
623.079	20.6338
625.971	17.6733
628.864	17.2715
631.757	18.1401
634.65	14.6948
637.542	6.02539
640.435	11.2163
643.328	6.81934
646.22	7.14941
649.113	12.8066
652.006	6.87646
654.899	9.34326
657.791	14.0239
660.684	16.4727
663.577	9.58496
666.469	12.5356
669.362	0.536621
672.255	8.04834
675.147	14.4556
678.04	25.2466
680.933	39.9453
683.826	29.3286
686.718	23.3271
689.611	16.7666
692.504	40.3389
695.396	34.2549
698.289	22.77
701.182	30.271
704.074	37.9102
706.967	41.145
709.86	43.0142
712.753	41.2383
715.645	32.8345
718.538	27.1235
721.431	31.8716
724.323	29.6924
727.216	25.2212
730.109	21.5474
733.001	1.33496
735.894	2.73682
738.787	6.19238
741.679	3.0542
744.572	2.24023
747.465	5.6626
750.358	0.904297
753.25	2.24756
756.143	6.37744
759.036	10.4058
761.928	17.8115
764.821	19.0596
767.714	11.5088
770.606	23.5737
773.499	20.9868
776.392	38.4658
779.285	16.6538
782.177	17.2183
785.07	28.4321
787.963	32.4048
790.855	23.1177
793.748	27.187
796.641	35.3374
799.533	15.3447
802.426	9.49658
805.319	11.9287
808.212	0.366699
811.104	10.8506
813.997	2.81787
816.89	11.1914
819.782	5.65527
822.675	12.4688
825.568	12.8833
828.46	13.4453
831.353	10.4399
834.246	10.5542
837.139	7.28516
840.031	0.979492
842.924	15.146
845.817	9.02734
848.709	2.71631
851.602	10.1206
854.495	10.0063
857.388	21.6909
860.28	27.1582
863.173	9.79492
866.066	8.43506
868.958	22.9468
871.851	22.1763
874.744	12.9023
877.636	3.02295
880.529	19.8091
883.422	7.38965
886.314	14.3521
889.207	3.84424
892.1	13.9229
894.993	11.9175
897.885	2.8501
900.778	10.3135
903.671	1.46191
906.563	0.645996
909.456	1.84717
912.349	0.657227
915.241	6.87695
918.134	6.2876
921.027	18.6675
923.92	9.64941
926.812	8.05225
929.705	12.1143
932.598	3.70019
935.49	9.94678
938.383	3.43408
941.276	3.4585
944.168	8.92822
947.061	26.0727
949.954	42.7773
952.847	49.3267
955.739	89.7856
958.632	125.27
961.525	128.584
964.417	90.0068
967.31	88.4062
970.203	72.5991
973.096	60.4277
975.988	40.4487
978.881	14.313
981.774	1.7793
984.666	18.5435
987.559	27.4375
990.452	36.188
993.344	53.0166
996.237	68.2134
999.13	108.422
1002.02	119.689
1004.91	90.1929
1007.81	56.5991
1010.7	43.833
1013.59	60.7105
1016.49	83.0562
1019.38	83.0112
1022.27	87.061
1025.16	89.1787
1028.06	66.9126
1030.95	72.2852
1033.84	54.439
1036.73	21.9199
1039.63	13.8491
1042.52	14.1343
1045.41	11.4971
1048.31	8.95264
1051.2	2.05762
1054.09	6.87354
1056.98	1.76221
1059.88	5.08594
1062.77	8.37891
1065.66	5.94678
1068.56	8.95312
1071.45	10.8999
1074.34	1.15478
1077.23	5.61719
1080.12	2.74316
1083.02	11.9248
1085.91	12.7241
1088.8	6.24609
1091.7	14.209
1094.59	16.7632
1097.48	17.4229
1100.37	17.5845
1103.27	32.4976
1106.16	18.1909
1109.05	22.5786
1111.94	16.3667
1114.84	24.5796
1117.73	15.9468
1120.62	16.5933
1123.52	21.0884
1126.41	15.5698
1129.3	6.41406
1132.19	5.8999
1135.09	6.7207
1137.98	11.6162
1140.87	7.92871
1143.77	8.13477
1146.66	10.1435
1149.55	26.9624
1152.44	26.3848
1155.34	36.8877
1158.23	29.502
1161.12	8.47949
1164.01	24.4263
1166.91	27.2583
1169.8	27.8691
1172.69	18.23
1175.58	16.0986
1178.48	3.04981
1181.37	12.667
1184.26	26.7144
1187.15	1.2583
1190.05	8.78125
1192.94	2.87744
1195.83	3.59424
1198.73	5.76221
1201.62	4.39307
1204.51	10.8501
1207.4	1.54346
1210.3	5.34961
1213.19	13.9683
1216.08	4.1167
1218.97	5.5835
1221.87	15.0073
1224.76	17.127
1227.65	10.8276
1230.55	6.90283
1233.44	13.6274
1236.33	14.1343
1239.22	12.8452
1242.12	6.55908
1245.01	6.67969
1247.9	12.4204
1250.8	3.74805
1253.69	2.87744
1256.58	10.6855
1259.47	3.07812
1262.37	6.81104
1265.26	9.07275
1268.15	11.4268
1271.04	14.6733
1273.94	14.9917
1276.83	12.9907
1279.72	5.46143
1282.61	2.01807
1285.51	11.1821
1288.4	6.91357
1291.29	4.71191
