Measurement: Raman, 780 nm, unoriented, Raman Data Processed
Mineral: Bikitaite
Rruff sample: R060032
Ideal chemistry: LiAlSi_2_O_6_H_2_O
Locality: Al Hyat mine, Bikita, Fort Victoria, Southern Rhodesia
Source: University of Arizona Mineral Museum
Description: A group of radiating white to colorless acicular crystals
Measured chemistry: Li_1.00_Al_1.00_Si_2.00_O_6_Â·H_2_O ; Li not measured but estimated by charge balance
Raman shift (cm-1)	intensity
176.894	0
179.787	1.15031
182.679	2.05197
185.572	8.91023
188.465	11.7655
191.358	16.4281
194.25	23.7043
197.143	33.545
200.036	46.2676
202.928	54.5598
205.821	43.1789
208.714	27.9363
211.607	24.6247
214.499	27.0299
217.392	31.1964
220.285	29.4406
223.177	19.3631
226.07	12.2226
228.963	9.46195
231.855	10.2546
234.748	14.5302
237.641	18.6775
240.533	25.7528
243.426	31.0959
246.319	38.5822
249.212	43.7047
252.104	46.7544
254.997	43.7382
257.89	31.4164
260.782	17.0608
263.675	6.67519
266.568	0.013107
269.46	2.92836
272.353	0.894653
275.246	1.12518
278.139	5.80432
281.031	8.868
283.924	14.0602
286.817	18.7458
289.709	22.5422
292.602	18.3423
295.495	13.1792
298.387	8.15424
301.28	6.79971
304.173	3.71387
307.065	4.68253
309.958	6.77949
312.851	7.34633
315.744	6.30182
318.636	5.1416
321.529	3.98183
324.422	4.69048
327.314	2.84262
330.207	0.827255
333.1	1.84611
335.993	0.313568
338.885	1.92302
341.778	6.63043
344.671	7.9464
347.563	10.7003
350.456	11.4822
353.349	10.7487
356.241	8.20468
359.134	9.02522
362.027	15.2744
364.92	21.8301
367.812	31.6922
370.705	45.3505
373.598	61.5266
376.49	78.5866
379.383	97.3882
382.276	107.318
385.168	109.425
388.061	107.679
390.954	105.39
393.846	101.172
396.739	85.1804
399.632	60.6588
402.525	37.7003
405.417	22.4749
408.31	14.9365
411.203	10.0173
414.095	6.21579
416.988	6.64136
419.881	4.47545
422.774	3.21085
425.666	1.56912
428.559	1.35834
431.452	0.178558
434.344	1.62924
437.237	1.36044
440.13	0.019592
443.022	0.441605
445.915	2.04466
448.808	3.19414
451.7	5.47288
454.593	8.61734
457.486	12.4688
460.379	21.0083
463.271	25.7767
466.164	29.4902
469.057	33.7381
471.949	41.3326
474.842	52.5865
477.735	65.1784
480.627	78.2312
483.52	91.7115
486.413	106.075
489.305	119.525
492.198	133.003
495.091	135.027
497.984	125.926
500.876	100.186
503.769	69.4283
506.662	46.449
509.554	30.0353
512.447	19.8577
515.34	13.3528
518.232	9.849
521.125	5.82491
524.018	5.70877
526.911	5.20632
529.803	5.84279
532.696	5.94266
535.589	6.01773
538.481	6.68711
541.374	5.44586
544.267	3.48296
547.159	1.16261
550.052	0.782242
552.945	0.702515
555.838	0.30365
558.73	0.39637
561.623	0.799042
564.516	0.193504
567.408	0.247017
570.301	0.074387
573.194	0.697929
576.087	1.01226
578.979	0.933418
581.872	1.31811
584.765	1.24919
587.657	1.41637
590.55	2.30555
593.443	1.68732
596.335	2.21393
599.228	2.22659
602.121	2.37028
605.014	2.34893
607.906	2.71037
610.799	2.51015
613.692	2.04859
616.584	1.15192
619.477	2.71909
622.37	2.40211
625.262	2.1125
628.155	0.687035
631.048	1.18826
633.941	0.187714
636.833	0.432419
639.726	1.25631
642.619	0.288315
645.511	0.246735
648.404	0.253838
651.297	0.684792
654.189	0.224144
657.082	0.109726
659.975	0.435905
662.867	0.810234
665.76	1.42938
668.653	1.26566
671.546	1.57886
674.438	2.71051
677.331	3.00733
680.224	3.59455
683.116	5.31812
686.009	3.61921
688.902	3.78281
691.794	4.55958
694.687	3.68556
697.58	5.57529
700.473	6.60055
703.365	7.67757
706.258	7.20545
709.151	5.06824
712.043	4.17753
714.936	3.24276
717.829	2.41267
720.721	2.42611
723.614	1.90901
726.507	2.00367
729.399	0.662292
732.292	0.155457
735.185	0.365303
738.078	0.294624
740.97	0.041779
743.863	0.856682
746.756	1.36523
749.648	2.98487
752.541	5.0077
755.434	5.22126
758.327	6.0759
761.219	6.40007
764.112	6.35282
767.005	5.3923
769.897	4.74852
772.79	3.67921
775.683	2.33218
778.575	2.70457
781.468	2.58768
784.361	1.68612
787.254	2.29075
790.146	1.95886
793.039	1.78693
795.932	1.46251
798.824	0.181496
801.717	0.540161
804.61	0.012352
807.502	0.628151
810.395	0.691414
813.288	0.598701
816.181	0.360962
819.073	0.737091
821.966	0.976402
824.859	0.701424
827.751	0.791176
830.644	0.937294
833.537	0.800293
836.429	0.148453
839.322	0.671219
842.215	0.858101
845.107	1.28867
848	1.69952
850.893	1.10576
853.786	1.09315
856.678	1.94635
859.571	1.58744
862.464	1.856
865.356	0.915253
868.249	2.27679
871.142	1.47338
874.034	1.17822
876.927	1.65184
879.82	0.802467
882.713	0.923294
885.605	0.2547
888.498	0.258591
891.391	0.138794
894.283	0.408157
897.176	0.708427
900.069	0.554596
902.962	0.769035
905.854	0.443214
908.747	0.137245
911.64	0.079933
914.532	0.29393
917.425	0.189392
920.318	0.022125
923.21	0.421783
926.103	0.57938
928.996	0.027275
931.889	0.606846
934.781	1.12834
937.674	1.35098
940.567	1.80423
943.459	3.57766
946.352	6.43388
949.245	10.1805
952.137	13.9487
955.03	21.8845
957.923	28.1903
960.816	26.5735
963.708	17.1114
966.601	14.1993
969.494	10.797
972.386	6.86275
975.279	5.09486
978.172	2.94149
981.064	2.21723
983.957	1.86577
986.85	2.70575
989.742	3.4411
992.635	5.99028
995.528	7.78357
998.421	11.6748
1001.31	9.79603
1004.21	6.52514
1007.1	5.12421
1009.99	4.45483
1012.88	5.98088
1015.78	7.47114
1018.67	9.23084
1021.56	9.52909
1024.45	9.35696
1027.35	8.40596
1030.24	5.93374
1033.13	4.08824
1036.03	1.97626
1038.92	1.59137
1041.81	0.391045
1044.7	0.407467
1047.6	0.526474
1050.49	0.123402
1053.38	0.150036
1056.28	0.820549
1059.17	0.181553
1062.06	0.225803
1064.95	0.017887
1067.85	0.312496
1070.74	0.4095
1073.63	0.002319
1076.52	1.21891
1079.42	0.865646
1082.31	0.911243
1085.2	1.46484
1088.09	1.35017
1090.99	1.81904
1093.88	2.62785
1096.77	2.57182
1099.66	3.72819
1102.56	3.83979
1105.45	2.99442
1108.34	1.89372
1111.24	1.48423
1114.13	2.28221
1117.02	1.6561
1119.91	1.13704
1122.81	2.45693
1125.7	1.96101
1128.59	1.89043
1131.48	1.31669
1134.38	1.46873
1137.27	1.30453
1140.16	0.064232
1143.06	1.13433
1145.95	1.20608
1148.84	2.26968
1151.73	1.42595
1154.63	3.79149
1157.52	3.66151
1160.41	3.18302
1163.3	2.62683
1166.2	2.3312
1169.09	1.95315
1171.98	2.38902
1174.88	0.953194
1177.77	0.066814
1180.66	0.967327
1183.55	1.18095
1186.45	0.410442
1189.34	0.462875
1192.23	0.082211
1195.12	0.874195
1198.02	1.05427
1200.91	0.881252
1203.8	0.442341
1206.69	0.597416
1209.59	0.625645
1212.48	0.593781
1215.37	0.985973
1218.27	0.399715
1221.16	1.08023
1224.05	0.029758
1226.94	0.40321
1229.84	1.17479
1232.73	1.08959
1235.62	0.925888
1238.52	1.39704
1241.41	0.793377
1244.3	2.08006
1247.19	1.27138
1250.09	1.83006
1252.98	0.844135
1255.87	1.28593
1258.76	1.00499
1261.66	1.65442
1264.55	0.110355
1267.44	1.06134
1270.33	0.715244
1273.23	0.528076
