Measurement: Raman, 532 nm, unoriented, Raman Data Processed
Mineral: Bikitaite
Rruff sample: R050160
Ideal chemistry: LiAlSi_2_O_6_H_2_O
Locality: Foote mine, Kings Mountain, Cleveland County, North Carolina, USA
Source: Jim McGlasson
Description: Colorless prismatic crystals
Measured chemistry: Li_1.00_Si_2.00_O_6_Â·1.25H_2_O ; Li not measured but estimated by stoichiometry
Raman shift (cm-1)	intensity
128.458	0
131.833	20.8417
135.208	136.221
138.583	377.947
141.958	686.849
145.333	758.416
148.707	632.684
152.082	474.545
155.457	426.473
158.832	389.416
162.207	316.961
165.582	230.525
168.956	156.413
172.331	71.0696
175.706	6.3782
179.081	20.5377
182.456	20.1998
185.83	0.142303
189.205	39.9901
192.58	108.489
195.955	214.78
199.33	413.112
202.704	747.012
206.079	737.826
209.454	436.356
212.829	409.349
216.204	551.868
219.578	698.963
222.953	577.491
226.328	340.714
229.703	210.833
233.078	168.923
236.453	181.228
239.827	239.659
243.202	354.366
246.577	550.346
249.952	725.457
253.327	791.631
256.702	887.552
260.076	646.813
263.451	302.273
266.826	101.967
270.201	15.9305
273.576	12.6222
276.95	12.3571
280.325	50.8513
283.7	117.677
287.075	242
290.45	393.981
293.825	423.433
297.199	273.217
300.574	159.703
303.949	106.767
307.324	67.2853
310.699	98.1623
314.073	120.007
317.448	41.7722
320.823	8.15823
324.198	39.5722
327.573	53.7189
330.947	8.26904
334.322	35.303
337.697	2.59177
341.072	57.1928
344.447	124.183
347.822	173.994
351.196	200.447
354.571	187.459
357.946	125.263
361.321	118.402
364.696	169.343
368.07	273.134
371.445	429.498
374.82	672.25
378.195	993.982
381.57	1346.17
384.945	1513.09
388.319	1496.54
391.694	1489.3
395.069	1541.71
398.444	1360.56
401.819	849.168
405.193	473.695
408.568	276.045
411.943	178.227
415.318	138.08
418.693	132.921
422.067	133.171
425.442	101.495
428.817	58.2826
432.192	21.3515
435.567	0.982147
438.942	1.00192
442.316	15.9846
445.691	18.2247
449.066	9.13315
452.441	16.4725
455.816	6.70514
459.19	75.8228
462.565	193.001
465.94	309.001
469.315	347.463
472.69	419.389
476.065	541.445
479.439	661.651
482.814	798.127
486.189	997.322
489.564	1209.05
492.939	1475.82
496.313	1778.41
499.688	1845.51
503.063	1447.78
506.438	914.612
509.813	538.724
513.188	316.208
516.562	192.246
519.937	114.861
523.312	74.5142
526.687	60.5397
530.062	59.2196
533.436	71.9753
536.811	95.1409
540.186	117.946
543.561	98.6056
546.936	49.3079
550.311	17.7594
553.685	2.01991
557.06	0.834534
560.435	4.54549
563.81	4.58508
567.185	1.77646
570.559	1.03355
573.934	0.68576
577.309	2.68198
580.684	3.7413
584.059	5.56351
587.433	7.72349
590.808	11.4224
594.183	13.8005
597.558	16.2752
600.933	17.2229
604.308	19.2251
607.682	22.5294
611.057	25.0302
614.432	30.6482
617.807	34.8557
621.182	43.8808
624.557	53.4198
627.931	47.3098
631.306	25.1145
634.681	16.0427
638.056	7.27081
641.431	5.96457
644.805	4.46732
648.18	3.42295
651.555	0.912071
654.93	1.26063
658.305	1.27261
661.679	5.26822
665.054	5.03078
668.429	8.5399
671.804	17.0804
675.179	30.4197
678.553	49.2544
681.928	66.6672
685.303	74.5238
688.678	55.7144
692.053	46.1958
695.428	57.9171
698.802	90.1538
702.177	133.132
705.552	165.554
708.927	152.74
712.302	107.316
715.677	73.8687
719.051	55.3759
722.426	50.1157
725.801	47.9656
729.176	31.4804
732.551	15.8756
735.925	2.25778
739.3	1.84007
742.675	2.38043
746.05	1.22623
749.425	6.17751
752.799	15.9328
756.174	32.1098
759.549	51.4961
762.924	62.7838
766.299	61.2068
769.673	53.3471
773.048	43.3542
776.423	38.2009
779.798	36.8327
783.173	48.3542
786.548	54.1884
789.922	50.8111
793.297	31.2338
796.672	19.9484
800.047	10.5017
803.422	4.59385
806.797	1.55562
810.171	0.128273
813.546	0.96553
816.921	0.818748
820.296	0.381363
823.671	0.308136
827.045	2.48469
830.42	0.806648
833.795	2.56442
837.17	1.85857
840.545	1.56874
843.919	0.995522
847.294	0.48204
850.669	1.60059
854.044	2.48528
857.419	1.61318
860.794	1.65867
864.168	1.47813
867.543	1.93272
870.918	0.073555
874.293	2.3054
877.668	1.38697
881.043	1.24374
884.417	1.57211
887.792	0.038475
891.167	0.287704
894.542	0.50843
897.917	0.017403
901.291	0.399376
904.666	2.02711
908.041	0.116646
911.416	0.465416
914.791	0.659637
918.165	0.182434
921.54	0.660835
924.915	4.21238
928.29	4.19102
931.665	8.29958
935.04	11.7447
938.414	18.8337
941.789	30.1993
945.164	59.7491
948.539	118.424
951.914	215.364
955.288	413.675
958.663	775.309
962.038	881.41
965.413	455.41
968.788	299.127
972.163	184.513
975.537	129.862
978.912	81.0437
982.287	37.3991
985.662	25.7821
989.037	29.4872
992.411	48.4413
995.786	87.2936
999.161	178.38
1002.54	270.057
1005.91	181.353
1009.28	113.019
1012.66	115.411
1016.03	165.661
1019.41	256.826
1022.78	332.298
1026.16	240.015
1029.53	106.987
1032.91	46.8951
1036.28	22.3524
1039.66	12.2106
1043.03	4.71336
1046.41	0.436264
1049.78	0.239098
1053.16	1.94938
1056.53	2.78648
1059.91	1.91761
1063.28	1.65537
1066.66	1.09191
1070.03	0.420204
1073.41	4.20927
1076.78	8.25998
1080.16	13.053
1083.53	18.9173
1086.91	19.0038
1090.28	17.0003
1093.66	16.8266
1097.03	24.9309
1100.41	35.7287
1103.78	52.1333
1107.15	53.9499
1110.53	35.6538
1113.9	22.2396
1117.28	20.4972
1120.65	24.3121
1124.03	36.7336
1127.4	53.2509
1130.78	58.4955
1134.15	40.4798
1137.53	25.8489
1140.9	17.933
1144.28	19.7931
1147.65	29.0792
1151.03	41.6043
1154.4	61.757
1157.78	83.6954
1161.15	93.4886
1164.53	82.5812
1167.9	64.5042
1171.28	46.4827
1174.65	32.5483
1178.03	22.1432
1181.4	18.3092
1184.78	14.8051
1188.15	8.17651
1191.53	6.89194
1194.9	5.42868
1198.28	2.13804
1201.65	1.96612
1205.03	1.19742
1208.4	1.49258
1211.77	1.04714
1215.15	1.1486
1218.52	0.945724
1221.9	0.42749
1225.27	0.399727
1228.65	0.373642
1232.02	1.67493
1235.4	0.527252
1238.77	0.427353
1242.15	1.48843
1245.52	0.908829
1248.9	1.561
1252.27	0.328384
1255.65	2.40204
1259.02	0.613068
1262.4	2.40708
1265.77	2.23461
1269.15	3.39715
1272.52	1.65482
1275.9	1.7003
1279.27	2.92103
1282.65	1.11488
1286.02	2.19546
1289.39	1.96936
1292.77	1.26273
1296.14	0.173439
1299.52	0.234299
1302.89	0.838943
