Measurement: Raman, 780 nm, unoriented, Raman Data Processed
Mineral: Bikitaite
Rruff sample: R050160
Ideal chemistry: LiAlSi_2_O_6_H_2_O
Locality: Foote mine, Kings Mountain, Cleveland County, North Carolina, USA
Source: Jim McGlasson
Description: Colorless prismatic crystals
Measured chemistry: Li_1.00_Si_2.00_O_6_Â·1.25H_2_O ; Li not measured but estimated by stoichiometry
Raman shift (cm-1)	intensity
154.214	0
157.106	23.1208
159.999	37.0604
162.892	34.155
165.784	46.3345
168.677	46.4237
171.57	23.1551
174.462	3.52936
177.355	5.70013
180.248	1.86298
183.141	11.5817
186.033	22.7996
188.926	36.5375
191.819	62.7916
194.711	99.3279
197.604	161.94
200.497	261.914
203.389	361.563
206.282	282.912
209.175	177.244
212.067	167.823
214.96	228.671
217.853	305.275
220.746	312.25
223.638	236.939
226.531	168.996
229.424	140.684
232.316	141.417
235.209	162.017
238.102	195.363
240.994	244.987
243.887	319.202
246.78	412.159
249.673	465.089
252.565	474.802
255.458	512.592
258.351	445.299
261.243	269.634
264.136	132.111
267.029	54.2238
269.921	16.4448
272.814	1.73108
275.707	3.84387
278.6	9.60689
281.492	26.0702
284.385	60.4821
287.278	118.256
290.17	180.567
293.063	199.996
295.956	151.195
298.849	94.106
301.741	70.8362
304.634	44.2604
307.527	34.9523
310.419	48.5201
313.312	52.8077
316.205	24.6304
319.097	6.43137
321.99	9.66235
324.883	29.6638
327.776	20.7549
330.668	6.67307
333.561	17.6764
336.454	5.16782
339.346	18.8463
342.239	43.704
345.132	66.3499
348.024	78.5901
350.917	88.3124
353.81	84.5741
356.702	62.9945
359.595	58.645
362.488	76.6148
365.381	109.445
368.273	156.016
371.166	226.941
374.059	324.643
376.951	453.641
379.844	595.152
382.737	688.843
385.63	698.034
388.522	663.092
391.415	660.198
394.308	683.224
397.2	643.908
400.093	480.287
402.986	311.402
405.878	203.71
408.771	139.341
411.664	104.966
414.557	91.0551
417.449	94.0706
420.342	97.2558
423.235	86.4905
426.127	63.326
429.02	39.6455
431.913	20.9977
434.805	12.5612
437.698	8.17227
440.591	8.0506
443.483	11.4481
446.376	4.78184
449.269	8.73386
452.162	10.129
455.054	0.093536
457.947	25.1458
460.84	71.2197
463.732	125.471
466.625	166.455
469.518	193.386
472.411	234.849
475.303	295.263
478.196	341.868
481.089	369.079
483.981	421.27
486.874	483.435
489.767	549.908
492.659	640.454
495.552	742.224
498.445	782.939
501.337	674.089
504.23	480.759
507.123	311.72
510.015	196.251
512.908	124.761
515.801	80.6752
518.694	52.6795
521.586	38.3263
524.479	29.6567
527.372	27.9255
530.264	29.3705
533.157	38.1757
536.05	49.0922
538.943	60.0018
541.835	57.0052
544.728	36.2916
547.621	17.427
550.513	6.00397
553.406	2.39139
556.299	0.683846
559.192	1.11346
562.084	2.23554
564.977	0.97113
567.87	0.558189
570.762	2.10711
573.655	1.48896
576.548	0.681023
579.44	0.143372
582.333	1.23488
585.226	2.53449
588.118	3.58242
591.011	4.08643
593.904	6.03801
596.797	7.21934
599.689	7.9635
602.582	7.16861
605.475	8.8417
608.367	10.7813
611.26	12.4878
614.153	15.2489
617.045	17.357
619.938	21.4728
622.831	26.1508
625.723	27.899
628.616	21.4241
631.509	12.6323
634.402	7.23583
637.294	5.83683
640.187	3.13634
643.08	2.21141
645.972	3.1609
648.865	1.26635
651.758	1.34576
654.65	3.22754
657.543	2.63695
660.436	2.38937
663.329	4.86324
666.221	4.71695
669.114	9.27018
672.007	11.3849
674.899	18.8473
677.792	25.5622
680.685	35.4915
683.577	43.8437
686.47	35.4666
689.363	26.2713
692.256	22.9112
695.148	29.1446
698.041	40.7654
700.934	56.2557
703.826	73.6134
706.719	75.9094
709.612	63.5196
712.505	47.1969
715.397	32.7521
718.29	24.5946
721.183	21.6353
724.075	22.1535
726.968	16.2405
729.861	10.7424
732.753	3.35503
735.646	0.032707
738.539	1.38693
741.432	0.074142
744.324	1.8568
747.217	1.11977
750.11	4.42181
753.002	8.79533
755.895	13.3495
758.788	19.6348
761.68	22.0172
764.573	24.7402
767.466	22.4784
770.359	19.447
773.251	16.0259
776.144	16.6689
779.037	15.3589
781.929	19.4423
784.822	24.6507
787.715	25.9231
790.607	19.7515
793.5	13.0531
796.393	7.20474
799.285	4.58585
802.178	3.17614
805.071	0.004154
807.964	0.238091
810.856	0.55151
813.749	0.000217
816.642	0.701126
819.534	0.801853
822.427	1.6498
825.32	0.994888
828.212	0.553242
831.105	0.992081
833.998	0.346672
836.891	0.966217
839.783	0.713966
842.676	2.27391
845.569	3.72819
848.461	2.27075
851.354	1.87
854.247	2.57847
857.139	3.59846
860.032	2.71372
862.925	1.92187
865.818	2.5775
868.71	2.52376
871.603	1.20361
874.496	2.12746
877.388	1.29972
880.281	0.945164
883.174	1.78254
886.067	1.19382
888.959	0.992916
891.852	0.509045
894.745	0.229324
897.637	0.13644
900.53	1.19022
903.423	0.763458
906.315	0.086933
909.208	0.257507
912.101	0.132118
914.994	0.511959
917.886	0.132828
920.779	0.592731
923.672	1.83313
926.564	1.12384
929.457	2.4287
932.35	4.37754
935.242	5.73447
938.135	10.11
941.028	14.5552
943.92	27.7565
946.813	45.6215
949.706	71.9513
952.599	117.722
955.491	207.997
958.384	353.301
961.277	380.878
964.169	220.98
967.062	152.474
969.955	110.311
972.847	69.5228
975.74	54.6166
978.633	33.6648
981.526	18.9184
984.418	15.052
987.311	18.4627
990.204	27.8008
993.096	38.935
995.989	58.2558
998.882	95.7899
1001.77	129.774
1004.67	96.8813
1007.56	64.5651
1010.45	60.2852
1013.35	72.273
1016.24	95.4008
1019.13	127.233
1022.02	148.292
1024.92	114.71
1027.81	56.6544
1030.7	28.5999
1033.59	14.6513
1036.49	7.66928
1039.38	3.98385
1042.27	1.26225
1045.16	0.586269
1048.06	0.123184
1050.95	0.892479
1053.84	0.465218
1056.74	0.871578
1059.63	1.20415
1062.52	0.190582
1065.41	0.086105
1068.31	0.843449
1071.2	1.54824
1074.09	2.13835
1076.98	3.91927
1079.88	6.62788
1082.77	8.3186
1085.66	8.46015
1088.56	8.86242
1091.45	7.43089
1094.34	9.47425
1097.23	11.6042
1100.13	15.7643
1103.02	22.0287
1105.91	21.1753
1108.8	15.7723
1111.7	10.4575
1114.59	7.74528
1117.48	8.39893
1120.38	8.46622
1123.27	13.3288
1126.16	19.1038
1129.05	22.7406
1131.95	19.1387
1134.84	12.1891
1137.73	9.85851
1140.62	7.26434
1143.52	9.05278
1146.41	10.6319
1149.3	15.4228
1152.19	22.7257
1155.09	30.8792
1157.98	36.7697
1160.87	38.3406
1163.77	34.6531
1166.66	27.8922
1169.55	21.1074
1172.44	15.0678
1175.34	10.8288
1178.23	9.29909
1181.12	6.02621
1184.02	5.08763
1186.91	4.20811
1189.8	4.31033
1192.69	2.0821
1195.59	2.7604
1198.48	1.39988
1201.37	0.877518
1204.26	1.63066
1207.16	0.033825
1210.05	1.34862
1212.94	0.032463
1215.83	1.21914
1218.73	0.672047
1221.62	0.70804
1224.51	0.630539
1227.4	0.490301
1230.3	0.555311
1233.19	1.48459
1236.08	0.475266
1238.98	1.51758
1241.87	0.455032
1244.76	1.76639
1247.65	1.45409
1250.55	1.84065
1253.44	1.86002
1256.33	1.9643
1259.22	2.45014
1262.12	1.1136
1265.01	0.808464
1267.9	1.59745
1270.8	1.87604
1273.69	1.96543
1276.58	0.944239
1279.47	0.59301
1282.37	2.03816
1285.26	2.58071
