Measurement: Raman, 514 nm, unoriented, Raman Data Processed
Mineral: Bikitaite
Rruff sample: R050160
Ideal chemistry: LiAlSi_2_O_6_H_2_O
Locality: Foote mine, Kings Mountain, Cleveland County, North Carolina, USA
Source: Jim McGlasson
Description: Colorless prismatic crystals
Measured chemistry: Li_1.00_Si_2.00_O_6_Â·1.25H_2_O ; Li not measured but estimated by stoichiometry
Raman shift (cm-1)	intensity
73.842	0
78.031	2530.6
82.218	7859.1
86.404	6493
90.587	7176.02
94.768	10672.9
98.947	13124.4
103.124	14084
107.3	17307.7
111.473	19563.1
115.644	14933.5
119.813	8140.94
123.981	3270.92
128.146	1468.95
132.309	1859.7
136.47	2760.39
140.63	5147.47
144.787	6868.44
148.942	6502.28
153.096	6048.93
157.247	4853.42
161.396	2636.95
165.544	1183.17
169.689	275.747
173.833	324.026
177.974	616.874
182.114	1006.17
186.251	843.796
190.387	609.243
194.52	647.238
198.652	3583.66
202.782	5658.42
206.909	4349.1
211.035	3282.6
215.159	4305.24
219.281	5321.06
223.4	4129.43
227.518	2590.72
231.634	1566.25
235.748	993.537
239.86	678.771
243.97	471.264
248.079	879.189
252.185	1368.92
256.289	2121.51
260.391	2114.72
264.492	1243.87
268.59	249.123
272.687	242.546
276.781	127.291
280.874	131.374
284.964	1214.36
289.053	2833.69
293.14	3666.14
297.225	3005.94
301.308	2313.77
305.389	1217.03
309.468	797.598
313.545	857.445
317.62	346.56
321.693	33.695
325.765	21.634
329.834	282.445
333.902	1095.31
337.967	2448.33
342.031	3858.93
346.093	4343.87
350.153	4553.23
354.21	4004.75
358.267	3175
362.321	3291.56
366.373	4392.42
370.423	7377.88
374.471	12533.5
378.518	18769.4
382.563	22268.7
386.605	21758.2
390.646	21065.1
394.685	22493.3
398.722	20005.7
402.757	14623.4
406.79	10243.5
410.821	7991.44
414.851	7025.19
418.878	6204.62
422.904	4717.38
426.927	3264.89
430.949	2182.41
434.969	1504.95
438.987	1347.63
443.003	2339.89
447.018	1063.09
451.03	912.09
455.041	1115.76
459.049	2216.4
463.056	4405.07
467.061	6268.69
471.064	7930.23
475.065	10564.7
479.064	11158.7
483.062	10774.8
487.057	12053.4
491.051	15131.4
495.043	19570.9
499.032	20197.1
503.02	14362.3
507.007	8749.01
510.991	5523.26
514.973	3785.37
518.954	2611.88
522.933	2142.12
526.91	1991.62
530.885	2416.01
534.858	3068.23
538.829	3852.5
542.799	2766.45
546.766	1721.23
550.732	947.842
554.696	620.271
558.658	589.742
562.618	324.551
566.576	83.486
570.533	5.564
574.488	29.381
578.44	116.127
582.391	209.334
586.341	106.918
590.288	24.16
594.233	5.361
598.177	81.398
602.119	105.695
606.059	28.609
609.997	154.414
613.933	221.174
617.868	752.564
621.801	1920.48
625.731	1944.22
629.66	1060.96
633.588	391.924
637.513	398.264
641.437	904.348
645.358	1485.68
649.278	1474.11
653.196	1139.09
657.113	434.949
661.027	10.479
664.94	306.74
668.851	102.521
672.76	16.055
676.667	168.389
680.572	433.086
684.476	972.344
688.378	721.168
692.278	96.553
696.176	1017.48
700.072	1661.96
703.967	2339.02
707.86	1680.65
711.751	1303.85
715.64	755.086
719.527	397.955
723.413	243.865
727.297	209.24
731.179	91.863
735.059	66.637
738.937	37.346
742.814	10.699
746.689	7.617
750.562	206.506
754.433	62.293
758.303	198.238
762.17	107.406
766.036	273.502
769.901	18.74
773.763	28.809
777.624	74.385
781.482	97.562
785.339	308.354
789.195	271.797
793.048	254.9
796.9	532.674
800.75	384.111
804.598	58.211
808.445	296.951
812.289	352.359
816.132	595.738
819.973	533.539
823.813	463.658
827.65	515.205
831.486	606.861
835.32	661.676
839.152	840.498
842.983	1164.3
846.812	1327.89
850.639	1452.52
854.464	1911.98
858.288	2417.27
862.11	2186.37
865.93	1771.29
869.748	1270.04
873.564	1271.62
877.379	1350.6
881.192	1049.4
885.004	1160.96
888.813	1040.87
892.621	994.92
896.427	987.771
900.232	1035.3
904.034	973.133
907.835	1223.94
911.634	1041.72
915.432	749.773
919.227	332.275
923.021	592.396
926.813	638.797
930.604	753.814
934.393	858.488
938.18	590.467
941.965	711.23
945.749	1073.34
949.53	1615.5
953.311	3290.03
957.089	7948.57
960.866	8600.81
964.641	7699.37
968.414	8978.13
972.185	4792.39
975.955	2242.01
979.723	1079.38
983.49	573.74
987.254	944.365
991.017	1431.67
994.779	2649.39
998.538	6059.19
1002.3	9044
1006.05	4097.4
1009.81	2455.01
1013.56	2079.55
1017.31	3289.2
1021.06	5621.96
1024.81	6437.86
1028.55	4246.99
1032.3	1714.51
1036.04	1113.04
1039.78	641.156
1043.52	630.646
1047.26	425.043
1050.99	702.084
1054.73	252.938
1058.46	195.518
1062.19	461.803
1065.92	64.564
1069.65	621.441
1073.37	408.115
1077.1	787.93
1080.82	1478.53
1084.54	1337.24
1088.26	903.512
1091.97	481.479
1095.69	239.469
1099.4	453.344
1103.12	211.836
1106.83	560.01
1110.54	392.557
1114.24	267.75
1117.95	205.93
1121.65	211.969
1125.35	20.746
1129.06	244.738
1132.75	6.691
1136.45	32.932
1140.15	71.352
1143.84	34.035
1147.53	8.371
1151.22	129.525
1154.91	329.088
1158.6	549.432
1162.28	710.584
1165.97	732.062
1169.65	615.725
1173.33	359.93
1177.01	113.832
1180.69	66.855
1184.36	37.486
1188.04	339.773
1191.71	284.09
1195.38	163.104
1199.05	161.486
1202.71	370.201
1206.38	40.404
1210.04	127.186
1213.71	207.555
1217.37	467.666
1221.03	99.318
1224.68	258.943
1228.34	346.99
1231.99	107.621
1235.65	561.008
1239.3	707.725
1242.95	558.926
1246.59	728.408
1250.24	659.381
1253.88	514.521
1257.53	220.891
1261.17	290.207
1264.81	539.512
1268.45	731.119
1272.08	770.268
1275.72	1011.98
1279.35	535.811
1282.98	181.076
1286.61	19.914
1290.24	262.908
1293.87	287.654
1297.49	264.672
1301.11	4.684
1304.73	0
