Measurement: Raman, 780 nm, unoriented, Raman Data Processed
Mineral: Billietite
Rruff sample: R070624
Ideal chemistry: Ba(UO_2_)_6_O_4_(OH)_6_8H_2_O
Locality: Eureka mine, Castell Esta√≥, La Plana de Mont-ros, La Torre de Capdella, Lleida, Catalonia, Spain
Source: Joan Abella i Creus
Description: Yellow platy crystals associated with green malachite and orange becquerelite
Raman shift (cm-1)	intensity
102.166	0
105.058	2.87274
107.951	4.33551
110.844	7.93951
113.737	8.90091
116.629	9.50711
119.522	14.2627
122.415	11.6152
125.307	11.6123
128.2	7.28296
131.093	3.94464
133.986	0.073822
136.878	1.15067
139.771	0.26593
142.664	0.872162
145.556	3.69357
148.449	7.51294
151.342	7.23767
154.234	9.99844
157.127	9.81461
160.02	12.3601
162.912	14.1363
165.805	17.4136
168.698	19.3809
171.591	23.1423
174.483	20.7295
177.376	20.234
180.269	20.8662
183.161	19.1239
186.054	19.3676
188.947	21.3768
191.839	17.515
194.732	19.1476
197.625	15.6479
200.518	10.6713
203.41	11.0214
206.303	7.58414
209.196	3.53589
212.088	1.74002
214.981	2.02454
217.874	2.41992
220.766	1.81509
223.659	0.198822
226.552	0.289368
229.445	0.151459
232.337	2.48727
235.23	8.57486
238.123	12.9895
241.015	20.2057
243.908	29.1085
246.801	39.4815
249.694	51.6935
252.586	60.7904
255.479	73.5776
258.372	76.8177
261.264	75.1217
264.157	61.4841
267.05	37.1043
269.942	24.4562
272.835	13.3684
275.728	8.229
278.62	7.8681
281.513	8.22134
284.406	10.9886
287.299	11.7371
290.191	7.42435
293.084	7.42712
295.977	4.30945
298.869	0.133972
301.762	1.70099
304.655	2.23352
307.548	4.26114
310.44	11.5112
313.333	18.2685
316.226	22.3471
319.118	30.2264
322.011	36.3584
324.904	39.3816
327.796	39.2558
330.689	42.5246
333.582	44.332
336.474	43.1798
339.367	39.6932
342.26	32.0295
345.152	24.4086
348.045	17.403
350.938	13.2538
353.831	8.87875
356.723	3.17722
359.616	0.001038
362.509	3.75174
365.401	0.871796
368.294	3.19821
371.187	1.58377
374.079	0.293182
376.972	4.26718
379.865	4.90949
382.758	7.10077
385.65	12.6817
388.543	21.2017
391.436	26.3871
394.328	34.4171
397.221	38.8145
400.114	46.7763
403.007	41.137
405.899	43.5421
408.792	40.9274
411.685	40.7757
414.577	41.0237
417.47	39.062
420.363	41.8296
423.255	46.4317
426.148	43.9328
429.041	50.0938
431.933	50.5652
434.826	61.0842
437.719	68.6263
440.612	78.7456
443.504	90.9083
446.397	101.426
449.29	113.462
452.182	112.391
455.075	106.704
457.968	95.5222
460.861	83.9289
463.753	65.6606
466.646	43.6956
469.539	28.6056
472.431	18.7714
475.324	9.3696
478.217	6.07556
481.109	1.58423
484.002	3.78677
486.895	3.03018
489.788	0.974731
492.68	1.23438
495.573	0.007294
498.466	0.201324
501.358	2.46899
504.251	0.430389
507.144	0.352417
510.036	1.20288
512.929	3.49393
515.822	3.02875
518.715	1.54999
521.607	4.49335
524.5	6.73401
527.393	8.01981
530.285	9.65442
533.178	13.6521
536.071	13.474
538.963	16.7028
541.856	17.6446
544.749	20.6145
547.641	19.8364
550.534	23.3919
553.427	25.1881
556.32	24.2897
559.212	24.5007
562.105	20.2717
564.998	17.8513
567.89	15.9342
570.783	13.3955
573.676	10.5841
576.568	8.01679
579.461	8.7338
582.354	4.15527
585.247	3.3378
588.139	2.75723
591.032	2.1456
593.925	0.121033
596.817	0.798126
599.71	2.49988
602.603	1.77615
605.495	1.92798
608.388	0.747467
611.281	0.765503
614.174	1.05621
617.066	1.8707
619.959	2.01031
622.852	2.4559
625.744	0.294281
628.637	2.08655
631.53	1.07278
634.423	0.993774
637.315	1.5553
640.208	1.17267
643.101	0.567322
645.993	2.07123
648.886	1.15118
651.779	1.89621
654.671	3.19815
657.564	1.29575
660.457	4.13797
663.35	4.79746
666.242	5.25543
669.135	6.42246
672.028	6.50854
674.92	4.91312
677.813	4.64423
680.706	3.6781
683.598	5.98129
686.491	3.95074
689.384	4.22983
692.277	4.37778
695.169	5.95728
698.062	4.11453
700.955	3.57019
703.847	4.37366
706.74	0.457489
709.633	2.24374
712.525	1.39099
715.418	0.518219
718.311	1.10526
721.203	1.9426
724.096	0.397064
726.989	0.36496
729.882	2.26135
732.774	1.04697
735.667	0.652802
738.56	3.41025
741.452	0.526947
744.345	1.08215
747.238	3.95783
750.13	4.60916
753.023	5.05872
755.916	4.50583
758.809	5.49722
761.701	3.37778
764.594	7.09412
767.487	9.37045
770.379	8.97894
773.272	10.4849
776.165	10.9715
779.058	13.2692
781.95	15.2582
784.843	17.603
787.736	20.3795
790.628	25.1664
793.521	28.1874
796.414	38.0458
799.306	40.8967
802.199	44.8889
805.092	42.4729
807.985	40.6477
810.877	42.9247
813.77	50.0031
816.663	61.6224
819.555	79.0484
822.448	101.599
825.341	137.302
828.233	172.796
831.126	173.56
834.019	140.724
836.912	90.7919
839.804	52.1391
842.697	33.6677
845.59	23.8124
848.482	17.7162
851.375	15.0426
854.268	10.4541
857.16	6.91068
860.053	4.9191
862.946	4.01129
865.838	2.60971
868.731	1.647
871.624	4.74515
874.517	1.91861
877.409	0.791138
880.302	0.294189
883.195	0.08313
886.087	0.487305
888.98	0.389587
891.873	0.068298
894.765	0.895752
897.658	0.002563
900.551	0.312408
903.444	0.967865
906.336	0.360382
909.229	3.50354
912.122	3.23035
915.014	3.92395
917.907	2.30692
920.8	4.10239
923.692	4.48203
926.585	6.70323
929.478	6.95091
932.37	6.74481
935.263	9.60034
938.156	5.77815
941.049	7.56053
943.941	8.34422
946.834	7.20419
949.727	8.19518
952.619	5.80708
955.512	9.73709
958.405	8.06229
961.298	6.6369
964.19	3.75085
967.083	3.16199
969.976	4.71243
972.868	3.45456
975.761	1.01471
978.654	0.833099
981.546	2.26822
984.439	3.11768
987.332	0.550659
990.225	2.81659
993.117	2.70285
996.01	4.70566
998.903	4.47327
1001.79	2.64511
1004.69	0.618896
1007.58	1.57977
1010.47	0.08017
1013.37	2.84473
1016.26	4.61514
1019.15	3.30075
1022.04	3.57608
1024.94	2.48181
1027.83	5.8699
1030.72	0.870758
1033.62	0.497192
1036.51	4.90686
1039.4	3.17682
1042.29	3.55582
1045.19	0.825134
1048.08	5.21991
1050.97	2.57147
1053.86	2.29254
1056.76	1.60544
1059.65	2.43942
1062.54	0.669037
1065.43	1.03125
1068.33	1.95367
1071.22	0.91983
1074.11	0.487335
1077.01	3.69733
1079.9	3.7096
1082.79	5.61987
1085.68	7.78125
1088.58	4.12048
1091.47	3.72861
1094.36	4.24069
1097.25	1.49585
1100.15	3.19019
1103.04	2.94659
1105.93	3.49484
1108.83	3.09561
1111.72	1.87805
1114.61	2.6492
