Measurement: Raman, 532 nm, unoriented, Raman Data Processed
Mineral: Billietite
Rruff sample: R070588
Ideal chemistry: Ba(UO_2_)_6_O_4_(OH)_6_8H_2_O
Locality: Musonoi mine, Kolwezi, Katanga, Zaire
Source: James Shigley
Description: Pseudo-hexagonal amber yellow crystals
Raman shift (cm-1)	intensity
146.477	0
149.37	443.426
152.262	540.336
155.155	510.918
158.048	191.781
160.94	316.727
163.833	223.258
166.726	528.91
169.619	627.801
172.511	696.137
175.404	640.594
178.297	652.051
181.189	797.109
184.082	1379.76
186.975	1414.23
189.867	1286.89
192.76	1256.1
195.653	1292.23
198.546	1321.87
201.438	1199.99
204.331	858.188
207.224	387.617
210.116	172.852
213.009	70.832
215.902	24.6172
218.794	183.734
221.687	73.832
224.58	93.6602
227.472	246.285
230.365	327.875
233.258	660.008
236.15	689.856
239.043	915.613
241.936	973.391
244.829	1219.55
247.721	1297.25
250.614	1258.29
253.507	1301.14
256.399	1528.5
259.292	1465.41
262.185	1603.47
265.077	1497.93
267.97	1155.16
270.863	1081.8
273.756	829.941
276.648	645.953
279.541	675.027
282.434	466.863
285.326	483.453
288.219	479.508
291.112	318.262
294.005	285.879
296.897	345.844
299.79	361.988
302.683	507.269
305.575	465.684
308.468	421.953
311.361	519.539
314.253	707.176
317.146	796.641
320.039	1030.1
322.932	923.238
325.824	1238.38
328.717	1172.19
331.61	1173.18
334.502	997.273
337.395	961.762
340.288	759.445
343.18	672.894
346.073	704.07
348.966	666.09
351.858	427.551
354.751	312.906
357.644	277.008
360.537	306.309
363.429	228.523
366.322	130.805
369.215	191.062
372.107	297.223
375	122.523
377.893	100.609
380.785	43.3516
383.678	59.6484
386.571	164.68
389.464	149.781
392.356	188.801
395.249	147.402
398.142	162.234
401.034	62.9297
403.927	228.613
406.82	54.9844
409.712	153.379
412.605	115.113
415.498	239.723
418.39	562.957
421.283	641.426
424.176	706.641
427.069	894.043
429.961	1361.21
432.854	1572.81
435.747	1672.18
438.639	1873.92
441.532	1950.83
444.425	1882.5
447.317	1833.55
450.21	1572.53
453.103	1249.18
455.996	846.566
458.888	748.754
461.781	523.832
464.674	432.547
467.566	363.941
470.459	375.59
473.352	280.074
476.245	85.9062
479.137	32.9141
482.03	150.148
484.923	175.246
487.815	98.8086
490.708	57.1641
493.601	15.3594
496.493	121.918
499.386	54.9375
502.279	12.4727
505.171	126.106
508.064	260.047
510.957	417.781
513.85	343.559
516.742	269.688
519.635	203.875
522.528	291.981
525.42	417.082
528.313	399.148
531.206	410.019
534.098	485.496
536.991	684.242
539.884	661.852
542.777	765.613
545.669	852.434
548.562	972.418
551.455	819.578
554.347	649.988
557.24	524.816
560.133	523.832
563.025	582.484
565.918	317.547
568.811	504.875
571.703	313.965
574.596	264.961
577.489	201.09
580.382	296
583.274	113.09
586.167	317.367
589.06	290.438
591.952	47.5938
594.845	53.8164
597.738	12.2461
600.63	158.156
603.523	70.0195
606.416	127.269
609.309	292.531
612.201	196.227
615.094	134.816
617.987	133.961
620.879	10.1562
623.772	71.0625
626.665	19.9336
629.558	198.965
632.45	292.758
635.343	233.106
638.236	159.137
641.128	88.3359
644.021	124.469
646.914	126.328
649.806	132.375
652.699	132.555
655.592	258.07
658.485	235.027
661.377	273.473
664.27	126.027
667.163	188.523
670.055	174.852
672.948	206.207
675.841	116.293
678.733	277.445
681.626	254.707
684.519	92.0156
687.411	28.2773
690.304	102.387
693.197	73.7148
696.09	204.43
698.982	183.504
701.875	29.9062
704.768	72.6445
707.66	101.492
710.553	124.379
713.446	195.637
716.338	136.617
719.231	131.203
722.124	45.3906
725.016	39.2852
727.909	109.082
730.802	116.731
733.695	88.5352
736.587	269.148
739.48	373.844
742.373	418.981
745.265	248.129
748.158	275.906
751.051	279.879
753.943	224.918
756.836	166.894
759.729	98.6289
762.622	22.4688
765.514	17.8242
768.407	92.7539
771.3	94.7539
774.192	241.141
777.085	445.215
779.978	462.242
782.87	858.09
785.763	1091.52
788.656	1501.36
791.549	2030.7
794.441	2687.37
797.334	3136.41
800.227	3655.86
803.119	4110.86
806.012	4465.03
808.905	5029.58
811.798	5766.38
814.69	7197.13
817.583	8948.2
820.476	11540.8
823.368	14408.4
826.261	17648.7
829.154	20560.1
832.046	22179.2
834.939	20887.7
837.832	17282.4
840.724	13015.5
843.617	8701.22
846.51	5139.27
849.403	3019.57
852.295	1990.72
855.188	1227.73
858.081	907.141
860.973	428.91
863.866	307.625
866.759	301.305
869.651	133.906
872.544	35.5117
875.437	7.14453
878.33	50.3711
881.222	19.1289
884.115	77.457
887.008	57.2305
889.9	65.8906
892.793	17.3633
895.686	11.2031
898.578	29.2188
901.471	49.8145
904.364	77.1484
907.256	18.9883
910.149	28.4238
913.042	68.3203
915.935	244.266
918.827	195.967
921.72	105.705
924.613	157.389
927.505	90.9297
930.398	187.539
933.291	141.279
936.183	194.699
939.076	126.424
941.969	195.924
944.862	182.219
947.754	145.141
950.647	67.1543
953.54	142.557
956.432	38.4824
959.325	131.641
962.218	74.8359
965.111	85.9356
968.003	79.918
970.896	158.037
973.789	56.6543
976.681	46.7461
979.574	29.0273
982.467	283.088
985.359	310.935
988.252	182.592
991.145	127.269
994.038	90.8867
996.93	50.4258
999.823	63.3047
1002.72	187.67
1005.61	115.285
1008.5	57.6836
1011.39	35.7695
1014.29	95.6875
1017.18	114.799
1020.07	10.1484
1022.96	74.6133
1025.86	114.33
1028.75	89.5098
1031.64	165.176
1034.54	140.961
1037.43	113.32
1040.32	17.7617
1043.21	42.3691
1046.11	45.9082
1049	124.023
1051.89	94.1816
1054.78	177.037
1057.68	150.426
1060.57	67.6816
1063.46	100.781
1066.36	2.64453
1069.25	113.172
1072.14	98.3574
1075.03	217.018
1077.93	102.289
1080.82	30.6484
1083.71	17.7051
1086.6	113.481
1089.5	203.947
1092.39	175.598
1095.28	67.8301
1098.17	115.924
1101.07	25.1797
1103.96	122.35
1106.85	125.652
1109.74	150.303
1112.64	124.637
1115.53	58.5156
1118.42	84.6172
1121.32	173.797
1124.21	72.7481
1127.1	142.678
1129.99	18.5039
1132.89	37.4258
1135.78	120.92
1138.67	112.057
1141.57	87.3144
1144.46	98.9902
1147.35	124.85
1150.24	62.7383
1153.14	122.416
1156.03	87.4004
1158.92	112.418
1161.81	56.0078
1164.71	41.3438
1167.6	111.092
1170.49	113.756
1173.38	72.707
1176.28	129.834
1179.17	192.863
1182.06	231.918
1184.96	177.643
1187.85	155.555
1190.74	111.357
1193.63	193.199
1196.53	51.7676
1199.42	126.59
1202.31	202.135
1205.2	125.904
1208.1	84.9902
1210.99	163.51
1213.88	266.418
1216.78	203.062
1219.67	251.981
1222.56	185.779
1225.45	129.275
1228.35	83.6777
1231.24	70.3066
1234.13	31.5801
1237.02	86.7852
1239.92	72.0879
1242.81	91.0762
1245.7	23.9766
1248.6	91.1035
1251.49	185.414
1254.38	253.586
1257.27	192.193
1260.17	149.602
1263.06	129.481
1265.95	96.2519
1268.84	11.248
1271.74	52.2051
1274.63	175.867
1277.52	3.2793
1280.41	137.006
1283.31	0
