Measurement: Raman, 780 nm, unoriented, Raman Data Processed
Mineral: Billietite
Rruff sample: R070588
Ideal chemistry: Ba(UO_2_)_6_O_4_(OH)_6_8H_2_O
Locality: Musonoi mine, Kolwezi, Katanga, Zaire
Source: James Shigley
Description: Pseudo-hexagonal amber yellow crystals
Raman shift (cm-1)	intensity
95.6426	0
99.0174	350.343
102.392	1342.36
105.767	1273.99
109.142	1240.72
112.517	835.518
115.891	517.53
119.266	459.944
122.641	444.883
126.016	501.306
129.391	542.424
132.766	780.177
136.14	1222.91
139.515	1738.82
142.89	2278.09
146.265	2894.61
149.64	3498.15
153.014	3976.42
156.389	4401.09
159.764	4423
163.139	4244.93
166.514	4028.45
169.889	3839.97
173.263	3701.78
176.638	3647.33
180.013	3729.09
183.388	4005.59
186.763	4516.15
190.137	4955.11
193.512	5442.17
196.887	5832.8
200.262	5611.48
203.637	4853.34
207.012	3621.9
210.386	2429.04
213.761	1383.38
217.136	643.425
220.511	150.099
223.886	153.116
227.261	224.335
230.635	64.5464
234.01	172.146
237.385	564.005
240.76	923.083
244.135	1228.86
247.509	1474.28
250.884	1691.3
254.259	2044.99
257.634	2361.1
261.009	2606.77
264.384	2264.66
267.758	1714.3
271.133	1168.64
274.508	733.309
277.883	509.695
281.257	347.145
284.632	192.746
288.007	80.1299
291.382	4.61816
294.757	0.500244
298.132	30.0088
301.506	105.89
304.881	241.964
308.256	451.8
311.631	736.902
315.006	1105.72
318.38	1518.81
321.755	1844.73
325.13	2019.78
328.505	2197.58
331.88	2256.3
335.255	2215.82
338.629	2017.28
342.004	1720.72
345.379	1426.46
348.754	1169.26
352.129	896.616
355.503	635.316
358.878	440.773
362.253	275.865
365.628	108.577
369.003	59.4534
372.378	39.0947
375.752	31.8669
379.127	64.9092
382.502	19.844
385.877	55.7959
389.252	104.045
392.627	258.059
396.001	393.219
399.376	504.508
402.751	597.563
406.126	675.307
409.501	715.566
412.875	866.864
416.25	938.299
419.625	1157.92
423	1462.78
426.375	1821.64
429.75	2303.06
433.124	2833.56
436.499	3396.95
439.874	3935.32
443.249	4253.02
446.624	4393.28
449.998	4044.77
453.373	3463.09
456.748	2673.54
460.123	1972.89
463.498	1315.04
466.873	847.479
470.247	516.598
473.622	323.973
476.997	142.921
480.372	34.9502
483.747	28.1802
487.121	26.3953
490.496	16.0767
493.871	18.9392
497.246	25.6821
500.621	74.0466
503.995	119.296
507.37	193.907
510.745	249.278
514.12	333.759
517.495	419.144
520.87	509.606
524.244	591.584
527.619	735.172
530.994	856.79
534.369	1012.77
537.744	1153.06
541.119	1282.14
544.493	1447.17
547.868	1553.24
551.243	1574.01
554.618	1538.89
557.993	1446.69
561.367	1216.35
564.742	1110.83
568.117	897.65
571.492	739.299
574.867	573.854
578.241	455.415
581.616	361.428
584.991	265.374
588.366	193.151
591.741	147.102
595.115	114.018
598.49	73.1403
601.865	45.2484
605.24	19.7705
608.615	0.729248
611.99	11.373
615.364	1.45636
618.739	3.10809
622.114	9.13605
625.489	1.04157
628.864	14.4503
632.239	21.3149
635.613	43.1018
638.988	54.4437
642.363	61.7651
645.738	60.2048
649.113	113.501
652.487	120.096
655.862	145.899
659.237	164.264
662.612	192.422
665.987	185.917
669.361	207.677
672.736	214.357
676.111	183.293
679.486	179.137
682.861	162.879
686.236	141.51
689.61	135.524
692.985	94.6532
696.36	85.5781
699.735	58.2799
703.11	45.2589
706.485	8.93048
709.859	1.66357
713.234	27.2194
716.609	37.3295
719.984	40.6827
723.359	56.2919
726.733	52.926
730.108	19.5853
733.483	11.6292
736.858	21.4114
740.233	62.1162
743.607	84.2438
746.982	123.019
750.357	144.505
753.732	130.889
757.107	156.843
760.482	133.027
763.856	146.791
767.231	218.46
770.606	277.784
773.981	394.978
777.356	526.829
780.731	745.882
784.105	1099.77
787.48	1687.71
790.855	2387.8
794.23	3405.41
797.605	4461.76
800.979	5523.56
804.354	6395.01
807.729	7260.53
811.104	8405.73
814.479	10267.6
817.854	13380.2
821.228	19004
824.603	27681.3
827.978	39060.5
831.353	48309.3
834.728	46757.1
838.102	36527.2
841.477	24488.5
844.852	14013
848.227	7619.36
851.602	4432.42
854.976	2795.43
858.351	1761.6
861.726	1228.89
865.101	795.341
868.476	511.854
871.851	355.936
875.225	213.268
878.6	151.252
881.975	82.9614
885.35	66.1374
888.725	17.038
892.1	37.7775
895.474	79.9641
898.849	62.6422
902.224	48.9526
905.599	32.303
908.974	15.2522
912.348	4.51672
915.723	3.15234
919.098	31.5858
922.473	53.1586
925.848	74.5066
929.222	92.459
932.597	133.62
935.972	174.063
939.347	210.777
942.722	203.846
946.097	205.391
949.471	192.165
952.846	170.348
956.221	159.177
959.596	148.575
962.971	118.153
966.346	136.836
969.72	107.99
973.095	102.256
976.47	104.043
979.845	93.2198
983.22	89.0277
986.594	70.1952
989.969	83.1215
993.344	55.3678
996.719	59.3374
1000.09	63.9899
1003.47	70.6633
1006.84	54.4947
1010.22	58.7072
1013.59	58.2118
1016.97	51.06
1020.34	40.8742
1023.72	35.9053
1027.09	33.8349
1030.47	30.5524
1033.84	43.7186
1037.22	33.731
1040.59	27.7919
1043.97	28.1863
1047.34	12.3196
1050.72	31.4651
1054.09	23.9096
1057.46	18.2428
1060.84	27.7663
1064.21	9.86308
1067.59	17.9685
1070.96	22.0312
1074.34	6.30716
1077.71	20.7703
1081.09	14.7664
1084.46	6.01274
1087.84	6.45494
1091.21	5.44846
1094.59	7.52644
1097.96	12.2947
1101.34	7.13028
1104.71	9.64362
1108.09	9.83102
1111.46	8.18544
1114.84	0.233734
1118.21	15.345
1121.59	0.027893
1124.96	3.68103
1128.34	5.88402
1131.71	2.34743
1135.09	6.67955
1138.46	0.338577
1141.84	5.40955
1145.21	11.4011
1148.59	14.7223
1151.96	3.11528
1155.34	24.4256
1158.71	6.91862
1162.09	1.79236
1165.46	8.6916
1168.83	5.27356
1172.21	9.15628
1175.58	10.6468
1178.96	12.4275
1182.33	0.660049
1185.71	5.57054
1189.08	11.8109
1192.46	8.02167
1195.83	21.4242
1199.21	17.8587
1202.58	15.951
1205.96	8.30449
1209.33	23.9203
1212.71	10.0203
1216.08	8.70952
1219.46	33.2017
1222.83	9.02853
1226.21	12.2043
1229.58	26.5465
1232.96	17.1634
1236.33	15.4924
1239.71	8.46765
1243.08	12.1316
1246.45	14.4351
1249.83	9.82114
1253.2	16.4476
1256.58	12.9568
1259.95	3.58334
1263.33	6.91892
1266.7	11.9162
1270.08	18.9414
1273.45	5.72328
1276.83	6.93401
1280.2	0
