Measurement: Raman, 780 nm, unoriented, Raman Data Processed
Mineral: Bindheimite
Rruff sample: R050546
Ideal chemistry: Pb_2_Sb^5+^_2_O_7_
Locality: Arabia District, Pershing County, Nevada, USA
Source: University of Arizona Mineral Museum
Description: Yellow-brown coarsely fibrous massive, intimately mixed with mimetite
Measured chemistry: (Pb_1.33_Fe_0.47_Ca_0.20_)_Σ=2_(Sb^5+^_1.97_As^5+^_0.03_)_Σ=2_O_7_  ;(darker phase, with trace amounts of Na);   (Pb_4.07_Ca_0.92_Fe_0.01_)_Σ=5_((As_2.97_Sb_0.03_)_Σ=1_O_4_)_3_Cl_1.00_ (lighter phase = mimetite)
Raman shift (cm-1)	intensity
150.231	18.1873
153.124	54.1604
156.016	59.6702
158.909	48.9902
161.802	32.2315
164.694	4.58984
167.587	32.8696
170.48	70.3618
173.373	118.901
176.265	163.411
179.158	216.03
182.051	264.268
184.943	312.187
187.836	324.719
190.729	349.859
193.621	370.019
196.514	384.345
199.407	391.498
202.299	406.912
205.192	385.217
208.085	381.551
210.978	323.325
213.87	268.377
216.763	212.045
219.656	156.561
222.548	112.717
225.441	85.0999
228.334	57.8855
231.226	36.7236
234.119	24.3997
237.012	18.3606
239.905	17.1841
242.797	10.6804
245.69	18.2649
248.583	20.4854
251.475	34.512
254.368	42.7273
257.261	65.2075
260.154	97.8198
263.046	143.797
265.939	212.664
268.832	283.946
271.724	374.256
274.617	488.937
277.51	589.976
280.402	716.292
283.295	835.878
286.188	939.741
289.08	1045.3
291.973	1138.75
294.866	1185.64
297.759	1191.03
300.651	1151.7
303.544	1061.79
306.437	961.8
309.329	839.559
312.222	737.367
315.115	651.079
318.007	587.944
320.9	535.536
323.793	508.637
326.686	486.917
329.578	465.824
332.471	430.071
335.364	399.643
338.256	370.652
341.149	335.608
344.042	292.556
346.935	252.463
349.827	222.281
352.72	180.3
355.613	146.493
358.505	121.874
361.398	93.9495
364.291	59.8394
367.183	36.0198
370.076	28.4605
372.969	10.4437
375.861	4.18799
378.754	0.788086
381.647	3.90491
384.54	5.28088
387.432	5.70373
390.325	3.00488
393.218	4.99475
396.11	8.33728
399.003	8.96851
401.896	6.2489
404.788	4.39111
407.681	2.81262
410.574	13.3148
413.467	18.3466
416.359	19.4067
419.252	12.1919
422.145	11.2271
425.037	6.94812
427.93	1.82776
430.823	3.17688
433.716	18.8732
436.608	27.3319
439.501	46.8002
442.394	57.614
445.286	78.3378
448.179	100.367
451.072	123.091
453.964	139.958
456.857	161.608
459.75	191.162
462.642	218.145
465.535	241.805
468.428	265.198
471.321	288.913
474.213	325.571
477.106	373.249
479.999	436.239
482.891	514.893
485.784	624.272
488.677	770.073
491.57	943.631
494.462	1138.91
497.355	1357.7
500.248	1575.9
503.14	1777.29
506.033	1942.15
508.926	2027.03
511.818	2016.17
514.711	1902.46
517.604	1656.26
520.496	1306.32
523.389	935.117
526.282	626.509
529.175	393.117
532.067	246.374
534.96	149.452
537.853	80.5472
540.745	57.0763
543.638	43.3325
546.531	37.614
549.423	47.1155
552.316	62.5328
555.209	74.5985
558.102	75.3142
560.994	72.0909
563.887	53.1165
566.78	34.387
569.672	19.4503
572.565	1.86877
575.458	3.41065
578.351	3.53943
581.243	2.7456
584.136	5.45447
587.029	14.3145
589.921	28.8328
592.814	41.8132
595.707	47.4342
598.599	67.7797
601.492	73.1356
604.385	88.9273
607.278	93.6392
610.17	95.5674
613.063	95.8053
615.956	88.3438
618.848	85.8311
621.741	74.9731
624.634	73.3489
627.526	55.9883
630.419	49.0022
633.312	30.1919
636.205	26.131
639.097	18.2394
641.99	13.7393
644.883	4.93133
647.775	2.41675
650.668	3.23285
653.561	1.54535
656.453	4.81323
659.346	10.4364
662.239	5.02228
665.131	3.56165
668.024	7.78406
670.917	2.26373
673.81	1.09418
676.702	5.85761
679.595	10.6891
682.488	14.2918
685.38	16.1534
688.273	27.4571
691.166	43.1774
694.058	47.0732
696.951	59.6141
699.844	74.6295
702.737	88.2388
705.629	103.778
708.522	113.476
711.415	123.315
714.307	133.582
717.2	147.305
720.093	162.183
722.986	173.436
725.878	174.587
728.771	178.469
731.664	203.363
734.556	203.732
737.449	209.185
740.342	218.346
743.234	224.854
746.127	220.829
749.02	215.169
751.913	214.799
754.805	195.981
757.698	185.517
760.591	177.808
763.483	155.547
766.376	142.075
769.269	123.694
772.161	118.728
775.054	103.124
777.947	94.4736
780.84	81.9542
783.732	77.712
786.625	69.475
789.518	70.9366
792.41	62.2297
795.303	56.9713
798.196	53.8925
801.088	49.813
803.981	41.8921
806.874	40.0772
809.766	32.0864
812.659	26.846
815.552	20.042
818.445	22.6746
821.337	10.9236
824.23	4.07587
827.123	2.57462
830.015	0.497375
832.908	3.11035
835.801	1.7384
838.693	0.294342
841.586	2.21146
844.479	2.53616
847.372	0.813568
850.264	0.748932
853.157	0.843597
856.05	3.13959
858.942	2.67227
861.835	0.308228
864.728	0.131744
867.62	3.26035
870.513	4.15121
873.406	0.519318
876.299	2.20471
879.191	7.87698
882.084	0.47113
884.977	4.02966
887.869	8.4902
890.762	3.89313
893.655	5.54038
896.548	6.43591
899.44	5.93344
902.333	6.47037
905.226	11.0164
908.118	16.9217
911.011	10.5373
913.904	17.1488
916.796	16.7626
919.689	17.8974
922.582	17.9723
925.474	19.9525
928.367	12.9912
931.26	22.2833
934.153	21.1566
937.045	24.4016
939.938	20.6175
942.831	19.5249
945.723	25.2352
948.616	23.5875
951.509	22.7506
954.401	25.2583
957.294	28.4748
960.187	29.3378
963.08	35.3385
965.972	39.3818
968.865	43.5477
971.758	38.6009
974.65	42.1562
977.543	42.2824
980.436	39.1315
983.328	38.3175
986.221	37.4871
989.114	31.7981
992.006	27.4687
994.899	29.7784
997.792	27.6492
1000.68	26.1385
1003.58	19.4322
1006.47	23.0182
1009.36	24.2823
1012.25	21.048
1015.15	25.905
1018.04	26.9509
1020.93	24.3901
1023.83	28.48
1026.72	22.7611
1029.61	12.5424
1032.5	9.04077
1035.4	3.28046
1038.29	2.50449
1041.18	0.181549
1044.08	1.9458
1046.97	0.081177
1049.86	1.92285
1052.75	1.9144
1055.65	1.2952
1058.54	0.252594
1061.43	0.875061
1064.32	0.275757
1067.22	1.90671
1070.11	0.791016
1073	1.8317
1075.89	0.725769
1078.79	5.91531
1081.68	0.376892
1084.57	4.90274
1087.47	1.68701
1090.36	1.7399
1093.25	3.84268
1096.14	2.24078
1099.04	4.40921
1101.93	1.28476
1104.82	2.21854
1107.71	6.27377
1110.61	2.33893
1113.5	5.44415
1116.39	5.77075
1119.29	5.92679
1122.18	6.51654
1125.07	6.05478
1127.96	6.56772
1130.86	2.67239
1133.75	6.03864
1136.64	2.59769
1139.53	7.91623
1142.43	8.22437
1145.32	8.76294
1148.21	7.14212
1151.11	4.1015
1154	10.527
1156.89	7.28195
1159.78	6.26895
1162.68	4.78226
1165.57	9.51977
1168.46	4.21478
1171.35	6.29819
1174.25	6.79562
1177.14	3.85916
1180.03	6.01221
1182.92	7.07608
1185.82	2.57422
1188.71	3.48752
1191.6	6.83392
1194.49	2.39938
1197.39	4.41888
1200.28	3.62982
1203.17	6.03949
1206.07	6.48349
1208.96	2.13391
1211.85	4.83695
1214.74	3.64533
1217.64	3.2486
1220.53	2.36951
1223.42	0.879395
1226.32	5.48926
1229.21	6.25674
1232.1	5.25479
1234.99	0.90802
1237.89	5.05157
1240.78	3.51349
1243.67	3.56338
1246.56	2.53998
1249.46	0.801758
1252.35	5.21048
1255.24	3.41879
1258.13	2.03885
1261.03	5.71268
1263.92	6.35425
1266.81	7.10318
1269.71	3.03064
1272.6	10.621
1275.49	2.00992
1278.38	4.41663
1281.28	5.17346
1284.17	5.83911
