Measurement: Raman, 532 nm, unoriented, Raman Data Processed
Mineral: Bindheimite
Rruff sample: R050546
Ideal chemistry: Pb_2_Sb^5+^_2_O_7_
Locality: Arabia District, Pershing County, Nevada, USA
Source: University of Arizona Mineral Museum
Description: Yellow-brown coarsely fibrous massive, intimately mixed with mimetite
Measured chemistry: (Pb_1.33_Fe_0.47_Ca_0.20_)_Σ=2_(Sb^5+^_1.97_As^5+^_0.03_)_Σ=2_O_7_  ;(darker phase, with trace amounts of Na);   (Pb_4.07_Ca_0.92_Fe_0.01_)_Σ=5_((As_2.97_Sb_0.03_)_Σ=1_O_4_)_3_Cl_1.00_ (lighter phase = mimetite)
Raman shift (cm-1)	intensity
129.495	0
132.87	201.649
136.245	220.624
139.62	83.103
142.995	32.103
146.369	6.57519
149.744	25.9211
153.119	66.6072
156.494	36.8481
159.869	5.00024
163.244	14.5732
166.618	29.4266
169.993	18.6495
173.368	6.51709
176.743	6.83606
180.118	1.42798
183.493	17.0884
186.867	2.19702
190.242	11.4717
193.617	12.9976
196.992	6.6814
200.367	12.5696
203.741	14.1057
207.116	6.27954
210.491	9.97437
213.866	4.69995
217.241	10.8198
220.615	17.7612
223.99	22.0129
227.365	19.4453
230.74	22.7219
234.115	33.543
237.489	40.2717
240.864	49.4526
244.239	53.5286
247.614	54.9228
250.989	64.1387
254.364	81.7812
257.738	100.605
261.113	111.926
264.488	132.553
267.863	172.171
271.238	201.905
274.613	247.747
277.987	324.503
281.362	377.683
284.737	428.384
288.112	478.393
291.487	524.481
294.861	551.975
298.236	557.504
301.611	553.559
304.986	526.158
308.361	489.743
311.736	451.712
315.11	429.174
318.485	407.795
321.86	373.737
325.235	355.193
328.61	334.715
331.984	315.982
335.359	296.734
338.734	268.237
342.109	245.05
345.484	227.395
348.858	203.871
352.233	186.208
355.608	169.025
358.983	161.625
362.358	137.592
365.733	119.019
369.107	97.0325
372.482	74.3247
375.857	51.5706
379.232	45.9265
382.607	25.9573
385.981	10.5557
389.356	7.61694
392.731	8.18457
396.106	2.19022
399.481	0.265137
402.856	6.85596
406.23	9.85645
409.605	17.7476
412.98	17.9639
416.355	18.5454
419.73	15.8242
423.104	1.7102
426.479	4.71851
429.854	15.6597
433.229	49.1206
436.604	52.5393
439.978	85.3333
443.353	119.239
446.728	144.74
450.103	193.299
453.478	219.202
456.853	237.713
460.227	260.183
463.602	286.716
466.977	290.793
470.352	309.86
473.727	338.651
477.101	387.522
480.476	448.414
483.851	531.297
487.226	627.57
490.601	762.322
493.976	897.722
497.35	1064.7
500.725	1234.61
504.1	1387.12
507.475	1514.58
510.85	1582.01
514.224	1573.98
517.599	1430.72
520.974	1210.91
524.349	968.441
527.724	763.72
531.098	585.508
534.473	465.604
537.848	376.661
541.223	322.607
544.598	270.604
547.973	237.392
551.347	225.347
554.722	200.988
558.097	156.274
561.472	117.724
564.847	86.9858
568.221	57.8208
571.596	40.093
574.971	14.0935
578.346	1.32446
581.721	6.94263
585.096	13.3464
588.47	13.6086
591.845	0.684082
595.22	3.30103
598.595	1.53516
601.97	0.436279
605.344	6.0459
608.719	11.1592
612.094	12.625
615.469	17.459
618.844	13.1726
622.218	14.4168
625.593	30.8506
628.968	18.8757
632.343	12.042
635.718	18.3523
639.093	20.832
642.467	20.561
645.842	11.8667
649.217	5.80811
652.592	2.58911
655.967	5.19531
659.341	7.48511
662.716	0.967529
666.091	6.24023
669.466	0.56543
672.841	3.84228
676.216	6.93701
679.59	4.75488
682.965	16.7845
686.34	22.7478
689.715	24.5596
693.09	34.6757
696.465	41.8531
699.839	49.2255
703.214	62.0492
706.589	69.6411
709.964	71.6741
713.339	71.5558
716.713	81.3986
720.088	88.3021
723.463	91.812
726.838	93.0343
730.213	95.1321
733.587	97.2227
736.962	96.8444
740.337	104.234
743.712	97.7852
747.087	97.908
750.462	85.1589
753.836	86.1776
757.211	83.512
760.586	73.7803
763.961	67.9585
767.336	70.4664
770.71	60.7389
774.085	53.096
777.46	45.3636
780.835	48.9676
784.21	40.1165
787.585	33.4426
790.959	35.1914
794.334	37.6553
797.709	26.7666
801.084	26.1063
804.459	25.6995
807.833	22.3336
811.208	19.7555
814.583	18.5393
817.958	7.15088
821.333	11.7595
824.707	9.84876
828.082	6.43091
831.457	3.83374
834.832	3.76746
838.207	4.55627
841.582	7.02063
844.956	4.05518
848.331	0.421265
851.706	5.08911
855.081	9.90906
858.456	4.07788
861.83	3.05957
865.205	2.62512
868.58	0.553223
871.955	6.54724
875.33	1.15894
878.705	0.921143
882.079	3.34692
885.454	4.59119
888.829	10.2404
892.204	12.7028
895.579	14.7844
898.953	9.90027
902.328	10.6386
905.703	13.9916
909.078	10.583
912.453	7.37769
915.827	5.62366
919.202	18.5459
922.577	17.4622
925.952	6.72058
929.327	8.01794
932.702	7.64917
936.076	1.87549
939.451	6.7041
942.826	12.0718
946.201	13.7659
949.576	7.19556
952.951	13.5472
956.325	2.59082
959.7	9.97266
963.075	18.6782
966.45	14.8951
969.825	14.913
973.199	15.1211
976.574	20.0763
979.949	25.1003
983.324	18.808
986.699	17.2578
990.073	12.5027
993.448	18.9016
996.823	16.2543
1000.2	20.2345
1003.57	21.6574
1006.95	17.2089
1010.32	16.4297
1013.7	25.8743
1017.07	25.3434
1020.45	21.484
1023.82	25.636
1027.2	19.0779
1030.57	16.6747
1033.95	12.9232
1037.32	22.0415
1040.7	13.4937
1044.07	9.74463
1047.44	12.5227
1050.82	8.34216
1054.19	8.64087
1057.57	6.5918
1060.94	2.16772
1064.32	10.1066
1067.69	5.63489
1071.07	8.56396
1074.44	1.12353
1077.82	5.41162
1081.19	3.26038
1084.57	0.765259
1087.94	0.763184
1091.32	6.6825
1094.69	1.25464
1098.07	4.91711
1101.44	1.20007
1104.82	2.60608
1108.19	11.3444
1111.57	12.6508
1114.94	7.46545
1118.32	0.913208
1121.69	6.53857
1125.07	2.67798
1128.44	10.5643
1131.82	5.20154
1135.19	12.8213
1138.57	8.52124
1141.94	5.71741
1145.32	5.42761
1148.69	7.64917
1152.07	10.5837
1155.44	9.25513
1158.81	8.20972
1162.19	2.25208
1165.56	6.66504
1168.94	5.48438
1172.31	2.58813
1175.69	4.64893
1179.06	2.79175
1182.44	5.81848
1185.81	15.8789
1189.19	6.52222
1192.56	8.33081
1195.94	8.1698
1199.31	4.50305
1202.69	2.18811
1206.06	0.070679
1209.44	3.68689
1212.81	10.6923
1216.19	8.2168
1219.56	10.3112
1222.94	8.45142
1226.31	14.5487
1229.68	5.40552
1233.06	2.13867
1236.43	7.63013
1239.81	4.17163
1243.18	9.0874
1246.56	6.41614
1249.93	12.4059
1253.31	7.25085
1256.68	3.98779
1260.06	7.29871
1263.43	3.88769
1266.81	0.369263
1270.18	3.70276
1273.56	2.93921
1276.93	3.69812
1280.31	7.73731
1283.68	8.29395
1287.06	2.46594
1290.43	5.83643
1293.81	0.028076
1297.18	2.64441
1300.56	6.50806
