Measurement: Raman, 785 nm, unoriented, Raman Data Processed
Mineral: Biphosphammite
Rruff sample: R070206
Ideal chemistry: H_2_(NH_4_)PO_4_
Locality: Synthetic by Udo J. A. Behner
Source: Jacqueline Reynard and Gregory Schmidt
Description: Pale green fragments
Raman shift (cm-1)	intensity
127.577	0
130.47	1.17212
133.362	70.749
136.255	44.8664
139.148	16.5524
142.041	54.4062
144.933	203.632
147.826	452.474
150.719	657.107
153.611	775.46
156.504	849.989
159.397	854.866
162.289	1023.76
165.182	1251.87
168.075	1478.23
170.968	1703.69
173.86	1830.03
176.753	1936.16
179.646	1978.48
182.538	1946.28
185.431	1765.72
188.324	1485.88
191.216	1311.79
194.109	1035.47
197.002	803.839
199.894	641.606
202.787	489.989
205.68	360.606
208.573	253.255
211.465	187.774
214.358	125.82
217.251	83.2271
220.143	101.598
223.036	19.2825
225.929	10.8604
228.821	5.57227
231.714	51.6432
234.607	25.3801
237.5	13.926
240.392	22.7274
243.285	13.3264
246.178	25.056
249.07	24.6733
251.963	53.8154
254.856	59.2614
257.748	108.366
260.641	106.609
263.534	149.458
266.427	161.289
269.319	177.698
272.212	207.892
275.105	211.672
277.997	270.596
280.89	272.623
283.783	296.377
286.675	333.883
289.568	335.865
292.461	341.332
295.354	368.487
298.246	456.602
301.139	439.573
304.032	493.776
306.924	542.074
309.817	603.04
312.71	638.695
315.602	726.224
318.495	812.696
321.388	918.034
324.281	1029.93
327.173	1124.06
330.066	1251.34
332.959	1335.28
335.851	1410.16
338.744	1380.2
341.637	1301.99
344.529	1192.88
347.422	1030.98
350.315	809.974
353.208	631.261
356.1	419.558
358.993	297.766
361.886	192.092
364.778	96.5355
367.671	67.8096
370.564	22.6755
373.457	4.32788
376.349	13.5098
379.242	18.6594
382.135	23.6669
385.027	44.2533
387.92	6.39673
390.813	37.1741
393.705	51.7515
396.598	54.2283
399.491	59.755
402.384	43.7692
405.276	76.472
408.169	64.925
411.062	55.8447
413.954	92.4126
416.847	118.196
419.74	129.908
422.632	144.28
425.525	161.529
428.418	216.516
431.31	244.113
434.203	235.871
437.096	272.095
439.989	286.15
442.881	321.622
445.774	338.878
448.667	366.809
451.559	465.188
454.452	509.644
457.345	577.453
460.238	611.654
463.13	691.206
466.023	785.605
468.916	853.906
471.808	867.783
474.701	906.703
477.594	877.017
480.486	793.778
483.379	715.224
486.272	545.102
489.164	417.138
492.057	300.3
494.95	184.94
497.843	79.7579
500.735	20.8423
503.628	3.01733
506.521	13.3428
509.413	14.0293
512.306	2.93787
515.199	44.7074
518.091	53.3988
520.984	117.138
523.877	136.402
526.77	187.369
529.662	227.839
532.555	247.112
535.448	308.179
538.34	318.595
541.233	339.363
544.126	364.197
547.019	384.587
549.911	404.275
552.804	423.734
555.697	432.219
558.589	443.458
561.482	442.378
564.375	476.655
567.267	492.807
570.16	472.628
573.053	440.135
575.945	459.722
578.838	428.177
581.731	353.106
584.624	311.48
587.516	237.459
590.409	199.098
593.302	127.274
596.194	129.289
599.087	86.1541
601.98	57.8508
604.872	41.0863
607.765	24.1779
610.658	22.2392
613.551	2.91254
616.443	0.508972
619.336	2.39838
622.229	16.5148
625.121	10.2692
628.014	14.6562
630.907	11.8619
633.799	1.26971
636.692	0.018188
639.585	6.74072
642.477	17.8347
645.37	17.3938
648.263	13.2528
651.156	30.1277
654.048	24.7903
656.941	34.875
659.834	41.6041
662.726	28.6737
665.619	37.3319
668.512	35.6213
671.404	52.9539
674.297	54.7883
677.19	45.1167
680.083	57.9447
682.975	52.5849
685.868	54.5251
688.761	57.4459
691.653	53.5097
694.546	51.1231
697.439	62.1435
700.332	42.0356
703.224	55.626
706.117	51.8449
709.01	55.0065
711.902	25.6168
714.795	48.9708
717.688	39.6335
720.58	35.2257
723.473	44.5126
726.366	33.9992
729.259	40.3556
732.151	58.8176
735.044	44.6255
737.937	28.275
740.829	51.5496
743.722	53.8384
746.615	43.3552
749.507	65.5668
752.4	46.0142
755.293	52.5198
758.186	53.3398
761.078	29.6037
763.971	37.4004
766.864	38.084
769.756	54.5119
772.649	62.6771
775.542	61.9796
778.434	63.2995
781.327	59.1262
784.22	71.6837
787.112	57.0886
790.005	66.9714
792.898	50.0909
795.791	52.834
798.683	50.9475
801.576	36.7014
804.469	55.0762
807.361	50.0911
810.254	30.8367
813.147	8.51502
816.04	11.149
818.932	8.48328
821.825	5.40485
824.718	3.1098
827.61	5.17078
830.503	12.0496
833.396	10.7938
836.288	18.5419
839.181	22.6335
842.074	16.0655
844.967	10.1169
847.859	1.94824
850.752	0.502075
853.645	2.45898
856.537	26.3999
859.43	22.3848
862.323	56.2385
865.216	88.2605
868.108	131.808
871.001	212.824
873.894	249.29
876.786	298.271
879.679	416.007
882.572	476.862
885.464	589.382
888.357	747.056
891.25	876.199
894.143	1078.57
897.035	1346.3
899.928	1636.5
902.821	2027.42
905.713	2601.19
908.606	3300.38
911.499	4167.18
914.391	5090.76
917.284	5963.93
920.177	6732.89
923.069	6855.14
925.962	6417.21
928.855	5486.37
931.748	4413.71
934.64	3449.57
937.533	2684.36
940.426	2011.06
943.318	1557.01
946.211	1211.22
949.104	910.442
951.996	735.585
954.889	595.66
957.782	495.008
960.675	371.418
963.567	278.701
966.46	239.906
969.353	220.216
972.245	163.329
975.138	169.73
978.031	137.555
980.923	99.0335
983.816	102.833
986.709	50.2133
989.602	43.6228
992.494	7.10486
995.387	28.6465
998.28	29.022
1001.17	13.4232
1004.07	10.1448
1006.96	13.89
1009.85	20.4187
1012.74	8.90063
1015.64	4.02466
1018.53	8.39734
1021.42	2.25635
1024.31	10.3506
1027.21	12.0835
1030.1	4.09631
1032.99	28.1892
1035.88	51.9347
1038.78	39.7782
1041.67	26.1719
1044.56	25.7272
1047.46	48.8816
1050.35	55.9436
1053.24	71.1446
1056.13	45.3104
1059.03	57.0478
1061.92	36.5488
1064.81	39.0925
1067.7	56.7516
1070.6	39.3221
1073.49	46.7551
1076.38	28.368
1079.28	16.3234
1082.17	49.9518
1085.06	0.532654
1087.95	11.3637
1090.85	2.2066
1093.74	3.71307
1096.63	8.12158
1099.52	24.6455
1102.42	22.0526
1105.31	39.8527
1108.2	42.4623
1111.1	49.9915
1113.99	70.4946
1116.88	91.7672
1119.77	89.7353
1122.67	115.346
1125.56	104.497
1128.45	134.58
1131.34	131.353
1134.24	120.624
1137.13	117.931
1140.02	148.402
1142.91	122.66
1145.81	116.963
1148.7	82.071
1151.59	82.7869
1154.48	78.4683
1157.38	53.38
1160.27	62.4698
1163.16	42.5641
1166.06	40.5919
1168.95	23.7739
1171.84	27.0861
1174.73	22.5712
1177.63	17.985
1180.52	9.71509
1183.41	13.3513
1186.31	8.74384
1189.2	12.0082
1192.09	8.76379
1194.98	22.5206
1197.88	9.04184
1200.77	26.3627
1203.66	23.4151
1206.55	26.8297
1209.45	39.1556
1212.34	28.8212
1215.23	18.3399
1218.12	28.0715
1221.02	27.4002
1223.91	20.7477
1226.8	36.5059
1229.7	33.9999
1232.59	12.6475
1235.48	12.1971
