Measurement: Raman, 532 nm, unoriented, Raman Data Processed
Mineral: Biphosphammite
Rruff sample: R070206
Ideal chemistry: H_2_(NH_4_)PO_4_
Locality: Synthetic by Udo J. A. Behner
Source: Jacqueline Reynard and Gregory Schmidt
Description: Pale green fragments
Raman shift (cm-1)	intensity
132.343	0
135.718	148.339
139.093	139.707
142.468	67.2703
145.843	107.037
149.217	355.382
152.592	682.87
155.967	980.579
159.342	1118.54
162.717	1415.38
166.091	1713.62
169.466	2111.53
172.841	2458.41
176.216	2688.06
179.591	2802.9
182.966	2780.08
186.34	2586.12
189.715	2176.63
193.09	1675.8
196.465	1210.8
199.84	906.502
203.214	628.928
206.589	382.078
209.964	237.014
213.339	133.918
216.714	92.6904
220.089	47.5125
223.463	21.4741
226.838	12.1814
230.213	21.7678
233.588	18.5579
236.963	31.1394
240.338	33.2031
243.712	2.65039
247.087	25.8342
250.462	57.3831
253.837	68.9817
257.212	147.818
260.586	130.061
263.961	201.469
267.336	219.094
270.711	274.69
274.086	308.502
277.461	368.4
280.835	406.131
284.21	472.577
287.585	496.762
290.96	540.54
294.335	534.208
297.709	638.426
301.084	615.235
304.459	696.442
307.834	759.479
311.209	925.062
314.584	1013.32
317.958	1223.78
321.333	1437.39
324.708	1712.35
328.083	1940.59
331.458	2241.02
334.832	2496.39
338.207	2695.69
341.582	2743.06
344.957	2490.71
348.332	2134.18
351.707	1722.45
355.081	1286.04
358.456	957.812
361.831	673.768
365.206	503.638
368.58	331.296
371.955	195.762
375.33	102.329
378.705	81.2647
382.08	1.74365
385.455	9.1499
388.829	15.9937
392.204	3.31299
395.579	28.8809
398.954	8.08984
402.329	4.48096
405.704	6.28564
409.078	6.42188
412.453	5.72559
415.828	10.1206
419.203	53.3774
422.578	29.7354
425.952	41.3315
429.327	60.769
432.702	111.577
436.077	94.4541
439.452	120.239
442.827	187.537
446.201	251.326
449.576	296.647
452.951	333.857
456.326	411.839
459.701	494.443
463.075	641.362
466.45	634.621
469.825	756.879
473.2	783.107
476.575	790.592
479.95	737.178
483.324	624.327
486.699	460.712
490.074	296.411
493.449	180.016
496.824	87.0518
500.198	24.5581
503.573	22.0684
506.948	9.72656
510.323	71.5376
513.698	161.871
517.072	233.815
520.447	304.626
523.822	421.816
527.197	524.333
530.572	708.072
533.947	751.584
537.321	810.915
540.696	847.928
544.071	965.194
547.446	969.273
550.821	1061.28
554.196	1135.12
557.57	1169.54
560.945	1278.98
564.32	1290.53
567.695	1346.8
571.07	1328.41
574.444	1344.05
577.819	1233.1
581.194	1120.07
584.569	977.223
587.944	818.384
591.318	617.351
594.693	469.35
598.068	337.539
601.443	223.853
604.818	182.59
608.193	111.709
611.567	73.4277
614.942	22.2395
618.317	12.4795
621.692	19.1321
625.067	15.9307
628.442	32.6018
631.816	0.11377
635.191	18.7654
638.566	34.3762
641.941	9.06055
645.316	17.4678
648.69	35.0813
652.065	33.3684
655.44	75.5078
658.815	51.1919
662.19	54.1787
665.564	27.1643
668.939	64.3594
672.314	77.563
675.689	89.8076
679.064	105.967
682.438	92.7361
685.813	120.66
689.188	78.4968
692.563	110.415
695.938	126.141
699.313	94.6948
702.687	93.603
706.062	116.796
709.437	129.114
712.812	94.9082
716.187	55.2266
719.562	40.7832
722.936	83.8401
726.311	71.7949
729.686	105.805
733.061	78.9883
736.436	87.2097
739.81	87.4546
743.185	107.931
746.56	103.707
749.935	103.622
753.31	111.06
756.684	114.925
760.059	130.397
763.434	112.801
766.809	140.356
770.184	150.587
773.559	155.897
776.933	139.866
780.308	106.4
783.683	148.961
787.058	181.569
790.433	168.008
793.808	155.031
797.182	140.453
800.557	136.559
803.932	117.714
807.307	114.852
810.682	42.3413
814.056	52.5654
817.431	40.624
820.806	61.6528
824.181	13.3398
827.556	54.2339
830.931	2.86572
834.305	3.73291
837.68	16.1475
841.055	45.0928
844.43	14.0112
847.805	13.3608
851.179	3.87305
854.554	3.58154
857.929	32.5488
861.304	91.9146
864.679	216.181
868.053	369.425
871.428	436.478
874.803	665.932
878.178	890.55
881.553	1111.06
884.928	1355.01
888.302	1744.38
891.677	2165.02
895.052	2667.06
898.427	3391.16
901.802	4312.08
905.177	5639.61
908.551	7399.02
911.926	9675.71
915.301	12298.3
918.676	14574.4
922.051	15696.9
925.425	14891.6
928.8	12535.7
932.175	9711.45
935.55	7235.83
938.925	5260.06
942.299	3953.35
945.674	2908.46
949.049	2159.78
952.424	1649.6
955.799	1326.65
959.174	1017.35
962.548	818.52
965.923	655.339
969.298	530.341
972.673	435.607
976.048	325.359
979.423	320.94
982.797	228.163
986.172	238.405
989.547	173.961
992.922	27.2559
996.297	53.915
999.671	14.3984
1003.05	26.3081
1006.42	15.7817
1009.8	32.272
1013.17	12.3633
1016.54	45.1299
1019.92	10.8325
1023.29	52.0815
1026.67	18.7881
1030.05	20.7534
1033.42	20.5596
1036.79	10.0542
1040.17	1.36377
1043.54	87.9312
1046.92	71.1152
1050.29	18.6191
1053.67	26.9477
1057.04	18.7524
1060.42	122.69
1063.79	54.3648
1067.17	105.613
1070.54	126.856
1073.92	98.7202
1077.29	90.1753
1080.67	104.54
1084.04	89.8247
1087.42	110.148
1090.79	18.9136
1094.17	34.9487
1097.54	61.2231
1100.92	74.5996
1104.29	136.359
1107.67	126.392
1111.04	185.488
1114.41	234.083
1117.79	260.431
1121.16	325.263
1124.54	359.35
1127.91	343.578
1131.29	370.784
1134.66	405.762
1138.04	361.697
1141.41	397.298
1144.79	382.259
1148.16	320.211
1151.54	338.305
1154.91	238.548
1158.29	205.648
1161.66	170.073
1165.04	151.079
1168.41	114.97
1171.79	86.1489
1175.16	43.0903
1178.54	49.0605
1181.91	82.0347
1185.29	57.3516
1188.66	0.432617
1192.04	66.4981
1195.41	10.5996
1198.79	32.5869
1202.16	32.436
1205.54	7.74707
1208.91	48.0918
1212.29	13.0322
1215.66	50.7305
1219.04	56.1577
1222.41	56.7837
1225.78	17.4473
1229.16	31.7676
1232.53	54.5107
1235.91	34.6318
1239.28	39.8071
1242.66	4.33789
1246.03	37.5181
1249.41	51.9014
1252.78	49.4199
1256.16	40.6821
1259.53	11.8291
1262.91	6.76025
1266.28	32.6133
1269.66	73.1992
1273.03	24.333
1276.41	73.9736
1279.78	17.727
1283.16	73.6035
1286.53	63.0283
1289.91	71.4077
1293.28	14.0801
1296.65	51.9717
1300.03	36.3227
1303.4	5.80469
1306.78	32.4219
1310.15	25.8477
