Measurement: Raman, 785 nm, unoriented, Raman Data Processed
Mineral: Birnessite
Rruff sample: R060918
Ideal chemistry: (Na,Ca,K)_0.6_(Mn^4+^,Mn^3+^)_2_O_4_1.5H_2_O
Locality: Mont Saint-Hilaire, Rouville County, Quebec, Canada
Source: Royal Ontario Museum
Description: Dark brown coating over a serandite crystal. Serandite verified by X-ray diffraction.
Raman shift (cm-1)	intensity
89.7077	0
93.0825	41.7037
96.4573	99.9703
99.8321	208.104
103.207	249.242
106.582	390.638
109.957	244.323
113.331	114.886
116.706	3.67685
120.081	119.287
123.456	66.3467
126.831	361.289
130.206	683.154
133.58	435.877
136.955	280.431
140.33	591.571
143.705	1175.41
147.08	1668.54
150.454	1779.47
153.829	1592.01
157.204	1549.47
160.579	1651.53
163.954	1792.73
167.328	1878.68
170.703	1827.81
174.078	1528.95
177.453	1233.18
180.828	1040.6
184.203	902.007
187.577	796.671
190.952	738.332
194.327	701.529
197.702	711.853
201.077	709.388
204.452	684.075
207.826	615.685
211.201	635.997
214.576	656.2
217.951	669.212
221.326	766.759
224.7	839.363
228.075	987.023
231.45	1213.26
234.825	1442.97
238.2	1644.72
241.575	1783.19
244.949	1837.25
248.324	1793.56
251.699	1881.05
255.074	2012.73
258.449	2012.94
261.823	1891.16
265.198	1452.66
268.573	1015.89
271.948	661.196
275.323	379.006
278.697	234.332
282.072	116.86
285.447	78.3352
288.822	1.88086
292.197	9.37451
295.572	49.4385
298.946	8.14404
302.321	20.5623
305.696	16.8145
309.071	27.9089
312.446	38.5166
315.82	20.262
319.195	42.6824
322.57	5.59619
325.945	32.6909
329.32	102.879
332.695	144.169
336.069	193.592
339.444	200.913
342.819	290.973
346.194	306.865
349.569	427.898
352.943	422.066
356.318	478.004
359.693	517.183
363.068	511.326
366.443	559.965
369.817	570.527
373.192	647.045
376.567	669.485
379.942	610.997
383.317	709.074
386.692	701.733
390.066	718.231
393.441	713.898
396.816	677.47
400.191	561.007
403.566	519.373
406.94	494.197
410.315	571.489
413.69	593.789
417.065	663.964
420.44	662.324
423.815	636.244
427.189	512.011
430.564	388.129
433.939	231.796
437.314	126.891
440.689	59.9751
444.063	24.4414
447.438	16.1755
450.813	5.46338
454.188	41.3667
457.563	64.0437
460.938	110.138
464.312	222.549
467.687	242.339
471.062	300.767
474.437	305.776
477.812	332.717
481.187	334.02
484.561	331.242
487.936	347.41
491.311	300.813
494.686	246.372
498.061	234.004
501.435	177.16
504.81	183
508.185	129.599
511.56	116.294
514.935	92.425
518.309	69.5027
521.684	4.98193
525.059	35.0469
528.434	3.02148
531.809	9.1189
535.184	8.52832
538.558	92.0164
541.933	158.282
545.308	254.048
548.683	429.669
552.058	535.685
555.433	521.547
558.807	460.853
562.182	404.741
565.557	280.73
568.932	128.939
572.307	75.1875
575.681	17.1331
579.056	7.15649
582.431	46.831
585.806	43.1174
589.181	57.0862
592.556	34.0015
595.93	7.80151
599.305	85.9988
602.68	102.845
606.055	185.597
609.43	208.236
612.804	329.723
616.179	451.519
619.554	601.362
622.929	803.664
626.304	971.683
629.678	1207.24
633.053	1365.8
636.428	1620.51
639.803	1897.26
643.178	2238.98
646.553	2738.64
649.927	3367.53
653.302	3817.26
656.677	3654.4
660.052	2973.39
663.427	2206.7
666.802	1656.65
670.176	1207.33
673.551	1022.88
676.926	940.494
680.301	905.464
683.676	954.231
687.05	976.013
690.425	1111.05
693.8	1139.24
697.175	1159.9
700.55	1144.78
703.924	1076.88
707.299	1017.64
710.674	1015.6
714.049	912.311
717.424	804.539
720.798	670.781
724.173	584.489
727.548	393.69
730.923	265.634
734.298	117.915
737.673	72.6255
741.047	5.07251
744.422	56.6558
747.797	29.2488
751.172	11.0832
754.547	1.45606
757.922	11.3332
761.296	29.6438
764.671	40.9302
768.046	58.1289
771.421	108.869
774.796	122.383
778.17	134.082
781.545	174.405
784.92	183.48
788.295	212.872
791.67	233.068
795.044	231.385
798.419	150.533
801.794	104.731
805.169	104.832
808.544	47.9678
811.919	66.8936
815.293	38.7454
818.668	0.380615
822.043	1.56103
825.418	0.623779
828.793	50.479
832.168	0.065918
835.542	25.8027
838.917	9.88623
842.292	41.4077
845.667	49.1379
849.042	68.0828
852.416	122.882
855.791	167.405
859.166	214.541
862.541	266.898
865.916	378.525
869.29	449.479
872.665	570.495
876.04	699.833
879.415	844.785
882.79	909.597
886.165	1021.04
889.539	1129.45
892.914	1226.49
896.289	1385.2
899.664	1513.91
903.039	1719.76
906.413	1848.34
909.788	1982.24
913.163	2099.11
916.538	2102.85
919.913	2097.42
923.288	2060.72
926.662	2042.06
930.037	2056.52
933.412	1987.55
936.787	1873.63
940.162	1708.11
943.537	1457.69
946.911	1247
950.286	1068.48
953.661	871.023
957.036	684.226
960.411	523.933
963.785	356.784
967.16	293.461
970.535	144.773
973.91	154.211
977.285	86.489
980.659	19.0591
984.034	3.30762
987.409	11.9553
990.784	63.9266
994.159	75.0072
997.534	36.416
1000.91	200.574
1004.28	200.858
1007.66	59.4425
1011.03	95.2073
1014.41	150.874
1017.78	197.196
1021.16	239.274
1024.53	241.104
1027.91	306.185
1031.28	329.52
1034.66	298.648
1038.03	322.533
1041.41	272.952
1044.78	266.184
1048.16	215.454
1051.53	160.56
1054.9	93.0044
1058.28	69.139
1061.65	74.2518
1065.03	48.9231
1068.4	49.8257
1071.78	63.7706
1075.15	31.3711
1078.53	73.276
1081.9	60.7772
1085.28	82.9908
1088.65	86.3191
1092.03	85.3679
1095.4	111.383
1098.78	48.2803
1102.15	50.6703
1105.53	10.9397
1108.9	18.1798
1112.28	10.6528
1115.65	6.69482
1119.03	1.33899
1122.4	13.1925
1125.78	10.7451
1129.15	15.8491
1132.53	32.3315
1135.9	32.2443
1139.28	35.4617
1142.65	7.27759
1146.03	4.67761
1149.4	11.6727
1152.78	30.5638
1156.15	46.2301
1159.53	23.6058
1162.9	55.3051
1166.27	52.7185
1169.65	26.719
1173.02	57.4514
1176.4	32.9918
1179.77	50.9681
1183.15	31.0533
1186.52	47.5411
1189.9	41.2894
1193.27	41.0446
1196.65	67.5039
1200.02	45.5033
1203.4	46.7745
1206.77	10.8658
1210.15	53.1371
1213.52	36.3477
1216.9	79.9924
1220.27	47.5621
1223.65	53.3529
1227.02	66.832
1230.4	45.657
1233.77	57.4412
1237.15	50.3684
1240.52	22.9132
1243.89	60.5159
1247.27	50.4888
1250.64	58.1821
1254.02	40.7201
1257.39	46.978
1260.77	27.0892
1264.14	21.8198
1267.52	5.61011
