Measurement: Raman, 532 nm, unoriented, Raman Data Processed
Mineral: Birnessite
Rruff sample: R060918
Ideal chemistry: (Na,Ca,K)_0.6_(Mn^4+^,Mn^3+^)_2_O_4_1.5H_2_O
Locality: Mont Saint-Hilaire, Rouville County, Quebec, Canada
Source: Royal Ontario Museum
Description: Dark brown coating over a serandite crystal. Serandite verified by X-ray diffraction.
Raman shift (cm-1)	intensity
127.308	0
130.201	41.8145
133.094	9.10767
135.987	48.8425
138.879	126.923
141.772	152.429
144.665	166.977
147.557	151.221
150.45	91.092
153.343	92.3726
156.235	168.027
159.128	137.679
162.021	272.956
164.913	231.118
167.806	170.205
170.699	148.229
173.592	133.736
176.484	68.9531
179.377	88.9419
182.27	48.9973
185.162	57.2434
188.055	28.1352
190.948	10.9207
193.84	2.14941
196.733	25.3377
199.626	3.60303
202.519	61.113
205.411	77.7598
208.304	111.208
211.197	115.695
214.089	138.503
216.982	160.987
219.875	214.381
222.767	255.536
225.66	311.611
228.553	415.41
231.446	521.121
234.338	649.159
237.231	656.609
240.124	818.448
243.016	928.967
245.909	973.036
248.802	1052.67
251.694	1125.77
254.587	1152.45
257.48	1153.49
260.373	1107.79
263.265	935.111
266.158	758.679
269.051	570.109
271.943	411.469
274.836	289.356
277.729	194.194
280.621	135.553
283.514	63.2249
286.407	55.2808
289.3	62.3245
292.192	22.3123
295.085	17.3818
297.978	20.4902
300.87	43.5415
303.763	19.9895
306.656	48.0027
309.548	57.4128
312.441	13.6418
315.334	13.1797
318.226	42.9751
321.119	17.6028
324.012	1.73657
326.904	1.12647
329.797	37.4265
332.69	29.9858
335.583	52.031
338.475	70.4788
341.368	140.517
344.261	101.08
347.153	142.566
350.046	196.666
352.939	205.317
355.832	269.324
358.724	315.416
361.617	289.783
364.51	286.024
367.402	318.955
370.295	323.336
373.188	330.925
376.08	326.257
378.973	294.599
381.866	320.132
384.759	343.695
387.651	339.59
390.544	324.192
393.437	334.897
396.329	325.745
399.222	314.477
402.115	310.019
405.007	327.849
407.9	336.41
410.793	397.872
413.685	355.757
416.578	410.701
419.471	435.867
422.364	421.05
425.256	387.684
428.149	299.346
431.042	235.913
433.934	179.355
436.827	117.116
439.72	71.2784
442.612	46.7546
445.505	5.91162
448.398	9.80151
451.291	4.06311
454.183	5.81189
457.076	59.5189
459.969	39.3339
462.861	63.9186
465.754	91.9048
468.647	90.0269
471.539	149.654
474.432	158.271
477.325	173.364
480.217	165.237
483.11	181.513
486.003	195.239
488.896	148.1
491.788	145.466
494.681	115.758
497.574	133.778
500.466	110.713
503.359	101.931
506.252	65.985
509.144	67.1493
512.037	42.6063
514.93	55.4941
517.823	8.8197
520.715	3.54126
523.608	0.573853
526.501	17.4213
529.393	15.1326
532.286	15.4852
535.179	7.33679
538.072	15.9399
540.964	43.6523
543.857	103.672
546.75	104.146
549.642	209.938
552.535	195.567
555.428	224.805
558.32	192.317
561.213	145.397
564.106	179.21
566.998	78.7751
569.891	69.1802
572.784	31.0222
575.677	3.28565
578.569	17.1706
581.462	23.7087
584.355	34.2524
587.247	7.13037
590.14	11.6838
593.033	14.5078
595.925	26.6484
598.818	31.3748
601.711	96.9978
604.604	99.6697
607.496	188.968
610.389	234.622
613.282	314.042
616.174	429.29
619.067	519.594
621.96	597.049
624.852	723.389
627.745	834.336
630.638	921.177
633.53	926.939
636.423	934.74
639.316	1040.33
642.209	1137.92
645.101	1308.62
647.994	1420.01
650.887	1694.44
653.779	1687.94
656.672	1537.56
659.565	1328.54
662.457	969.279
665.35	795.569
668.243	649.135
671.135	527.909
674.028	457.387
676.921	373.151
679.814	428.455
682.706	386.504
685.599	445.764
688.492	436.543
691.384	484.938
694.277	463.593
697.17	472.515
700.062	517.537
702.955	485.731
705.848	445.589
708.741	449.5
711.633	399.383
714.526	384.888
717.419	370.273
720.311	293.761
723.204	247.553
726.097	157.805
728.99	116.494
731.882	78.3938
734.775	24.6521
737.668	26.8933
740.56	44.3313
743.453	0.02832
746.346	11.1934
749.238	5.72461
752.131	0.40332
755.024	20.1514
757.916	9.14136
760.809	25.1494
763.702	28.9924
766.595	4.93652
769.487	26.3789
772.38	28.7288
775.273	75.7739
778.165	81.6543
781.058	96.4932
783.951	99.5203
786.843	132.394
789.736	142.522
792.629	133.513
795.521	203.46
798.414	182.124
801.307	141.332
804.2	146.001
807.092	84.9492
809.985	78.5503
812.878	71.0066
815.77	40.1477
818.663	23.0405
821.556	6.61548
824.448	8.35107
827.341	3.93848
830.234	45.8674
833.127	33.0176
836.019	14.7602
838.912	19.2974
841.805	38.4172
844.697	30.7568
847.59	71.1487
850.483	72.6968
853.375	107.789
856.268	160.135
859.161	195.546
862.053	252.092
864.946	332.995
867.839	419.015
870.732	480.529
873.624	634.132
876.517	742.878
879.41	888.819
882.302	1011.61
885.195	1092.24
888.088	1213.08
890.981	1328.66
893.873	1453.46
896.766	1684.12
899.659	1687.42
902.551	1877.13
905.444	1996.3
908.337	2155.81
911.229	2264.55
914.122	2343.71
917.015	2338.04
919.908	2370.23
922.8	2371.82
925.693	2356.56
928.586	2316.46
931.478	2287.51
934.371	2153.49
937.264	2019.05
940.156	1831.19
943.049	1625.25
945.942	1445.17
948.835	1187.67
951.727	1042.82
954.62	840.267
957.513	639.604
960.405	493.949
963.298	392.596
966.191	298.527
969.083	178.551
971.976	113.67
974.869	65.4756
977.761	31.0557
980.654	21.4026
983.547	29.571
986.439	49.073
989.332	35.9722
992.225	23.7883
995.118	60.4626
998.01	181.931
1000.9	367.05
1003.8	464.802
1006.69	111.385
1009.58	63.303
1012.47	82.8769
1015.37	204.439
1018.26	225.734
1021.15	323.696
1024.05	371.349
1026.94	428.026
1029.83	408.675
1032.72	372.538
1035.62	360.605
1038.51	348.467
1041.4	336.759
1044.29	284.253
1047.19	209.95
1050.08	138.586
1052.97	133.303
1055.86	78.3096
1058.76	49.4822
1061.65	59.8726
1064.54	4.8656
1067.43	26.7138
1070.33	3.9657
1073.22	17.8077
1076.11	1.2887
1079.01	39.6704
1081.9	27.6919
1084.79	34.3126
1087.68	52.5713
1090.58	55.1091
1093.47	109.618
1096.36	47.0887
1099.26	37.6511
1102.15	47.3929
1105.04	62.4209
1107.93	26.8484
1110.83	91.5245
1113.72	38.0751
1116.61	54.6477
1119.5	71.6362
1122.4	69.2802
1125.29	85.8513
1128.18	100.658
1131.07	119.213
1133.97	116.315
1136.86	78.7095
1139.75	64.1672
1142.64	71.9519
1145.54	47.5979
1148.43	2.28955
1151.32	23.3257
1154.22	17.3579
1157.11	54.8408
1160	1.60779
1162.89	6.9303
1165.79	14.498
1168.68	18.8483
1171.57	3.36707
1174.46	15.2358
1177.36	7.02869
1180.25	32.7593
1183.14	30.8939
1186.04	91.4304
1188.93	75.3311
1191.82	39.2994
1194.71	54.3667
1197.61	31.1727
1200.5	32.0245
1203.39	69.5735
1206.29	44.8624
1209.18	47.9187
1212.07	65.9498
1214.96	86.6834
1217.86	63.1195
1220.75	25.3258
1223.64	44.2118
1226.53	4.37097
1229.43	8.27979
1232.32	55.5913
1235.21	45.0701
1238.1	38.3402
1241	38.6426
1243.89	22.4126
1246.78	50.9601
1249.67	14.4633
1252.57	54.6843
1255.46	37.292
1258.35	30.6415
1261.25	42.6825
1264.14	79.4477
1267.03	37.954
1269.92	65.3661
1272.82	58.1791
1275.71	69.7546
1278.6	54.7228
1281.49	8.97131
