Measurement: Raman, 785 nm, unoriented, Raman Data Processed
Mineral: Bismite
Rruff sample: R070185
Ideal chemistry: Bi_2_O_3_
Locality: Berezovskii, Ekaterinberg, Sverdlovskaya Oblast', Ural Region, Russia
Source: Michael Scott
Description: Pale green prismatic crystals embedded in quartz
Raman shift (cm-1)	intensity
163.254	0
166.147	243.068
169.039	324.922
171.932	394.735
174.825	152.469
177.717	5.33106
180.61	6.41211
183.503	38.417
186.395	194.81
189.288	197.806
192.181	345.424
195.074	363.773
197.966	289.287
200.859	341.222
203.752	240.883
206.644	209.523
209.537	130.19
212.43	60.9717
215.322	62.2637
218.215	15.706
221.108	28.207
224.001	58.0859
226.893	85.9844
229.786	178.4
232.679	205.143
235.571	202.84
238.464	159.409
241.357	200.207
244.25	173.06
247.142	204.175
250.035	214.615
252.928	89.3525
255.82	112.077
258.713	230.095
261.606	110.697
264.498	138.922
267.391	135.394
270.284	130.921
273.176	101.474
276.069	47.2471
278.962	53.2861
281.855	50.5615
284.747	3.30566
287.64	46.0742
290.533	122.453
293.425	125.924
296.318	182.953
299.211	305.019
302.103	392.235
304.996	515.946
307.889	671.268
310.781	757.904
313.674	768.712
316.567	733.383
319.46	705.672
322.352	614.902
325.245	629.271
328.138	550.47
331.03	552.895
333.923	492.376
336.816	399.326
339.709	378.845
342.601	216.825
345.494	204.564
348.387	171.606
351.279	258.188
354.172	221.347
357.065	243.24
359.957	233.579
362.85	287.344
365.743	391.924
368.635	373.922
371.528	425.062
374.421	409.197
377.314	414.147
380.206	438.624
383.099	496.847
385.992	431.415
388.884	395.352
391.777	384.594
394.67	375.67
397.562	384.833
400.455	298.42
403.348	318.08
406.241	252.173
409.133	169.595
412.026	135.933
414.919	85.0234
417.811	103.343
420.704	54.2148
423.597	64.5352
426.49	1.55176
429.382	35.3662
432.275	23.0244
435.168	52.4326
438.06	7.90234
440.953	16.4346
443.846	29.2783
446.738	25.4717
449.631	11.4707
452.524	1.89941
455.416	44.874
458.309	53.8252
461.202	110.265
464.095	65.5293
466.987	90.1611
469.88	122.491
472.773	207.315
475.665	160.816
478.558	176.517
481.451	183.398
484.344	207.284
487.236	224.574
490.129	245.944
493.022	300.588
495.914	292.397
498.807	270.387
501.7	246.283
504.592	302.69
507.485	284.736
510.378	274.859
513.27	199.565
516.163	195.895
519.056	136.826
521.949	110.371
524.841	76.353
527.734	135.837
530.627	61.251
533.519	8.87646
536.412	101.939
539.305	78.0132
542.197	119.335
545.09	101.914
547.983	147.027
550.875	106.256
553.768	118.809
556.661	104.36
559.554	90.5342
562.446	139.912
565.339	75.0806
568.232	71.0229
571.125	13.29
574.017	38.9805
576.91	13.4731
579.803	2.29492
582.695	16.3525
585.588	7.43896
588.481	70.7324
591.373	4.01514
594.266	13.0869
597.159	49.0376
600.052	44.2861
602.944	89.9585
605.837	76.8877
608.73	138.958
611.622	122.774
614.515	50.3789
617.408	74.4258
620.3	91.3037
623.193	127.866
626.086	132.828
628.979	91.0039
631.871	69.3394
634.764	79.6489
637.657	37.6191
640.549	42.5737
643.442	15.5215
646.335	93.2134
649.227	0.193848
652.12	92.4082
655.013	95.6333
657.905	172.778
660.798	171.248
663.691	268.836
666.584	235.12
669.476	194.365
672.369	96.0566
675.262	95.9102
678.154	69.3169
681.047	68.4761
683.94	27.2378
686.832	72.0713
689.725	81.9341
692.618	83.8159
695.511	70.2353
698.403	94.6006
701.296	55.9019
704.189	77.0234
707.081	8.25537
709.974	47.8496
712.867	0.714355
715.76	4
718.652	26.4717
721.545	12.3838
724.438	13.6274
727.33	6.08594
730.223	28.5855
733.116	23.6494
736.008	10.7769
738.901	7.72119
741.794	3.125
744.687	65.9048
747.579	68.3438
750.472	153.724
753.365	185.093
756.257	323.371
759.15	323.862
762.043	341.431
764.935	429.351
767.828	413.794
770.721	480.572
773.613	421.191
776.506	457.812
779.399	499.972
782.292	574.143
785.184	667.402
788.077	832.954
790.97	1025.68
793.862	1343.65
796.755	1766.04
799.648	2399.27
802.54	3185
805.433	3750.05
808.326	3967.43
811.218	3671.33
814.111	3158.57
817.004	2448.74
819.897	1826.07
822.789	1313.56
825.682	956.317
828.575	762.805
831.467	563.626
834.36	440.962
837.253	391.412
840.145	358.489
843.038	323.602
845.931	292.317
848.824	257.651
851.716	239.105
854.609	79.3311
857.502	99.2949
860.394	95.0342
863.287	84.6118
866.18	46.353
869.072	70.3091
871.965	79.9394
874.858	35.2339
877.751	64.6875
880.643	22.2705
883.536	21.1977
886.429	27.9946
889.321	5.52441
892.214	10.9712
895.107	15.1245
898	18.5454
900.892	28.1875
903.785	15.044
906.678	5.63086
909.57	39.2568
912.463	34.1914
915.356	19.5864
918.248	64.2773
921.141	0.404785
924.034	60.1509
926.927	36.9756
929.819	25.7998
932.712	96.8164
935.605	27.1753
938.497	96.084
941.39	123.301
944.283	74.957
947.175	88.4097
950.068	147.606
952.961	217.338
955.854	213.898
958.746	286.434
961.639	261.026
964.532	313.713
967.424	348.05
970.317	319.437
973.21	297.647
976.102	280.504
978.995	180.21
981.888	177.122
984.78	163.91
987.673	161.298
990.566	114.897
993.459	61.0835
996.351	120.215
999.244	83.501
1002.14	113.787
1005.03	15.4922
1007.92	49.3252
1010.82	13.8916
1013.71	30.9507
1016.6	13.7861
1019.49	7.62891
1022.39	13.6006
1025.28	5.37695
1028.17	56.6577
1031.06	57.2022
1033.96	64.0933
1036.85	18.5791
1039.74	58.6489
1042.63	87.438
1045.53	148.602
1048.42	155.954
1051.31	156.782
1054.2	243.126
1057.1	442.946
1059.99	700.1
1062.88	1059.04
1065.78	1352.76
1068.67	1313.22
1071.56	947.054
1074.45	625.438
1077.35	375.041
1080.24	300.3
1083.13	145.666
1086.03	72.7661
1088.92	92.8887
1091.81	40.0815
1094.7	42.5483
1097.6	12.0845
1100.49	10.0806
1103.38	19.6494
1106.27	73.2808
1109.17	54.1611
1112.06	1.9834
1114.95	63.4512
1117.85	89.4512
1120.74	14.085
1123.63	26.5645
1126.52	1.50098
1129.41	14.7461
1132.31	9.82812
1135.2	45.0249
1138.09	90.0791
1140.99	12.3408
1143.88	19.5645
1146.77	21.4868
1149.66	48.4312
1152.56	59.3198
1155.45	63.2803
1158.34	38.9136
1161.23	36.3374
1164.13	18.9355
1167.02	33.3657
1169.91	11.0381
1172.81	17.7524
1175.7	38.5845
1178.59	15.3218
1181.48	13.6484
1184.38	28.8491
1187.27	49.9815
1190.16	33.8633
1193.06	17.333
1195.95	63.1592
1198.84	56.813
1201.73	51.5649
1204.63	20.8306
1207.52	8.88721
1210.41	5.9624
1213.3	29.6084
1216.2	60.7798
1219.09	38.1773
1221.98	48.2192
1224.88	55.897
1227.77	11.2573
1230.66	37.0659
1233.55	12.9331
