Measurement: Raman, 532 nm, unoriented, Raman Data Processed
Mineral: Bismoclite
Rruff sample: R100197
Ideal chemistry: BiOCl
Locality: El Guanaco Mine, Guanaco (Huanaco), Santa Catalina, Antofagasta Province, Antofagasta Region, Chile
Source: Bob Jenkins
Description: Unconsolidated colorless fragments and tabular crystals (DESCRIPTION IS WRONG.)
Raman shift (cm-1)	intensity
159.496	0
162.388	2.53824
165.281	1.87405
168.174	11.5613
171.067	18.204
173.959	22.8808
176.852	24.7046
179.745	27.7922
182.637	40.8274
185.53	57.8978
188.423	73.5139
191.315	88.6933
194.208	108.986
197.101	136.499
199.994	171.64
202.886	160.068
205.779	76.8153
208.672	33.5665
211.565	18.9403
214.457	11.4981
217.35	8.73199
220.243	4.59786
223.135	7.13734
226.028	2.99168
228.921	1.05518
231.813	2.74641
234.706	0.524506
237.599	1.79469
240.492	1.20952
243.384	1.74737
246.277	1.55531
249.17	0.085999
252.062	5.62829
254.955	1.69751
257.848	3.31719
260.74	7.79675
263.633	2.87297
266.526	3.03052
269.418	4.00238
272.311	3.54588
275.204	3.7415
278.097	3.31407
280.989	2.5098
283.882	2.93777
286.775	3.89478
289.667	2.86334
292.56	2.74364
295.453	2.63411
298.346	2.19216
301.238	0.541748
304.131	0.146797
307.024	2.12671
309.916	0.235756
312.809	0.412384
315.702	3.49032
318.594	1.63681
321.487	2.64346
324.38	2.5872
327.273	1.7579
330.165	1.88394
333.058	1.92265
335.951	1.7442
338.843	0.088013
341.736	2.04095
344.629	2.74542
347.522	0.744873
350.414	1.59386
353.307	1.18239
356.2	4.94701
359.092	3.35852
361.985	4.16679
364.878	2.13078
367.77	3.0968
370.663	6.218
373.556	4.49986
376.449	6.90451
379.341	11.0916
382.234	11.409
385.127	13.4292
388.019	18.1541
390.912	20.5293
393.805	22.7531
396.697	24.0129
399.59	23.1271
402.483	15.4314
405.376	14.1672
408.268	13.1079
411.161	7.27774
414.054	4.7686
416.946	7.89876
419.839	3.10902
422.732	1.72717
425.625	0.991867
428.517	3.45784
431.41	4.25455
434.303	2.74727
437.195	2.30083
440.088	4.21529
442.981	4.05531
445.873	2.24208
448.766	3.07947
451.659	2.36456
454.551	1.27464
457.444	1.16539
460.337	0.765594
463.23	3.161
466.122	0.732437
469.015	0.951981
471.908	0.8022
474.8	1.31192
477.693	1.49551
480.586	1.00783
483.479	1.67159
486.371	2.54907
489.264	5.13072
492.157	4.16449
495.049	4.2365
497.942	4.38051
500.835	0.446487
503.728	6.04628
506.62	4.55257
509.513	5.21612
512.406	4.80527
515.298	4.32236
518.191	1.65913
521.084	3.49083
523.976	0.149063
526.869	2.27997
529.762	2.9491
532.654	0.099228
535.547	0.465042
538.44	0.939987
541.333	0.095032
544.225	3.25011
547.118	0.260468
550.011	2.67143
552.903	2.5657
555.796	2.2066
558.689	0.186768
561.582	2.30595
564.474	2.78047
567.367	1.89505
570.26	5.33946
573.152	0.170898
576.045	4.41007
578.938	3.60663
581.83	0.277939
584.723	1.31316
587.616	2.46079
590.509	2.17157
593.401	2.70462
596.294	0.401047
599.187	4.33427
602.079	3.5154
604.972	2.4906
607.865	2.1985
610.758	0.843857
613.65	1.08725
616.543	4.21487
619.436	4.18837
622.328	0.071976
625.221	5.13711
628.114	0.964722
631.006	1.99409
633.899	1.88171
636.792	2.57347
639.684	1.58148
642.577	2.1696
645.47	2.18712
648.363	2.66107
651.255	0.949112
654.148	2.94157
657.041	0.807541
659.933	2.00063
662.826	3.00229
665.719	0.85141
668.612	3.3402
671.504	2.39386
674.397	2.81317
677.29	2.00113
680.182	1.64606
683.075	2.92067
685.968	0.180923
688.861	3.31021
691.753	1.89658
694.646	0.397095
697.539	2.84796
700.431	1.08798
703.324	1.74045
706.217	2.39249
709.109	1.42439
712.002	1.17093
714.895	2.98676
717.788	0.698593
720.68	4.59699
723.573	1.36554
726.466	0.029114
729.358	0.36673
732.251	0.194977
735.144	0.03186
738.036	2.72279
740.929	0.835495
743.822	0.879868
746.715	0.166519
749.607	0.06749
752.5	2.01317
755.393	0.709747
758.285	2.02966
761.178	2.61208
764.071	3.52696
766.963	2.80164
769.856	0.858673
772.749	1.56932
775.642	3.32524
778.534	1.11934
781.427	1.48357
784.32	3.03821
787.212	2.91196
790.105	3.92355
792.998	1.51004
795.89	1.96953
798.783	2.62711
801.676	2.80974
804.569	1.64818
807.461	3.80826
810.354	3.86256
813.247	1.85466
816.139	0.46077
819.032	2.32423
821.925	3.08453
824.818	3.00005
827.71	1.82082
830.603	2.77866
833.496	2.55614
836.388	4.12549
839.281	1.35457
842.174	1.61568
845.067	3.12991
847.959	0.514542
850.852	2.9305
853.745	3.0231
856.637	1.4317
859.53	2.39291
862.423	2.68556
865.315	0.920135
868.208	3.67737
871.101	2.76268
873.994	2.80724
876.886	3.44871
879.779	2.09201
882.672	2.13806
885.564	1.98369
888.457	1.78876
891.35	3.37712
894.242	0.223373
897.135	1.21568
900.028	2.5679
902.92	0.43161
905.813	2.40762
908.706	3.41745
911.599	1.23271
914.491	1.81075
917.384	0.140656
920.277	2.74164
923.169	1.09488
926.062	2.1819
928.955	2.95966
931.847	3.48076
934.74	2.39333
937.633	0.086075
940.526	0.573669
943.418	0.46843
946.311	0.8013
949.204	0.138351
952.096	2.84343
954.989	1.13843
957.882	2.31302
960.775	1.50674
963.667	0.458511
966.56	3.00371
969.453	2.14844
972.345	4.51288
975.238	2.7025
978.131	4.31271
981.024	3.37347
983.916	3.1929
986.809	0.456482
989.702	1.97052
992.594	3.1304
995.487	4.28686
998.38	4.08322
1001.27	3.11587
1004.16	2.17026
1007.06	1.03728
1009.95	3.53388
1012.84	2.39264
1015.74	2.23236
1018.63	0.989731
1021.52	3.43034
1024.41	2.52766
1027.31	2.30902
1030.2	0.059891
1033.09	2.70024
1035.98	1.38336
1038.88	1.40303
1041.77	0.109543
1044.66	2.17914
1047.56	0.915924
1050.45	0.436981
1053.34	3.95499
1056.23	1.68697
1059.13	3.3764
1062.02	0.291672
1064.91	3.8028
1067.81	2.11522
1070.7	0.97998
1073.59	3.31725
1076.48	4.70831
1079.38	1.9557
1082.27	3.62389
1085.16	2.4415
1088.05	2.68248
1090.95	2.07924
1093.84	2.25247
1096.73	1.35553
1099.62	3.01054
1102.52	2.78557
1105.41	5.87819
1108.3	3.10541
1111.19	2.41328
1114.09	4.04167
1116.98	3.5318
1119.87	3.67696
1122.77	1.35043
1125.66	1.19478
1128.55	1.27148
1131.44	3.01057
1134.34	2.25324
1137.23	0.651108
1140.12	1.89952
1143.02	1.44537
1145.91	3.17481
1148.8	1.90579
1151.69	2.34659
1154.59	1.09549
1157.48	2.03346
1160.37	2.94084
1163.26	2.54666
1166.16	1.91542
1169.05	1.63535
1171.94	3.93451
1174.84	2.49017
1177.73	2.8342
1180.62	3.29719
1183.51	0.410675
1186.4	1.70187
1189.3	3.42273
1192.19	3.08446
1195.08	2.418
1197.98	2.72463
1200.87	5.10622
1203.76	2.34087
1206.65	4.0695
1209.55	5.04771
1212.44	2.29895
1215.33	1.63419
1218.22	1.81482
1221.12	2.18901
1224.01	1.80928
1226.9	2.00702
1229.8	4.32712
1232.69	1.90009
1235.58	2.79242
1238.47	0.650253
1241.37	3.6712
1244.26	1.136
1247.15	2.41359
1250.05	2.59909
1252.94	3.13191
1255.83	2.65051
1258.72	2.4637
1261.62	2.35613
1264.51	0.830978
1267.4	3.02071
1270.29	3.15404
1273.19	1.7794
1276.08	1.95056
1278.97	0.620621
1281.87	2.79959
1284.76	0.85849
