Measurement: Raman, 780 nm, unoriented, Raman Data Processed
Mineral: Bismutite
Rruff sample: R060665
Ideal chemistry: Bi_2_O_2_(CO_3_)
Locality: Ecuador, Rio Grande do Norte, Brazil
Source: Michael Scott
Description: Green massive, platy
Measured chemistry: lighter phase: (Bi_1.99_Sb_0.01_)_Σ=2_O_2_(CO_3_) ; darker phase: (Bi_1.98_Sb_0.02_)_Σ=2_O_2_(CO_3_) ; C not measured but estimated by difference and stoichiometry
Raman shift (cm-1)	intensity
96.3811	0
99.7559	44.9941
103.131	10.6489
106.505	12.2485
109.88	29.1606
113.255	70.0615
116.63	166.206
120.005	250.277
123.38	421.437
126.754	620.413
130.129	900.873
133.504	1280.54
136.879	1797.71
140.254	2437.41
143.629	3223.06
147.003	4163.87
150.378	5212.54
153.753	6267.72
157.128	7093.06
160.503	7482.17
163.877	7439.15
167.252	6884.8
170.627	5977.67
174.002	4846.37
177.377	3820.25
180.751	3046.44
184.126	2479.82
187.501	2061.44
190.876	1714.27
194.251	1463.98
197.625	1253.45
201	1093.1
204.375	929.413
207.75	774.393
211.125	640.046
214.5	510.562
217.874	415.688
221.249	328.423
224.624	251.331
227.999	178.847
231.374	130.582
234.749	78.8679
238.123	48.052
241.498	9.19165
244.873	8.00806
248.248	9.99194
251.623	23.053
254.997	29.344
258.372	30.7107
261.747	27.4036
265.122	17.0964
268.497	7.36157
271.872	3.021
275.246	12.7991
278.621	26.936
281.996	35.854
285.371	39.6738
288.745	45.52
292.12	58.9365
295.495	73.7095
298.87	78.8485
302.245	89.1011
305.62	95.8326
308.994	99.8823
312.369	95.2977
315.744	100.557
319.119	102.599
322.494	110.848
325.868	121.371
329.243	141.352
332.618	163.054
335.993	191.131
339.368	223.205
342.743	253.023
346.117	278.704
349.492	303.396
352.867	312.636
356.242	322.404
359.617	321.531
362.991	317.966
366.366	303.032
369.741	290.385
373.116	262.819
376.491	247.316
379.865	228.328
383.24	207.558
386.615	179.716
389.99	174.307
393.365	165.403
396.74	158.79
400.114	151.404
403.489	139.419
406.864	131.541
410.239	127.897
413.614	123.987
416.988	106.436
420.363	99.7264
423.738	88.6677
427.113	81.4225
430.488	68.4353
433.863	59.765
437.237	51.551
440.612	42.7906
443.987	33.8582
447.362	29.8124
450.737	14.671
454.111	9.40796
457.486	1.14636
460.861	6.88586
464.236	7.90918
467.611	13.2424
470.986	10.4137
474.36	7.18494
477.735	6.9314
481.11	0.834717
484.485	10.599
487.86	21.4539
491.234	28.9254
494.609	39.4154
497.984	47.2493
501.359	63.2847
504.734	63.4828
508.108	73.6938
511.483	81.8993
514.858	81.8883
518.233	79.4277
521.608	71.9023
524.982	72.833
528.357	66.339
531.732	57.7668
535.107	49.0335
538.482	40.3395
541.857	30.5023
545.231	28.2606
548.606	17.6945
551.981	20.1835
555.356	14.3633
558.731	9.56348
562.106	13.9389
565.48	9.6568
568.855	6.35998
572.23	4.36133
575.605	6.28796
578.98	6.60101
582.354	6.90076
585.729	9.86823
589.104	6.13751
592.479	7.65204
595.854	5.63532
599.229	10.2914
602.603	14.6909
605.978	17.5796
609.353	14.6862
612.728	23.1773
616.102	16.1909
619.477	11.7374
622.852	8.02881
626.227	4.81952
629.602	0.977417
632.977	0.255005
636.351	3.79163
639.726	2.13287
643.101	1.06
646.476	1.96143
649.851	5.79779
653.226	22.8679
656.6	48.8319
659.975	81.6916
663.35	136.99
666.725	217.716
670.1	224.332
673.474	108.89
676.849	41.3444
680.224	27.8903
683.599	28.3912
686.974	35.9158
690.348	42.5482
693.723	49.4827
697.098	37.3871
700.473	24.7916
703.848	12.1044
707.222	8.2674
710.597	10.1943
713.972	7.02795
717.347	8.33472
720.722	4.06818
724.097	1.38123
727.471	1.47247
730.846	1.89874
734.221	3.04578
737.596	0.266663
740.971	3.63977
744.346	1.47998
747.72	0.792908
751.095	3.37134
754.47	1.83179
757.845	3.25208
761.22	1.2594
764.594	1.97693
767.969	0.710327
771.344	0.11438
774.719	4.2475
778.094	7.02722
781.468	5.83002
784.843	4.21478
788.218	6.52496
791.593	9.78778
794.968	12.1627
798.342	14.4333
801.717	16.3114
805.092	18.5378
808.467	22.4905
811.842	23.8585
815.217	27.4729
818.591	31.8269
821.966	29.7203
825.341	33.2661
828.716	37.5588
832.091	37.7391
835.466	39.9318
838.84	42.5162
842.215	46.9679
845.59	54.803
848.965	67.5889
852.34	60.4271
855.714	46.115
859.089	37.0109
862.464	35.6083
865.839	32.3561
869.214	29.9655
872.588	27.145
875.963	24.502
879.338	21.8231
882.713	19.295
886.088	12.0972
889.462	11.6274
892.837	5.97217
896.212	3.30078
899.587	2.21845
902.962	0.203613
906.337	3.79645
909.711	1.80054
913.086	0.950134
916.461	1.14044
919.836	3.72797
923.211	0.259033
926.585	1.3739
929.96	0.052368
933.335	4.21631
936.71	10.7118
940.085	14.866
943.46	15.2508
946.834	20.1375
950.209	26.5201
953.584	29.4144
956.959	34.3735
960.334	42.431
963.708	46.1092
967.083	53.3893
970.458	59.0974
973.833	67.4863
977.208	73.6871
980.582	79.6279
983.957	89.1394
987.332	92.4814
990.707	97.7003
994.082	106.239
997.457	106.831
1000.83	92.8268
1004.21	71.3174
1007.58	45.4955
1010.96	29.3182
1014.33	20.1219
1017.71	9.88593
1021.08	4.14703
1024.45	3.20783
1027.83	0.26178
1031.2	0.668762
1034.58	3.99243
1037.95	9.99585
1041.33	19.7758
1044.7	29.6273
1048.08	53.9938
1051.45	92.4614
1054.83	164.438
1058.2	298.912
1061.58	508.681
1064.95	830.812
1068.33	1202.37
1071.7	1131.43
1075.08	514.164
1078.45	164.733
1081.83	56.859
1085.2	24.0056
1088.58	15.1933
1091.95	6.04504
1095.33	0.163818
1098.7	1.0484
1102.08	1.05725
1105.45	1.03571
1108.83	1.89044
1112.2	3.51556
1115.58	4.9187
1118.95	7.47864
1122.33	8.14856
1125.7	7.57092
1129.07	9.17346
1132.45	8.92517
1135.82	12.4708
1139.2	11.8547
1142.57	6.19147
1145.95	5.5321
1149.32	4.24103
1152.7	4.89337
1156.07	6.55658
1159.45	1.82324
1162.82	0.726746
1166.2	0.42218
1169.57	2.15888
1172.95	0.94342
1176.32	5.53058
1179.7	3.18726
1183.07	2.54333
1186.45	4.88336
1189.82	3.72553
1193.2	6.68665
1196.57	7.22131
1199.94	5.48163
1203.32	5.66376
1206.69	5.94128
1210.07	7.39111
1213.44	6.83081
1216.82	6.95203
1220.19	3.39923
1223.57	1.89673
1226.94	3.33417
1230.32	1.51904
1233.69	0.41095
1237.07	0.543457
1240.44	0.194946
1243.82	3.24786
1247.19	2.5484
1250.57	2.82721
1253.94	2.98297
1257.32	6.02411
1260.69	4.17877
1264.07	2.5177
1267.44	5.63965
1270.82	1.84155
1274.19	3.37219
1277.57	0.016541
1280.94	1.60626
1284.32	0.694397
