Measurement: Raman, 780 nm, unoriented, Raman Data Processed
Mineral: Bismoclite
Rruff sample: R100197
Ideal chemistry: BiOCl
Locality: El Guanaco Mine, Guanaco (Huanaco), Santa Catalina, Antofagasta Province, Antofagasta Region, Chile
Source: Bob Jenkins
Description: Unconsolidated colorless fragments and tabular crystals (DESCRIPTION IS WRONG.)
Raman shift (cm-1)	intensity
90.6055	0
93.9803	20.1147
97.3551	25.4969
100.73	6.34412
104.105	0.424805
107.48	0.790436
110.854	1.08884
114.229	5.71707
117.604	17.5083
120.979	48.2379
124.354	160.598
127.728	251.041
131.103	322.342
134.478	418.421
137.853	583.828
141.228	967.975
144.602	1338.68
147.977	753.004
151.352	325.39
154.727	128.276
158.102	75.9458
161.477	54.269
164.851	41.5068
168.226	36.2809
171.601	33.8829
174.976	41.4193
178.351	51.3226
181.726	72.9139
185.1	91.5456
188.475	117.67
191.85	149.914
195.225	201.227
198.6	263.025
201.974	238.167
205.349	103.327
208.724	45.2604
212.099	23.7128
215.474	15.1911
218.848	8.12366
222.223	4.97034
225.598	4.20148
228.973	0.921844
232.348	2.16949
235.722	2.36935
239.097	0.590363
242.472	2.2084
245.847	0.94519
249.222	2.03308
252.597	1.52853
255.971	0.240631
259.346	3.63699
262.721	1.67248
266.096	0.305664
269.471	3.78052
272.846	0.132721
276.22	1.09201
279.595	0.901581
282.97	0.947174
286.345	0.334961
289.719	5.31915
293.094	0.80722
296.469	2.20258
299.844	1.46344
303.219	1.08759
306.594	1.77689
309.968	3.62244
313.343	6.85162
316.718	1.83136
320.093	5.31369
323.468	5.78363
326.842	2.99054
330.217	2.38913
333.592	0.320251
336.967	5.9372
340.342	4.63809
343.717	5.40753
347.091	1.96841
350.466	2.74097
353.841	5.11475
357.216	5.52615
360.591	5.45187
363.965	1.0741
367.34	5.92545
370.715	9.32672
374.09	10.0052
377.465	13.7753
380.839	18.1934
384.214	20.8052
387.589	22.346
390.964	26.5948
394.339	33.031
397.714	27.7778
401.088	21.1586
404.463	17.6974
407.838	14.0717
411.213	9.35373
414.588	5.63843
417.962	3.53375
421.337	4.79568
424.712	3.07349
428.087	1.11026
431.462	0.557831
434.837	1.23404
438.211	3.31741
441.586	1.91415
444.961	1.35382
448.336	0.933868
451.711	4.06479
455.085	1.1272
458.46	1.8233
461.835	3.84515
465.21	1.02875
468.585	1.42224
471.959	0.730469
475.334	2.3808
478.709	1.47485
482.084	1.55258
485.459	1.56869
488.834	6.76205
492.208	0.925964
495.583	6.05005
498.958	3.33389
502.333	6.98517
505.708	4.23865
509.082	4.4978
512.457	3.44562
515.832	3.28705
519.207	4.72098
522.582	1.45935
525.957	4.17029
529.331	3.23758
532.706	1.51675
536.081	1.0762
539.456	1.78516
542.831	3.71439
546.205	1.5451
549.58	1.05145
552.955	3.13318
556.33	0.03064
559.705	1.35651
563.08	2.05035
566.454	3.00742
569.829	2.46423
573.204	5.66492
576.579	5.46347
579.954	2.81223
583.328	3.56003
586.703	3.56226
590.078	2.20874
593.453	1.15851
596.828	5.71188
600.202	2.69815
603.577	2.85687
606.952	2.38458
610.327	4.86789
613.702	5.04218
617.077	5.09235
620.451	1.2988
623.826	2.64151
627.201	1.36716
630.576	3.63196
633.951	5.16013
637.325	2.54764
640.7	3.83624
644.075	0.085754
647.45	1.23575
650.825	3.98245
654.199	3.50198
657.574	0.979126
660.949	2.99737
664.324	1.05051
667.699	0.485779
671.073	5.36951
674.448	2.16953
677.823	3.30838
681.198	4.03027
684.573	2.2966
687.948	2.01639
691.322	2.53558
694.697	3.0961
698.072	0.683746
701.447	3.23431
704.822	2.14883
708.197	4.94409
711.571	3.41269
714.946	3.35034
718.321	4.19873
721.696	4.96121
725.071	2.63162
728.445	1.52109
731.82	1.64948
735.195	1.32401
738.57	3.54843
741.945	1.9201
745.319	1.48468
748.694	3.83475
752.069	1.90262
755.444	0.097504
758.819	3.27161
762.193	2.22885
765.568	0.946777
768.943	0.616272
772.318	1.87125
775.693	2.30945
779.068	2.46603
782.442	4.89481
785.817	2.94434
789.192	0.063538
792.567	1.85367
795.942	1.42575
799.317	0.740723
802.691	1.6499
806.066	2.62176
809.441	3.83493
812.816	2.0347
816.191	3.05969
819.565	4.36417
822.94	3.11072
826.315	3.77808
829.69	3.13519
833.065	3.74875
836.439	0.123474
839.814	1.75726
843.189	1.81534
846.564	4.20087
849.939	4.66016
853.313	0.430756
856.688	2.52637
860.063	3.41507
863.438	2.7464
866.813	3.15509
870.188	4.08606
873.562	0.667419
876.937	1.0882
880.312	2.62686
883.687	4.76178
887.062	3.00226
890.437	1.77322
893.811	3.64053
897.186	0.088104
900.561	0.350952
903.936	1.30591
907.311	0.070267
910.685	0.199951
914.06	0.747086
917.435	2.70413
920.81	3.49944
924.185	0.927887
927.559	0.501923
930.934	3.98804
934.309	2.19095
937.684	2.72241
941.059	2.39064
944.433	3.66985
947.808	1.32495
951.183	3.4189
954.558	2.38133
957.933	2.86842
961.308	0.541168
964.682	2.33067
968.057	3.08275
971.432	1.81404
974.807	0.145264
978.182	1.90151
981.557	3.32954
984.931	2.22827
988.306	4.97682
991.681	2.65385
995.056	0.462158
998.431	0.196442
1001.8	0.857544
1005.18	2.13673
1008.55	1.17624
1011.93	4.04184
1015.3	2.12907
1018.68	0.720749
1022.05	3.28162
1025.43	2.54109
1028.8	0.569458
1032.18	2.565
1035.55	2.26808
1038.93	1.74074
1042.3	1.53775
1045.68	3.57344
1049.05	3.14821
1052.43	2.89354
1055.8	2.13565
1059.18	3.34969
1062.55	2.55363
1065.93	2.79742
1069.3	1.86372
1072.68	0.434723
1076.05	3.21381
1079.43	2.32121
1082.8	3.50957
1086.18	1.99193
1089.55	3.70331
1092.92	3.77683
1096.3	2.33224
1099.67	2.47636
1103.05	3.51328
1106.42	1.89969
1109.8	3.40424
1113.17	1.34819
1116.55	0.735764
1119.92	2.59296
1123.3	2.55206
1126.67	0.146744
1130.05	1.07524
1133.42	0.547745
1136.8	0.539642
1140.17	0.327484
1143.55	1.62004
1146.92	2.04849
1150.3	1.79393
1153.67	2.91603
1157.05	2.64978
1160.42	1.12036
1163.8	4.13966
1167.17	4.01656
1170.55	1.69928
1173.92	3.5448
1177.3	3.64302
1180.67	3.25848
1184.05	4.15918
1187.42	2.52345
1190.8	2.31459
1194.17	1.96666
1197.55	3.68535
1200.92	3.16159
1204.29	2.3911
1207.67	2.3371
1211.04	1.83611
1214.42	3.17841
1217.79	4.35362
1221.17	1.37825
1224.54	4.12692
1227.92	0.174927
1231.29	1.17572
1234.67	1.78123
1238.04	1.0981
1241.42	1.72472
1244.79	2.51109
1248.17	1.73321
1251.54	0.260117
1254.92	2.2068
1258.29	0.387817
1261.67	0.955185
1265.04	1.2049
1268.42	1.46597
1271.79	0.776382
1275.16	0.402466
1278.54	0.107635
1281.91	0.188751
