Measurement: Raman, 532 nm, unoriented, Raman Data Processed
Mineral: Bismutite
Rruff sample: R060665
Ideal chemistry: Bi_2_O_2_(CO_3_)
Locality: Ecuador, Rio Grande do Norte, Brazil
Source: Michael Scott
Description: Green massive, platy
Measured chemistry: lighter phase: (Bi_1.99_Sb_0.01_)_Σ=2_O_2_(CO_3_) ; darker phase: (Bi_1.98_Sb_0.02_)_Σ=2_O_2_(CO_3_) ; C not measured but estimated by difference and stoichiometry
Raman shift (cm-1)	intensity
108.988	0
111.881	3552.65
114.773	8519.11
117.666	15057.4
120.559	21429.6
123.451	25947.3
126.344	29117.3
129.237	32117.3
132.13	36833.5
135.022	43460.2
137.915	51625.3
140.808	60362.3
143.7	70624.6
146.593	82708.8
149.486	96348.5
152.378	109778
155.271	120518
158.164	128220
161.057	131852
163.949	128358
166.842	117334
169.735	101913
172.627	86788.7
175.52	74432.1
178.413	65119.6
181.305	58086.7
184.198	52702.4
187.091	48191
189.984	44328.7
192.876	40698.7
195.769	37674
198.662	34709.9
201.554	31879.7
204.447	29668.9
207.34	27330.1
210.232	24911.7
213.125	22854.6
216.018	20921.7
218.911	19230.4
221.803	17643.8
224.696	16215.6
227.589	14647.4
230.481	13467.4
233.374	12110.2
236.267	11016.8
239.159	9866.61
242.052	8825.38
244.945	7968.87
247.837	7336.88
250.73	6607.43
253.623	5782.08
256.516	5287.65
259.408	4772.9
262.301	4714.89
265.194	4341.34
268.086	3892.03
270.979	3606.99
273.872	3212.88
276.764	3166.7
279.657	2758.53
282.55	2785.31
285.443	2568.19
288.335	2292.03
291.228	2196.71
294.121	2072.22
297.013	1848.11
299.906	1703.5
302.799	1930.03
305.691	1955.08
308.584	1998.58
311.477	1883.36
314.37	2006.3
317.262	1993.36
320.155	2060.05
323.048	2437.92
325.94	2559.18
328.833	2972.85
331.726	3347.95
334.618	3567.37
337.511	3982.01
340.404	4510.91
343.297	4767.36
346.189	5078.59
349.082	5452.48
351.975	5694.08
354.867	5992.03
357.76	5978.53
360.653	5907.19
363.545	5902.28
366.438	5621.92
369.331	5577.02
372.224	5317.48
375.116	5141.94
378.009	4905.6
380.902	4628.77
383.794	4467.07
386.687	4462.04
389.58	4342.99
392.472	4196.64
395.365	3949.85
398.258	3812.31
401.151	3752.92
404.043	3575.67
406.936	3332.75
409.828	3149.88
412.721	2884.17
415.614	2696.97
418.507	2509.17
421.399	2289.08
424.292	1993.31
427.185	1754.33
430.077	1428.89
432.97	1301.51
435.863	1172.11
438.755	1034.03
441.648	839.294
444.541	680.957
447.434	616.826
450.326	307.65
453.219	177.551
456.112	44.17
459.004	85.534
461.897	230.524
464.79	149.584
467.682	413.326
470.575	300.805
473.468	390.011
476.361	310.913
479.253	282.503
482.146	279.094
485.039	71.412
487.931	139.697
490.824	37.522
493.717	215.934
496.609	349.848
499.502	429.675
502.395	533.72
505.288	672.9
508.18	801.379
511.073	846.646
513.966	873.546
516.858	967.733
519.751	980.107
522.644	1168.86
525.536	1046.66
528.429	1054.12
531.322	1030.96
534.214	972.338
537.107	924.464
540	802.326
542.893	758.935
545.785	666.573
548.678	505.229
551.571	389.351
554.463	271.096
557.356	137.682
560.249	4.688
563.141	13.565
566.034	71.285
568.927	138.159
571.82	141.276
574.712	233.366
577.605	211.86
580.498	272.831
583.39	215.966
586.283	204.188
589.176	206.319
592.068	216.951
594.961	128.73
597.854	146.898
600.747	161.442
603.639	69.234
606.532	89.86
609.425	53.819
612.317	88.562
615.21	177.53
618.103	242.086
620.995	313.553
623.888	222.693
626.781	298.472
629.674	330.454
632.566	456.748
635.459	376.224
638.352	425.647
641.244	359.337
644.137	302.061
647.03	36.371
649.922	240.353
652.815	861.826
655.708	1561.28
658.601	2647.94
661.493	3840.47
664.386	5028.65
667.279	5121.07
670.171	2820.03
673.064	1170.73
675.957	639.626
678.849	574.447
681.742	685.835
684.635	981.1
687.528	1357.67
690.42	1414.14
693.313	1260.91
696.206	919.8
699.098	658.291
701.991	394.04
704.884	252.208
707.776	69.153
710.669	32.121
713.562	24.498
716.455	76.763
719.347	28.777
722.24	88.841
725.133	119.527
728.025	100.674
730.918	145.716
733.811	149.694
736.703	157.145
739.596	142.027
742.489	117.674
745.381	54.922
748.274	83.496
751.167	172.53
754.06	196.592
756.952	179.687
759.845	186.913
762.738	155.359
765.63	179.939
768.523	157.424
771.416	102.554
774.308	134.051
777.201	142.289
780.094	99.473
782.987	49.265
785.879	31.291
788.772	8.029
791.665	5.855
794.557	117.859
797.45	126.858
800.343	218.856
803.235	268.981
806.128	337.522
809.021	355.106
811.914	442.166
814.806	481.041
817.699	545.758
820.592	673.36
823.484	648.376
826.377	690.496
829.27	857.27
832.162	842.062
835.055	949.087
837.948	1028.66
840.841	1278.8
843.733	1328.89
846.626	1432.6
849.519	1357.04
852.411	1020.37
855.304	876.257
858.197	757.989
861.089	745.15
863.982	702.762
866.875	558.076
869.767	518.703
872.66	406.111
875.553	338.286
878.445	334.179
881.338	208.738
884.231	167.296
887.124	145.197
890.016	132.895
892.909	100.204
895.802	93.343
898.694	39.075
901.587	2.53
904.48	42.721
907.372	29.734
910.265	17.839
913.158	1.639
916.051	73.166
918.943	11.104
921.836	94.704
924.729	193.322
927.621	272.74
930.514	335.358
933.407	324.832
936.299	401.268
939.192	510.369
942.085	597.714
944.977	635.287
947.87	750.663
950.763	908.938
953.656	1007.47
956.548	1080.97
959.441	1286.11
962.334	1501.11
965.226	1625.1
968.119	1711.34
971.012	1894.03
973.904	1892.36
976.797	2123.45
979.69	2107.08
982.583	2232.6
985.475	2275.68
988.368	2399.65
991.261	2487.22
994.153	2527.62
997.046	2517.35
999.939	2226.63
1002.83	1962.31
1005.72	1584.29
1008.62	1406.11
1011.51	1309.4
1014.4	1220.78
1017.29	1125.35
1020.19	1052.61
1023.08	1042.13
1025.97	1065.68
1028.87	1073.54
1031.76	1140.37
1034.65	1244.34
1037.54	1408.97
1040.44	1559.38
1043.33	1852.56
1046.22	2434.16
1049.12	3211.13
1052.01	4670.4
1054.9	7541.18
1057.79	11962.3
1060.68	18242.1
1063.58	25663.6
1066.47	30879.3
1069.36	26152.2
1072.26	13154.8
1075.15	5332.46
1078.04	2568.82
1080.93	1566.77
1083.83	1142.87
1086.72	914.665
1089.61	967.223
1092.51	665.003
1095.4	510.406
1098.29	524.749
1101.18	434.805
1104.08	454.593
1106.97	414.417
1109.86	301.043
1112.75	296.73
1115.65	357.4
1118.54	293.321
1121.43	249.263
1124.33	228.647
1127.22	279.213
1130.11	615.06
1133	295.221
1135.9	128.098
1138.79	128.052
1141.68	84.667
1144.57	79.356
1147.47	52.343
1150.36	6.863
1153.25	408.04
1156.14	88.31
1159.04	83.979
1161.93	106.865
1164.82	125.511
1167.71	142.851
1170.61	162.332
1173.5	200.561
1176.39	132.162
1179.29	167.151
1182.18	146.589
1185.07	114.357
1187.96	141.779
1190.86	100.675
1193.75	148.955
1196.64	136.362
1199.54	95.77
1202.43	135.311
1205.32	70.756
1208.21	75.829
1211.11	37.151
1214	58.955
1216.89	55.362
1219.78	67.515
1222.68	34.232
1225.57	46.751
1228.46	40.5
1231.36	3.215
1234.25	47.854
1237.14	15.749
1240.03	2.701
1242.92	3.768
1245.82	4.897
1248.71	2.611
1251.6	14.335
1254.5	0
