Measurement: Raman, 785 nm, unoriented, Raman Data Processed
Mineral: Bismuthinite
Rruff sample: R061077
Ideal chemistry: Bi_2_S_3_
Locality: Jersey mine, Salmo, British Columbia, Canada
Source: Lloyd Twaites
Description: Metallic grey prismatic single crystals
Raman shift (cm-1)	intensity
160.58	0
163.472	1.44531
166.365	75.9966
169.258	113.067
172.15	263.438
175.043	344.701
177.936	485.447
180.828	662.917
183.721	818.755
186.614	858.924
189.507	718.816
192.399	521.93
195.292	251.074
198.185	148.05
201.077	96.8521
203.97	65.2661
206.863	207.536
209.756	339.094
212.648	663.691
215.541	1041.66
218.434	1367.62
221.326	1811.64
224.219	2260.14
227.112	2813.89
230.004	3307.26
232.897	3691.32
235.79	3943.91
238.683	3922.53
241.575	3813.51
244.468	3560.53
247.361	3458.86
250.253	3368.93
253.146	3536.94
256.039	3596.53
258.931	3475.95
261.824	3057.03
264.717	2381.38
267.61	1853
270.502	1459.6
273.395	1135.4
276.288	905.015
279.18	745.904
282.073	552.028
284.966	381.338
287.858	272.775
290.751	223.977
293.644	189.182
296.536	151.387
299.429	98.0438
302.322	93.8953
305.215	79.9114
308.107	1.66443
311	17.4905
313.893	28.5021
316.785	25.4976
319.678	57.198
322.571	33.6715
325.464	5.92761
328.356	4.42419
331.249	0.245605
334.142	21.0612
337.034	40.6389
339.927	88.3574
342.82	52.7673
345.712	80.4381
348.605	118.06
351.498	101.277
354.39	106.225
357.283	96.6642
360.176	140.251
363.068	112.242
365.961	154.831
368.854	168.488
371.747	158.301
374.639	137.527
377.532	122.435
380.425	73.4044
383.317	93.6536
386.21	87.9209
389.103	80.4204
391.995	76.1896
394.888	48.5466
397.781	42.9451
400.674	41.8878
403.566	28.2466
406.459	44.2006
409.352	34.4836
412.244	30.2199
415.137	20.0602
418.03	29.1421
420.923	13.5199
423.815	2.19263
426.708	20.6868
429.601	5.40479
432.493	39.8966
435.386	5.94983
438.279	27.6755
441.171	5.81775
444.064	7.12756
446.957	6.53674
449.849	19.0591
452.742	0.157227
455.635	27.3094
458.528	18.2283
461.42	21.1204
464.313	12.5942
467.206	16.2599
470.098	28.8162
472.991	20.6626
475.884	33.9713
478.777	18.798
481.669	34.4414
484.562	14.4934
487.455	12.3925
490.347	14.7179
493.24	34.853
496.133	2.27618
499.025	18.321
501.918	9.50305
504.811	57.6492
507.704	35.0566
510.596	60.2109
513.489	44.9132
516.382	31.3895
519.274	62.1277
522.167	40.665
525.06	83.5384
527.952	65.8723
530.845	64.5579
533.738	65.1993
536.631	66.8519
539.523	60.4532
542.416	44.6178
545.309	14.1163
548.201	38.1811
551.094	57.6058
553.987	40.0904
556.88	26.7789
559.772	51.8738
562.665	29.509
565.558	3.52002
568.45	13.1244
571.343	15.5906
574.236	14.7546
577.128	13.1409
580.021	17.6426
582.914	13.2357
585.806	0.453796
588.699	12.9103
591.592	11.8807
594.485	6.25885
597.377	3.94824
600.27	30.0724
603.163	49.0132
606.055	17.3359
608.948	26.6148
611.841	28.6642
614.733	22.5623
617.626	12.0412
620.519	25.5375
623.412	44.7778
626.304	10.6752
629.197	15.6369
632.09	19.6301
634.982	29.5733
637.875	37.057
640.768	15.8796
643.66	14.9212
646.553	21.8207
649.446	13.0042
652.338	33.9702
655.231	12.8886
658.124	9.8537
661.017	15.3093
663.909	32.1098
666.802	8.61554
669.695	23.7282
672.587	13.3691
675.48	23.8195
678.373	31.1101
681.265	19.9282
684.158	5.31036
687.051	4.37207
689.944	27.7929
692.836	33.5201
695.729	20.1432
698.622	12.5502
701.514	48.1005
704.407	2.86987
707.3	29.3409
710.192	22.8195
713.085	10.5618
715.978	17.4988
718.871	14.5191
721.763	29.0746
724.656	50.0442
727.549	49.9644
730.441	22.2928
733.334	14.3841
736.227	37.9168
739.12	48.0516
742.012	24.2554
744.905	32.5281
747.798	17.1794
750.69	22.9839
753.583	23.2971
756.476	51.2474
759.368	43.9885
762.261	7.14288
765.154	13.8973
768.047	7.68195
770.939	1.96008
773.832	22.7289
776.725	16.2554
779.617	21.9586
782.51	32.2732
785.403	39.1695
788.295	24.4794
791.188	45.6132
794.081	39.4197
796.973	16.8529
799.866	8.22809
802.759	13.7718
805.652	4.60455
808.544	31.3458
811.437	24.4502
814.33	33.1612
817.222	14.497
820.115	15.9125
823.008	12.8687
825.9	19.8505
828.793	18.91
831.686	19.8411
834.579	16.6044
837.471	13.0266
840.364	35.1268
843.257	13.4898
846.149	8.21826
849.042	22.8785
851.935	9.10095
854.827	21.656
857.72	31.2276
860.613	30.9653
863.506	1.052
866.398	0.063416
869.291	26.3906
872.184	11.7869
875.076	17.6119
877.969	30.1722
880.862	48.8663
883.755	23.3937
886.647	22.9794
889.54	39.2187
892.433	16.4731
895.325	23.5446
898.218	7.84296
901.111	26.9928
904.003	25.4047
906.896	37.3935
909.789	24.5803
912.682	24.2391
915.574	52.8129
918.467	12.0574
921.36	3.40369
924.252	18.4858
927.145	43.6932
930.038	28.5804
932.93	31.982
935.823	31.0952
938.716	49.3509
941.609	15.1124
944.501	45.7218
947.394	32.2861
950.287	37.3621
953.179	46.7809
956.072	28.4486
958.965	40.8608
961.857	33.804
964.75	23.875
967.643	13.6941
970.535	27.7213
973.428	58.4025
976.321	43.2366
979.214	41.0453
982.106	30.767
984.999	62.2574
987.892	28.2936
990.784	26.0197
993.677	5.75153
996.57	52.3656
999.462	69.5675
1002.36	59.0583
1005.25	33.444
1008.14	36.3443
1011.03	58.0074
1013.93	40.4803
1016.82	30.2658
1019.71	37.5387
1022.6	11.7129
1025.5	3.4743
1028.39	22.4928
1031.28	29.7948
1034.17	11.9377
1037.07	44.9643
1039.96	33.9207
1042.85	25.9678
1045.75	45.8853
1048.64	62.7572
1051.53	29.8754
1054.42	56.6741
1057.32	25.9194
1060.21	26.5612
1063.1	19.0458
1065.99	32.3122
1068.89	67.6638
1071.78	45.8818
1074.67	53.4426
1077.57	8.83295
1080.46	60.0373
1083.35	60.1829
1086.24	14.235
1089.14	43.6769
1092.03	37.157
1094.92	24.2499
1097.81	40.46
1100.71	41.794
1103.6	26.2891
1106.49	15.1555
1109.38	31.3574
1112.28	57.8173
1115.17	19.8609
1118.06	40.3581
1120.96	12.433
1123.85	26.5501
1126.74	20.5212
1129.63	21.1568
1132.53	37.2333
1135.42	9.92566
1138.31	30.1704
1141.2	7.38373
1144.1	45.6011
1146.99	33.7923
1149.88	22.3864
1152.78	15.8691
1155.67	18.9638
1158.56	4.24439
1161.45	2.61487
1164.35	27.7327
1167.24	26.9446
1170.13	31.6069
1173.02	29.8176
1175.92	58.7463
1178.81	9.05536
1181.7	30.4217
1184.6	33.2676
1187.49	20.3217
1190.38	44.9162
1193.27	21.5482
1196.17	36.3274
1199.06	19.6811
1201.95	19.8229
1204.84	2.16199
1207.74	25.9806
1210.63	52.437
1213.52	17.2325
1216.41	38.9253
1219.31	49.84
1222.2	26.7975
1225.09	13.7975
1227.99	9.84534
