Measurement: Raman, 532 nm, unoriented, Raman Data Processed
Mineral: Bismuthinite
Rruff sample: R061077
Ideal chemistry: Bi_2_S_3_
Locality: Jersey mine, Salmo, British Columbia, Canada
Source: Lloyd Twaites
Description: Metallic grey prismatic single crystals
Raman shift (cm-1)	intensity
147.074	0
149.967	1.21112
152.86	6.48688
155.752	29.6467
158.645	33.7256
161.538	92.1698
164.43	145.624
167.323	201.909
170.216	242.128
173.109	264.443
176.001	330.121
178.894	405.469
181.787	446.556
184.679	428.717
187.572	395.109
190.465	378.599
193.357	355.98
196.25	298.236
199.143	249.957
202.036	232.525
204.928	205.468
207.821	214.306
210.714	253.939
213.606	272.172
216.499	357.442
219.392	463.139
222.284	534.762
225.177	676.804
228.07	768.99
230.963	873.929
233.855	967.693
236.748	992.198
239.641	979.613
242.533	927.093
245.426	879.897
248.319	848.704
251.211	790.762
254.104	807.018
256.997	780.751
259.889	737.209
262.782	608.176
265.675	479.5
268.568	373.983
271.46	311.737
274.353	236.331
277.246	222.034
280.138	120.258
283.031	100.937
285.924	67.1649
288.817	38.0597
291.709	36.2559
294.602	2.26526
297.495	0.935059
300.387	10.5513
303.28	7.97534
306.173	2.12079
309.065	6.14404
311.958	1.19043
314.851	6.46405
317.743	2.88922
320.636	10.9542
323.529	16.4365
326.422	9.19421
329.314	6.81726
332.207	3.48663
335.1	4.82559
337.992	16.9125
340.885	23.7086
343.778	36.633
346.671	41.1013
349.563	39.993
352.456	44.8265
355.349	34.0812
358.241	47.138
361.134	56.0984
364.027	54.7277
366.919	59.1831
369.812	46.6199
372.705	56.9012
375.597	43.8721
378.49	31.766
381.383	48.8535
384.276	41.3088
387.168	34.9566
390.061	35.8401
392.954	23.4141
395.846	25.4572
398.739	34.8596
401.632	0.007324
404.524	28.1086
407.417	0.026031
410.31	36.1706
413.202	31.6669
416.095	18.249
418.988	29.536
421.881	7.54657
424.773	9.10117
427.666	22.4974
430.559	13.6611
433.451	20.7937
436.344	8.13571
439.237	35.4211
442.13	30.0342
445.022	42.0993
447.915	21.7922
450.808	33.4694
453.7	28.7533
456.593	34.2379
459.486	17.1488
462.378	26.8635
465.271	13.1685
468.164	32.0536
471.057	31.801
473.949	37.1551
476.842	24.8388
479.735	38.5083
482.627	18.3382
485.52	33.082
488.413	12.8529
491.305	10.1336
494.198	19.0572
497.091	8.20694
499.983	22.99
502.876	19.8152
505.769	18.3836
508.662	18.475
511.554	23.9601
514.447	7.61716
517.34	25.946
520.232	13.1278
523.125	17.2324
526.018	39.2268
528.91	1.98496
531.803	12.7201
534.696	0.690857
537.589	2.06986
540.481	18.0407
543.374	19.622
546.267	23.6191
549.159	15.5661
552.052	4.69992
554.945	9.96887
557.837	2.5484
560.73	28.0604
563.623	13.3021
566.515	0.988464
569.408	2.91809
572.301	6.11206
575.194	5.00662
578.086	7.97086
580.979	13.3185
583.872	0.579895
586.764	11.172
589.657	11.5671
592.55	25.3416
595.442	24.0204
598.335	6.78449
601.228	13.667
604.121	44.8352
607.013	23.7559
609.906	23.2082
612.799	34.3662
615.691	19.695
618.584	6.49225
621.477	4.60016
624.369	19.9776
627.262	35.3845
630.155	4.87524
633.048	18.8884
635.94	7.8529
638.833	6.91019
641.726	23.5331
644.618	15.6458
647.511	6.99063
650.404	17.4038
653.296	16.2201
656.189	12.6099
659.082	20.1856
661.975	0.73819
664.867	10.3106
667.76	25.2233
670.653	26.898
673.545	5.67084
676.438	19.5449
679.331	9.20856
682.223	26.1638
685.116	19.0202
688.009	34.8182
690.902	19.8118
693.794	10.9052
696.687	24.183
699.58	34.6089
702.472	15.2205
705.365	0.089966
708.258	32.7112
711.15	4.53217
714.043	27.7138
716.936	26.782
719.828	18.1051
722.721	17.0021
725.614	14.1088
728.507	28.4316
731.399	15.5452
734.292	26.3814
737.185	24.4563
740.077	8.94879
742.97	24.7142
745.863	28.5063
748.755	9.88849
751.648	4.92975
754.541	14.0829
757.434	25.0519
760.326	23.1539
763.219	13.3424
766.112	38.9296
769.004	13.5304
771.897	13.6519
774.79	1.71933
777.683	12.6858
780.575	2.26675
783.468	11.4544
786.361	10.6323
789.253	5.21713
792.146	1.76648
795.039	23.3105
797.931	9.48138
800.824	15.8943
803.717	10.9977
806.609	4.58102
809.502	8.74972
812.395	24.2848
815.288	8.73978
818.18	1.87167
821.073	19.4282
823.966	20.4707
826.858	14.7296
829.751	14.1995
832.644	21.6179
835.536	34.475
838.429	22.3499
841.322	10.3078
844.215	32.8308
847.107	29.2541
850	29.692
852.893	37.1495
855.785	22.7115
858.678	20.5876
861.571	11.3228
864.463	19.1629
867.356	11.3871
870.249	36.4001
873.141	24.7503
876.034	1.52506
878.927	18.8875
881.82	21.6788
884.712	24.8292
887.605	13.1184
890.498	21.0784
893.39	23.8511
896.283	16.8504
899.176	19.382
902.068	35.5852
904.961	27.664
907.854	18.7048
910.747	30.3219
913.639	14.5621
916.532	11.3335
919.425	18.5686
922.317	16.8144
925.21	21.3271
928.103	26.4487
930.995	1.5766
933.888	26.6885
936.781	32.8461
939.674	28.3252
942.566	17.0026
945.459	11.8404
948.352	30.7573
951.244	16.4193
954.137	10.1979
957.03	1.08658
959.922	0.218719
962.815	11.1131
965.708	25.3047
968.601	3.3121
971.493	5.70886
974.386	11.8826
977.279	28.0819
980.171	36.6642
983.064	0.976196
985.957	8.48743
988.849	33.813
991.742	20.106
994.635	3.11862
997.528	20.2967
1000.42	14.493
1003.31	4.30078
1006.21	21.0629
1009.1	24.5666
1011.99	19.467
1014.88	1.66293
1017.78	7.42392
1020.67	15.4733
1023.56	26.1638
1026.45	22.6805
1029.35	19.2433
1032.24	4.86417
1035.13	13.2734
1038.03	18.4732
1040.92	27.9948
1043.81	19.3549
1046.7	26.7347
1049.6	21.5292
1052.49	0.745972
1055.38	15.124
1058.27	8.78006
1061.17	13.9752
1064.06	27.9221
1066.95	2.8371
1069.85	16.2009
1072.74	26.9331
1075.63	25.96
1078.52	23.8154
1081.42	9.65573
1084.31	18.1986
1087.2	31.6564
1090.09	35.3385
1092.99	41.9108
1095.88	10.0793
1098.77	31.3552
1101.66	34.9803
1104.56	26.9031
1107.45	15.1056
1110.34	29.2416
1113.23	11.3269
1116.13	25.264
1119.02	38.6771
1121.91	4.54419
1124.81	25.1076
1127.7	37.8731
1130.59	11.2715
1133.48	44.6749
1136.38	0.795807
1139.27	24.7378
1142.16	10.9178
1145.06	1.71817
1147.95	21.484
1150.84	22.5511
1153.73	12.8477
1156.63	13.9022
1159.52	13.7391
1162.41	16.4543
1165.3	19.4977
1168.2	21.9459
1171.09	23.4813
1173.98	9.25845
1176.88	36.7778
1179.77	17.7843
1182.66	9.80514
1185.55	12.8804
1188.45	28.7531
1191.34	21.1918
1194.23	9.82578
1197.12	21.6707
1200.02	22.5069
1202.91	23.7563
1205.8	22.7111
1208.69	22.7836
1211.59	26.1379
1214.48	38.2116
1217.37	6.95898
1220.27	27.9139
1223.16	31.8604
1226.05	19.6553
1228.94	23.3156
1231.84	30.9197
1234.73	19.4565
1237.62	15.411
1240.51	10.6496
1243.41	37.6014
1246.3	11.1296
1249.19	25.6459
1252.09	10.0508
1254.98	20.2264
