Measurement: Raman, 780 nm, unoriented, Raman Data Processed
Mineral: Bjarebyite
Rruff sample: R130106
Ideal chemistry: BaMn^2+^_2_Al_2_(PO_4_)_3_(OH)_3_
Locality: Palermo #1 mine, North Groton, New Hampshire
Source: Donald Doell (small piece), Rock Currier (large Piece)
Raman shift (cm-1)	intensity
90.7175	0
94.0923	9.42188
97.4671	9.85382
100.842	3.10561
104.217	0.15062
107.591	0.402878
110.966	3.04614
114.341	17.7539
117.716	27.4054
121.091	9.97837
124.466	1.84856
127.84	3.12788
131.215	9.58868
134.59	10.6974
137.965	1.10912
141.34	0.244774
144.714	2.14344
148.089	3.82276
151.464	4.77053
154.839	2.79898
158.214	2.02245
161.589	1.31334
164.963	2.5501
168.338	0.15844
171.713	1.727
175.088	0.185867
178.463	0.658829
181.838	1.60165
185.212	2.96556
188.587	5.65071
191.962	8.29873
195.337	14.5872
198.712	23.4232
202.086	35.001
205.461	50.2471
208.836	57.5828
212.211	46.4857
215.586	32.4587
218.96	23.5326
222.335	21.0416
225.71	20.5224
229.085	19.2329
232.46	18.4202
235.834	15.3834
239.209	13.5767
242.584	11.2447
245.959	8.68839
249.334	5.11237
252.709	5.27933
256.083	6.95061
259.458	8.71748
262.833	13.8921
266.208	21.4201
269.583	30.9017
272.957	35.4091
276.332	26.427
279.707	14.5643
283.082	4.56406
286.457	0.748276
289.832	0.959862
293.206	0.697361
296.581	1.20499
299.956	4.20673
303.331	8.32937
306.706	14.6392
310.08	22.0621
313.455	24.4449
316.83	19.0564
320.205	9.88131
323.58	4.76009
326.954	3.5317
330.329	3.60535
333.704	4.75682
337.079	4.52407
340.454	5.02113
343.829	4.21769
347.203	5.57641
350.578	7.33637
353.953	7.70356
357.328	6.05499
360.703	2.23547
364.077	1.48708
367.452	0.087078
370.827	0.50996
374.202	0.430176
377.577	0.197895
380.952	0.453739
384.326	0.236706
387.701	0.224419
391.076	1.87919
394.451	1.91538
397.826	2.09173
401.2	1.1081
404.575	1.3007
407.95	2.25337
411.325	3.68935
414.7	4.62315
418.075	6.88114
421.449	7.89962
424.824	11.4557
428.199	15.9978
431.574	16.9677
434.949	19.0816
438.323	21.8235
441.698	28.4648
445.073	39.8923
448.448	54.278
451.823	67.1052
455.197	67.4237
458.572	54.4718
461.947	40.0904
465.322	29.3639
468.697	21.4542
472.072	17.0813
475.446	14.0506
478.821	11.0216
482.196	8.5544
485.571	5.26431
488.946	2.98846
492.32	0.314983
495.695	0.220211
499.07	1.38963
502.445	0.133907
505.82	2.20188
509.195	3.04197
512.569	4.15807
515.944	4.92381
519.319	5.88876
522.694	5.84661
526.068	6.10201
529.443	6.83517
532.818	7.87664
536.193	11.6322
539.568	15.36
542.943	20.088
546.317	23.5012
549.692	31.1744
553.067	41.8682
556.442	57.6307
559.817	72.8906
563.192	60.4449
566.566	26.6807
569.941	10.2571
573.316	5.97617
576.691	7.12324
580.066	11.9632
583.44	10.2905
586.815	3.76424
590.19	0.280647
593.565	0.399433
596.94	1.02141
600.314	1.39821
603.689	2.58234
607.064	5.38399
610.439	9.86913
613.814	14.4697
617.188	18.082
620.563	18.0016
623.938	12.6218
627.313	8.23762
630.688	4.74696
634.063	3.55034
637.437	3.91005
640.812	2.80273
644.187	2.985
647.562	2.78632
650.937	2.30938
654.312	2.23816
657.686	1.36835
661.061	1.63125
664.436	1.05426
667.811	0.525598
671.186	0.090387
674.56	0.077165
677.935	0.635209
681.31	0.091874
684.685	0.842916
688.06	0.975078
691.434	0.550145
694.809	0.016292
698.184	0.581571
701.559	0.582637
704.934	0.707181
708.308	0.617666
711.683	1.24438
715.058	1.17564
718.433	1.14884
721.808	1.37328
725.183	1.29427
728.557	1.52127
731.932	1.04933
735.307	1.3093
738.682	0.225856
742.057	1.13691
745.432	0.978569
748.806	0.894488
752.181	1.66926
755.556	1.08568
758.931	0.573083
762.306	1.04604
765.68	0.937185
769.055	1.53917
772.43	1.25948
775.805	0.419384
779.18	0.737337
782.554	0.408611
785.929	0.755769
789.304	0.281805
792.679	0.194233
796.054	0.757696
799.428	1.48713
802.803	0.904778
806.178	0.446323
809.553	2.02153
812.928	1.44382
816.303	0.772614
819.677	0.068867
823.052	0.903991
826.427	1.05853
829.802	0.437717
833.177	0.414357
836.552	0.710672
839.926	0.379926
843.301	0.738414
846.676	1.0528
850.051	1.32089
853.426	1.61544
856.8	1.08017
860.175	1.00868
863.55	1.89981
866.925	1.76341
870.3	0.943836
873.674	0.696846
877.049	1.04366
880.424	0.772344
883.799	0.608483
887.174	0.346569
890.548	0.155903
893.923	0.42857
897.298	0.709112
900.673	0.251876
904.048	0.129736
907.423	0.509505
910.797	0.412674
914.172	0.599861
917.547	0.134586
920.922	0.104094
924.297	0.10704
927.671	0.397808
931.046	0.47575
934.421	0.708834
937.796	1.10807
941.171	2.35195
944.545	4.65497
947.92	7.54224
951.295	11.4686
954.67	18.177
958.045	26.8906
961.42	33.9077
964.794	34.9418
968.169	27.5951
971.544	19.3595
974.919	13.6444
978.294	10.3962
981.668	8.20357
985.043	8.97126
988.418	11.8505
991.793	17.4809
995.168	25.0501
998.543	37.0262
1001.92	57.876
1005.29	98.475
1008.67	154.841
1012.04	206.826
1015.42	243.67
1018.79	225.53
1022.17	141.967
1025.54	75.3413
1028.92	42.4305
1032.29	27.5954
1035.67	20.1153
1039.04	17.2813
1042.41	15.0555
1045.79	15.1812
1049.16	13.968
1052.54	12.6948
1055.91	6.55334
1059.29	3.49363
1062.66	0.138647
1066.04	0.171759
1069.41	0.245609
1072.79	0.041458
1076.16	0.099592
1079.54	0.728355
1082.91	0.123627
1086.29	0.611088
1089.66	0.079283
1093.04	0.070019
1096.41	0.389261
1099.79	1.31255
1103.16	2.05908
1106.54	3.9186
1109.91	3.01258
1113.29	3.25913
1116.66	1.61776
1120.04	1.97849
1123.41	2.06313
1126.79	3.45412
1130.16	4.44438
1133.54	6.32333
1136.91	7.75925
1140.29	9.33172
1143.66	10.7771
1147.03	10.407
1150.41	7.64799
1153.78	4.8564
1157.16	3.5873
1160.53	2.81094
1163.91	1.97632
1167.28	1.61048
1170.66	1.05032
1174.03	0.785183
1177.41	0.562316
1180.78	0.257024
1184.16	0.694114
1187.53	0.865582
1190.91	1.01815
1194.28	0.574837
1197.66	0.045505
1201.03	0.726118
1204.41	0.314609
1207.78	0.78241
1211.16	0.09472
1214.53	1.10399
1217.91	1.55943
1221.28	1.25984
1224.65	0.241696
1228.03	1.52273
1231.4	0.189308
1234.78	2.38695
1238.15	1.5857
1241.53	1.30127
1244.9	1.01269
1248.28	1.43169
1251.65	0.112863
1255.03	0.573582
1258.4	1.2527
1261.78	0.472016
1265.15	1.06288
1268.53	1.26894
1271.9	1.25881
1275.28	0.480303
1278.65	0.710889
1282.03	0.263399
