Measurement: Raman, 780 nm, unoriented, Raman Data Processed
Mineral: Bjarebyite
Rruff sample: R130107
Ideal chemistry: BaMn^2+^_2_Al_2_(PO_4_)_3_(OH)_3_
Locality: Buranga mine, Gatumba District, Western Province, Rwanda
Source: Rock Currier
Raman shift (cm-1)	intensity
102.77	0
106.145	3.46148
109.52	0.254265
112.895	2.56891
116.27	6.59208
119.644	6.98718
123.019	3.02999
126.394	2.62611
129.769	4.441
133.144	4.52476
136.518	2.70008
139.893	2.46914
143.268	2.09058
146.643	1.47405
150.018	2.54903
153.393	0.355381
156.767	0.265671
160.142	0.795254
163.517	0.023525
166.892	0.574768
170.267	0.898754
173.642	1.15985
177.016	1.16219
180.391	2.2341
183.766	2.70733
187.141	2.86159
190.516	3.64388
193.89	4.95747
197.265	7.44751
200.64	9.46402
204.015	10.62
207.39	10.7855
210.764	10.282
214.139	7.90863
217.514	5.14911
220.889	4.74451
224.264	4.69989
227.638	5.03468
231.013	6.28414
234.388	4.65122
237.763	3.51621
241.138	2.88725
244.513	3.00934
247.887	1.49616
251.262	1.92464
254.637	0.572645
258.012	1.12059
261.387	0.58783
264.762	1.20592
268.136	2.22787
271.511	2.55854
274.886	3.44434
278.261	2.45617
281.635	0.019175
285.01	0.115185
288.385	0.014822
291.76	0.298759
295.135	0.428236
298.51	0.777905
301.884	1.08052
305.259	2.78036
308.634	3.989
312.009	3.77353
315.384	3.61717
318.759	2.38059
322.133	1.08294
325.508	0.402445
328.883	0.98395
332.258	1.17656
335.633	1.64785
339.007	2.84961
342.382	2.27374
345.757	2.13814
349.132	1.80747
352.507	1.19633
355.882	0.828922
359.256	0.583773
362.631	0.649258
366.006	0.126835
369.381	0.24836
372.755	0.411415
376.13	0.191996
379.505	0.706076
382.88	0.074518
386.255	0.423212
389.63	0.157852
393.004	0.051004
396.379	0.40383
399.754	0.489769
403.129	0.942654
406.504	1.27415
409.878	1.42572
413.253	1.97621
416.628	2.24417
420.003	1.76558
423.378	2.13383
426.753	3.15028
430.127	4.26068
433.502	4.372
436.877	4.86765
440.252	4.89146
443.627	5.4993
447.001	6.33915
450.376	7.33493
453.751	8.7247
457.126	7.91642
460.501	5.78806
463.875	3.70793
467.25	2.94176
470.625	1.92472
474	1.28166
477.375	0.505748
480.75	1.39895
484.124	0.805027
487.499	1.03269
490.874	1.1086
494.249	0.281186
497.624	0.144744
500.998	0.108662
504.373	0.363378
507.748	0.276246
511.123	0.600554
514.498	0.63729
517.873	0.855778
521.247	0.971777
524.622	1.19135
527.997	1.14828
531.372	1.56103
534.747	1.98828
538.121	2.58713
541.496	2.70596
544.871	1.70497
548.246	2.67428
551.621	3.89579
554.995	4.41645
558.37	6.73633
561.745	8.04896
565.12	4.27817
568.495	1.34253
571.87	0.427398
575.244	0.904537
578.619	1.69269
581.994	2.55568
585.369	0.668019
588.744	0.134395
592.119	0.141069
595.493	0.118285
598.868	0.295141
602.243	0.145837
605.618	0.811251
608.993	1.97656
612.367	2.82125
615.742	2.59829
619.117	2.66377
622.492	2.29144
625.867	1.71603
629.241	0.656312
632.616	0.850745
635.991	0.682452
639.366	0.986917
642.741	0.548446
646.115	0.048823
649.49	0.59599
652.865	0.35806
656.24	0.504394
659.615	0.933212
662.99	0.864512
666.364	0.554489
669.739	0.561028
673.114	0.428927
676.489	0.129547
679.864	0.487041
683.239	0.122743
686.613	0.180515
689.988	0.095348
693.363	0.639851
696.738	0.387996
700.112	0.271789
703.487	0.258486
706.862	0.522046
710.237	0.768856
713.612	0.058337
716.987	0.442496
720.361	0.218335
723.736	0.642579
727.111	0.382044
730.486	0.202805
733.861	0.176819
737.236	0.515287
740.61	0.701523
743.985	0.244986
747.36	0.588317
750.735	0.71383
754.11	0.394356
757.484	0.385964
760.859	0.599854
764.234	0.585098
767.609	0.44483
770.984	0.877048
774.359	0.271345
777.733	0.527476
781.108	0.390856
784.483	1.51252
787.858	0.234106
791.232	0.228883
794.607	0.60846
797.982	0.529462
801.357	0.874249
804.732	0.205435
808.107	0.10076
811.481	0.338327
814.856	0.377762
818.231	0.254508
821.606	0.495396
824.981	0.795357
828.356	0.65684
831.73	0.530438
835.105	0.843045
838.48	0.116111
841.855	0.139651
845.23	0.078105
848.604	0.14829
851.979	0.003744
855.354	0.380055
858.729	0.213052
862.104	0.325486
865.479	0.172802
868.853	0.271739
872.228	0.727021
875.603	0.108158
878.978	0.53787
882.352	0.825728
885.727	0.373752
889.102	0.219386
892.477	0.665828
895.852	0.559573
899.227	0.848948
902.601	0.83703
905.976	0.293406
909.351	0.268503
912.726	0.881377
916.101	0.417161
919.476	0.002708
922.85	0.169806
926.225	0.223995
929.6	0.043835
932.975	0.176437
936.35	0.070428
939.724	0.348017
943.099	0.803913
946.474	1.33425
949.849	2.75569
953.224	4.00453
956.598	5.61043
959.973	7.84006
963.348	7.38448
966.723	4.7885
970.098	2.31026
973.472	1.1374
976.847	0.539371
980.222	0.874791
983.597	0.333447
986.972	0.502948
990.347	0.981057
993.721	1.99808
997.096	2.47824
1000.47	4.42854
1003.85	8.93553
1007.22	17.1146
1010.6	27.4803
1013.97	34.4118
1017.35	31.6303
1020.72	17.8295
1024.1	8.86525
1027.47	5.11675
1030.84	3.2417
1034.22	2.5357
1037.59	0.741613
1040.97	2.21376
1044.34	1.36319
1047.72	1.15307
1051.09	1.95683
1054.47	1.92763
1057.84	1.41496
1061.22	0.246723
1064.59	0.130236
1067.97	0.09024
1071.34	0.147332
1074.72	0.229309
1078.09	0.298832
1081.47	0.191675
1084.84	0.104811
1088.22	0.37282
1091.59	0.614692
1094.97	0.047108
1098.34	1.13749
1101.71	1.08941
1105.09	1.33448
1108.46	1.57868
1111.84	1.41008
1115.21	0.896319
1118.59	0.972201
1121.96	0.121232
1125.34	0.380989
1128.71	0.568304
1132.09	0.891892
1135.46	0.976281
1138.84	1.1401
1142.21	1.68262
1145.59	1.53782
1148.96	1.28572
1152.34	0.985675
1155.71	0.06187
1159.09	0.622152
1162.46	0.059738
1165.84	0.273775
1169.21	0.242341
1172.59	0.047202
1175.96	0.405305
1179.34	0.043981
1182.71	0.244216
1186.09	0.505757
1189.46	0.448852
1192.84	0.316997
1196.21	0.283271
1199.59	0.693521
1202.96	0.228105
1206.34	0.792229
1209.71	0.769287
1213.08	0.162036
1216.46	0.603736
1219.83	0.431797
1223.21	0.195075
1226.58	0.878488
1229.96	0.347653
1233.33	0.673617
1236.71	0.1589
1240.08	0.399029
1243.46	0.448894
1246.83	0.585547
1250.21	0.924783
1253.58	0.706357
1256.96	0.151023
1260.33	0.608964
1263.71	0.533045
1267.08	1.10728
1270.46	0.683599
1273.83	0.193966
1277.21	0.026742
1280.58	0.765609
1283.95	0
