Measurement: Raman, 532 nm, unoriented, Raman Data Processed
Mineral: Bjarebyite
Rruff sample: R130106
Ideal chemistry: BaMn^2+^_2_Al_2_(PO_4_)_3_(OH)_3_
Locality: Palermo #1 mine, North Groton, New Hampshire
Source: Donald Doell (small piece), Rock Currier (large Piece)
Raman shift (cm-1)	intensity
90.808	0
94.1828	2.90849
97.5576	1.82684
100.932	4.81353
104.307	3.31981
107.682	3.23886
111.057	4.42178
114.432	2.24831
117.806	2.96759
121.181	4.8156
124.556	7.06355
127.931	5.83
131.306	7.07663
134.681	5.46225
138.055	3.20036
141.43	1.51379
144.805	0.012787
148.18	0.237045
151.555	0.956318
154.929	0.546955
158.304	0.003708
161.679	0.338486
165.054	0.328041
168.429	1.22751
171.804	0.263435
175.178	2.4856
178.553	5.16377
181.928	9.11377
185.303	11.4231
188.678	12.8844
192.053	18.3812
195.427	23.6579
198.802	30.7415
202.177	35.0023
205.552	45.351
208.927	56.9287
212.301	53.1237
215.676	40.2972
219.051	31.3552
222.426	26.8926
225.801	24.7803
229.175	24.4761
232.55	23.2161
235.925	18.8841
239.3	17.0888
242.675	13.57
246.05	10.7933
249.424	8.8984
252.799	9.18158
256.174	11.1766
259.549	12.961
262.924	16.9184
266.298	20.2321
269.673	26.9187
273.048	33.4287
276.423	29.1072
279.798	16.6427
283.173	6.48383
286.547	1.9983
289.922	0.195091
293.297	0.718334
296.672	0.431122
300.047	1.92873
303.421	5.25087
306.796	9.40329
310.171	15.0724
313.546	19.8671
316.921	17.0206
320.296	8.80505
323.67	3.91133
327.045	1.99368
330.42	2.46315
333.795	4.68852
337.17	4.57111
340.544	5.41971
343.919	3.38115
347.294	4.26895
350.669	4.94829
354.044	6.76355
357.418	5.77843
360.793	2.6215
364.168	1.87153
367.543	0.045147
370.918	0.70293
374.293	1.06792
377.667	0.009983
381.042	0.514004
384.417	0.904465
387.792	0.199265
391.167	1.0351
394.541	2.63747
397.916	3.68635
401.291	4.11518
404.666	3.63493
408.041	5.34471
411.416	7.41295
414.79	9.36623
418.165	11.9672
421.54	13.3669
424.915	16.6929
428.29	21.5174
431.664	24.1365
435.039	25.4859
438.414	28.4901
441.789	33.1301
445.164	41.6921
448.539	55.2064
451.913	67.0039
455.288	71.3156
458.663	60.4533
462.038	44.7211
465.413	32.2258
468.788	24.0797
472.162	17.3999
475.537	15.1836
478.912	11.9547
482.287	8.75735
485.662	6.66079
489.036	3.60939
492.411	0.570652
495.786	1.15949
499.161	1.4978
502.536	0.421646
505.911	2.3483
509.285	4.46873
512.66	6.48739
516.035	8.42894
519.41	8.86645
522.784	10.4334
526.159	9.99617
529.534	9.66833
532.909	9.14107
536.284	12.0778
539.659	15.6499
543.033	21.3746
546.408	26.9359
549.783	35.3465
553.158	46.4492
556.533	55.029
559.908	69.5241
563.282	66.6668
566.657	35.7662
570.032	13.4773
573.407	7.03551
576.782	7.71275
580.156	11.1481
583.531	13.1259
586.906	6.49406
590.281	0.618176
593.656	1.0853
597.03	0.833443
600.405	0.626968
603.78	3.49261
607.155	6.29654
610.53	10.9451
613.905	16.645
617.279	21.6099
620.654	22.7466
624.029	18.8731
627.404	13.2956
630.779	8.66848
634.154	5.66185
637.528	4.98264
640.903	3.76256
644.278	3.81981
647.653	3.6978
651.028	3.63774
654.402	2.35623
657.777	1.83565
661.152	2.61905
664.527	2.424
667.902	1.42168
671.277	0.371618
674.651	0.092308
678.026	0.079809
681.401	0.28249
684.776	0.216387
688.151	0.444407
691.525	0.991245
694.9	0.738882
698.275	0.547087
701.65	0.757429
705.025	0.805918
708.399	0.993015
711.774	0.665981
715.149	1.1196
718.524	1.10404
721.899	1.31716
725.274	1.61982
728.648	1.52661
732.023	1.89387
735.398	0.873661
738.773	1.51175
742.148	0.784494
745.523	1.79901
748.897	1.26275
752.272	0.484318
755.647	1.52733
759.022	0.65782
762.396	0.490995
765.771	0.459639
769.146	0.809147
772.521	0.329678
775.896	0.512312
779.271	1.30472
782.645	0.958977
786.02	0.596134
789.395	0.068666
792.77	0.56111
796.145	0.600531
799.519	0.59911
802.894	0.575245
806.269	1.16993
809.644	1.06564
813.019	0.963451
816.394	0.89443
819.768	0.793644
823.143	0.979937
826.518	1.12862
829.893	0.619616
833.268	0.916368
836.643	1.01585
840.017	0.690237
843.392	0.962688
846.767	0.062208
850.142	0.659519
853.517	0.947023
856.891	0.725298
860.266	0.402065
863.641	0.770779
867.016	0.17046
870.391	0.718203
873.765	1.19216
877.14	0.296638
880.515	0.38208
883.89	1.09903
887.265	0.061657
890.64	0.648184
894.014	0.050322
897.389	0.092407
900.764	0.398785
904.139	0.042223
907.514	0.111759
910.889	0.409897
914.263	0.289053
917.638	0.018356
921.013	0.285944
924.388	0.399071
927.763	0.226866
931.137	0.5387
934.512	0.445328
937.887	0.94659
941.262	2.0173
944.637	3.71085
948.011	6.59959
951.386	9.87376
954.761	16.6117
958.136	23.7294
961.511	33.3799
964.886	37.3543
968.26	32.8603
971.635	25.3114
975.01	17.784
978.385	12.9178
981.76	11.4139
985.135	11.0505
988.509	14.5404
991.884	19.6812
995.259	29.1269
998.634	39.9147
1002.01	60.4543
1005.38	94.6353
1008.76	148.974
1012.13	207.742
1015.51	252.144
1018.88	267.717
1022.26	197.064
1025.63	108.277
1029.01	59.4363
1032.38	37.2314
1035.76	26.6901
1039.13	21.1136
1042.51	19.4463
1045.88	17.5496
1049.26	16.994
1052.63	15.7234
1056.01	11.0222
1059.38	4.93204
1062.76	0.970089
1066.13	0.417755
1069.51	0.271538
1072.88	0.366505
1076.26	0.282425
1079.63	0.412487
1083	0.932732
1086.38	0.67041
1089.75	0.004333
1093.13	0.671413
1096.5	1.64846
1099.88	2.59594
1103.25	4.87661
1106.63	6.2917
1110	6.30425
1113.38	6.31351
1116.75	4.64722
1120.13	3.04159
1123.5	3.05603
1126.88	3.5888
1130.25	3.55173
1133.63	6.30946
1137	8.64582
1140.38	10.57
1143.75	10.9478
1147.13	11.4195
1150.5	9.12265
1153.88	5.47394
1157.25	3.86995
1160.62	2.69799
1164	1.40076
1167.38	0.685171
1170.75	0.914698
1174.12	1.12801
1177.5	0.873362
1180.87	0.226196
1184.25	0.007362
1187.62	0.105787
1191	0.276287
1194.37	0.049511
1197.75	0.728155
1201.12	0.276392
1204.5	0.448471
1207.87	0.278488
1211.25	0.991449
1214.62	0.578188
1218	0.952177
1221.37	1.34858
1224.75	1.13739
1228.12	1.26343
1231.5	1.32016
1234.87	1.46718
1238.25	0.986404
1241.62	1.02813
1244.99	2.33753
1248.37	0.856726
1251.74	1.07438
1255.12	1.42922
1258.49	0.763695
1261.87	0.581179
1265.24	0.592846
1268.62	0.097729
1271.99	0.11867
1275.37	0.494389
1278.74	0.63176
1282.12	0.746397
1285.49	0.856621
1288.87	0.761282
1292.24	0.620663
1295.62	0.021727
1298.99	0.153944
