Measurement: Raman, 532 nm, unoriented, Raman Data Processed
Mineral: Bjarebyite
Rruff sample: R130107
Ideal chemistry: BaMn^2+^_2_Al_2_(PO_4_)_3_(OH)_3_
Locality: Buranga mine, Gatumba District, Western Province, Rwanda
Source: Rock Currier
Raman shift (cm-1)	intensity
89.8438	0
93.2186	3.57512
96.5934	0.167404
99.9682	2.00548
103.343	2.35645
106.718	2.11118
110.093	3.81983
113.468	4.42461
116.842	2.24641
120.217	4.3695
123.592	4.51858
126.967	5.55328
130.342	4.53908
133.716	5.10034
137.091	2.95342
140.466	1.61366
143.841	1.36309
147.216	1.44303
150.59	0.029003
153.965	0.035385
157.34	0.676674
160.715	2.24807
164.09	2.44716
167.464	1.79788
170.839	2.29927
174.214	3.26522
177.589	4.31522
180.964	6.37255
184.339	8.08151
187.713	10.3084
191.088	11.9237
194.463	15.9504
197.838	19.6868
201.213	22.9212
204.588	25.015
207.962	26.3694
211.337	22.9006
214.712	16.8289
218.087	12.2621
221.462	9.97273
224.836	12.1946
228.211	11.7289
231.586	13.4312
234.961	9.77916
238.336	6.34481
241.71	3.77359
245.085	2.55486
248.46	1.32684
251.835	0.77615
255.21	1.40711
258.585	1.74346
261.959	2.82472
265.334	3.46619
268.709	5.11042
272.084	6.44777
275.459	9.66145
278.834	8.11145
282.208	3.22631
285.583	0.524284
288.958	0.306446
292.333	0.370983
295.708	0.303028
299.082	1.67653
302.457	3.56173
305.832	6.69089
309.207	11.2405
312.582	14.2761
315.957	11.4791
319.331	6.44128
322.706	2.81493
326.081	0.049698
329.456	1.66669
332.831	1.95636
336.205	3.48992
339.58	5.64158
342.955	5.99829
346.33	4.42693
349.705	4.81064
353.079	5.23966
356.454	3.20659
359.829	1.55027
363.204	0.775925
366.579	0.078262
369.954	0.257708
373.328	0.226334
376.703	0.238743
380.078	0.274811
383.453	0.506069
386.828	0.733635
390.202	0.56682
393.577	0.660095
396.952	0.351814
400.327	0.815678
403.702	0.980417
407.077	1.92118
410.451	2.89302
413.826	3.97388
417.201	5.00805
420.576	5.064
423.951	5.43602
427.325	6.91135
430.7	8.46683
434.075	10.6431
437.45	13.1365
440.825	13.2084
444.2	14.8941
447.574	17.7199
450.949	22.0851
454.324	27.062
457.699	25.1547
461.074	18.9811
464.448	11.9661
467.823	9.0048
471.198	7.01536
474.573	5.30397
477.948	4.14979
481.322	3.51582
484.697	2.51162
488.072	2.90545
491.447	2.54388
494.822	0.766804
498.197	0.452717
501.571	0.202404
504.946	0.173786
508.321	0.650955
511.696	2.21336
515.071	2.81334
518.446	2.33003
521.82	2.82536
525.195	3.03801
528.57	2.52595
531.945	3.03995
535.32	3.81673
538.694	5.61798
542.069	6.35842
545.444	5.22768
548.819	6.74108
552.194	9.14593
555.568	13.2776
558.943	18.1924
562.318	27.4062
565.693	17.4226
569.068	5.23623
572.443	2.42786
575.817	2.12861
579.192	3.23829
582.567	5.22417
585.942	2.58419
589.317	0.429571
592.692	0.65526
596.066	0.022835
599.441	0.073679
602.816	1.47959
606.191	2.7499
609.566	4.9014
612.94	6.19138
616.315	8.92301
619.69	10.138
623.065	6.97266
626.44	4.57822
629.814	2.74644
633.189	1.53667
636.564	0.932388
639.939	0.717997
643.314	0.761721
646.688	1.26108
650.063	0.568998
653.438	0.842871
656.813	0.921968
660.188	0.994848
663.563	0.990316
666.937	0.546461
670.312	0.578423
673.687	0.486488
677.062	0.222134
680.437	0.802561
683.812	0.035971
687.186	0.098932
690.561	0.122557
693.936	0.675547
697.311	0.288401
700.686	0.310287
704.06	0.022753
707.435	0.953058
710.81	1.15385
714.185	0.983288
717.56	0.469366
720.934	0.814358
724.309	0.222361
727.684	0.803234
731.059	0.341232
734.434	0.629385
737.809	0.56963
741.183	0.978001
744.558	0.684792
747.933	0.506006
751.308	1.0366
754.683	0.798077
758.058	0.575357
761.432	0.255985
764.807	0.298817
768.182	0.868753
771.557	0.510979
774.932	1.01063
778.306	0.301537
781.681	0.372969
785.056	0.178993
788.431	0.850613
791.806	0.801506
795.181	1.13535
798.555	0.050926
801.93	0.661634
805.305	0.58478
808.68	0.790735
812.055	0.067993
815.429	0.918365
818.804	0.885172
822.179	0.900106
825.554	0.825163
828.929	0.430494
832.303	1.10321
835.678	1.09652
839.053	1.2871
842.428	1.46139
845.803	0.660439
849.178	0.051481
852.552	0.450602
855.927	0.893377
859.302	0.344078
862.677	0.167751
866.052	0.106716
869.427	0.214035
872.801	0.016233
876.176	0.073202
879.551	0.087481
882.926	0.259951
886.301	0.284832
889.675	0.703426
893.05	0.33923
896.425	1.14141
899.8	1.46269
903.175	0.969074
906.549	1.20678
909.924	1.54617
913.299	0.528358
916.674	0.382236
920.049	0.860546
923.423	0.370373
926.798	0.06142
930.173	0.056187
933.548	0.275234
936.923	0.118874
940.298	0.42548
943.672	1.15683
947.047	4.47119
950.422	8.95153
953.797	12.7812
957.172	21.487
960.547	28.4985
963.921	30.6668
967.296	22.002
970.671	11.5952
974.046	5.67279
977.421	3.28222
980.795	1.83883
984.17	1.3339
987.545	1.57767
990.92	3.43426
994.295	6.62139
997.669	10.4231
1001.04	17.9327
1004.42	31.6292
1007.79	61.3389
1011.17	97.8769
1014.54	128.765
1017.92	139.103
1021.29	84.4038
1024.67	40.3195
1028.04	21.6697
1031.42	14.2222
1034.79	9.72366
1038.17	7.12059
1041.54	4.83987
1044.92	4.67856
1048.29	4.38951
1051.67	7.02761
1055.04	8.14411
1058.42	5.00114
1061.79	1.21973
1065.17	0.665001
1068.54	0.533413
1071.92	0.134892
1075.29	0.082481
1078.66	0.337471
1082.04	0.29525
1085.41	0.696213
1088.79	0.222134
1092.16	0.541279
1095.54	0.999512
1098.91	1.59513
1102.29	2.19313
1105.66	3.1258
1109.04	4.12825
1112.41	3.69521
1115.79	2.51587
1119.16	1.94479
1122.54	1.1492
1125.91	1.9144
1129.29	1.4721
1132.66	2.71836
1136.04	3.05073
1139.41	3.74047
1142.79	5.37542
1146.16	6.32647
1149.54	6.29204
1152.91	3.47119
1156.29	1.72469
1159.66	0.719666
1163.04	1.26428
1166.41	1.02531
1169.79	0.24818
1173.16	0.350323
1176.54	0.425175
1179.91	0.030827
1183.28	0.153179
1186.66	0.246613
1190.03	0.730137
1193.41	0.215187
1196.78	0.838219
1200.16	0.990089
1203.53	0.148457
1206.91	0.187359
1210.28	0.64325
1213.66	0.704308
1217.03	0.962593
1220.41	1.08893
1223.78	1.89549
1227.16	1.03063
1230.53	0.606052
1233.91	0.951431
1237.28	1.15234
1240.66	0.56039
1244.03	1.1662
1247.41	0.800003
1250.78	0.755089
1254.16	0.595383
1257.53	0.776184
1260.9	1.40281
1264.28	1.13548
1267.65	1.09265
1271.03	0.650543
1274.4	0.09906
1277.78	0.866615
1281.15	0.806202
1284.53	0.977871
1287.9	1.28078
1291.28	0.104618
1294.65	0.378101
1298.03	0.653431
1301.4	0.032333
