Measurement: Raman, 532 nm, unoriented, Raman Data Processed
Mineral: Blatonite
Rruff sample: R060594
Ideal chemistry: UO_2_CO_3_H_2_O
Locality: Jomac mine, San Juan County, Utah, USA
Source: Michael Scott
Description: Yellow acicular crystals. No diffraction spots, just some streaks
Raman shift (cm-1)	intensity
154.307	0
157.2	23.609
160.092	606.844
162.985	863.803
165.878	917.619
168.77	712.441
171.663	606.961
174.556	604.789
177.449	629.521
180.341	604.02
183.234	709.52
186.127	879.221
189.019	990.465
191.912	972.822
194.805	787.178
197.697	617.252
200.59	421.742
203.483	394.646
206.376	490.871
209.268	198.248
212.161	52.285
215.054	92.432
217.946	38.312
220.839	167.434
223.732	187.547
226.624	329.627
229.517	621.172
232.41	1028.4
235.303	1187.26
238.195	1433.92
241.088	1729.35
243.981	1809.27
246.873	2237.17
249.766	2023.49
252.659	1826.14
255.551	1697.66
258.444	1531.65
261.337	1647.55
264.229	1591.04
267.122	1561.5
270.015	1115.89
272.908	782.279
275.8	650.59
278.693	295.047
281.586	245.73
284.478	235.67
287.371	16.082
290.264	5.682
293.156	49.801
296.049	41.879
298.942	24.672
301.835	350.785
304.727	687.4
307.62	1130.94
310.513	1191.86
313.405	1452.7
316.298	1817.69
319.191	1993.72
322.083	2464.86
324.976	3041.92
327.869	3488.24
330.762	3568.3
333.654	3471.11
336.547	3071.7
339.44	2615.23
342.332	2098.89
345.225	1448.72
348.118	1143.45
351.01	985.869
353.903	711.701
356.796	384.422
359.689	150.096
362.581	16.34
365.474	46.604
368.367	102.096
371.259	124.193
374.152	23.686
377.045	291.084
379.938	348.16
382.83	494.438
385.723	891.986
388.616	1360.82
391.508	1806.56
394.401	2070.62
397.294	2327.18
400.186	2588.94
403.079	2440.58
405.972	2324.84
408.865	2072.13
411.757	1797.9
414.65	1610.07
417.543	1519.48
420.435	1289.5
423.328	1352.01
426.221	1241.36
429.113	1303.38
432.006	1382.63
434.899	1535.99
437.791	1585.06
440.684	1522.2
443.577	1728.57
446.47	1850.51
449.362	1986.21
452.255	2145.33
455.148	2184.93
458.04	1881.32
460.933	1617.31
463.826	1229.12
466.718	744.145
469.611	586.537
472.504	410.305
475.397	178.588
478.289	47.168
481.182	98.115
484.075	45.256
486.967	88.516
489.86	68.482
492.753	37.221
495.645	152.299
498.538	176.451
501.431	271.381
504.323	383.621
507.216	620.717
510.109	711.414
513.002	688.297
515.894	907.787
518.787	1007.54
521.68	1243.1
524.572	1301.89
527.465	1496.79
530.358	1859.08
533.25	2165.86
536.143	2360.65
539.036	2639.53
541.929	2967.82
544.821	3394.98
547.714	3445.1
550.607	3308.85
553.499	3012.51
556.392	2711.26
559.285	2356.36
562.177	1977.24
565.07	1528.11
567.963	1328.45
570.856	1163.98
573.748	725.559
576.641	552.613
579.534	300.514
582.426	275.334
585.319	145.252
588.212	166.967
591.104	168.055
593.997	13.84
596.89	88.537
599.783	0.234
602.675	103.73
605.568	18.443
608.461	78.766
611.353	72.451
614.246	37.805
617.139	52.068
620.031	176.631
622.924	222.561
625.817	259.592
628.71	244.562
631.602	53.721
634.495	39.473
637.388	170.752
640.28	142.871
643.173	167.037
646.066	220.607
648.958	247.994
651.851	446.283
654.744	461.787
657.636	409.148
660.529	297.117
663.422	300.422
666.315	323.281
669.207	307.736
672.1	324.064
674.993	263.189
677.885	146.127
680.778	249.539
683.671	439.939
686.563	394.967
689.456	418.951
692.349	328.576
695.242	358.113
698.134	199.023
701.027	160.127
703.92	129.129
706.812	174.035
709.705	37.488
712.598	94.773
715.49	278.191
718.383	114.518
721.276	72.393
724.169	11.199
727.061	13.596
729.954	77.951
732.847	18.859
735.739	24.291
738.632	32.527
741.525	142.527
744.417	37.971
747.31	8.605
750.203	52.273
753.096	99.365
755.988	115.408
758.881	94.031
761.774	76.953
764.666	185.762
767.559	361.77
770.452	553.598
773.344	770.926
776.237	886.654
779.13	1353.45
782.023	1764.79
784.915	2384.46
787.808	3115.23
790.701	3896.68
793.593	4851.27
796.486	5955
799.379	6848.66
802.271	8010.18
805.164	8798.18
808.057	9385.91
810.95	10008.7
813.842	10780.6
816.735	11773.3
819.628	13236.7
822.52	15187.3
825.413	18429.6
828.306	23193
831.198	28834.3
834.091	34454.2
836.984	37426.1
839.877	34800.7
842.769	25359.7
845.662	14490.5
848.555	8126.76
851.447	4980.69
854.34	3354.68
857.233	2163.68
860.125	1501.53
863.018	1283.49
865.911	931.346
868.804	713.008
871.696	507.727
874.589	567.143
877.482	488.078
880.374	318.629
883.267	205.732
886.16	246.561
889.052	111.953
891.945	198.422
894.838	117.598
897.731	137.201
900.623	14.1
903.516	59.174
906.409	25.6
909.301	56.555
912.194	81.572
915.087	59.104
917.979	67.943
920.872	3.686
923.765	58.812
926.657	141.121
929.55	180.336
932.443	184.789
935.336	199.965
938.228	224.242
941.121	335.699
944.014	369.754
946.906	175.676
949.799	117.576
952.692	173.916
955.584	234.646
958.477	287.98
961.37	294.566
964.263	269.09
967.155	211.109
970.048	191.594
972.941	108.24
975.833	44
978.726	151.037
981.619	196.871
984.511	20.543
987.404	78.535
990.297	103.277
993.19	144.938
996.082	155.299
998.975	162.908
1001.87	241.178
1004.76	177.008
1007.65	154
1010.55	119.623
1013.44	20.723
1016.33	140.74
1019.22	86.336
1022.12	88.732
1025.01	189.432
1027.9	80.102
1030.8	51.859
1033.69	168.865
1036.58	226.4
1039.47	240.131
1042.37	318.52
1045.26	102.355
1048.15	76.541
1051.04	80.656
1053.94	164.961
1056.83	156.834
1059.72	165.908
1062.61	118.82
1065.51	48.137
1068.4	60.648
1071.29	38.293
1074.18	97.523
1077.08	114.934
1079.97	20.33
1082.86	64.195
1085.76	134.428
1088.65	119.85
1091.54	138.535
1094.43	166.439
1097.33	177.623
1100.22	138.143
1103.11	219.312
1106.01	113.281
1108.9	266.125
1111.79	120.689
1114.68	91.477
1117.58	111.859
1120.47	84.662
1123.36	42.039
1126.25	115.107
1129.15	128.219
1132.04	146.789
1134.93	190.914
1137.83	185.418
1140.72	98.236
1143.61	154.48
1146.5	56.99
1149.39	27.268
1152.29	30.105
1155.18	137.012
1158.07	147.781
1160.97	52.574
1163.86	156.707
1166.75	48.377
1169.64	9.4
1172.54	78.695
1175.43	160.453
1178.32	166.611
1181.21	167.797
1184.11	71.197
1187	153.014
1189.89	152.615
1192.79	59.725
1195.68	133.773
1198.57	12.926
1201.46	25.918
1204.36	72.762
1207.25	121.551
1210.14	55.475
1213.04	38.43
1215.93	178.299
1218.82	34.203
1221.71	64.525
1224.61	86.881
1227.5	77.352
1230.39	96.84
1233.28	152.396
1236.18	221.383
1239.07	152.404
1241.96	145.307
1244.85	55.654
1247.75	127.59
1250.64	129.602
1253.53	169.621
1256.42	61.469
1259.32	82.836
1262.21	103.469
1265.1	89.758
1268	14.988
1270.89	198.5
1273.78	203.82
1276.67	182.068
1279.57	108.795
1282.46	55.229
1285.35	145.875
1288.24	61.447
