Measurement: Raman, 785 nm, unoriented, Raman Data Processed
Mineral: Blixite
Rruff sample: R070364
Ideal chemistry: Pb_8_O_5_(OH)_2_Cl_4_
Locality: Upper Bolivia Stope, 185 m level, Nya Schaktet Shaft, Langban, Filipstad, Varmland, Sweden
Source: Michael Scott
Description: Pale gray-yellow massive with vitreous luster, associated with black hausmannite
Raman shift (cm-1)	intensity
115.234	0
118.127	35.6597
121.019	707.18
123.912	2785.71
126.805	5357.88
129.697	9291.51
132.59	14973.2
135.483	17935.4
138.376	22863.4
141.268	16596.7
144.161	8466.13
147.054	5857.56
149.946	4489.29
152.839	3160.59
155.732	1993.72
158.625	1283.25
161.517	1015.45
164.41	1011.67
167.303	1005.77
170.195	1026.14
173.088	907.379
175.981	646.679
178.873	612.436
181.766	584.012
184.659	565.591
187.552	725.231
190.444	564.342
193.337	669.339
196.23	672.413
199.122	722.486
202.015	629.125
204.908	480.251
207.8	258.75
210.693	99.5913
213.586	93.9116
216.478	164.254
219.371	231.055
222.264	160.715
225.157	95.8491
228.049	65.6362
230.942	106.887
233.835	198.482
236.727	444.67
239.62	883.757
242.513	1373.4
245.405	2031.74
248.298	2924.77
251.191	3932.77
254.084	4695.48
256.976	5093.27
259.869	5028.34
262.762	4909.15
265.654	4729.03
268.547	4936.1
271.44	5477.69
274.332	6517.86
277.225	7802.75
280.118	9391.04
283.011	11195.6
285.903	12648
288.796	13045.9
291.689	11873.2
294.581	9769.09
297.474	7649.19
300.367	6286.73
303.26	5420.13
306.152	4905.11
309.045	4664.38
311.938	4649
314.83	4759.19
317.723	5015.44
320.616	4952.17
323.508	4862.49
326.401	4674.03
329.294	4292.97
332.187	3710.5
335.079	3047.54
337.972	2379.53
340.865	1743.62
343.757	1230.46
346.65	857.21
349.543	533.31
352.435	298.644
355.328	167.481
358.221	1.49121
361.113	18.1753
364.006	115.26
366.899	134.298
369.792	69.7466
372.684	92.9128
375.577	1.20239
378.47	71.2932
381.362	196.723
384.255	319.453
387.148	472.286
390.041	617.551
392.933	816.969
395.826	900.758
398.719	935.125
401.611	877.97
404.504	823.464
407.397	732.03
410.289	615.743
413.182	550.629
416.075	532.593
418.967	533.866
421.86	506.618
424.753	458.208
427.646	368.297
430.538	346.945
433.431	314.363
436.324	280.279
439.216	273.319
442.109	283.738
445.002	275.052
447.894	253.727
450.787	238.881
453.68	194.572
456.573	137.277
459.465	91.0633
462.358	26.4923
465.251	74.3903
468.143	10.7871
471.036	2.92334
473.929	17.1207
476.822	10.6257
479.714	5.36145
482.607	7.62512
485.5	13.6425
488.392	33.0896
491.285	31.1984
494.178	28.2566
497.07	61.2506
499.963	83.8657
502.856	66.505
505.748	70.5017
508.641	101.221
511.534	95.6244
514.427	128.929
517.319	112.664
520.212	116.057
523.105	131.668
525.997	86.2347
528.89	81.0803
531.783	105.714
534.676	86.8561
537.568	106.967
540.461	93.195
543.354	65.3054
546.246	77.5758
549.139	84.0171
552.032	93.321
554.924	68.9696
557.817	65.3668
560.71	67.0084
563.602	69.1078
566.495	39.5598
569.388	49.1058
572.281	42.6163
575.173	13.8254
578.066	7.42688
580.959	34.3988
583.851	26.0786
586.744	1.23474
589.637	7.30298
592.529	9.18677
595.422	14.6144
598.315	2.08106
601.208	9.41431
604.1	1.74707
606.993	3.06702
609.886	12.7417
612.778	16.1481
615.671	15.0261
618.564	39.6874
621.457	38.9757
624.349	28.1364
627.242	21.7749
630.135	31.8864
633.027	32.0279
635.92	50.3221
638.813	45.113
641.705	32.808
644.598	57.6266
647.491	38.9501
650.384	86.5356
653.276	85.2761
656.169	126.382
659.062	154.408
661.954	145.101
664.847	102.175
667.74	75.7911
670.632	47.83
673.525	40.3167
676.418	21.4959
679.311	23.1586
682.203	3.38513
685.096	3.39356
687.989	2.09509
690.881	1.28552
693.774	13.0526
696.667	1.26623
699.559	9.12488
702.452	8.81152
705.345	14.8202
708.237	28.4651
711.13	13.467
714.023	8.9635
716.916	21.9293
719.808	33.3005
722.701	23.0403
725.594	15.6262
728.486	12.5631
731.379	28.049
734.272	19.277
737.164	20.3578
740.057	16.1908
742.95	46.725
745.843	33.7302
748.735	28.1321
751.628	33.8131
754.521	10.8944
757.413	20.9006
760.306	34.3179
763.199	6.85516
766.091	6.50781
768.984	13.8648
771.877	27.3748
774.77	18.4896
777.662	40.4394
780.555	5.73181
783.448	34.7195
786.34	11.0152
789.233	25.6362
792.126	18.7883
795.019	19.6058
797.911	20.3367
800.804	1.97833
803.697	8.84375
806.589	23.2873
809.482	29.1511
812.375	29.3377
815.267	32.0156
818.16	40.0704
821.053	46.7934
823.946	27.6024
826.838	36.6637
829.731	3.57587
832.624	18.5935
835.516	10.4562
838.409	25.6567
841.302	3.93927
844.194	36.1771
847.087	40.0465
849.98	29.9969
852.872	37.3605
855.765	19.6647
858.658	29.2475
861.551	8.26807
864.443	17.8091
867.336	14.691
870.229	7.77881
873.121	8.88471
876.014	4.7879
878.907	13.7975
881.799	14.0367
884.692	21.674
887.585	19.803
890.478	23.5416
893.37	38.5297
896.263	28.2126
899.156	10.8251
902.048	34.6482
904.941	26.29
907.834	34.822
910.726	52.3543
913.619	74.6962
916.512	70.2804
919.405	95.7494
922.297	104.114
925.19	148.728
928.083	187.208
930.975	256.418
933.868	359.008
936.761	459.373
939.654	568.32
942.546	653.14
945.439	724.726
948.332	774.61
951.224	814.604
954.117	739.384
957.01	678.494
959.902	557.165
962.795	442.118
965.688	321.035
968.581	224.198
971.473	181.074
974.366	110.757
977.259	92.6956
980.151	66.2066
983.044	52.7698
985.937	56.5119
988.829	26.9933
991.722	34.4915
994.615	15.5797
997.508	9.302
1000.4	8.85504
1003.29	2.02136
1006.19	3.97961
1009.08	2.33173
1011.97	18.4452
1014.86	8.04993
1017.76	4.21082
1020.65	9.18347
1023.54	3.32544
1026.43	2.71332
1029.33	2.65906
1032.22	27.8307
1035.11	53.0966
1038.01	1.21069
1040.9	58.6903
1043.79	68.7415
1046.68	113.308
1049.58	188.4
1052.47	146.627
1055.36	95.3494
1058.25	64.8984
1061.15	45.4821
1064.04	36.19
1066.93	13.2899
1069.83	60.3575
1072.72	26.0002
1075.61	24.9232
1078.5	52.766
1081.4	34.9493
1084.29	69.3229
1087.18	66.349
1090.07	40.536
1092.97	30.6425
1095.86	8.06268
1098.75	4.45947
1101.64	5.71411
1104.54	24.8025
1107.43	20.9484
1110.32	23.6248
1113.21	7.34906
1116.11	30.1962
1119	22.0225
1121.89	22.708
1124.79	22.1185
1127.68	22.5118
1130.57	25.9287
1133.46	44.0453
1136.36	18.2766
1139.25	30.8126
1142.14	24.5065
1145.04	20.023
1147.93	11.0046
1150.82	34.4742
1153.71	42.3751
1156.61	15.9443
1159.5	13.0931
1162.39	23.1116
1165.28	38.3292
1168.18	17.8799
1171.07	25.0545
1173.96	12.4221
1176.86	10.1703
1179.75	40.1587
1182.64	16.0845
1185.53	21.4874
1188.43	20.0145
1191.32	7.00824
1194.21	1.86285
1197.1	18.5911
1200	16.0771
1202.89	38.656
1205.78	12.1115
1208.67	17.1308
1211.57	7.09082
1214.46	8.15771
1217.35	12.4104
1220.24	3.78961
1223.14	34.7717
1226.03	26.521
1228.92	20.4063
1231.82	19.5372
1234.71	29.8989
1237.6	3.80536
1240.49	25.3762
