Measurement: Raman, 532 nm, unoriented, Raman Data Processed
Mineral: Blixite
Rruff sample: R070364
Ideal chemistry: Pb_8_O_5_(OH)_2_Cl_4_
Locality: Upper Bolivia Stope, 185 m level, Nya Schaktet Shaft, Langban, Filipstad, Varmland, Sweden
Source: Michael Scott
Description: Pale gray-yellow massive with vitreous luster, associated with black hausmannite
Raman shift (cm-1)	intensity
113.503	0
116.878	184.458
120.253	6548.41
123.627	22801.1
127.002	39109.3
130.377	62394.9
133.752	88525.8
137.127	131811
140.502	109164
143.876	39835.3
147.251	17998.7
150.626	10490.3
154.001	7596.72
157.376	5890.2
160.75	4226.55
164.125	3158.68
167.5	2669.43
170.875	2494.95
174.25	1650.34
177.625	1101.87
180.999	736.5
184.374	623.525
187.749	771.611
191.124	1054.19
194.499	1168
197.874	1094.83
201.248	1092.19
204.623	467.672
207.998	105.898
211.373	175.914
214.748	591.731
218.122	627.689
221.497	621.231
224.872	340.459
228.247	151.174
231.622	633.982
234.996	1127.74
238.371	2113.74
241.746	3720.16
245.121	5920.89
248.496	8930.96
251.871	11693
255.245	13215.2
258.62	13268.4
261.995	13066
265.37	13085.6
268.745	14360.2
272.12	17259.2
275.494	21616.8
278.869	27451.5
282.244	33877.6
285.619	38046.3
288.994	37350.2
292.368	31240.5
295.743	24080.3
299.118	18785.2
302.493	15715.2
305.868	14059.6
309.243	13703.2
312.617	14179.2
315.992	14680.8
319.367	14705.5
322.742	14250.3
326.117	13190.1
329.491	11518.9
332.866	9547.61
336.241	7222.6
339.616	5130.4
342.991	3474.69
346.365	2133.04
349.74	1092.74
353.115	396.848
356.49	79.3174
359.865	157.897
363.24	270.523
366.614	309.034
369.989	190.948
373.364	95.1074
376.739	489.283
380.114	1122.5
383.488	1850.1
386.863	2786.73
390.238	3454.06
393.613	4070.2
396.988	4248.41
400.363	4059.15
403.737	3470.06
407.112	2850.38
410.487	2276.91
413.862	2000.11
417.237	1661.38
420.611	1448.22
423.986	1255.4
427.361	1043.06
430.736	976.518
434.111	868.476
437.486	921.35
440.86	836.43
444.235	898.196
447.61	771.515
450.985	613.514
454.36	423.388
457.735	277.344
461.109	111.734
464.484	67.6856
467.859	22.7012
471.234	63.7119
474.609	36.729
477.983	73.605
481.358	20.248
484.733	17.5898
488.108	112.524
491.483	98.1545
494.858	181.34
498.232	245.751
501.607	286.895
504.982	378.38
508.357	405.991
511.732	483.377
515.106	524.224
518.481	509.8
521.856	512.113
525.231	483.274
528.606	485.027
531.981	464.878
535.355	460.123
538.73	396.097
542.105	409.233
545.48	361.603
548.855	401.482
552.229	447.493
555.604	780.138
558.979	698.592
562.354	275.269
565.729	251.458
569.104	219.276
572.478	184.06
575.853	140.755
579.228	121.656
582.603	55.2957
585.978	22.9956
589.352	37.6728
592.727	8.53369
596.102	11.7737
599.477	44.3799
602.852	8.55566
606.227	20.9766
609.601	44.75
612.976	34.7082
616.351	12.1968
619.726	59.1426
623.101	91.9211
626.476	118.383
629.85	122.169
633.225	169.608
636.6	166.506
639.975	172.814
643.35	167.059
646.724	207.373
650.099	213.228
653.474	231.58
656.849	191.053
660.224	148.554
663.598	124.032
666.973	49.5635
670.348	21.7031
673.723	5.93408
677.098	1.34961
680.472	2.85791
683.847	7.03003
687.222	11.1916
690.597	25.7082
693.972	28.0647
697.347	13.8635
700.721	4.91504
704.096	55.3955
707.471	20.4517
710.846	40.645
714.221	37.0747
717.596	37.1284
720.97	38.0154
724.345	43.8926
727.72	32.2827
731.095	51.7942
734.47	123.073
737.844	57.843
741.219	90.5535
744.594	90.7449
747.969	75.2195
751.344	73.8923
754.719	72.916
758.093	76.0078
761.468	67.5564
764.843	82.8616
768.218	84.6016
771.593	106.154
774.967	41.22
778.342	31.5933
781.717	53.8018
785.092	43.4343
788.467	13.9495
791.842	41.3005
795.216	19.3943
798.591	11.2654
801.966	8.38843
805.341	48.896
808.716	32.3643
812.091	16.6631
815.465	22.498
818.84	70.03
822.215	37.376
825.59	10.6267
828.965	25.4946
832.339	11.9753
835.714	70.8272
839.089	41.0886
842.464	74.4697
845.839	63.1943
849.213	87.2732
852.588	83.1033
855.963	68.0874
859.338	52.8345
862.713	62.7395
866.087	4.28296
869.462	28.1235
872.837	1.94873
876.212	42.2131
879.587	27.4932
882.962	10.6846
886.337	43.0627
889.711	75.595
893.086	72.5703
896.461	87.9219
899.836	148.718
903.211	178.566
906.585	253.225
909.96	298.586
913.335	414.615
916.71	458.194
920.085	637.756
923.46	867.936
926.834	1171.64
930.209	1617.69
933.584	2170.36
936.959	2828.72
940.334	3442.4
943.708	3976.88
947.083	4324.6
950.458	4336.73
953.833	4043.32
957.208	3439.77
960.582	2611.58
963.957	1801.38
967.332	1243.38
970.707	829.705
974.082	616.108
977.457	446.778
980.831	289.262
984.206	219.675
987.581	199.048
990.956	140.627
994.331	73.1706
997.705	51.0359
1001.08	8.49292
1004.46	11.5903
1007.83	31.7737
1011.21	16.4185
1014.58	32.8227
1017.95	27.9395
1021.33	3.7981
1024.7	30.0293
1028.08	52.4404
1031.45	48.1411
1034.83	95.8367
1038.2	117.541
1041.58	233.261
1044.95	429.012
1048.33	659.147
1051.7	573.375
1055.08	349.114
1058.45	273.596
1061.83	168.881
1065.2	131.45
1068.58	106.688
1071.95	76.5317
1075.33	57.6448
1078.7	164.242
1082.08	196.441
1085.45	172.855
1088.83	111.951
1092.2	53.1382
1095.58	49.0386
1098.95	12.7424
1102.33	18.219
1105.7	32.6389
1109.07	27.345
1112.45	7.17603
1115.82	1.9082
1119.2	9.2085
1122.57	18.9216
1125.95	19.863
1129.32	14.7095
1132.7	38.2573
1136.07	40.4407
1139.45	40.3603
1142.82	34.3965
1146.2	43.6802
1149.57	24.0308
1152.95	17.3882
1156.32	48.2888
1159.7	61.3547
1163.07	42.3689
1166.45	39.5469
1169.82	15.6738
1173.2	51.8135
1176.57	38.8157
1179.95	30.0864
1183.32	27.9919
1186.69	32.7622
1190.07	80.7861
1193.44	26.687
1196.82	21.8315
1200.19	26.29
1203.57	15.7312
1206.94	16.9663
1210.32	12.0574
1213.69	50.1133
1217.07	39.7524
1220.44	30.489
1223.82	29.9951
1227.19	32.6284
1230.57	21.4189
1233.94	11.6209
1237.32	9.0752
1240.69	2.77051
1244.07	6.84155
1247.44	21.7646
1250.82	26.2185
1254.19	24.2515
1257.57	29.2202
1260.94	4.71948
1264.32	60.2805
1267.69	24.4961
1271.07	51.7498
1274.44	26.4697
1277.82	41.834
1281.19	23.946
1284.57	13.9148
1287.94	19.1206
1291.32	15.3921
1294.69	28.9929
1298.06	43.3486
1301.44	16.5701
1304.81	58.5964
1308.19	4.08325
1311.56	45.447
1314.94	0
