Measurement: Raman, 514 nm, unoriented, Raman Data Processed
Mineral: Blodite
Rruff sample: R050317
Ideal chemistry: Na_2_Mg(SO_4_)_2_4H_2_O
Locality: Stassfurt, Germany
Source: American Museum of Natural History
Description: Colorless fragment
Measured chemistry: Na_2.00_Mg_1.00_(S_1.00_O_4_)_2_Â·4H_2_O
Raman shift (cm-1)	intensity
104.516	0
108.691	130.099
112.864	197.929
117.034	384.456
121.203	497.783
125.369	276.544
129.534	13.15
133.696	50.238
137.857	19.227
142.016	166.435
146.172	128.605
150.327	29.763
154.48	199.874
158.63	263.549
162.779	193.744
166.926	276.192
171.07	238.463
175.213	325.695
179.354	348.979
183.493	294.223
187.63	428.403
191.765	477.899
195.898	411.296
200.029	330.536
204.158	271.867
208.285	265.427
212.41	237.555
216.533	182.175
220.654	199.645
224.773	217.154
228.891	198.841
233.006	179.915
237.119	106.111
241.231	135.539
245.34	108.311
249.448	268.334
253.553	240.747
257.657	211.899
261.758	273.35
265.858	131.827
269.956	43.033
274.052	1.345
278.146	40.855
282.237	36.001
286.327	9.416
290.416	66.485
294.502	122.516
298.586	71.866
302.668	32.15
306.749	67.771
310.827	96.547
314.903	18.083
318.978	57.7
323.051	23.663
327.121	103.94
331.19	102.396
335.257	99.702
339.322	97.207
343.385	206.682
347.446	323.21
351.505	398.803
355.563	292.746
359.618	159.052
363.672	127.32
367.723	73.98
371.773	116.683
375.821	181.634
379.866	10.381
383.91	129.457
387.952	153.298
391.992	124.142
396.031	126.985
400.067	228.825
404.101	236.696
408.134	265.554
412.165	245.383
416.193	235.228
420.22	259.103
424.245	302.032
428.268	393.958
432.289	437.885
436.309	541.692
440.326	675.193
444.342	871.564
448.355	1145.96
452.367	1228.99
456.377	1154.04
460.385	834.145
464.391	813.306
468.395	567.441
472.398	443.619
476.398	226.328
480.397	127.427
484.394	65.439
488.389	0.183
492.382	8.963
496.373	19.84
500.362	63.729
504.349	44.66
508.335	4.571
512.319	99.391
516.3	28.014
520.28	110.93
524.259	11.033
528.235	5.453
532.209	67.447
536.182	81.601
540.152	75.953
544.121	180.159
548.088	100.32
552.053	85.824
556.017	163.075
559.978	275.562
563.938	231.577
567.895	163.902
571.851	286.974
575.805	263.655
579.758	336.398
583.708	386.795
587.657	421.139
591.603	467.987
595.548	501.129
599.491	568.736
603.432	624.318
607.372	900.724
611.309	1288.99
615.245	2103.25
619.179	2255.94
623.111	2027.52
627.041	1506.36
630.97	1587.09
634.896	1361.82
638.821	984.938
642.744	882.006
646.665	685.488
650.584	645.857
654.502	690.723
658.418	512.137
662.331	446.646
666.244	483.69
670.154	555.639
674.062	509.61
677.969	403.918
681.874	270.171
685.777	151.881
689.678	295.64
693.577	131.156
697.475	237.03
701.371	202.118
705.265	154.992
709.157	73.229
713.047	262.075
716.936	37.467
720.823	128.902
724.708	112.055
728.591	24.022
732.472	102.275
736.352	104.312
740.23	118.619
744.106	118.188
747.98	51.002
751.853	206.083
755.723	37.015
759.592	35.413
763.459	173.646
767.325	122.395
771.188	80.013
775.05	27.579
778.91	136.422
782.768	45.742
786.625	144.437
790.479	128.964
794.332	70.669
798.183	91.431
802.033	97.384
805.88	40.808
809.726	24.783
813.57	97.785
817.413	58.323
821.253	141.285
825.092	15.856
828.929	109.907
832.764	59.548
836.598	96.104
840.429	209.627
844.259	76.501
848.088	67.983
851.914	243.299
855.739	165.666
859.562	18.792
863.383	77.879
867.203	142.203
871.02	110.052
874.836	201.528
878.65	211.157
882.463	71.65
886.274	43.281
890.083	97.673
893.89	94.277
897.695	0.897
901.499	93.316
905.301	36.984
909.102	160.098
912.9	300.522
916.697	168.582
920.492	229.809
924.285	203.861
928.077	211.823
931.867	304.314
935.655	278.07
939.442	209.624
943.226	288.034
947.009	236.992
950.791	292.386
954.57	261.996
958.348	390.494
962.124	363.002
965.899	518.098
969.671	663.871
973.442	1108.15
977.211	1539.49
980.979	2440.72
984.745	5088.82
988.509	17365.5
992.271	39466.7
996.032	17888.3
999.791	5191.46
1003.55	2360.09
1007.3	1406.35
1011.06	1021.88
1014.81	914.324
1018.56	884.025
1022.31	585.271
1026.06	283.6
1029.8	457.818
1033.55	248.791
1037.29	220.195
1041.03	338.982
1044.77	323.922
1048.5	312.924
1052.24	480.178
1055.97	374.229
1059.7	402.479
1063.43	482.088
1067.16	549.768
1070.89	532.133
1074.61	509.092
1078.34	298.904
1082.06	324.4
1085.78	304.91
1089.5	290.299
1093.21	128.26
1096.93	27.783
1100.64	230.832
1104.35	295.178
1108.06	365.326
1111.77	488.902
1115.48	551.352
1119.18	528.18
1122.89	437.689
1126.59	62.361
1130.29	146.678
1133.99	30.826
1137.68	92.299
1141.38	0.523
1145.07	11.842
1148.76	1.361
1152.45	48.094
1156.14	76.379
1159.83	44.275
1163.51	238.109
1167.19	422.029
1170.88	649.104
1174.56	778.562
1178.23	764.607
1181.91	1641.43
1185.59	2662.12
1189.26	3192.69
1192.93	2394.22
1196.6	1131.98
1200.27	732.07
1203.94	123.133
1207.6	516.146
1211.27	383.209
1214.93	321.256
1218.59	208.656
1222.25	143.938
1225.9	397.545
1229.56	230.742
1233.21	50.551
1236.86	115.934
1240.51	70.225
1244.16	170.553
1247.81	357.744
1251.45	130.924
1255.1	168.219
1258.74	139.078
1262.38	73.535
1266.02	244.914
1269.66	197.539
1273.29	153.973
1276.93	12.283
1280.56	117.344
1284.19	13.404
1287.82	148.389
1291.45	169.807
1295.07	99.998
1298.7	5.578
1302.32	68.314
1305.94	75.641
1309.56	66.828
1313.18	165.824
1316.8	71.434
1320.41	288.832
1324.02	209.875
1327.63	150.393
1331.24	19.684
1334.85	78.271
1338.46	183.67
1342.06	196.76
1345.67	279.871
1349.27	177.887
1352.87	343.129
1356.47	161.918
1360.07	279.275
1363.66	181.195
1367.25	420.691
1370.85	289.527
1374.44	246.441
1378.03	303.236
1381.61	258.617
1385.2	371.182
1388.78	264.037
1392.37	460.219
1395.95	359.578
1399.53	348.809
1403.1	217.123
1406.68	400.721
1410.26	357.438
1413.83	163.533
1417.4	381.945
1420.97	299.314
1424.54	234.371
1428.1	264.016
1431.67	274.34
1435.23	71.51
1438.8	197.234
1442.36	224.877
1445.91	304.135
1449.47	354.477
1453.03	399.521
1456.58	200.121
1460.13	181.281
1463.68	189.277
1467.23	578.135
1470.78	476.932
1474.33	501.195
1477.87	130.234
1481.42	505.033
1484.96	419.258
1488.5	433.596
1492.04	137.244
1495.57	126.744
1499.11	397.061
1502.64	3.596
1506.17	20.838
1509.71	64.803
1513.23	322.969
1516.76	347.182
1520.29	22.756
