Measurement: Raman, 532 nm, unoriented, Raman Data Processed
Mineral: Blodite
Rruff sample: R050317
Ideal chemistry: Na_2_Mg(SO_4_)_2_4H_2_O
Locality: Stassfurt, Germany
Source: American Museum of Natural History
Description: Colorless fragment
Measured chemistry: Na_2.00_Mg_1.00_(S_1.00_O_4_)_2_Â·4H_2_O
Raman shift (cm-1)	intensity
116.459	0
119.834	55.7629
123.209	122.843
126.584	134.197
129.959	90.3503
133.333	56.5324
136.708	20.3509
140.083	3.4915
143.458	7.97273
146.833	3.33087
150.208	15.9997
153.582	21.1376
156.957	18.4531
160.332	18.5581
163.707	17.2105
167.082	19.2843
170.456	19.4649
173.831	23.2341
177.206	32.9235
180.581	41.8771
183.956	36.9794
187.331	43.9452
190.705	53.6179
194.08	70.1
197.455	63.6538
200.83	41.7522
204.205	24.3693
207.579	24.8127
210.954	29.4194
214.329	36.8507
217.704	32.4175
221.079	16.4864
224.453	6.438
227.828	2.94044
231.203	5.11289
234.578	3.79582
237.953	10.2923
241.328	15.6356
244.702	26.4894
248.077	39.1567
251.452	53.2154
254.827	68.4493
258.202	69.7053
261.577	57.451
264.951	37.1359
268.326	17.9862
271.701	7.38248
275.076	1.95973
278.451	0.851585
281.825	0.111649
285.2	2.09544
288.575	3.24262
291.95	9.78011
295.325	10.3989
298.7	9.76131
302.074	5.25073
305.449	2.56812
308.824	0.25489
312.199	3.35541
315.574	0.107262
318.948	1.87147
322.323	2.70954
325.698	5.47612
329.073	10.9916
332.448	24.9367
335.822	39.8731
339.197	56.0178
342.572	78.4869
345.947	109.571
349.322	134.186
352.697	132.859
356.071	87.8911
359.446	56.2876
362.821	28.6466
366.196	19.857
369.571	12.3482
372.945	4.0784
376.32	4.95964
379.695	0.920975
383.07	0.796867
386.445	1.26481
389.82	1.24471
393.194	0.639214
396.569	3.99156
399.944	7.73363
403.319	12.6703
406.694	17.8008
410.068	23.6075
413.443	29.5605
416.818	38.8838
420.193	48.3541
423.568	60.294
426.942	72.451
430.317	94.7945
433.692	118.166
437.067	152.386
440.442	206.37
443.817	274.7
447.191	377.808
450.566	505.028
453.941	607.235
457.316	540.835
460.691	411.575
464.065	317.61
467.44	249.308
470.815	206.157
474.19	154.327
477.565	102.891
480.94	63.5244
484.314	39.7738
487.689	21.1482
491.064	12.591
494.439	6.4014
497.814	3.05705
501.188	0.126038
504.563	0.403931
507.938	1.70224
511.313	2.14114
514.688	1.97961
518.063	3.17169
521.437	4.18021
524.812	2.0652
528.187	1.53452
531.562	0.473465
534.937	1.27248
538.312	4.27937
541.686	6.09988
545.061	7.21809
548.436	9.23628
551.811	15.0886
555.186	21.6197
558.56	25.458
561.935	28.3952
565.31	37.2463
568.685	45.2934
572.06	48.8579
575.434	58.0342
578.809	68.0342
582.184	78.2134
585.559	81.3722
588.934	97.6673
592.308	114.008
595.683	135.084
599.058	171.054
602.433	231.766
605.808	312.878
609.183	414.213
612.557	545.655
615.932	662.279
619.307	634.399
622.682	473.679
626.057	346.188
629.432	285.001
632.806	233.149
636.181	171.192
639.556	119.258
642.931	89.17
646.306	68.5514
649.68	62.6583
653.055	54.3613
656.43	53.8805
659.805	51.6892
663.18	47.2539
666.554	41.4658
669.929	36.9756
673.304	27.2738
676.679	17.6285
680.054	12.0916
683.428	7.4363
686.803	1.07208
690.178	1.1384
693.553	1.35252
696.928	1.73655
700.303	1.72316
703.677	1.67343
707.052	1.96728
710.427	2.3719
713.802	0.269165
717.177	1.17616
720.552	2.63482
723.926	0.450195
727.301	2.03975
730.676	4.44206
734.051	1.0807
737.426	4.41348
740.8	5.08491
744.175	3.63518
747.55	6.11037
750.925	4.81341
754.3	5.76913
757.674	5.86901
761.049	5.87198
764.424	3.54528
767.799	6.4485
771.174	4.58974
774.549	5.81595
777.923	5.5508
781.298	6.55736
784.673	5.36583
788.048	6.64941
791.423	8.909
794.798	7.01872
798.172	7.31699
801.547	7.11982
804.922	5.78297
808.297	6.31355
811.672	5.73959
815.046	4.70764
818.421	4.13623
821.796	7.86553
825.171	8.25439
828.546	8.17873
831.92	8.94701
835.295	7.95869
838.67	11.7293
842.045	13.4601
845.42	13.1218
848.795	15.2374
852.169	14.3835
855.544	16.3733
858.919	16.2363
862.294	16.6241
865.669	16.6801
869.043	13.2119
872.418	12.3764
875.793	10.5601
879.168	4.27132
882.543	3.16965
885.918	0.716095
889.292	1.68046
892.667	0.034149
896.042	1.19839
899.417	0.04998
902.792	0.155655
906.166	0.277008
909.541	1.17739
912.916	0.569687
916.291	1.5114
919.666	0.661865
923.04	0.464455
926.415	0.346306
929.79	2.29173
933.165	2.97879
936.54	7.83514
939.915	10.7815
943.289	14.1891
946.664	21.2029
950.039	22.4406
953.414	29.6873
956.789	41.6738
960.163	53.1486
963.538	71.7845
966.913	103.689
970.288	160.488
973.663	268.492
977.038	480.742
980.412	1050.01
983.787	1817.22
987.162	3313.21
990.537	6814.47
993.912	6573.63
997.287	1878.11
1000.66	689.72
1004.04	341.115
1007.41	188.323
1010.79	113.82
1014.16	72.5338
1017.53	46.0124
1020.91	29.3681
1024.29	15.4199
1027.66	6.75223
1031.04	4.39069
1034.41	2.6895
1037.78	1.59368
1041.16	2.00626
1044.53	2.13831
1047.91	1.63805
1051.28	8.51764
1054.66	19.9713
1058.03	37.7172
1061.41	54.9454
1064.78	78.1503
1068.16	88.6826
1071.53	85.0636
1074.91	64.1481
1078.28	42.6782
1081.66	29.4006
1085.03	18.9867
1088.41	16.8059
1091.78	21.8862
1095.16	28.2303
1098.53	44.126
1101.91	64.9591
1105.28	106.278
1108.65	147.384
1112.03	181.508
1115.4	196.586
1118.78	164.686
1122.15	113.941
1125.53	68.3244
1128.9	41.0221
1132.28	24.8113
1135.65	10.9813
1139.03	5.11478
1142.4	0.654289
1145.78	2.05479
1149.15	1.02927
1152.53	0.918732
1155.9	5.62414
1159.28	14.0079
1162.65	27.9955
1166.03	58.6854
1169.4	104.025
1172.78	166.062
1176.15	210.699
1179.53	290.18
1182.9	438.385
1186.28	568.179
1189.65	571.726
1193.03	363.864
1196.4	181.024
1199.78	90.1706
1203.15	50.658
1206.53	27.176
1209.9	14.0838
1213.28	9.68322
1216.65	6.39992
1220.02	2.76125
1223.4	0.656082
1226.77	1.59293
1230.15	0.821106
1233.52	1.46548
1236.9	1.07349
1240.27	3.07684
1243.65	0.494308
1247.02	1.29576
1250.4	0.545433
1253.77	2.06677
1257.15	1.39043
1260.52	1.95109
1263.9	5.09767
1267.27	3.75307
1270.65	4.75566
1274.02	2.43531
1277.4	0.225235
