Measurement: Raman, 780 nm, unoriented, Raman Data Processed
Mineral: Blodite
Rruff sample: R050341
Ideal chemistry: Na_2_Mg(SO_4_)_2_4H_2_O
Locality: Soda Lake, San Luis Obispo County, California, USA
Source: George Rossman
Description: Gray to colorless equant crystal
Measured chemistry: Na_2.00_Mg_1.00_(S_1.00_O_4_)_2_Â·4H_2_O
Raman shift (cm-1)	intensity
94.934	0
98.3088	0.011856
101.684	24.5342
105.058	69.8291
108.433	87.975
111.808	85.574
115.183	83.6066
118.558	103.992
121.933	128.664
125.307	117.999
128.682	73.5816
132.057	26.6321
135.432	4.40538
138.807	2.49944
142.181	2.5799
145.556	2.4138
148.931	10.2453
152.306	22.4631
155.681	32.7683
159.055	42.8591
162.43	55.4643
165.805	59.2647
169.18	63.6681
172.555	68.6686
175.93	76.9931
179.304	85.4609
182.679	87.2197
186.054	82.0969
189.429	90.01
192.804	104.065
196.179	104.064
199.553	87.487
202.928	57.3857
206.303	40.1435
209.678	33.1578
213.053	30.1775
216.427	26.7012
219.802	20.3941
223.177	12.6205
226.552	5.53938
229.927	0.554604
233.302	0.024727
236.676	2.34085
240.051	2.43772
243.426	6.31641
246.801	9.76947
250.176	15.5961
253.55	23.006
256.925	29.1719
260.3	25.8674
263.675	17.9032
267.05	8.46751
270.424	4.67284
273.799	1.83639
277.174	3.34546
280.549	3.72636
283.924	8.27977
287.298	11.3822
290.673	14.208
294.048	18.0345
297.423	16.6733
300.798	13.292
304.173	6.98686
307.547	2.05974
310.922	0.026855
314.297	2.54501
317.672	1.79886
321.047	0.958359
324.421	2.11336
327.796	6.05705
331.171	11.7946
334.546	19.9765
337.921	29.0696
341.296	40.8176
344.67	57.563
348.045	74.9768
351.42	84.4067
354.795	66.5335
358.17	39.246
361.545	21.5138
364.919	10.1083
368.294	5.06237
371.669	4.20226
375.044	1.79462
378.419	0.245056
381.793	0.46859
385.168	0.663231
388.543	1.80335
391.918	2.46758
395.293	4.36694
398.667	6.99153
402.042	8.52257
405.417	11.9893
408.792	15.9891
412.167	19.8772
415.541	25.905
418.916	29.6523
422.291	37.9634
425.666	48.0709
429.041	55.5461
432.416	68.7699
435.79	85.8901
439.165	108.031
442.54	133.487
445.915	166.856
449.29	212.416
452.664	258.191
456.039	251.895
459.414	193.714
462.789	142.192
466.164	115.71
469.539	99.2975
472.913	79.198
476.288	59.1677
479.663	37.3933
483.038	22.0679
486.413	14.4402
489.788	7.88714
493.162	5.2156
496.537	2.13876
499.912	0.881111
503.287	0.073875
506.662	0.257523
510.036	0.735443
513.411	1.45518
516.786	1.02718
520.161	1.69082
523.536	0.686768
526.91	1.42324
530.285	0.049088
533.66	1.52567
537.035	0.686752
540.41	0.101578
543.784	0.763603
547.159	2.81818
550.534	4.24595
553.909	4.73309
557.284	6.99415
560.659	8.29031
564.033	11.9899
567.408	15.8323
570.783	18.535
574.158	21.4284
577.533	23.1305
580.908	22.9088
584.282	25.5897
587.657	25.4249
591.032	25.9777
594.407	28.7882
597.782	37.734
601.156	56.2141
604.531	82.2802
607.906	118.577
611.281	181.417
614.656	276.921
618.03	358.657
621.405	318.216
624.78	256.932
628.155	228.18
631.53	204.274
634.905	162.989
638.279	120.273
641.654	91.7195
645.029	72.2167
648.404	58.4543
651.779	50.3761
655.154	48.2762
658.528	40.9814
661.903	39.1716
665.278	34.6763
668.653	29.8736
672.028	22.56
675.402	15.6767
678.777	8.77834
682.152	4.61669
685.527	3.21684
688.902	0.600479
692.277	0.614281
695.651	1.51907
699.026	1.30946
702.401	1.1495
705.776	0.756714
709.15	0.976425
712.525	0.053566
715.9	0.036819
719.275	0.42099
722.65	1.1477
726.025	0.392635
729.399	0.410683
732.774	0.618088
736.149	0.634235
739.524	1.55487
742.899	1.02634
746.274	0.330627
749.648	1.19181
753.023	1.06984
756.398	2.12254
759.773	2.80644
763.148	2.10624
766.522	0.683395
769.897	1.11435
773.272	2.51837
776.647	1.07356
780.022	2.83568
783.396	2.59577
786.771	2.73087
790.146	3.24231
793.521	2.66444
796.896	3.41153
800.271	3.2077
803.645	2.95749
807.02	2.24865
810.395	2.59732
813.77	2.99379
817.145	2.27388
820.519	4.20996
823.894	3.19671
827.269	2.5773
830.644	3.86961
834.019	3.70554
837.394	4.93846
840.768	5.43777
844.143	6.80197
847.518	7.61763
850.893	8.24472
854.268	7.73025
857.643	7.83136
861.017	8.85565
864.392	9.44669
867.767	8.02792
871.142	8.19302
874.516	6.54896
877.891	3.45599
881.266	2.58051
884.641	1.90997
888.016	1.26588
891.391	1.39754
894.765	0.449238
898.14	0.769478
901.515	0.536224
904.89	1.05788
908.265	1.19375
911.639	0.151901
915.014	0.053982
918.389	0.718224
921.764	0.651672
925.139	0.766243
928.514	0.66357
931.888	0.845306
935.263	2.47855
938.638	4.90651
942.013	6.87162
945.388	7.76096
948.763	10.3466
952.137	14.945
955.512	19.2341
958.887	26.06
962.262	35.1942
965.636	49.4515
969.011	73.9909
972.386	120.554
975.761	226.345
979.136	486.084
982.511	807.752
985.885	1299.88
989.26	2388.68
992.635	4094
996.01	1896.26
999.385	556.115
1002.76	232.341
1006.13	119.125
1009.51	69.9035
1012.88	40.3783
1016.26	24.7904
1019.63	15.0211
1023.01	9.44015
1026.38	3.98801
1029.76	2.17471
1033.13	0.019325
1036.51	1.59846
1039.88	0.518822
1043.26	0.528236
1046.63	2.00997
1050.01	5.70055
1053.38	9.46225
1056.76	18.3781
1060.13	29.423
1063.51	44.2914
1066.88	55.2077
1070.26	56.6203
1073.63	48.2618
1077.01	34.118
1080.38	19.8641
1083.76	14.491
1087.13	10.1441
1090.51	8.88874
1093.88	8.16756
1097.25	10.8318
1100.63	15.5707
1104	22.3331
1107.38	31.7114
1110.75	41.444
1114.13	46.1974
1117.5	41.6902
1120.88	31.3746
1124.25	19.0979
1127.63	10.3931
1131	4.51258
1134.38	1.66318
1137.75	1.526
1141.13	0.670292
1144.5	1.6075
1147.88	0.583809
1151.25	2.79441
1154.63	3.90583
1158	7.35903
1161.38	14.0065
1164.75	25.7686
1168.12	42.5982
1171.5	71.7076
1174.88	95.7593
1178.25	122.89
1181.62	172.634
1185	242.879
1188.37	277.916
1191.75	223.773
1195.12	118.334
1198.5	59.825
1201.87	33.3516
1205.25	17.3957
1208.62	13.2534
1212	7.20303
1215.37	4.07944
1218.75	4.15153
1222.12	1.67173
1225.5	2.99431
1228.87	1.83107
1232.25	1.89322
1235.62	0.860283
1239	1.42496
1242.37	2.25435
1245.75	2.48394
1249.12	1.30509
1252.5	0.469749
1255.87	0.149231
1259.25	0.274879
1262.62	0.065826
1265.99	0.499084
