Measurement: Raman, 532 nm, unoriented, Raman Data Processed
Mineral: Blodite
Rruff sample: R050341
Ideal chemistry: Na_2_Mg(SO_4_)_2_4H_2_O
Locality: Soda Lake, San Luis Obispo County, California, USA
Source: George Rossman
Description: Gray to colorless equant crystal
Measured chemistry: Na_2.00_Mg_1.00_(S_1.00_O_4_)_2_Â·4H_2_O
Raman shift (cm-1)	intensity
96.6926	0
100.067	0.281273
103.442	4.15726
106.817	35.557
110.192	52.6859
113.567	79.4926
116.942	143.009
120.316	241.599
123.691	330.674
127.066	326.462
130.441	271.478
133.816	236.136
137.19	178.415
140.565	139.952
143.94	114.614
147.315	119.831
150.69	128.54
154.065	119.276
157.439	93.6423
160.814	82.5478
164.189	76.2042
167.564	70.1581
170.939	62.258
174.313	53.0292
177.688	46.3817
181.063	36.9843
184.438	35.0864
187.813	32.8602
191.187	37.1875
194.562	51.809
197.937	45.1587
201.312	29.2766
204.687	26.1546
208.061	31.6842
211.436	47.1797
214.811	55.6756
218.186	57.0763
221.561	54.7257
224.936	44.198
228.31	33.6983
231.685	19.5208
235.06	3.9554
238.435	4.05962
241.81	0.660049
245.185	2.79219
248.559	1.80843
251.934	15.8469
255.309	25.3044
258.684	25.6347
262.059	21.0794
265.433	12.1819
268.808	1.58916
272.183	0.511719
275.558	4.31613
278.933	0.756454
282.308	0.638824
285.682	10.0771
289.057	20.5681
292.432	27.1723
295.807	35.1056
299.182	33.8729
302.556	26.633
305.931	14.7252
309.306	8.26953
312.681	1.12584
316.056	1.31168
319.43	2.01672
322.805	2.83751
326.18	0.855988
329.555	5.35355
332.93	10.6007
336.305	11.8677
339.679	17.5248
343.054	30.4474
346.429	48.9344
349.804	64.6931
353.179	58.5272
356.553	37.8204
359.928	18.2036
363.303	10.8993
366.678	1.34154
370.053	0.806381
373.428	0.902023
376.802	1.08516
380.177	0.165115
383.552	4.51509
386.927	0.778671
390.302	11.2581
393.676	16.6705
397.051	29.1609
400.426	31.895
403.801	41.7732
407.176	58.4449
410.55	72.15
413.925	92.5694
417.3	116.349
420.675	143.506
424.05	168.941
427.425	199.87
430.799	238.518
434.174	292.697
437.549	361.922
440.924	455.926
444.299	580.058
447.673	759.649
451.048	999.43
454.423	1171.99
457.798	1059.91
461.173	836.883
464.548	671.065
467.922	573.141
471.297	469.623
474.672	349.653
478.047	223.43
481.422	132.416
484.796	79.167
488.171	44.7619
491.546	22.5494
494.921	12.7451
498.296	4.76814
501.671	1.14616
505.045	6.4041
508.42	2.62796
511.795	4.00458
515.17	4.21992
518.545	4.02022
521.919	1.64481
525.294	0.358887
528.669	2.31055
532.044	5.31085
535.419	11.9486
538.794	9.14563
542.168	11.4422
545.543	12.6578
548.918	17.9674
552.293	20.8152
555.668	22.9307
559.043	24.4386
562.417	32.8001
565.792	34.4749
569.167	38.7938
572.542	45.7051
575.917	43.3677
579.291	48.5722
582.666	51.8266
586.041	55.5481
589.416	63.0969
592.791	73.1856
596.165	101.681
599.54	154.816
602.915	255.485
606.29	398.644
609.665	636.677
613.039	1027.05
616.414	1360.17
619.789	1098
623.164	651.602
626.539	432.539
629.914	325.41
633.288	238.786
636.663	167.723
640.038	115.103
643.413	86.4975
646.788	63.6988
650.163	52.7334
653.537	44.939
656.912	36.9062
660.287	32.3669
663.662	30.8005
667.037	29.6826
670.411	20.5721
673.786	15.6323
677.161	11.8122
680.536	8.85579
683.911	5.59592
687.285	3.442
690.66	0.21904
694.035	1.48445
697.41	1.43276
700.785	2.20993
704.159	0.32933
707.534	3.41472
710.909	2.68831
714.284	1.62495
717.659	0.615524
721.034	0.069061
724.408	0.387192
727.783	2.18265
731.158	3.73807
734.533	5.27047
737.908	3.57657
741.283	5.56766
744.657	3.42722
748.032	8.24377
751.407	6.11089
754.782	7.07884
758.157	7.97336
761.531	9.07192
764.906	7.92233
768.281	4.60926
771.656	5.07561
775.031	5.76372
778.405	6.39807
781.78	7.28527
785.155	8.4864
788.53	7.37971
791.905	5.58134
795.28	6.97549
798.654	10.6853
802.029	7.10759
805.404	7.75435
808.779	6.32352
812.154	7.12617
815.529	7.50035
818.903	9.20284
822.278	10.5957
825.653	13.4651
829.028	10.7174
832.403	18.4894
835.777	19.9049
839.152	20.7726
842.527	22.064
845.902	21.3739
849.277	25.0128
852.652	22.4419
856.026	19.9403
859.401	19.5268
862.776	18.0932
866.151	15.555
869.526	16.2508
872.9	11.3746
876.275	7.1504
879.65	5.4704
883.025	4.19186
886.4	0.436844
889.774	1.70145
893.149	1.67986
896.524	0.048325
899.899	0.329468
903.274	0.893486
906.649	0.270782
910.023	1.19125
913.398	1.2621
916.773	1.41003
920.148	1.22488
923.523	1.88214
926.898	3.79894
930.272	4.61076
933.647	10.3238
937.022	11.1285
940.397	18.243
943.771	23.7788
947.146	32.8007
950.521	37.5094
953.896	46.5163
957.271	61.6718
960.646	85.1281
964.02	115.503
967.395	167.394
970.77	256.447
974.145	429.406
977.52	818.765
980.894	1719.82
984.269	2883.83
987.644	5450.41
991.019	11056.3
994.394	7698.04
997.769	2135.18
1001.14	817.326
1004.52	408.223
1007.89	224.234
1011.27	133.972
1014.64	82.3371
1018.02	47.7973
1021.39	29.8853
1024.77	12.8777
1028.14	4.19267
1031.52	0.694458
1034.89	3.0332
1038.27	3.65846
1041.64	3.07838
1045.02	6.91164
1048.39	15.3234
1051.77	37.9349
1055.14	66.7643
1058.52	106.481
1061.89	158.776
1065.27	210.1
1068.64	229.034
1072.02	205.324
1075.39	153.285
1078.76	100.968
1082.14	67.425
1085.51	43.513
1088.89	30.966
1092.26	21.4067
1095.64	18.6582
1099.01	27.0477
1102.39	36.263
1105.76	53.5615
1109.14	78.2269
1112.51	93.481
1115.89	98.0772
1119.26	77.276
1122.64	54.7869
1126.01	31.6068
1129.39	16.0586
1132.76	10.0517
1136.14	0.519608
1139.51	2.53606
1142.89	3.90347
1146.26	3.00235
1149.63	0.869904
1153.01	1.20639
1156.38	5.16944
1159.76	12.9771
1163.13	22.7381
1166.51	38.5966
1169.88	68.9504
1173.26	103.511
1176.63	125.938
1180.01	179.473
1183.38	266.777
1186.76	341.717
1190.13	322.777
1193.51	186.775
1196.88	92.5683
1200.26	50.8742
1203.63	23.8658
1207.01	15.1911
1210.38	7.65674
1213.76	4.86478
1217.13	0.968391
1220.51	2.5908
1223.88	2.21527
1227.26	1.32233
1230.63	1.46866
1234.01	3.40127
1237.38	2.8326
1240.76	3.20489
1244.13	3.39594
1247.51	3.24638
1250.88	1.48663
1254.26	0.81839
1257.63	2.05225
1261	3.12365
1264.38	3.09382
1267.75	2.1461
1271.13	1.83098
