Measurement: Raman, 514 nm, unoriented, Raman Data Processed
Mineral: Blodite
Rruff sample: R050341
Ideal chemistry: Na_2_Mg(SO_4_)_2_4H_2_O
Locality: Soda Lake, San Luis Obispo County, California, USA
Source: George Rossman
Description: Gray to colorless equant crystal
Measured chemistry: Na_2.00_Mg_1.00_(S_1.00_O_4_)_2_Â·4H_2_O
Raman shift (cm-1)	intensity
73.842	0
78.031	142.204
82.218	63.709
86.404	148.057
90.587	317.547
94.768	526.343
98.947	815.816
103.124	1082.12
107.3	860.727
111.473	521.693
115.644	407.947
119.813	346.659
123.981	424.226
128.146	482.417
132.309	546.331
136.47	564.04
140.63	587.355
144.787	646.328
148.942	606.639
153.096	578.3
157.247	295.255
161.396	156.002
165.544	81.705
169.689	76.562
173.833	32.661
177.974	26.5
182.114	119.934
186.251	86.423
190.387	213.49
194.52	235.008
198.652	208.484
202.782	238.392
206.909	332.547
211.035	442.243
215.159	500.436
219.281	443.876
223.4	455.429
227.518	380.568
231.634	276.87
235.748	251.454
239.86	196.131
243.97	170.237
248.079	221.623
252.185	267.388
256.289	403.127
260.391	352.606
264.492	253.669
268.59	155.208
272.687	123.144
276.781	141.41
280.874	35.954
284.964	4.259
289.053	72.261
293.14	9.12
297.225	28.18
301.308	57.619
305.389	32.162
309.468	9.207
313.545	30.524
317.62	13.829
321.693	3.12
325.765	50.412
329.834	31.738
333.902	6.048
337.967	30.699
342.031	10.508
346.093	39.354
350.153	125.205
354.21	96.113
358.267	51.02
362.321	29.116
366.373	102.218
370.423	48.042
374.471	80.344
378.518	132.583
382.563	172.283
386.605	172.435
390.646	126.418
394.685	163.615
398.722	220.597
402.757	245.795
406.79	214.116
410.821	432.366
414.851	459.681
418.878	433.057
422.904	539.517
426.927	596.007
430.949	722.542
434.969	917.106
438.987	1137.41
443.003	1526.02
447.018	2272.51
451.03	3320.1
455.041	4092.55
459.049	3912.18
463.056	3176.06
467.061	2838.71
471.064	2417.24
475.065	1696
479.064	1220.58
483.062	790.241
487.057	466.571
491.051	307.214
495.043	147.292
499.032	137.998
503.02	87.351
507.007	75.797
510.991	76.948
514.973	102.554
518.954	59.13
522.933	64.667
526.91	8.61
530.885	39.789
534.858	10.618
538.829	33.026
542.799	76.637
546.766	90.662
550.732	13.007
554.696	10.382
558.658	171.934
562.618	159.093
566.576	76.906
570.533	186.542
574.488	162.998
578.44	101.812
582.391	69.192
586.341	174.175
590.288	264.426
594.233	226.612
598.177	206.997
602.119	276.368
606.059	446.251
609.997	657.041
613.933	1006.73
617.868	1145.65
621.801	776.311
625.731	586.707
629.66	366.331
633.588	269.091
637.513	213.961
641.437	202.543
645.358	117.411
649.278	64.103
653.196	173.148
657.113	101.741
661.027	130.922
664.94	174.13
668.851	95.199
672.76	125.275
676.667	163.793
680.572	128.16
684.476	105.651
688.378	8.514
692.278	28.292
696.176	29.604
700.072	182.035
703.967	34.633
707.86	34.182
711.751	22.699
715.64	61.316
719.527	85.589
723.413	73.774
727.297	120.021
731.179	124.17
735.059	38.203
738.937	85.097
742.814	101.902
746.689	92.6
750.562	53.171
754.433	37.64
758.303	67.023
762.17	52.333
766.036	10.426
769.901	37.697
773.763	121.712
777.624	52.359
781.482	49.406
785.339	26.921
789.195	104.528
793.048	36.805
796.9	48.993
800.75	14.105
804.598	120.052
808.445	19.988
812.289	100.838
816.132	49.632
819.973	63.302
823.813	84.472
827.65	90.104
831.486	137.693
835.32	115.268
839.152	81.875
842.983	76.117
846.812	122.133
850.639	126.641
854.464	119.406
858.288	119.786
862.11	125.237
865.93	117.108
869.748	53.731
873.564	112.976
877.379	94.495
881.192	97.117
885.004	47.241
888.813	69.013
892.621	135.815
896.427	99.804
900.232	64.454
904.034	91.072
907.835	143.366
911.634	61.794
915.432	143.515
919.227	169.974
923.021	149.108
926.813	179.751
930.604	210.688
934.393	186.46
938.18	274.035
941.965	221.698
945.749	198.086
949.53	321.973
953.311	299.27
957.089	285.285
960.866	501.617
964.641	505.566
968.414	702.622
972.185	1027.6
975.955	1526.78
979.723	2420.07
983.49	4939.64
987.254	13246.9
991.017	45811.9
994.779	34083.9
998.538	10050.1
1002.3	3496.01
1006.05	1867.99
1009.81	1206.67
1013.56	829.755
1017.31	629.896
1021.06	532.189
1024.81	411.299
1028.55	315.34
1032.3	367.816
1036.04	237.595
1039.78	270.824
1043.52	220.061
1047.26	163.307
1050.99	227.551
1054.73	325.912
1058.46	340.072
1062.19	438.037
1065.92	600.784
1069.65	654.743
1073.37	530.13
1077.1	382.321
1080.82	360.52
1084.54	248.981
1088.26	247.116
1091.97	90.402
1095.69	82.12
1099.4	50.848
1103.12	51.835
1106.83	8.367
1110.54	45.088
1114.24	130.82
1117.95	142.67
1121.65	15.664
1125.35	135.547
1129.06	1.401
1132.75	7.615
1136.45	141.163
1140.15	17.28
1143.84	60.17
1147.53	89.458
1151.22	5.757
1154.91	34.952
1158.6	86.485
1162.28	111.642
1165.97	125.816
1169.65	67.659
1173.33	230.544
1177.01	309.65
1180.69	239.868
1184.36	531.557
1188.04	589.319
1191.71	581.335
1195.38	309.974
1199.05	209.471
1202.71	206.479
1206.38	153.67
1210.04	94.276
1213.71	120.911
1217.37	103.403
1221.03	53.746
1224.68	158.621
1228.34	139.691
1231.99	122.234
1235.65	204.887
1239.3	47.135
1242.95	177.126
1246.59	213.146
1250.24	157.835
1253.88	111.079
1257.53	78.485
1261.17	92.513
1264.81	73.467
1268.45	163.148
1272.08	55.645
1275.72	78.184
1279.35	78.318
1282.98	9.866
1286.61	65.614
1290.24	68.315
1293.87	85.522
1297.49	6.966
1301.11	22.159
1304.73	64.977
1308.36	66.271
1311.97	4.683
1315.59	30.377
1319.2	1.743
1322.82	24.641
1326.43	145.721
1330.04	131.87
1333.65	104.814
1337.26	102.605
1340.86	145.252
1344.47	11.761
1348.07	126.05
1351.67	223.951
1355.27	137.684
1358.87	212.558
1362.46	81.132
1366.06	155.808
1369.65	143.315
1373.24	186.559
1376.83	100.515
1380.42	170.429
1384	223.625
1387.59	78.643
1391.17	188.335
1394.75	324.48
1398.33	135.69
1401.91	206.298
1405.49	149.418
1409.06	193.302
1412.64	232.438
1416.21	317.372
1419.78	266.557
1423.35	231.946
1426.91	294.984
1430.48	245.15
1434.05	230.067
1437.61	320.196
1441.17	392.67
1444.73	231.336
1448.29	166.112
1451.84	261.719
1455.4	406.777
1458.95	373.056
1462.5	236.674
1466.05	317.074
1469.6	251.246
1473.15	317.814
1476.69	150.575
1480.24	242.337
1483.78	250.415
1487.32	234.925
1490.86	233.12
1494.39	280.411
1497.93	62.347
1501.46	276.951
1505	155.686
1508.53	243.578
1512.06	239.52
1515.59	83.503
1519.11	96.315
