Measurement: Raman, 780 nm, unoriented, Raman Data RAW
Mineral: Blodite
Rruff sample: R050317
Ideal chemistry: Na_2_Mg(SO_4_)_2_4H_2_O
Locality: Stassfurt, Germany
Source: American Museum of Natural History
Description: Colorless fragment
Measured chemistry: Na_2.00_Mg_1.00_(S_1.00_O_4_)_2_Â·4H_2_O
Raman shift (cm-1)	intensity
114.701	0
118.076	2.57736
121.45	21.0995
124.825	40.7965
128.2	42.6522
131.575	35.172
134.95	23.4232
138.325	7.95247
141.699	22.3625
145.074	38.159
148.449	64.6752
151.824	74.3725
155.199	47.5585
158.573	14.4826
161.948	1.16405
165.323	3.56795
168.698	3.58234
172.073	1.3461
175.447	12.0913
178.822	17.6989
182.197	28.3998
185.572	40.9267
188.947	50.8808
192.322	65.1043
195.696	77.6369
199.071	74.6927
202.446	62.6135
205.821	62.0664
209.196	70.3735
212.571	85.3413
215.945	88.795
219.32	85.9219
222.695	74.4549
226.07	67.7518
229.445	61.1898
232.819	50.7926
236.194	48.3495
239.569	50.0744
242.944	56.0191
246.319	61.1869
249.694	76.5025
253.068	88.3413
256.443	91.7877
259.818	85.1294
263.193	67.8482
266.567	47.096
269.942	29.8768
273.317	18.6712
276.692	10.2151
280.067	7.6889
283.442	5.04746
286.816	6.27642
290.191	6.34036
293.566	6.58768
296.941	7.95377
300.316	5.99236
303.69	4.64139
307.065	2.15595
310.44	2.16711
313.815	1.22731
317.19	1.65678
320.565	2.67767
323.939	0.212769
327.314	0.753433
330.689	3.81909
334.064	7.57165
337.439	8.98767
340.813	15.4868
344.188	24.2526
347.563	32.7281
350.938	41.0839
354.313	35.2323
357.688	27.205
361.062	13.7346
364.437	8.52006
367.812	2.93871
371.187	4.2841
374.562	1.8319
377.937	2.79978
381.311	0.894485
384.686	0.438446
388.061	0.684631
391.436	4.31
394.81	4.68492
398.185	9.95967
401.56	8.53728
404.935	15.8072
408.31	12.9298
411.685	22.4773
415.059	28.2405
418.434	35.7408
421.809	48.1786
425.184	54.7298
428.559	70.691
431.933	90.5264
435.308	114.472
438.683	154.863
442.058	197.412
445.433	261.518
448.808	344.12
452.182	448.198
455.557	512.194
458.932	464.86
462.307	379.06
465.682	314.421
469.057	276.24
472.431	234.045
475.806	175.414
479.181	110.513
482.556	70.7395
485.931	40.3257
489.305	25.1733
492.68	13.7625
496.055	9.84301
499.43	4.85383
502.805	2.39011
506.18	0.192856
509.554	3.00394
512.929	1.28435
516.304	1.06596
519.679	1.81216
523.054	0.541374
526.428	2.19325
529.803	0.359695
533.178	1.97497
536.553	1.3344
539.928	1.50976
543.303	3.73488
546.677	2.87375
550.052	6.82925
553.427	7.6814
556.802	13.5226
560.177	12.6792
563.551	16.4223
566.926	21.2469
570.301	24.2842
573.676	27.5383
577.051	34.5101
580.426	37.2602
583.8	42.9299
587.175	49.6704
590.55	55.7923
593.925	64.8901
597.299	79.8164
600.674	104.035
604.049	129.255
607.424	163.764
610.799	206.284
614.174	265.691
617.548	283.99
620.923	223.778
624.298	139.486
627.673	75.3888
631.048	48.7698
634.423	33.8951
637.797	18.4391
641.172	12.196
644.547	7.75055
647.922	4.2594
651.297	6.62686
654.671	4.25736
658.046	6.69143
661.421	5.60455
664.796	5.29603
668.171	6.50965
671.545	5.33092
674.92	3.24749
678.295	2.20438
681.67	1.22018
685.045	0.157356
688.42	0.823242
691.794	0.974747
695.169	0.327797
698.544	0.73085
701.919	0.050949
705.294	0.387238
708.668	0.272675
712.043	0.379929
715.418	2.38145
718.793	0.419144
722.168	0.919769
725.543	2.13774
728.917	0.466507
732.292	1.03935
735.667	2.59355
739.042	0.94828
742.417	0.010269
745.791	1.701
749.166	2.64117
752.541	0.681236
755.916	1.20148
759.291	1.16922
762.665	2.98482
766.04	4.03056
769.415	2.66177
772.79	3.47523
776.165	3.31975
779.54	4.19972
782.914	4.8381
786.289	1.98541
789.664	3.44412
793.039	3.85094
796.414	1.90467
799.788	2.03014
803.163	1.79598
806.538	3.98921
809.913	4.03801
813.288	3.34607
816.663	3.22203
820.037	3.96317
823.412	5.20915
826.787	4.83023
830.162	3.59708
833.537	5.25571
836.912	5.51868
840.286	5.83193
843.661	4.71646
847.036	8.38685
850.411	6.46511
853.786	6.04629
857.16	4.64577
860.535	7.18931
863.91	5.10701
867.285	3.65298
870.66	3.18385
874.034	2.23495
877.409	5.62147
880.784	2.36642
884.159	0.181038
887.534	0.930183
890.909	0.997864
894.283	0.337334
897.658	0.40377
901.033	0.917435
904.408	1.07643
907.783	2.03593
911.158	0.277695
914.532	1.51226
917.907	1.46921
921.282	0.760307
924.657	0.987068
928.032	2.08607
931.406	1.43796
934.781	0.518661
938.156	4.77144
941.531	4.5171
944.906	6.61143
948.28	9.89979
951.655	10.8346
955.03	15.6159
958.405	21.6867
961.78	31.8546
965.154	50.4432
968.529	75.9055
971.904	122.481
975.279	227.525
978.654	497.508
982.029	863.176
985.403	1364.2
988.778	2487.71
992.153	4497.75
995.528	2267.9
998.903	667.053
1002.28	276.018
1005.65	141.716
1009.03	82.7811
1012.4	51.3244
1015.78	31.1698
1019.15	18.4069
1022.53	10.431
1025.9	4.80319
1029.28	2.17
1032.65	1.53676
1036.03	0.582153
1039.4	0.892349
1042.78	1.76575
1046.15	4.34994
1049.53	8.04225
1052.9	18.2074
1056.28	30.8844
1059.65	49.6084
1063.02	68.1192
1066.4	79.5147
1069.77	83.5958
1073.15	71.5825
1076.52	51.2734
1079.9	31.9657
1083.27	18.5206
1086.65	11.3332
1090.02	10.6211
1093.4	4.56043
1096.77	6.01438
1100.15	10.7433
1103.52	17.6098
1106.9	26.8352
1110.27	37.2025
1113.65	41.9675
1117.02	40.7506
1120.4	34.2712
1123.77	19.7944
1127.15	13.5689
1130.52	6.9124
1133.89	2.42167
1137.27	0.036758
1140.64	0.094299
1144.02	1.51382
1147.39	1.66312
1150.77	0.111237
1154.14	0.210182
1157.52	2.20599
1160.89	8.48413
1164.27	10.5666
1167.64	17.2233
1171.02	31.0524
1174.39	41.3663
1177.77	57.834
1181.14	83.231
1184.52	120.683
1187.89	130.787
1191.27	97.8664
1194.64	55.5692
1198.02	24.7557
1201.39	16.4543
1204.77	10.7075
1208.14	5.67239
1211.52	0.132652
1214.89	2.69467
1218.27	1.54699
1221.64	0.816643
1225.02	1.70798
1228.39	0.433624
1231.77	4.05637
1235.14	2.21959
1238.52	3.88127
1241.89	0.507462
1245.26	2.22688
1248.64	1.80085
1252.01	2.73554
1255.39	3.38805
1258.76	1.96833
1262.14	1.92986
1265.51	2.72627
1268.89	1.40686
1272.26	0.79171
1275.64	2.53357
1279.01	0.024094
