Measurement: Raman, 780 nm, unoriented, Raman Data Processed
Mineral: Bobdownsite
Rruff sample: R050109
Ideal chemistry: Ca_9_Mg(PO_4_)_6_(PO_3_F)
Locality: Big Fish River, Yukon Territory, Canada
Source: Rock Currier
Description: Colorless hexagonal tabular crystals, type sample
Measured chemistry: (Ca_8.76_Na_0.24_)_Σ=9_(Mg_0.72_Fe^3+^_0.13_Al_0.11_Fe^2+^_0.04_)_Σ=1_(P_1.00_O_4_)_6_(P_1.00_O_3_F_1.00_); Fe^2+^ and Fe^3+^ by charge balance
Raman shift (cm-1)	intensity
132.331	0
135.223	9.85327
138.116	169.598
141.009	314.357
143.901	696.285
146.794	1058.42
149.687	1262.98
152.579	1389.95
155.472	1620.76
158.365	1751.38
161.258	1816.36
164.15	1663.12
167.043	1283.81
169.936	1212.21
172.828	1203.53
175.721	1398.33
178.614	1157.92
181.506	528.097
184.399	218.359
187.292	92.075
190.185	32.2827
193.077	46.4853
195.97	34.8613
198.863	24.9375
201.755	22.6553
204.648	38.8059
207.541	1.15564
210.434	62.2137
213.326	141.17
216.219	289.629
219.112	318.969
222.004	408.589
224.897	449.634
227.79	520.119
230.682	547.618
233.575	590.125
236.468	689.231
239.361	744.074
242.253	839.335
245.146	903.782
248.039	1018.99
250.931	1152.02
253.824	1307.67
256.717	1328.32
259.609	1271.19
262.502	1174.28
265.395	1170.01
268.288	1150.83
271.18	1185.87
274.073	1208.15
276.966	1294.27
279.858	1360.09
282.751	1408.17
285.644	1276.97
288.536	1070.66
291.429	788.656
294.322	603.497
297.215	540.995
300.107	452.486
303	392.711
305.893	288.439
308.785	223.845
311.678	180.588
314.571	120.404
317.464	59.2011
320.356	34.0353
323.249	56.4965
326.142	0.250977
329.034	15.1954
331.927	5.5697
334.82	18.5816
337.712	38.9285
340.605	31.0179
343.498	27.3012
346.39	11.6088
349.283	17.8634
352.176	29.3961
355.069	24.1405
357.961	9.31659
360.854	4.53711
363.747	21.5476
366.639	51.4641
369.532	48.0816
372.425	135.614
375.317	259.734
378.21	310.261
381.103	502.25
383.996	776.1
386.888	1165.57
389.781	1742.65
392.674	2497.19
395.566	3363.91
398.459	4303.5
401.352	5775.88
404.245	7357.7
407.137	7965.98
410.03	6989.2
412.923	5695.29
415.815	4807.75
418.708	4215.53
421.601	3635.2
424.493	3305.66
427.386	3340.78
430.279	3420.07
433.171	3498.47
436.064	3301.12
438.957	2934.11
441.85	2751.5
444.742	2630.8
447.635	2524.15
450.528	2353.05
453.42	2276.01
456.313	2208.36
459.206	2058.72
462.099	1836.31
464.991	1544.21
467.884	1312.28
470.777	1159.57
473.669	1027.88
476.562	976.36
479.455	1015.12
482.347	1122.16
485.24	1049.8
488.133	837.679
491.026	565.834
493.918	336.634
496.811	144.519
499.704	62.1744
502.596	3.59833
505.489	38.7835
508.382	41.3509
511.274	78.1709
514.167	76.6612
517.06	27.2888
519.953	36.3494
522.845	2.33032
525.738	41.4667
528.631	92.6716
531.523	175.891
534.416	337.418
537.309	633.194
540.202	973.25
543.094	1431.32
545.987	1933.64
548.88	1997.12
551.772	1836.28
554.665	1808.92
557.558	2136.08
560.45	2470.14
563.343	2290.66
566.236	1587.51
569.129	1008.56
572.021	596.261
574.914	411.541
577.807	346.488
580.699	361.845
583.592	608.148
586.485	986.938
589.377	1450.9
592.27	1611.07
595.163	1594.09
598.056	1749.58
600.948	2142.26
603.841	2404.94
606.734	2170.79
609.626	1897.16
612.519	1861.18
615.412	2209.44
618.304	2884.75
621.197	3301.44
624.09	3066.33
626.982	2748.28
629.875	2142.66
632.768	1530.85
635.661	836.099
638.553	359.596
641.446	164.248
644.339	67.525
647.231	36.6157
650.124	7.09992
653.017	1.52838
655.909	11.733
658.802	34.2363
661.695	26.0099
664.588	177.732
667.48	91.8746
670.373	12.7719
673.266	1.73975
676.158	8.36642
679.051	11.593
681.944	4.0864
684.837	6.58435
687.729	24.3951
690.622	23.5426
693.515	31.7285
696.407	40.7616
699.3	48.3959
702.193	28.5979
705.085	43.6281
707.978	51.9601
710.871	48.1698
713.764	63.9143
716.656	47.4384
719.549	43.3563
722.442	28.6869
725.334	62.3985
728.227	29.3377
731.12	18.9695
734.013	37.8596
736.905	6.96454
739.798	42.6343
742.691	14.1742
745.583	9.45831
748.476	11.6849
751.369	14.2491
754.261	11.8083
757.154	7.31287
760.047	14.5159
762.939	8.08688
765.832	17.0663
768.725	17.5421
771.618	3.7182
774.51	26.9815
777.403	30.0614
780.296	32.8809
783.188	54.7448
786.081	30.7151
788.974	46.1919
791.866	59.147
794.759	49.252
797.652	76.0849
800.545	53.6406
803.437	142.796
806.33	124.233
809.223	80.2824
812.115	75.2901
815.008	76.6744
817.901	73.7011
820.793	64.4703
823.686	116.282
826.579	111.109
829.472	158.769
832.364	144.755
835.257	152.29
838.15	176.609
841.042	161.279
843.935	167.615
846.828	184.327
849.721	174.531
852.613	148.344
855.506	162.17
858.399	141.402
861.291	145.685
864.184	88.6742
867.077	115.654
869.969	73.0068
872.862	31.9095
875.755	13.9896
878.648	11.9014
881.54	2.2229
884.433	40.905
887.326	8.57153
890.218	29.3793
893.111	49.8645
896.004	53.3312
898.896	27.7569
901.789	9.11999
904.682	25.9462
907.574	109.019
910.467	342.365
913.36	815.985
916.253	1767.94
919.145	3244.73
922.038	4986.42
924.931	5422.36
927.823	3872.17
930.716	1894.86
933.609	699.569
936.501	243.453
939.394	187.076
942.287	303.679
945.18	656.761
948.072	1468.31
950.965	3328.52
953.858	7076.75
956.75	14197
959.643	25123
962.536	33925
965.428	38626.3
968.321	38765
971.214	33216.7
974.107	23310.8
976.999	11924.4
979.892	5381.32
982.785	3462.71
985.677	3687.62
988.57	4410.94
991.463	4406.48
994.356	3891.04
997.248	2973.1
1000.14	1873.26
1003.03	960.402
1005.93	373.278
1008.82	119.145
1011.71	181.861
1014.6	392.406
1017.5	472.667
1020.39	591.116
1023.28	745.548
1026.17	863.953
1029.07	828.427
1031.96	882.294
1034.85	813.675
1037.75	562.564
1040.64	168.466
1043.53	22.924
1046.42	123.967
1049.32	120.132
1052.21	56.6448
1055.1	57.9752
1057.99	158.263
1060.89	365.224
1063.78	437.087
1066.67	450.588
1069.57	514.589
1072.46	643.123
1075.35	938.474
1078.24	1105.53
1081.14	1257.87
1084.03	1476.78
1086.92	1689.49
1089.82	1828.51
1092.71	1832.93
1095.6	1700.12
1098.49	1462.83
1101.38	1223.12
1104.28	1095.85
1107.17	820.93
1110.06	576.697
1112.96	388.57
1115.85	197.338
1118.74	108.246
1121.63	1.4837
1124.53	24.3987
1127.42	24.7176
1130.31	36.1622
1133.2	2.91797
1136.1	28.2988
1138.99	43.7391
1141.88	81.0713
1144.78	119.871
1147.67	110.345
1150.56	120.949
1153.45	91.5241
1156.35	80.6714
1159.24	28.5842
1162.13	40.2001
1165.03	34.2755
1167.92	25.5209
1170.81	42.8637
1173.7	29.9147
1176.6	72.2649
1179.49	58.8997
1182.38	53.2808
1185.27	52.1023
1188.17	54.9701
1191.06	65.8528
1193.95	53.2516
1196.85	78.5226
1199.74	74.6137
1202.63	100.078
1205.52	94.2276
1208.41	101.976
1211.31	101.799
1214.2	89.9557
1217.09	108.546
1219.99	103.522
1222.88	108.749
1225.77	126.176
1228.66	65.8535
1231.56	74.0222
1234.45	62.0328
1237.34	55.638
1240.23	55.8152
1243.13	46.132
1246.02	36.0262
1248.91	62.2805
1251.81	33.9681
1254.7	23.6688
1257.59	40.318
1260.48	25.9815
1263.38	12.5967
1266.27	17.9568
1269.16	32.2737
1272.06	36.375
1274.95	4.0723
1277.84	16.5365
