Measurement: Raman, 780 nm, unoriented, Raman Data Processed
Mineral: Bobdownsite
Rruff sample: R110026
Ideal chemistry: Ca_9_Mg(PO_4_)_6_(PO_3_F)
Locality: Tip Top mine, Custer County, South Dakota, USA
Source: Tom Loomis, Dakota Matrix Minerals
Description: Crust of pale purple crystals on quartz
Measured chemistry: (Ca_8.67_Na_0.23_)_Σ=8.90_(Mg_0.93_Mn_0.06_)_Σ=0.99_(P_0.93_O_3_(F_0.79_(OH)_0.21_)_Σ=1.00_)(P_1.00_O_4_)_6_
Raman shift (cm-1)	intensity
191.368	0
194.261	11.0917
197.153	18.2062
200.046	8.04517
202.939	4.81702
205.831	6.83252
208.724	2.64123
211.617	1.43213
214.509	7.38391
217.402	8.38855
220.295	4.90161
223.188	9.64123
226.08	14.2087
228.973	20.4648
231.866	29.2676
234.758	43.6406
237.651	68.7935
240.544	68.6049
243.436	75.2594
246.329	89.332
249.222	114.895
252.114	141.573
255.007	169.381
257.9	201.738
260.793	229.196
263.685	241.57
266.578	262.528
269.471	285.203
272.363	302.995
275.256	344.487
278.149	398.378
281.041	423.543
283.934	380.316
286.827	301.664
289.719	228.363
292.612	181.71
295.505	144.137
298.398	117.828
301.29	79.2211
304.183	62.7098
307.076	46.2243
309.968	28.1623
312.861	19.5849
315.754	14.8608
318.647	6.80218
321.539	5.64807
324.432	5.90778
327.325	4.79047
330.217	4.0343
333.11	5.29285
336.003	2.92627
338.895	0.839294
341.788	3.96295
344.681	0.842773
347.574	2.32263
350.466	4.42853
353.359	5.02429
356.252	3.46393
359.144	1.40949
362.037	2.83276
364.93	2.39002
367.822	13.5516
370.715	24.4343
373.608	42.1499
376.5	74.8229
379.393	114.043
382.286	185.265
385.179	296.622
388.071	442.638
390.964	629.08
393.857	857.768
396.749	1194.44
399.642	1698.58
402.535	2265.39
405.427	2571.59
408.32	2228.67
411.213	1676.27
414.106	1296.14
416.998	1074.94
419.891	926.06
422.784	832.512
425.676	822.9
428.569	874.942
431.462	896.009
434.354	818.94
437.247	697.279
440.14	577.817
443.033	505.354
445.925	477.327
448.818	483.135
451.711	507.549
454.603	541.507
457.496	517.024
460.389	493.984
463.281	440.453
466.174	380.661
469.067	338.659
471.959	299.899
474.852	269.284
477.745	266.93
480.638	300.209
483.53	316.943
486.423	267.316
489.316	190.163
492.208	113.93
495.101	60.0379
497.994	24.7994
500.887	5.83746
503.779	0.058105
506.672	9.21497
509.565	16.2618
512.457	14.6708
515.35	5.84576
518.243	9.9762
521.135	3.89148
524.028	4.65631
526.921	16.2856
529.813	38.0196
532.706	62.9603
535.599	98.7809
538.492	144.882
541.384	214.322
544.277	290.237
547.17	327.878
550.062	348.676
552.955	362.847
555.848	360.498
558.74	381.349
561.633	371.376
564.526	290.927
567.418	203.395
570.311	148.426
573.204	97.6034
576.097	63.4871
578.989	55.1558
581.882	50.9747
584.775	63.9858
587.667	87.6647
590.56	91.1061
593.453	90.4421
596.346	103.085
599.238	141.72
602.131	191.889
605.024	203.277
607.916	210.617
610.809	234.237
613.702	284.293
616.594	357.257
619.487	450.683
622.38	493.344
625.273	514.757
628.165	547.921
631.058	516.692
633.951	350.814
636.843	166.085
639.736	72.528
642.629	34.2667
645.521	16.7872
648.414	11.0218
651.307	8.711
654.199	0.096924
657.092	1.51581
659.985	1.80151
662.878	5.5011
665.77	2.41547
668.663	4.58807
671.556	0.14209
674.448	0.126099
677.341	0.692017
680.234	2.45526
683.126	2.24042
686.019	2.47156
688.912	5.44043
691.805	7.2981
694.697	1.93469
697.59	3.81641
700.483	7.84271
703.375	6.22626
706.268	11.4616
709.161	7.97131
712.053	11.7438
714.946	9.57617
717.839	17.1368
720.731	15.8573
723.624	11.1328
726.517	6.1333
729.41	3.38452
732.302	6.24854
735.195	3.42108
738.088	7.28937
740.98	4.62268
743.873	1.77747
746.766	5.0368
749.659	4.34326
752.551	3.3631
755.444	0.439209
758.337	2.80646
761.229	1.75964
764.122	0.610596
767.015	7.82959
769.907	3.04193
772.8	3.27454
775.693	5.52081
778.586	5.99524
781.478	4.62677
784.371	3.35516
787.264	5.61737
790.156	13.7752
793.049	10.1934
795.942	8.23444
798.834	6.14478
801.727	8.92371
804.62	6.81329
807.513	7.94409
810.405	7.84381
813.298	9.66187
816.191	11.4764
819.083	15.4808
821.976	23.5479
824.869	20.7632
827.761	26.3187
830.654	32.6897
833.547	31.4925
836.439	31.8563
839.332	29.8896
842.225	33.2559
845.118	35.7019
848.01	29.1113
850.903	30.5855
853.796	34.2567
856.688	35.7717
859.581	34.9958
862.474	28.2545
865.366	24.8395
868.259	16.1522
871.152	5.39423
874.044	0.007751
876.937	9.51465
879.83	13.485
882.723	15.3505
885.615	4.75366
888.508	20.0493
891.401	5.29096
894.293	4.14734
897.186	23.2204
900.079	44.2286
902.971	63.4587
905.864	95.4518
908.757	150.588
911.65	252.497
914.542	409.899
917.435	710.42
920.328	1154.66
923.22	1367.55
926.113	915.424
929.006	378.971
931.899	167.196
934.791	118.132
937.684	123.094
940.577	174.482
943.469	266.531
946.362	516.758
949.255	1015.36
952.147	1706.65
955.04	2970.95
957.933	5630.39
960.825	8320.53
963.718	6536.95
966.611	5818.53
969.504	6368.61
972.396	5948.9
975.289	3140.14
978.182	1060.9
981.074	466.39
983.967	365.677
986.86	451.603
989.752	530.424
992.645	491.526
995.538	399.959
998.431	265.088
1001.32	136.202
1004.22	59.1885
1007.11	25.6148
1010	35.2518
1012.89	63.1976
1015.79	93.9263
1018.68	115.898
1021.57	125.889
1024.46	144.286
1027.36	164.85
1030.25	186.549
1033.14	158.887
1036.04	104.975
1038.93	35.0645
1041.82	5.44165
1044.71	12.1663
1047.61	11.0455
1050.5	30.9406
1053.39	16.3208
1056.29	5.42322
1059.18	36.4852
1062.07	76.3145
1064.96	96.7195
1067.86	102.523
1070.75	131.367
1073.64	183.692
1076.53	240.167
1079.43	302.912
1082.32	373.182
1085.21	454.91
1088.1	546.53
1091	509.882
1093.89	445.051
1096.78	394.555
1099.67	370.754
1102.57	324.687
1105.46	248.834
1108.35	194.633
1111.25	124.046
1114.14	84.4887
1117.03	61.6724
1119.92	36.3245
1122.82	18.382
1125.71	12.3077
1128.6	10.4838
1131.49	0.885834
1134.39	1.19546
1137.28	1.34451
1140.17	5.4238
1143.07	7.21716
1145.96	10.6149
1148.85	9.19836
1151.74	4.86826
1154.64	4.89517
1157.53	3.89398
1160.42	0.311737
1163.31	3.40549
1166.21	2.05402
1169.1	1.97195
1171.99	1.17883
1174.88	4.09363
1177.78	5.79981
1180.67	11.0657
1183.56	10.4642
1186.46	11.5475
1189.35	12.1523
1192.24	14.51
1195.13	10.3336
1198.03	11.3117
1200.92	10.9872
1203.81	17.7086
1206.7	13.2254
1209.6	14.3051
1212.49	16.4509
1215.38	14.2281
1218.28	11.5214
1221.17	14.5737
1224.06	16.259
1226.95	17.0138
1229.85	7.39572
1232.74	8.29166
1235.63	9.94968
1238.53	6.48529
1241.42	8.33295
1244.31	10.8133
1247.2	8.56909
1250.1	11.4268
1252.99	8.92844
1255.88	9.13562
1258.77	8.37277
1261.67	6.22696
1264.56	8.88959
1267.45	5.59964
1270.34	2.02594
1273.24	2.2265
1276.13	3.86169
1279.02	0.497803
1281.91	2.29337
1284.81	0
