Measurement: Raman, 532 nm, unoriented, Raman Data Processed
Mineral: Bobdownsite
Rruff sample: R100215
Ideal chemistry: Ca_9_Mg(PO_4_)_6_(PO_3_F)
Locality: Tip Top mine, Custer County, South Dakota, USA
Source: Tom Loomis, Dakota Matrix Minerals
Description: Crust of colorless crystals on quartz
Measured chemistry: Ca_9.00_(Mg_0.89_Na_0.07_Sr_0.01_)_Σ=0.97_(P_1.00_O_4_)_6_(P_0.88_O_3_(F_0.74_(OH)_0.26_)_Σ=1.00_)
Raman shift (cm-1)	intensity
169.62	0
172.513	0.848755
175.406	14.3366
178.298	19.9945
181.191	25.5976
184.084	19.0381
186.976	25.3024
189.869	30.4249
192.762	52.158
195.655	61.9683
198.547	63.0822
201.44	64.6697
204.333	57.5803
207.225	51.7207
210.118	46.3057
213.011	37.2974
215.904	34.8019
218.796	36.1376
221.689	24.6052
224.582	18.4885
227.474	23.5698
230.367	17.993
233.26	16.6105
236.152	18.3193
239.045	24.1987
241.938	21.2773
244.831	21.9266
247.723	24.3666
250.616	29.1664
253.509	35.8856
256.401	40.7064
259.294	42.8421
262.187	48.5436
265.079	57.0316
267.972	65.3862
270.865	58.2701
273.758	64.7024
276.65	72.6965
279.543	82.1453
282.436	88.9412
285.328	83.8412
288.221	77.3718
291.114	62.0913
294.007	49.2902
296.899	36.2786
299.792	31.2905
302.685	17.7449
305.577	12.5231
308.47	11.3095
311.363	5.586
314.255	4.0805
317.148	2.1286
320.041	3.82721
322.933	2.01721
325.826	1.87866
328.719	2.19745
331.612	2.64746
334.504	0.610596
337.397	0.044617
340.29	0.920349
343.183	3.49597
346.075	5.09833
348.968	1.22479
351.861	1.25592
354.753	8.05914
357.646	7.2904
360.539	2.82227
363.431	1.76843
366.324	1.84723
369.217	0.527527
372.11	6.34863
375.002	9.56104
377.895	15.1157
380.788	24.2236
383.68	33.9327
386.573	52.8582
389.466	83.931
392.358	124.382
395.251	176.583
398.144	241.332
401.036	329.122
403.929	436.99
406.822	523.508
409.715	515.878
412.607	438.578
415.5	352.221
418.393	298.801
421.285	253.884
424.178	224.594
427.071	213.706
429.964	214.903
432.856	207.177
435.749	196.055
438.642	166.64
441.534	149.64
444.427	134.048
447.32	122.205
450.212	125.398
453.105	132.12
455.998	138.441
458.891	156.282
461.783	193.198
464.676	233.029
467.569	203.269
470.461	134.382
473.354	94.6416
476.247	82.5732
479.139	68.5537
482.032	63.7585
484.925	69.4806
487.818	53.1508
490.71	42.9315
493.603	28.9959
496.496	12.166
499.388	9.01581
502.281	0.618469
505.174	0.308167
508.067	1.16559
510.959	3.76611
513.852	5.85883
516.745	0.130371
519.637	2.10828
522.53	2.7981
525.423	0.539551
528.316	1.44049
531.208	10.9255
534.101	20.6242
536.994	29.8981
539.886	43.9191
542.779	60.8986
545.672	82.4471
548.564	93.1381
551.457	107.693
554.35	114.276
557.242	100.769
560.135	94.2417
563.028	85.7508
565.921	71.2812
568.813	56.9492
571.706	42.7985
574.599	28.9144
577.491	13.9825
580.384	15.6726
583.277	7.71729
586.17	19.4497
589.062	19.4119
591.955	24.9115
594.848	30.3388
597.74	34.1912
600.633	41.8265
603.526	48.6166
606.418	52.9247
609.311	63.1752
612.204	73.6391
615.097	93.0996
617.989	117.002
620.882	142.647
623.775	172.06
626.667	190.634
629.56	201.999
632.453	192.828
635.346	141.466
638.238	75.6323
641.131	37.0023
644.024	21.1029
646.916	15.6829
649.809	1.7901
652.702	0.783447
655.594	2.4494
658.487	1.78925
661.38	1.96753
664.273	0.448792
667.165	3.44562
670.058	3.87122
672.951	0.043579
675.843	1.74139
678.736	4.93756
681.629	8.62018
684.521	5.95056
687.414	3.6391
690.307	7.01599
693.199	5.40021
696.092	4.75226
698.985	6.47461
701.878	3.08331
704.77	6.64221
707.663	10.1246
710.556	7.00726
713.448	10.7031
716.341	7.07452
719.234	7.41113
722.127	3.0672
725.019	1.48688
727.912	5.54413
730.805	5.51471
733.697	1.01221
736.59	3.8844
739.483	4.9801
742.375	1.60675
745.268	3.19702
748.161	2.33344
751.054	2.92511
753.946	0.942871
756.839	4.29163
759.732	3.87189
762.625	5.29138
765.517	1.7381
768.41	5.30664
771.303	5.02124
774.195	4.56006
777.088	5.1275
779.981	1.08545
782.873	4.84888
785.766	10.8125
788.659	1.17767
791.552	3.40735
794.444	10.1541
797.337	9.9538
800.23	12.269
803.122	11.3613
806.015	9.82599
808.908	13.3729
811.8	5.31146
814.693	10.7343
817.586	2.4328
820.479	6.83655
823.371	6.5462
826.264	8.4364
829.157	2.00189
832.049	4.69519
834.942	6.04578
837.835	4.21558
840.727	5.45636
843.62	5.19574
846.513	2.935
849.405	0.214661
852.298	2.61145
855.191	1.53516
858.084	1.37701
860.976	0.095642
863.869	0.961609
866.762	1.40051
869.654	1.27765
872.547	1.06958
875.44	5.24622
878.333	3.22009
881.225	3.974
884.118	0.368347
887.011	0.363647
889.903	0.38385
892.796	2.85046
895.689	7.06128
898.582	1.56024
901.474	6.14984
904.367	12.576
907.26	20.5691
910.152	41.2372
913.045	74.1744
915.938	126.789
918.83	187.907
921.723	271.274
924.616	306.942
927.509	247.031
930.401	134.784
933.294	60.4855
936.187	39.2601
939.079	40.6924
941.972	63.4728
944.865	100.652
947.757	177.984
950.65	307.797
953.543	505.374
956.436	821.285
959.328	1326.44
962.221	1974.61
965.114	2167.82
968.006	2200.02
970.899	2224.31
973.792	1969.84
976.684	1167.8
979.577	472.073
982.47	212.109
985.362	157.401
988.255	161.221
991.148	167.36
994.041	153.22
996.933	130.794
999.826	100.004
1002.72	53.7563
1005.61	28.42
1008.5	15.1335
1011.4	11.0767
1014.29	13.338
1017.18	6.09112
1020.08	16.5386
1022.97	13.1945
1025.86	13.0175
1028.75	11.177
1031.65	7.09259
1034.54	4.06073
1037.43	5.70019
1040.32	3.61487
1043.22	5.84454
1046.11	2.93256
1049	5.84967
1051.89	4.47406
1054.79	1.90601
1057.68	14.0452
1060.57	18.7152
1063.47	32.109
1066.36	42.2446
1069.25	56.8075
1072.14	79.9828
1075.04	90.6007
1077.93	98.181
1080.82	110.92
1083.71	120.776
1086.61	144.853
1089.5	171.849
1092.39	189.595
1095.29	185.006
1098.18	160.33
1101.07	140.505
1103.96	106.057
1106.86	79.3647
1109.75	59.553
1112.64	43.0463
1115.53	33.0493
1118.43	21.2156
1121.32	20.1543
1124.21	10.7987
1127.11	12.3567
1130	5.23761
1132.89	10.2813
1135.78	4.31409
1138.68	0.363892
1141.57	0.385986
1144.46	2.96167
1147.35	5.09241
1150.25	2.90912
1153.14	2.6427
1156.03	0.773987
1158.92	3.91083
1161.82	5.12146
1164.71	5.37451
1167.6	1.16052
1170.5	4.11188
1173.39	1.66638
1176.28	4.21234
1179.17	0.133118
1182.07	0.970398
1184.96	4.54144
1187.85	2.30652
1190.74	12.2169
1193.64	4.06628
1196.53	6.06818
1199.42	3.4317
1202.32	6.08282
1205.21	0.711548
1208.1	9.31146
1210.99	8.5929
1213.89	9.0708
1216.78	8.70685
1219.67	10.6641
1222.56	6.42651
1225.46	14.4117
1228.35	8.00507
1231.24	6.03058
1234.13	3.77429
1237.03	1.14545
1239.92	5.53302
1242.81	5.09149
1245.71	5.51868
1248.6	3.6767
1251.49	8.79535
1254.38	2.39282
1257.28	1.87317
1260.17	8.29376
1263.06	4.34302
1265.95	1.0174
1268.85	4.84735
1271.74	10.8528
1274.63	3.38159
1277.53	2.32611
1280.42	2.28436
1283.31	0.794006
1286.2	4.92114
1289.1	4.31506
1291.99	6.49493
1294.88	3.14899
1297.78	0.034851
1300.67	0.023071
