Measurement: Raman, 780 nm, unoriented, Raman Data Processed
Mineral: Bobdownsite
Rruff sample: R100214
Ideal chemistry: Ca_9_Mg(PO_4_)_6_(PO_3_F)
Locality: Tip Top mine, Custer County, South Dakota, USA
Source: Tom Loomis, Dakota Matrix Minerals
Description: Crust of pale yellow crystals on quartz
Measured chemistry: (Ca_8.78_Na_0.13_Sr_0.03_)_Σ=8.94_(Mg_0.96_Fe_0.003_Mn_0.003_)_Σ=0.97_(P_1.00_O_4_)_6_(P_0.91_O_3_(F_0.80_(OH)_0.20_)_Σ=1.00_)
Raman shift (cm-1)	intensity
99.7657	0
103.141	8.90187
106.515	15.9364
109.89	11.3192
113.265	1.40631
116.64	4.76524
120.015	14.947
123.389	28.153
126.764	45.8338
130.139	84.0484
133.514	128.853
136.889	130.33
140.263	109.308
143.638	119.584
147.013	122.851
150.388	83.8747
153.763	55.7973
157.137	42.4439
160.512	36.8151
163.887	30.0934
167.262	14.7288
170.637	6.9855
174.012	1.28162
177.386	1.34088
180.761	0.043213
184.136	2.21785
187.511	3.23611
190.886	10.098
194.261	17.3951
197.635	13.7575
201.01	10.0546
204.385	5.31024
207.76	7.29572
211.135	6.5741
214.509	10.564
217.884	9.47504
221.259	9.5704
224.634	9.52013
228.009	12.9586
231.383	16.1758
234.758	21.7229
238.133	26.9841
241.508	26.464
244.883	28.1488
248.257	33.9367
251.632	39.9487
255.007	54.3036
258.382	66.7247
261.757	74.4039
265.132	72.8239
268.506	73.0103
271.881	75.825
275.256	87.6489
278.631	109.165
282.006	123.189
285.38	106.658
288.755	80.8732
292.13	57.3263
295.505	45.9546
298.88	34.2724
302.255	23.2009
305.629	16.3302
309.004	8.69571
312.379	2.84833
315.754	3.76288
319.129	0.451363
322.503	1.94986
325.878	0.788864
329.253	2.27815
332.628	0.924721
336.003	3.01453
339.377	0.67392
342.752	0.02211
346.127	1.22844
349.502	1.33485
352.877	1.67188
356.252	0.153564
359.626	0.619194
363.001	0.609428
366.376	3.28429
369.751	4.07787
373.126	11.1317
376.5	17.4475
379.875	28.8212
383.25	48.8244
386.625	82.8555
390	118.782
393.375	163.293
396.749	220.988
400.124	336.418
403.499	480.013
406.874	535.176
410.249	422.283
413.623	319.919
416.998	261.653
420.373	221.402
423.748	194.239
427.123	199.552
430.498	206.522
433.872	190.434
437.247	160.834
440.622	124.038
443.997	105.879
447.372	98.565
450.746	98.5824
454.121	101.052
457.496	97.5384
460.871	91.0226
464.246	82.4355
467.62	68.6093
470.995	57.6106
474.37	46.6607
477.745	43.5138
481.12	47.119
484.495	49.1776
487.869	38.887
491.244	19.4634
494.619	9.85716
497.994	4.275
501.369	0.77282
504.743	1.14512
508.118	1.80959
511.493	3.84542
514.868	3.91679
518.243	1.59438
521.617	0.431129
524.992	4.15196
528.367	8.70711
531.742	17.441
535.117	26.7886
538.492	43.0276
541.866	58.6359
545.241	66.8202
548.616	87.9801
551.991	113.052
555.366	103.618
558.74	88.5756
562.115	74.8245
565.49	54.0976
568.865	41.1775
572.24	26.865
575.615	14.9468
578.989	10.2857
582.364	10.8843
585.739	13.3902
589.114	17.3861
592.489	18.752
595.863	23.2191
599.238	31.0286
602.613	43.0791
605.988	49.4599
609.363	61.5792
612.737	86.002
616.112	116.999
619.487	156.647
622.862	178.954
626.237	198.142
629.611	221.952
632.986	182.653
636.361	86.1006
639.736	33.8576
643.111	15.5076
646.486	7.64819
649.86	4.70173
653.235	4.14921
656.61	0.044212
659.985	0.499313
663.36	0.185112
666.735	0.107296
670.109	0.836285
673.484	1.20683
676.859	1.4175
680.234	0.344906
683.609	0.337643
686.983	0.013554
690.358	0.656628
693.733	2.58222
697.108	3.12968
700.483	2.10626
703.857	2.46984
707.232	2.29451
710.607	0.837379
713.982	3.16444
717.357	3.90038
720.731	5.14824
724.106	4.58758
727.481	2.54774
730.856	2.15063
734.231	3.72617
737.606	1.70384
740.98	4.21843
744.355	0.211266
747.73	0.629864
751.105	0.70924
754.48	0.615623
757.855	1.94901
761.229	2.13375
764.604	2.81536
767.979	2.87031
771.354	2.6193
774.729	3.3794
778.103	3.32214
781.478	1.69675
784.853	1.5816
788.228	1.406
791.603	3.7212
794.977	1.72601
798.352	2.7965
801.727	2.8267
805.102	2.70998
808.477	1.29666
811.851	2.70466
815.226	2.11912
818.601	1.10098
821.976	2.12967
825.351	3.43582
828.726	3.6881
832.1	5.65766
835.475	3.73043
838.85	6.11756
842.225	6.67318
845.6	4.73897
848.975	4.21828
852.349	4.45492
855.724	3.66017
859.099	7.10301
862.474	5.1504
865.849	3.79532
869.223	2.28206
872.598	2.141
875.973	0.128662
879.348	2.24178
882.723	1.00493
886.097	3.74126
889.472	2.4395
892.847	3.31661
896.222	4.50591
899.597	7.70503
902.971	17.1295
906.346	25.0276
909.721	52.3277
913.096	84.3138
916.471	140.79
919.846	258.905
923.22	394.825
926.595	274.088
929.97	97.2934
933.345	41.8493
936.72	37.7186
940.095	49.6516
943.469	85.0624
946.844	180.294
950.219	352.912
953.594	578.202
956.968	1062.62
960.343	2203.46
963.718	1916.39
967.093	1663.8
970.468	1901.78
973.843	1586.01
977.217	554.101
980.592	167.664
983.967	96.0403
987.342	100.167
990.717	115.673
994.091	127.681
997.466	108.202
1000.84	62.7671
1004.22	28.2089
1007.59	11.5058
1010.97	11.4494
1014.34	10.5213
1017.72	13.1002
1021.09	10.8898
1024.46	8.24288
1027.84	7.31705
1031.21	9.43362
1034.59	8.85682
1037.96	0.960922
1041.34	3.47555
1044.71	0.596565
1048.09	1.36866
1051.46	3.41183
1054.84	2.92163
1058.21	4.09147
1061.59	11.6309
1064.96	20.3636
1068.34	30.0161
1071.71	49.5687
1075.09	71.5873
1078.46	94.7538
1081.84	118.401
1085.21	157.03
1088.59	209.631
1091.96	194.383
1095.34	160.096
1098.71	145.566
1102.09	126.219
1105.46	91.9344
1108.84	65.9188
1112.21	42.8305
1115.59	35.8372
1118.96	21.2368
1122.33	14.0634
1125.71	8.20272
1129.08	7.33637
1132.46	4.18283
1135.83	4.25455
1139.21	2.90401
1142.58	3.26844
1145.96	2.18695
1149.33	2.8318
1152.71	2.81484
1156.08	2.92773
1159.46	0.624908
1162.83	1.16467
1166.21	1.06592
1169.58	0.47258
1172.96	0.230404
1176.33	0.243458
1179.71	1.66514
1183.08	1.80915
1186.46	3.83298
1189.83	5.27099
1193.21	2.73294
1196.58	4.95272
1199.95	2.82272
1203.33	3.90276
1206.7	5.4711
1210.08	6.30232
1213.45	3.14833
1216.83	4.39315
1220.2	5.63162
1223.58	4.62252
1226.95	5.41079
1230.33	4.76778
1233.7	4.22824
1237.08	3.19681
1240.45	4.2246
1243.83	5.20156
1247.2	2.48601
1250.58	5.50986
1253.95	3.38662
1257.33	4.43956
1260.7	2.39941
1264.08	3.62196
1267.45	1.53696
1270.83	0.851933
1274.2	2.02885
1277.58	0.932205
1280.95	1.64776
1284.33	0.273582
