Measurement: Raman, 532 nm, unoriented, Raman Data Processed
Mineral: Bobdownsite
Rruff sample: R050109
Ideal chemistry: Ca_9_Mg(PO_4_)_6_(PO_3_F)
Locality: Big Fish River, Yukon Territory, Canada
Source: Rock Currier
Description: Colorless hexagonal tabular crystals, type sample
Measured chemistry: (Ca_8.76_Na_0.24_)_Σ=9_(Mg_0.72_Fe^3+^_0.13_Al_0.11_Fe^2+^_0.04_)_Σ=1_(P_1.00_O_4_)_6_(P_1.00_O_3_F_1.00_); Fe^2+^ and Fe^3+^ by charge balance
Raman shift (cm-1)	intensity
128.45	0
131.825	421.701
135.2	810.893
138.575	718.42
141.949	559.434
145.324	827.278
148.699	1065.03
152.074	1022.06
155.449	1150.12
158.823	1253.29
162.198	1166.81
165.573	1074.36
168.948	709.1
172.323	670.942
175.697	728.366
179.072	546.532
182.447	99.4065
185.822	12.0979
189.197	44.7139
192.572	27.7837
195.946	6.89551
199.321	50.3513
202.696	50.7031
206.071	7.30786
209.446	82.5354
212.821	213.649
216.195	336.845
219.57	417.702
222.945	520.769
226.32	663.966
229.695	717.471
233.069	791.804
236.444	921.544
239.819	1038.68
243.194	1126.34
246.569	1220.07
249.944	1358.12
253.318	1527.68
256.693	1600.25
260.068	1609
263.443	1620.74
266.818	1630.42
270.192	1676.2
273.567	1696.26
276.942	1954.8
280.317	2250.1
283.692	2714.87
287.067	2344.84
290.441	1988.21
293.816	1658.05
297.191	1330.35
300.566	1113.11
303.94	796.527
307.315	591.24
310.69	350.457
314.065	214.218
317.44	115.806
320.815	55.3475
324.189	57.4862
327.564	40.4954
330.939	33.2977
334.314	30.9243
337.689	11.9966
341.063	36.5823
344.438	44.7651
347.813	40.9183
351.188	28.1574
354.563	22.7393
357.938	5.83215
361.312	3.14526
364.687	6.00439
368.062	47.1799
371.437	107.679
374.812	234.159
378.187	348.804
381.561	649.035
384.936	1026.97
388.311	1826.08
391.686	2414.02
395.06	3453.92
398.435	4548.84
401.81	6125.55
405.185	7447.31
408.56	7711.1
411.935	6421.69
415.309	5323.83
418.684	4643.91
422.059	4184.31
425.434	3988.34
428.809	4096.61
432.183	4196.5
435.558	3991.2
438.933	3670.92
442.308	3240.47
445.683	2951.67
449.058	2773.45
452.432	2527.59
455.807	2351.61
459.182	2175.64
462.557	1860.09
465.932	1516.61
469.307	1314.29
472.681	1103.66
476.056	993.409
479.431	987.343
482.806	1016.73
486.181	971.217
489.555	705.581
492.93	386.876
496.305	165.417
499.68	61.163
503.055	35.5006
506.43	66.6973
509.804	84.4271
513.179	55.037
516.554	43.0573
519.929	24.6357
523.303	1.4668
526.678	96.9703
530.053	256.462
533.428	471.11
536.803	890.705
540.178	1343.44
543.552	2045.34
546.927	2649.86
550.302	2779.54
553.677	2705.89
557.052	2534.82
560.427	2621.01
563.801	2275.99
567.176	1550.28
570.551	980.151
573.926	630.159
577.301	428.359
580.675	492.225
584.05	726.88
587.425	1131.3
590.8	1591.6
594.175	1606.08
597.549	1687.36
600.924	1994.96
604.299	2327.35
607.674	2226.47
611.049	2282.46
614.424	2620.43
617.798	3362.13
621.173	4072.23
624.548	4206.39
627.923	4274.59
631.298	4095.65
634.673	3141.45
638.047	1481.07
641.422	595.484
644.797	261.388
648.172	124.288
651.547	48.807
654.921	6.58582
658.296	21.5702
661.671	38.7473
665.046	6.94543
668.421	29.1519
671.795	20.728
675.17	7.05457
678.545	7.89502
681.92	7.16772
685.295	1.9469
688.669	21.0048
692.044	33.4417
695.419	60.1588
698.794	67.8719
702.169	69.5278
705.544	56.8875
708.918	56.5526
712.293	68.2797
715.668	102.046
719.043	101.52
722.418	59.5964
725.793	74.2253
729.167	53.481
732.542	63.537
735.917	60.955
739.292	68.4026
742.667	31.0485
746.041	38.9128
749.416	49.5465
752.791	47.7839
756.166	49.074
759.541	14.1653
762.915	23.9457
766.29	40.0358
769.665	26.7848
773.04	87.0239
776.415	77.8949
779.79	54.8221
783.164	87.8903
786.539	88.8998
789.914	105.895
793.289	109.042
796.664	117.778
800.038	112.01
803.413	100.273
806.788	104.972
810.163	126.291
813.538	111.743
816.913	130.26
820.287	135.703
823.662	156.045
827.037	205.119
830.412	241.371
833.787	234.025
837.161	207.756
840.536	182.93
843.911	200.828
847.286	158.298
850.661	164.16
854.035	167.284
857.41	111.109
860.785	100.266
864.16	98.2954
867.535	73.5835
870.909	1.49011
874.284	0.478516
877.659	41.2203
881.034	35.2142
884.409	74.3408
887.784	73.0161
891.158	60.2483
894.533	32.6135
897.908	31.52
901.283	79.4812
904.658	177.585
908.033	418.279
911.407	1087.48
914.782	2240.32
918.157	4032.5
921.532	6453.34
924.907	7448.72
928.281	5000.49
931.656	1943.65
935.031	642.225
938.406	335.936
941.781	644.273
945.155	1413.24
948.53	3688.21
951.905	8503
955.28	17099.6
958.655	32198
962.03	49104.1
965.404	55237
968.779	54158.7
972.154	43346.2
975.529	25542
978.904	10255.2
982.279	4885.06
985.653	4365.92
989.028	4855
992.403	4607.14
995.778	3725.92
999.153	2412.08
1002.53	1144.58
1005.9	362.422
1009.28	5.76929
1012.65	43.6602
1016.03	199.906
1019.4	268.743
1022.78	460.994
1026.15	608.444
1029.53	599.052
1032.9	598.523
1036.28	460.077
1039.65	156.51
1043.03	28.2095
1046.4	80.4536
1049.78	89.2629
1053.15	5.69678
1056.52	83.7417
1059.9	235.744
1063.27	404.347
1066.65	449.173
1070.02	688.187
1073.4	1116.48
1076.77	1727.39
1080.15	2427.88
1083.52	3358.74
1086.9	4240.85
1090.27	4480.84
1093.65	4038.06
1097.02	3280.33
1100.4	2858.32
1103.77	2363.99
1107.15	1945.67
1110.52	1416.35
1113.9	926.917
1117.27	550.243
1120.65	311.471
1124.02	167.265
1127.4	44.5708
1130.77	8.77905
1134.14	6.15015
1137.52	30.9656
1140.89	40.1633
1144.27	47.0508
1147.64	42.9438
1151.02	196.487
1154.39	42.3884
1157.77	1.79688
1161.14	3.4126
1164.52	7.36231
1167.89	6.86426
1171.27	6.54541
1174.64	3.4082
1178.02	28.1858
1181.39	58.2805
1184.77	65.7917
1188.14	106.316
1191.52	128.16
1194.89	153.526
1198.27	139.578
1201.64	181.018
1205.02	152.981
1208.39	230.597
1211.77	194.248
1215.14	213.828
1218.52	206.237
1221.89	230.605
1225.27	210.106
1228.64	185.38
1232.02	142.265
1235.39	142.155
1238.76	142.45
1242.14	124.947
1245.51	143.759
1248.89	97.7469
1252.26	126.43
1255.64	97.9273
1259.01	98.7023
1262.39	82.0918
1265.76	69.43
1269.14	63.5648
1272.51	33.4076
1275.89	9.09582
1279.26	271.312
1282.64	28.7511
1286.01	49.8053
1289.39	14.2421
1292.76	14.6344
