Measurement: Raman, 532 nm, unoriented, Raman Data Processed
Mineral: Bobdownsite
Rruff sample: R070654
Ideal chemistry: Ca_9_Mg(PO_4_)_6_(PO_3_F)
Locality: Tip Top mine, Custer County, South Dakota, USA
Source: Rock Currier
Description: A druse of colorless rhombohedra
Measured chemistry: (Ca_8.96_Na_0.04_)_Σ=9_(Mg_0.96_Al_0.04_)_Σ=1_(P_1.00_O_3_(F_0.84_(OH)_0.16_)_Σ=1_)(P_1.00_O_4_)_6_; OH estimated by difference and charge balance
Raman shift (cm-1)	intensity
134.442	0
137.817	149.522
141.192	23.3848
144.566	452.174
147.941	603.53
151.316	634.185
154.691	585.942
158.066	562.407
161.441	677.724
164.815	627.515
168.19	333.989
171.565	276.467
174.94	352.499
178.315	261.408
181.69	30.1523
185.064	71.4023
188.439	22.0083
191.814	65.1397
195.189	84.4424
198.564	70.1167
201.938	1.1167
205.313	67.9199
208.688	157.078
212.063	137.606
215.438	154.033
218.812	237.212
222.187	271.847
225.562	361.346
228.937	360.164
232.312	518.184
235.686	663.274
239.061	624.465
242.436	672.611
245.811	737.901
249.186	836.321
252.561	1014.18
255.935	1143.84
259.31	1238.28
262.685	1257.91
266.06	1400.15
269.435	1412.56
272.81	1518.04
276.184	1679.84
279.559	1854.81
282.934	1883.14
286.309	1533.98
289.684	1251.33
293.058	939.977
296.433	774.298
299.808	557.413
303.183	432.425
306.558	313.783
309.933	169.906
313.307	120.956
316.682	109.181
320.057	71.7651
323.432	92.1865
326.807	67.937
330.181	2.75732
333.556	38.6206
336.931	63.2476
340.306	16.9956
343.681	2.40527
347.055	53.2022
350.43	48.9746
353.805	41.5986
357.18	27.7773
360.555	1.33594
363.93	37.9224
367.304	57.5303
370.679	132.689
374.054	159.557
377.429	307.832
380.804	501.504
384.178	914.773
387.553	1449.21
390.928	2316.08
394.303	3409.83
397.678	4801.54
401.053	7054.8
404.427	9810.94
407.802	10460.9
411.177	8377.2
414.552	6540.02
417.927	5594.69
421.301	4554.34
424.676	4116.75
428.051	4168.35
431.426	4327.81
434.801	3903.84
438.175	3175.29
441.55	2628.09
444.925	2455.39
448.3	2411.46
451.675	2491.96
455.05	2568.62
458.424	2484.26
461.799	2353.64
465.174	1933.43
468.549	1704.01
471.924	1516.72
475.298	1278.23
478.673	1236.49
482.048	1434.89
485.423	1367.27
488.798	1081.04
492.173	644.51
495.547	304.286
498.922	179.554
502.297	97.3711
505.672	55.2563
509.047	31.9605
512.421	52.3442
515.796	40.0132
519.171	83.0469
522.546	21.8452
525.921	34.7412
529.295	125.599
532.67	324.306
536.045	597.245
539.42	923.445
542.795	1512.17
546.17	1830.57
549.544	1945.88
552.919	2193.55
556.294	2175.89
559.669	2289.8
563.044	1902.13
566.418	1458.92
569.793	867.423
573.168	553.006
576.543	360.787
579.918	341.2
583.293	391.446
586.667	617.407
590.042	728.906
593.417	738.544
596.792	784.614
600.167	1089.89
603.541	1278.24
606.916	1270.4
610.291	1296.58
613.666	1618.88
617.041	2156.95
620.415	2954.43
623.79	3126.65
627.165	3494.53
630.54	3409.53
633.915	2429.3
637.29	1004.71
640.664	594.36
644.039	170.773
647.414	69.3779
650.789	23.2285
654.164	51.875
657.538	40.1201
660.913	0.663086
664.288	58.4893
667.663	41.9922
671.038	2.43066
674.413	37.7754
677.787	0.262695
681.162	24.4463
684.537	61.4512
687.912	16.7275
691.287	67.7715
694.661	44.2764
698.036	43.3408
701.411	61.9707
704.786	78.7119
708.161	63.4815
711.535	102.228
714.91	135.647
718.285	84.1836
721.66	71.3291
725.035	89.0488
728.41	90.957
731.784	35.2891
735.159	10.9404
738.534	33.2568
741.909	22.0156
745.284	50.1484
748.659	10.1094
752.033	64.875
755.408	68.4004
758.783	39.5908
762.158	48.293
765.533	53.6768
768.907	114.985
772.282	97.835
775.657	56.6435
779.032	73.5244
782.407	69.1289
785.782	108.845
789.156	105.811
792.531	108.972
795.906	144.557
799.281	149.876
802.656	88.6299
806.03	94.21
809.405	93.9043
812.78	60.7285
816.155	55.043
819.53	121.571
822.904	90.1875
826.279	141.44
829.654	81.8154
833.029	76.4062
836.404	136.69
839.779	204.912
843.153	210.362
846.528	201.619
849.903	108.685
853.278	97.8154
856.653	170.035
860.027	137.032
863.402	109.379
866.777	41.3389
870.152	19.9355
873.527	12.0137
876.902	14.2051
880.276	29.2158
883.651	17.0811
887.026	35.2197
890.401	39.1553
893.776	36.7324
897.15	322.059
900.525	103.654
903.9	148.065
907.275	498.53
910.65	1066.3
914.024	2110.82
917.399	3654.06
920.774	5780
924.149	6694.8
927.524	4260.22
930.899	1609.9
934.273	691.623
937.648	656.554
941.023	1120.98
944.398	1961.3
947.773	3896.51
951.148	7530.6
954.522	13689.8
957.897	24990.5
961.272	41334.7
964.647	39932.9
968.021	38014.1
971.396	38457.2
974.771	26712.2
978.146	9350.56
981.521	3616.04
984.896	2867.45
988.27	3149.19
991.645	3090.26
995.02	2717.61
998.395	2140.1
1001.77	1144.5
1005.14	480.905
1008.52	60.4141
1011.89	125.466
1015.27	196.495
1018.64	246.193
1022.02	256.073
1025.39	341.568
1028.77	404.293
1032.14	491.793
1035.52	321.174
1038.89	70.3213
1042.27	41.2949
1045.64	115.137
1049.02	31.1621
1052.39	68.3057
1055.77	124.314
1059.14	274.156
1062.52	600.9
1065.89	819.722
1069.27	1044.67
1072.64	1310
1076.02	1595.16
1079.39	1837.36
1082.77	2105.57
1086.14	2586.68
1089.52	3063.16
1092.89	2937.57
1096.27	2545.95
1099.64	2253.33
1103.01	1666.96
1106.39	1175.28
1109.76	759.873
1113.14	509.148
1116.51	288.778
1119.89	133.049
1123.26	149.502
1126.64	66.7061
1130.01	13.5996
1133.39	16.1416
1136.76	34.9785
1140.14	38.6094
1143.51	101.4
1146.89	48.7207
1150.26	118.841
1153.64	86.7344
1157.01	65.0801
1160.39	25.6221
1163.76	16.2539
1167.14	26.2617
1170.51	50.8467
1173.88	14.0352
1177.26	30.7637
1180.63	68.2461
1184.01	91.1992
1187.38	116.122
1190.76	98.9961
1194.13	159.432
1197.51	106.265
1200.88	142.152
1204.26	122.337
1207.63	221.091
1211.01	180.254
1214.38	242.306
1217.76	230.728
1221.13	194.376
1224.51	160.152
1227.88	225.402
1231.26	148.852
1234.63	219.281
1238.01	197.769
1241.38	152.917
1244.76	169.207
1248.13	101.086
1251.51	166.916
1254.88	171.519
1258.26	192.526
1261.63	116.091
1265.01	39.2871
1268.38	9.84277
1271.76	62.1123
1275.13	83.5986
1278.51	33.2793
1281.88	72.7578
1285.25	47.3516
1288.63	98
1292	44.4131
