Measurement: Raman, 780 nm, unoriented, Raman Data Processed
Mineral: Bobdownsite
Rruff sample: R070654
Ideal chemistry: Ca_9_Mg(PO_4_)_6_(PO_3_F)
Locality: Tip Top mine, Custer County, South Dakota, USA
Source: Rock Currier
Description: A druse of colorless rhombohedra
Measured chemistry: (Ca_8.96_Na_0.04_)_Σ=9_(Mg_0.96_Al_0.04_)_Σ=1_(P_1.00_O_3_(F_0.84_(OH)_0.16_)_Σ=1_)(P_1.00_O_4_)_6_; OH estimated by difference and charge balance
Raman shift (cm-1)	intensity
118.211	0
121.104	18.9302
123.996	143.846
126.889	273.144
129.782	665.848
132.674	1008.45
135.567	1369.29
138.46	1482.44
141.352	1496.68
144.245	1877.29
147.138	2235.81
150.031	2368.2
152.923	2414.15
155.816	2408.73
158.709	2438.63
161.601	2477.97
164.494	2190.48
167.387	1598.7
170.28	1360.77
173.172	1299.16
176.065	1328.55
178.958	922.009
181.85	385.988
184.743	257.42
187.636	168.308
190.529	274.379
193.421	207.873
196.314	110.31
199.207	40.1294
202.099	85.1294
204.992	59.9014
207.885	29.1592
210.777	43.3208
213.67	19.6323
216.563	82.6387
219.456	139.015
222.348	175.27
225.241	210.578
228.134	472.158
231.026	313.323
233.919	389.985
236.812	425.902
239.704	458.426
242.597	653.644
245.49	586.012
248.382	710.917
251.275	910.285
254.168	990.164
257.061	1214.9
259.953	1261.07
262.846	1276.01
265.739	1303.17
268.631	1319.54
271.524	1657.59
274.417	1569.02
277.31	1711.93
280.202	1878.46
283.095	1796.78
285.988	1508.42
288.88	1200.64
291.773	877.96
294.666	809.996
297.558	640.231
300.451	521.119
303.344	403.02
306.236	279.699
309.129	216.889
312.022	130.227
314.915	123.258
317.807	65.4761
320.7	55.4834
323.593	21.4831
326.485	35.7383
329.378	63.751
332.271	26.2393
335.163	17.4793
338.056	42.1624
340.949	24.8189
343.842	3.63281
346.734	25.6309
349.627	17.0691
352.52	4.11475
355.412	39.2092
358.305	18.9736
361.198	27.9155
364.091	14.5923
366.983	20.834
369.876	48.7683
372.769	133.784
375.661	311.509
378.554	415.905
381.447	636.695
384.339	994.235
387.232	1441.37
390.125	2210.4
393.017	3360.18
395.91	4842.52
398.803	6482.46
401.696	8645.88
404.588	11064.4
407.481	11418.6
410.374	9640.54
413.266	7546.26
416.159	6242.49
419.052	5206.17
421.945	4630.24
424.837	4371.89
427.73	4603.16
430.623	4735.92
433.515	4355.14
436.408	3860.77
439.301	3263
442.193	2942.58
445.086	2793.58
447.979	2826.16
450.872	2924.98
453.764	3167.28
456.657	3283.8
459.55	3171.78
462.442	2899.96
465.335	2615.16
468.228	2254.85
471.12	1962.46
474.013	1830.34
476.906	1777.55
479.798	1814.02
482.691	2046.4
485.584	1915.33
488.477	1519.83
491.369	1084.22
494.262	657.794
497.155	331.969
500.047	168.555
502.94	49.0125
505.833	12.5488
508.726	59.2505
511.618	83.7029
514.511	69.5134
517.404	118.686
520.296	22.3389
523.189	34.5185
526.082	16.2981
528.974	121.201
531.867	256.167
534.76	477.388
537.653	837.514
540.545	1286.59
543.438	1931.5
546.331	2264.53
549.223	2246.45
552.116	2371.15
555.009	2516.5
557.901	2838.1
560.794	2935.87
563.687	2457.42
566.58	1752.95
569.472	1197.34
572.365	808.72
575.258	525.188
578.15	461.069
581.043	461.789
583.936	550.735
586.828	724.76
589.721	929.296
592.614	894.608
595.506	947.217
598.399	1212.13
601.292	1543.18
604.185	1685.12
607.077	1641.63
609.97	1446.16
612.863	1605.5
615.755	1871.28
618.648	2409.07
621.541	2749.5
624.433	2838.86
627.326	2741.22
630.219	2476.05
633.112	1876.71
636.004	991.233
638.897	472.452
641.79	188.593
644.682	89.1274
647.575	57.1466
650.468	7.19727
653.361	1.08887
656.253	4.4519
659.146	6.81763
662.039	3.48096
664.931	30.5653
667.824	0.235107
670.717	4.39062
673.609	53.4557
676.502	37.0303
679.395	38.4801
682.288	20.3602
685.18	34.7932
688.073	73.6227
690.966	47.2001
693.858	77.9265
696.751	60.7599
699.644	79.4663
702.536	64.1429
705.429	92.4156
708.322	115.247
711.215	81.4871
714.107	49.8196
717	34.1221
719.893	57.7131
722.785	3.8971
725.678	1.38916
728.571	48.7065
731.463	9.03626
734.356	11.6743
737.249	3.70776
740.141	13.1696
743.034	5.19263
745.927	47.0042
748.82	19.1647
751.712	7.84363
754.605	35.8208
757.498	35.0956
760.39	49.9382
763.283	153.261
766.176	58.2355
769.068	34.8245
771.961	33.9377
774.854	59.6666
777.747	69.3109
780.639	88.8086
783.532	61.8086
786.425	60.484
789.317	92.2058
792.21	81.9154
795.103	95.6089
797.995	85.4689
800.888	85.9124
803.781	62.4775
806.674	80.0172
809.566	82.4263
812.459	58.9273
815.352	118.074
818.244	104.047
821.137	137.675
824.03	83.7387
826.923	123.013
829.815	139.116
832.708	130.54
835.601	208.791
838.493	165.848
841.386	194.673
844.279	169.685
847.172	171.613
850.064	151.96
852.957	175.419
855.85	179.7
858.742	166.957
861.635	87.6766
864.528	118.49
867.42	98.5221
870.313	65.6567
873.206	55.5844
876.098	25.8579
878.991	52.8961
881.884	17.3253
884.777	65.235
887.669	50.3167
890.562	100.354
893.455	60.0637
896.347	70.1561
899.24	15.8557
902.133	1.99512
905.025	127.06
907.918	464.034
910.811	998.055
913.704	1916.99
916.596	3364.6
919.489	5098.62
922.382	6637.83
925.274	6074.57
928.167	3546.89
931.06	1473.58
933.952	608.217
936.845	432.863
939.738	684.901
942.631	1082.23
945.523	1964.89
948.416	3669.48
951.309	7033.02
954.201	12480
957.094	21531.2
959.987	33827.4
962.88	39240.9
965.772	37135.8
968.665	37297.5
971.558	35959.4
974.45	25821.8
977.343	11947.7
980.236	4936.85
983.128	3333.74
986.021	3537.26
988.914	3992.14
991.807	3678.81
994.699	2884
997.592	2167.59
1000.49	1341.88
1003.38	622.124
1006.27	269.264
1009.16	86.2598
1012.05	177.86
1014.95	350.677
1017.84	535.714
1020.73	721.251
1023.63	831.534
1026.52	964.189
1029.41	1055.25
1032.3	1153.16
1035.2	987.329
1038.09	607.223
1040.98	108.735
1043.88	126.826
1046.77	112.728
1049.66	78.9275
1052.55	35.0452
1055.45	161.625
1058.34	382.478
1061.23	596.128
1064.12	933.023
1067.02	1138.48
1069.91	1313.75
1072.8	1445.33
1075.69	1436.83
1078.59	1423.55
1081.48	1437.53
1084.37	1574.65
1087.27	1677.89
1090.16	1767.92
1093.05	1707.87
1095.94	1594.36
1098.84	1455.7
1101.73	1232.35
1104.62	909.562
1107.52	623.553
1110.41	330.46
1113.3	219.079
1116.19	120.866
1119.09	31.2784
1121.98	20.9281
1124.87	33.8826
1127.76	9.24512
1130.66	8.11133
1133.55	14.8196
1136.44	3.65015
1139.33	20.5277
1142.23	71.1522
1145.12	86.4349
1148.01	88.658
1150.9	89.8242
1153.8	100.528
1156.69	54.5562
1159.58	56.6602
1162.48	70.9791
1165.37	69.0657
1168.26	42.1431
1171.15	79.7538
1174.05	29.3694
1176.94	77.5503
1179.83	102.079
1182.72	92.7556
1185.62	93.3284
1188.51	99.0022
1191.4	86.4226
1194.3	51.0665
1197.19	79.1495
1200.08	83.3907
1202.97	116.875
1205.87	247.211
1208.76	154.546
1211.65	547.139
1214.54	110.366
1217.44	138.081
1220.33	80.6898
1223.22	113.829
1226.12	85.538
1229.01	56.4613
1231.9	55.2028
1234.79	62.3572
1237.69	64.771
1240.58	53.0154
1243.47	35.6152
1246.36	72.691
1249.26	57.2407
1252.15	40.8937
1255.04	23.0264
1257.93	92.828
1260.83	56.9459
1263.72	49.6747
1266.61	4.10828
1269.51	21.5773
1272.4	0.001099
