Measurement: Raman, 532 nm, unoriented, Raman Data Processed
Mineral: Bobdownsite
Rruff sample: R100214
Ideal chemistry: Ca_9_Mg(PO_4_)_6_(PO_3_F)
Locality: Tip Top mine, Custer County, South Dakota, USA
Source: Tom Loomis, Dakota Matrix Minerals
Description: Crust of pale yellow crystals on quartz
Measured chemistry: (Ca_8.78_Na_0.13_Sr_0.03_)_Σ=8.94_(Mg_0.96_Fe_0.003_Mn_0.003_)_Σ=0.97_(P_1.00_O_4_)_6_(P_0.91_O_3_(F_0.80_(OH)_0.20_)_Σ=1.00_)
Raman shift (cm-1)	intensity
170.102	0
172.995	1.57282
175.888	28.2138
178.78	34.9073
181.673	20.1988
184.566	4.33829
187.459	3.12854
190.351	9.879
193.244	21.8609
196.137	18.5893
199.029	21.2981
201.922	16.2473
204.815	2.09769
207.708	5.18588
210.6	3.27402
213.493	9.21719
216.386	9.72092
219.278	6.11121
222.171	7.9147
225.064	4.91437
227.956	10.1537
230.849	15.1373
233.742	18.9206
236.635	22.3404
239.527	21.8973
242.42	28.9278
245.313	34.7338
248.205	40.0491
251.098	44.2514
253.991	56.3824
256.884	74.7024
259.776	82.8939
262.669	96.4409
265.562	94.7743
268.454	99.7468
271.347	105.531
274.24	122.692
277.132	131.763
280.025	153.771
282.918	171.588
285.81	160.588
288.703	132.147
291.596	92.4524
294.489	74.3311
297.381	59.5547
300.274	38.0431
303.167	30.1209
306.059	25.0675
308.952	16.3431
311.845	9.3363
314.738	8.39893
317.63	7.12912
320.523	4.11145
323.416	3.77786
326.308	0.225372
329.201	3.38837
332.094	3.53531
334.986	2.29471
337.879	0.957275
340.772	5.76126
343.665	1.49167
346.557	0.114716
349.45	1.40549
352.343	0.277802
355.235	0.742767
358.128	2.7959
361.021	0.256012
363.913	0.240662
366.806	2.4039
369.699	1.02234
372.592	5.27948
375.484	12.8823
378.377	19.909
381.27	35.3343
384.162	57.4515
387.055	92.7546
389.948	139.162
392.841	203.218
395.733	291.609
398.626	404.689
401.519	574.543
404.411	775.138
407.304	916.946
410.197	843.247
413.089	650.389
415.982	499.86
418.875	418.739
421.767	349.946
424.66	313.282
427.553	306.815
430.446	324.861
433.338	327.897
436.231	308.859
439.124	259.32
442.017	218.295
444.909	192.415
447.802	174.943
450.695	176.269
453.587	186.509
456.48	190.59
459.373	188.185
462.265	181.087
465.158	164.113
468.051	139.33
470.943	130.351
473.836	110.248
476.729	100.274
479.622	99.1007
482.514	102.532
485.407	115.922
488.3	105.532
491.192	72.5922
494.085	45.2473
496.978	25.9574
499.87	13.5905
502.763	0.283386
505.656	2.32715
508.549	3.98956
511.441	3.64526
514.334	4.48456
517.227	7.15057
520.119	4.86139
523.012	2.52289
525.905	2.59735
528.798	12.4457
531.69	12.9632
534.583	29.0743
537.476	43.3367
540.368	61.4204
543.261	90.3884
546.154	119.946
549.047	138.059
551.939	150.266
554.832	165.233
557.725	159.544
560.617	158.143
563.51	157.55
566.403	127.831
569.295	92.9915
572.188	60.3187
575.081	39.5076
577.973	24.7805
580.866	22.3483
583.759	16.109
586.652	26.2341
589.544	29.4215
592.437	36.3455
595.33	34.0815
598.222	40.0315
601.115	54.9907
604.008	67.3187
606.901	71.171
609.793	77.5956
612.686	85.9699
615.579	109.112
618.471	140.485
621.364	177.283
624.257	203.516
627.149	211.031
630.042	220.122
632.935	204.067
635.828	139.305
638.72	73.6533
641.613	29.8638
644.506	12.9697
647.398	5.95819
650.291	0.792419
653.184	0.159119
656.077	3.81268
658.969	1.12097
661.862	0.869629
664.755	0.89563
667.647	0.909668
670.54	4.52869
673.433	2.18256
676.325	4.11108
679.218	0.807495
682.111	0.044739
685.004	5.7464
687.896	5.31055
690.789	4.32727
693.682	3.30792
696.574	3.65778
699.467	4.74322
702.36	3.9892
705.253	8.68573
708.145	6.95233
711.038	7.36127
713.931	5.14435
716.823	5.69812
719.716	5.04394
722.609	3.09625
725.501	6.61096
728.394	6.13135
731.287	5.41443
734.179	4.09106
737.072	5.065
739.965	8.6452
742.858	5.6214
745.75	6.46783
748.643	3.2052
751.536	1.07172
754.428	5.69598
757.321	4.30926
760.214	1.90558
763.107	3.93085
765.999	6.37451
768.892	3.9469
771.785	5.16303
774.677	0.114929
777.57	1.75616
780.463	4.50134
783.356	7.44013
786.248	6.88159
789.141	4.79504
792.034	5.06683
794.926	9.05926
797.819	5.38629
800.712	6.30389
803.604	8.36206
806.497	10.4733
809.39	3.97424
812.283	9.57495
815.175	4.28107
818.068	3.94592
820.961	6.92389
823.853	5.15607
826.746	3.3255
829.639	13.8971
832.531	11.0081
835.424	14.6629
838.317	12.621
841.21	7.03186
844.102	11.3588
846.995	8.9613
849.888	7.80707
852.78	11.7482
855.673	11.3478
858.566	9.97742
861.458	8.91956
864.351	11.2753
867.244	9.51489
870.136	9.30102
873.029	9.92395
875.922	2.63763
878.815	2.84589
881.707	1.94629
884.6	9.07581
887.493	12.7218
890.385	8.50464
893.278	5.98425
896.171	1.16528
899.064	8.38415
901.956	19.0961
904.849	22.642
907.742	45.5301
910.634	74.2825
913.527	126.108
916.42	222.698
919.312	384.064
922.205	625.026
925.098	795.814
927.991	615.471
930.883	283.289
933.776	122.917
936.669	77.9928
939.562	78.3453
942.454	93.4484
945.347	144.808
948.24	257.866
951.132	520.799
954.025	949.217
956.918	1649.74
959.81	2963.36
962.703	4551.27
965.596	4049.01
968.489	3580.39
971.381	3745.22
974.274	3603.71
977.167	2149.97
980.059	757.998
982.952	316.608
985.845	225.864
988.737	260.627
991.63	309.843
994.523	298.993
997.415	250.746
1000.31	176.984
1003.2	98.7815
1006.09	46.3503
1008.99	25.1606
1011.88	24.823
1014.77	42.5385
1017.66	55.7953
1020.56	72.7555
1023.45	76.2739
1026.34	86.3448
1029.23	103.792
1032.13	107.989
1035.02	103.229
1037.91	70.6999
1040.81	21.0938
1043.7	2.58929
1046.59	8.74274
1049.48	11.2657
1052.38	17.8955
1055.27	9.07819
1058.16	1.35736
1061.06	21.068
1063.95	48.6399
1066.84	60.1086
1069.73	72.5329
1072.63	90.463
1075.52	108.185
1078.41	129.802
1081.3	160.819
1084.2	184.299
1087.09	217.45
1089.98	250.236
1092.88	242.892
1095.77	205.123
1098.66	184.566
1101.55	162.902
1104.45	133.241
1107.34	102.87
1110.23	73.2464
1113.12	43.618
1116.02	34.5869
1118.91	23.8303
1121.8	19.8363
1124.69	7.27832
1127.59	9.29327
1130.48	6.16589
1133.37	1.62262
1136.27	2.36279
1139.16	0.816833
1142.05	4.40808
1144.94	1.32196
1147.84	3.65161
1150.73	7.82812
1153.62	1.65826
1156.51	0.257751
1159.41	0.290344
1162.3	0.681213
1165.19	4.63635
1168.09	1.96356
1170.98	0.760437
1173.87	0.621765
1176.76	1.72479
1179.66	3.76984
1182.55	6.39185
1185.44	11.101
1188.33	11.9717
1191.23	6.74103
1194.12	6.10773
1197.01	10.5891
1199.9	9.12451
1202.8	7.16498
1205.69	10.1804
1208.58	10.0686
1211.48	10.4377
1214.37	8.63068
1217.26	6.26331
1220.15	5.96326
1223.05	8.73364
1225.94	16.8113
1228.83	1.28546
1231.72	6.44104
1234.62	8.49268
1237.51	9.09674
1240.4	4.37872
1243.3	4.75787
1246.19	10.7365
1249.08	7.61841
1251.97	8.63934
1254.87	10.7057
1257.76	7.44458
1260.65	8.23926
1263.54	2.02545
1266.44	3.21045
1269.33	6.60352
1272.22	1.28949
1275.12	4.58746
1278.01	1.64105
1280.9	3.16913
1283.79	0.097473
1286.69	2.2804
1289.58	1.43683
1292.47	3.63824
1295.36	1.95856
1298.26	4.55463
1301.15	0.096985
