Measurement: Raman, 780 nm, unoriented, Raman Data Processed
Mineral: Bobdownsite
Rruff sample: R100215
Ideal chemistry: Ca_9_Mg(PO_4_)_6_(PO_3_F)
Locality: Tip Top mine, Custer County, South Dakota, USA
Source: Tom Loomis, Dakota Matrix Minerals
Description: Crust of colorless crystals on quartz
Measured chemistry: Ca_9.00_(Mg_0.89_Na_0.07_Sr_0.01_)_Σ=0.97_(P_1.00_O_4_)_6_(P_0.88_O_3_(F_0.74_(OH)_0.26_)_Σ=1.00_)
Raman shift (cm-1)	intensity
174.494	0
177.386	7.44482
180.279	17.3215
183.172	1.82898
186.065	2.77454
188.957	13.9616
191.85	24.9089
194.743	39.8876
197.635	51.1948
200.528	70.171
203.421	78.0205
206.313	69.6909
209.206	60.2653
212.099	55.0626
214.992	33.2338
217.884	19.0293
220.777	12.422
223.67	6.5947
226.562	9.03241
229.455	8.13617
232.348	7.75665
235.24	16.8559
238.133	22.2042
241.026	16.0562
243.918	29.5471
246.811	33.0178
249.704	41.8796
252.597	55.2339
255.489	59.7229
258.382	76.0863
261.275	93.4468
264.167	106.509
267.06	99.8599
269.953	91.6398
272.846	96.5435
275.738	114.585
278.631	129.327
281.524	128.802
284.416	112.448
287.309	88.4819
290.202	73.6178
293.094	59.2117
295.987	53.182
298.88	42.0786
301.772	22.326
304.665	22.9141
307.558	20.0245
310.45	8.25357
313.343	11.398
316.236	5.12424
319.129	3.89618
322.021	7.4606
324.914	9.13049
327.807	1.16144
330.699	1.79471
333.592	4.54993
336.485	0.191498
339.377	0.17218
342.27	1.45795
345.163	3.81515
348.056	2.76227
350.948	9.57678
353.841	22.3912
356.734	13.3071
359.626	1.18405
362.519	1.1619
365.412	3.06793
368.305	1.23444
371.197	2.70615
374.09	4.16592
376.983	12.5264
379.875	28.9789
382.768	46.3674
385.661	76.305
388.553	120.423
391.446	183.395
394.339	254.002
397.231	331.049
400.124	469.584
403.017	636.716
405.909	733.357
408.802	670.617
411.695	537.505
414.588	429.067
417.48	362.032
420.373	318.54
423.266	293.671
426.158	299.744
429.051	311.766
431.944	309.01
434.837	285.093
437.729	243.714
440.622	225.325
443.515	216.947
446.407	227.328
449.3	255.37
452.193	282.633
455.085	325.905
457.978	397.382
460.871	514.072
463.764	590.148
466.656	453.768
469.549	292.504
472.442	213.12
475.334	177.865
478.227	163.178
481.12	164.301
484.012	166.916
486.905	137.287
489.798	97.5293
492.69	61.4599
495.583	31.0746
498.476	17.5736
501.369	5.38535
504.261	0.250885
507.154	0.705597
510.047	1.85998
512.939	6.56424
515.832	4.63409
518.725	9.14929
521.617	1.2049
524.51	4.70688
527.403	2.88501
530.296	14.337
533.188	32.8806
536.081	57.9963
538.974	92.2544
541.866	143.439
544.759	191.408
547.652	196.421
550.544	200.768
553.437	204.324
556.33	212.25
559.222	231.327
562.115	209.781
565.008	155.204
567.901	106.199
570.793	74.9799
573.686	52.092
576.579	32.4866
579.471	33.0704
582.364	34.4023
585.257	49.8394
588.149	64.4028
591.042	76.4519
593.935	81.5292
596.828	95.5333
599.72	121.812
602.613	152.726
605.506	153.633
608.398	134.199
611.291	132.924
614.184	142.548
617.077	175.243
619.969	216.831
622.862	238.13
625.755	241.239
628.647	247.843
631.54	222.932
634.433	144.531
637.325	61.1718
640.218	24.9351
643.111	16.2738
646.004	3.06166
648.896	4.47786
651.789	6.16097
654.682	2.80832
657.574	2.25755
660.467	1.0307
663.36	0.956741
666.252	6.23221
669.145	0.03125
672.038	4.48909
674.931	8.09984
677.823	6.56822
680.716	3.9303
683.609	4.53241
686.501	5.8467
689.394	6.64752
692.287	10.2674
695.179	8.99213
698.072	9.72626
700.965	10.0929
703.857	11.7166
706.75	10.2768
709.643	13.2824
712.535	6.61658
715.428	7.16637
718.321	5.64226
721.214	8.42412
724.106	5.65115
726.999	9.63762
729.892	6.89949
732.784	6.73045
735.677	0.762131
738.57	1.05093
741.462	3.96808
744.355	3.45662
747.248	4.06563
750.141	1.25737
753.033	0.369049
755.926	3.97473
758.819	2.18413
761.711	0.468048
764.604	2.59628
767.497	3.94733
770.389	1.78204
773.282	2.43054
776.175	0.059906
779.068	6.83377
781.96	8.37885
784.853	6.73494
787.746	5.44284
790.638	8.50108
793.531	12.0785
796.424	6.72093
799.317	10.7347
802.209	11.3929
805.102	17.9517
807.995	22.446
810.887	13.2094
813.78	12.7477
816.673	11.4957
819.565	15.8917
822.458	9.28769
825.351	10.0298
828.244	9.51421
831.136	7.50237
834.029	10.6169
836.922	14.117
839.814	15.7374
842.707	18.9967
845.6	13.9553
848.492	14.1621
851.385	13.3823
854.278	13.355
857.17	7.37042
860.063	9.89288
862.956	13.2014
865.849	8.33426
868.741	5.26857
871.634	0.711426
874.527	1.9234
877.419	9.54379
880.312	5.34772
883.205	1.53175
886.097	3.18153
888.99	9.35194
891.883	8.17316
894.775	9.79544
897.668	5.04495
900.561	0.695679
903.454	11.8168
906.346	32.6279
909.239	77.9688
912.132	139.499
915.024	224.037
917.917	358.457
920.81	521.762
923.702	565.707
926.595	382.248
929.488	173.396
932.381	75.4128
935.273	49.4851
938.166	67.0276
941.059	110.362
943.951	194.872
946.844	374.231
949.737	647.506
952.63	979.646
955.522	1537.41
958.415	2661.01
961.308	3698.87
964.2	3518.35
967.093	3545.96
969.986	3706.04
972.878	3161.09
975.771	1546.4
978.664	582.673
981.557	335.711
984.449	325.643
987.342	378.446
990.235	367.738
993.127	303.877
996.02	225.13
998.913	142.625
1001.8	85.7272
1004.7	50.076
1007.59	30.0936
1010.48	28.9179
1013.38	38.6518
1016.27	51.8723
1019.16	67.373
1022.05	79.7906
1024.95	85.1401
1027.84	89.9412
1030.73	90.7249
1033.62	84.8465
1036.52	67.512
1039.41	14.5125
1042.3	8.77332
1045.2	13.1766
1048.09	9.0639
1050.98	8.98782
1053.87	0.990906
1056.77	21.347
1059.66	51.1988
1062.55	74.7993
1065.44	101.712
1068.34	120.921
1071.23	149.972
1074.12	154.463
1077.02	152.888
1079.91	151.493
1082.8	166.141
1085.69	172.628
1088.59	192.595
1091.48	194.967
1094.37	176.686
1097.26	166.143
1100.16	139.925
1103.05	110.486
1105.94	76.9473
1108.84	57.432
1111.73	30.1789
1114.62	20.7905
1117.51	9.73006
1120.41	5.83218
1123.3	3.33701
1126.19	4.25594
1129.08	1.73544
1131.98	0.168457
1134.87	0.696457
1137.76	2.46201
1140.65	2.13231
1143.55	8.57085
1146.44	9.7536
1149.33	6.71735
1152.23	6.22894
1155.12	6.01791
1158.01	11.481
1160.9	10.5088
1163.8	2.50186
1166.69	1.54219
1169.58	4.84467
1172.47	2.88405
1175.37	0.565231
1178.26	4.62897
1181.15	3.38995
1184.05	4.29596
1186.94	4.59387
1189.83	2.52824
1192.72	6.78206
1195.62	6.96362
1198.51	2.83377
1201.4	3.41428
1204.29	6.27678
1207.19	8.52844
1210.08	7.74535
1212.97	7.99887
1215.87	11.1159
1218.76	6.67143
1221.65	6.51936
1224.54	15.7297
1227.44	11.7641
1230.33	8.77231
1233.22	6.27891
1236.11	6.83122
1239.01	5.37235
1241.9	5.20412
1244.79	3.36916
1247.68	9.32494
1250.58	9.67351
1253.47	2.22342
1256.36	6.5433
1259.26	6.5475
1262.15	4.76872
1265.04	3.6142
1267.93	6.2077
1270.83	1.64221
1273.72	7.00786
1276.61	3.29627
1279.5	1.44653
1282.4	1.00656
