Measurement: Raman, 532 nm, unoriented, Raman Data Processed
Mineral: Bobdownsite
Rruff sample: R110026
Ideal chemistry: Ca_9_Mg(PO_4_)_6_(PO_3_F)
Locality: Tip Top mine, Custer County, South Dakota, USA
Source: Tom Loomis, Dakota Matrix Minerals
Description: Crust of pale purple crystals on quartz
Measured chemistry: (Ca_8.67_Na_0.23_)_Σ=8.90_(Mg_0.93_Mn_0.06_)_Σ=0.99_(P_0.93_O_3_(F_0.79_(OH)_0.21_)_Σ=1.00_)(P_1.00_O_4_)_6_
Raman shift (cm-1)	intensity
178.298	0
181.191	26.9865
184.084	28.8226
186.976	7.83325
189.869	4.16956
192.762	36.58
195.655	51.3402
198.547	57.4017
201.44	53.8133
204.333	43.1489
207.225	26.441
210.118	26.9002
213.011	24.7918
215.904	43.4646
218.796	41.6542
221.689	48.9436
224.582	44.4536
227.474	45.1348
230.367	46.9575
233.26	40.323
236.152	40.3872
239.045	51.4961
241.938	63.9688
244.831	60.3687
247.723	65.094
250.616	74.2498
253.509	88.5454
256.401	107.138
259.294	123.13
262.187	129.765
265.079	146.763
267.972	142.14
270.865	148.967
273.758	164.542
276.65	178.642
279.543	197.351
282.436	222.644
285.328	207.864
288.221	187.144
291.114	142.95
294.007	108.163
296.899	86.9221
299.792	73.5747
302.685	55.6799
305.577	36.2412
308.47	24.5068
311.363	18.6035
314.255	14.7544
317.148	6.05029
320.041	8.08447
322.933	6.16162
325.826	2.61865
328.719	0.790771
331.612	4.92383
334.504	5.42212
337.397	4.92896
340.29	1.61084
343.183	8.5481
346.075	5.02515
348.968	3.08765
351.861	6.02905
354.753	0.594238
357.646	4.57739
360.539	4.49487
363.431	2.97754
366.324	2.65918
369.217	0.018311
372.11	6.60254
375.002	19.1838
377.895	38.2344
380.788	67.1196
383.68	94.1663
386.573	152.178
389.466	235.974
392.358	347.446
395.251	498.821
398.144	711.912
401.036	994.611
403.929	1329.06
406.822	1523.11
409.715	1392.89
412.607	1057.27
415.5	810.808
418.393	685.792
421.285	593.936
424.178	534.263
427.071	522.158
429.964	558.999
432.856	565.84
435.749	526.018
438.642	449.5
441.534	381.795
444.427	330.888
447.32	311.553
450.212	311.872
453.105	329.324
455.998	340.263
458.891	339.312
461.783	318.306
464.676	292.219
467.569	263.164
470.461	231.738
473.354	203.707
476.247	182.728
479.139	180.395
482.032	197.566
484.925	201.446
487.818	187.517
490.71	145.007
493.603	85.3455
496.496	57.9143
499.388	31.2317
502.281	11.6992
505.174	4.89429
508.067	14.4373
510.959	14.147
513.852	7.92944
516.745	5.04712
519.637	7.32568
522.53	6.54565
525.423	10.2339
528.316	19.9353
531.208	27.3442
534.101	49.9712
536.994	67.0984
539.886	107.124
542.779	147.889
545.672	193.359
548.564	235.357
551.457	248.297
554.35	263.185
557.242	261.431
560.135	279.541
563.028	269.698
565.921	213.299
568.813	150.377
571.706	103.442
574.599	76.4248
577.491	53.8792
580.384	36.5071
583.277	36.3154
586.17	49.8259
589.062	59.6299
591.955	69.4973
594.848	70.0229
597.74	82.3674
600.633	110.055
603.526	131.626
606.418	131.787
609.311	133.148
612.204	153.452
615.097	181.672
617.989	215.076
620.882	267.723
623.775	313.56
626.667	322.674
629.56	317.55
632.453	281.516
635.346	203.017
638.238	102.37
641.131	52.9658
644.024	38.5395
646.916	15.4148
649.809	7.06982
652.702	1.51562
655.594	2.88452
658.487	6.98975
661.38	13.3867
664.273	4.86206
667.165	9.53613
670.058	5.66138
672.951	3.37012
675.843	8.40259
678.736	9.54834
681.629	11.2673
684.521	19.8855
687.414	27.533
690.307	26.4277
693.199	26.02
696.092	6.29736
698.985	16.9495
701.878	23.3289
704.77	28.1541
707.663	28.603
710.556	18.7937
713.448	29.197
716.341	23.8721
719.234	14.0781
722.127	8.01977
725.019	5.79541
727.912	6.86792
730.805	3.00903
733.697	6.16162
736.59	8.50635
739.483	15.5564
742.375	1.26099
745.268	4.1062
748.161	3.84888
751.054	3.56421
753.946	0.564209
756.839	7.83398
759.732	4.12378
762.625	6.71704
765.517	12.6704
768.41	12.2952
771.303	9.48438
774.195	12.8159
777.088	2.35742
779.981	15.6345
782.873	16.5393
785.766	10.9824
788.659	1.96924
791.552	15.4131
794.444	26.3442
797.337	15.2434
800.23	20.5261
803.122	20.9441
806.015	22.562
808.908	15.6982
811.8	2.91455
814.693	9.23706
817.586	8.43921
820.479	16.0862
823.371	14.625
826.264	11.7283
829.157	8.53638
832.049	20.25
834.942	25.1128
837.835	18.4526
840.727	22.8613
843.62	14.4414
846.513	20.1445
849.405	9.74854
852.298	17.0825
855.191	23.2358
858.084	19.854
860.976	11.7534
863.869	20.8818
866.762	27.3594
869.654	13.0107
872.547	2.83106
875.44	9.78662
878.333	3.9292
881.225	1.62842
884.118	15.8706
887.011	18.5039
889.903	5.97266
892.796	13.0952
895.689	6.72949
898.582	11.8877
901.474	33.7808
904.367	46.0132
907.26	61.3423
910.152	107.81
913.045	170.956
915.938	292.496
918.83	509.113
921.723	804.144
924.616	976.398
927.509	734.989
930.401	339.743
933.294	146.384
936.187	103.508
939.079	102.613
941.972	104.884
944.865	159.832
947.757	302.068
950.65	643.29
953.543	1209.99
956.436	2141.28
959.328	3817.14
962.221	5673.77
965.114	5033.04
968.006	4352.71
970.899	4572.96
973.792	4370.79
976.684	2562.6
979.577	917.892
982.47	384.756
985.362	303.115
988.255	364.777
991.148	439.392
994.041	413.657
996.933	334.519
999.826	222.669
1002.72	116.677
1005.61	47.3433
1008.5	14.7524
1011.4	30.0645
1014.29	65.2739
1017.18	92.4756
1020.08	109.681
1022.97	125.984
1025.86	137.58
1028.75	159.489
1031.65	169.145
1034.54	164.677
1037.43	114.631
1040.32	39.4683
1043.22	3.771
1046.11	17.6064
1049	23.7544
1051.89	21.8745
1054.79	8.11719
1057.68	15.0933
1060.57	28.9844
1063.47	67.0034
1066.36	70.3574
1069.25	87.7466
1072.14	115.497
1075.04	156.542
1077.93	176.747
1080.82	222.317
1083.71	268.414
1086.61	286.873
1089.5	329.505
1092.39	328.784
1095.29	290.232
1098.18	247.938
1101.07	236.016
1103.96	209.083
1106.86	166.986
1109.75	114.751
1112.64	65.4688
1115.53	49.3398
1118.43	39.8809
1121.32	31.2915
1124.21	9.58105
1127.11	15.1738
1130	16.6343
1132.89	8.81104
1135.78	3.74951
1138.68	6.76025
1141.57	13.542
1144.46	2.09912
1147.35	16.8657
1150.25	9.29248
1153.14	8.76514
1156.03	11.9512
1158.92	5.9209
1161.82	2.2666
1164.71	20.7114
1167.6	8.48975
1170.5	11.3447
1173.39	6.10498
1176.28	12.2759
1179.17	25.7744
1182.07	19.438
1184.96	24.0234
1187.85	24.7568
1190.74	12.1699
1193.64	23.9663
1196.53	22.3833
1199.42	22.7056
1202.32	9.64795
1205.21	18.6533
1208.1	9.21582
1210.99	13.8672
1213.89	31.811
1216.78	14.6562
1219.67	17.0718
1222.56	24.6694
1225.46	17.0439
1228.35	18.9702
1231.24	27.6074
1234.13	13.4771
1237.03	3.18359
1239.92	9.33984
1242.81	10.0962
1245.71	18.3013
1248.6	12.252
1251.49	29.8061
1254.38	14.8818
1257.28	10.167
1260.17	15.4922
1263.06	34.2031
1265.95	15.7827
1268.85	20.48
1271.74	8.24316
1274.63	20.6289
1277.53	8.17285
1280.42	3.88965
1283.31	12.0513
1286.2	4.34326
1289.1	5.56885
1291.99	12.2554
1294.88	13.0293
1297.78	11.8428
1300.67	0.509766
