Measurement: Raman, 514 nm, unoriented, Raman Data Processed
Mineral: Bobdownsite
Rruff sample: R050109
Ideal chemistry: Ca_9_Mg(PO_4_)_6_(PO_3_F)
Locality: Big Fish River, Yukon Territory, Canada
Source: Rock Currier
Description: Colorless hexagonal tabular crystals, type sample
Measured chemistry: (Ca_8.76_Na_0.24_)_Σ=9_(Mg_0.72_Fe^3+^_0.13_Al_0.11_Fe^2+^_0.04_)_Σ=1_(P_1.00_O_4_)_6_(P_1.00_O_3_F_1.00_); Fe^2+^ and Fe^3+^ by charge balance
Raman shift (cm-1)	intensity
52.866	0
57.065	31.783
61.262	3.154
65.458	5.885
69.651	28.441
73.842	111.767
78.031	248.33
82.218	421.863
86.404	598.459
90.587	1116.53
94.768	1827.91
98.947	1994.19
103.124	1288.88
107.3	904.717
111.473	657.526
115.644	619.187
119.813	603.61
123.981	703.769
128.146	895.354
132.309	1018.56
136.47	945.183
140.63	864.705
144.787	931.119
148.942	1253.59
153.096	1780.21
157.247	2193.01
161.396	2124.03
165.544	1783.27
169.689	1701.76
173.833	1924.48
177.974	1743.45
182.114	1258.65
186.251	992.073
190.387	874.724
194.52	793.496
198.652	708.166
202.782	662.386
206.909	722.564
211.035	718.973
215.159	701.883
219.281	762.531
223.4	775.646
227.518	769.942
231.634	771.221
235.748	734.416
239.86	738.154
243.97	749.351
248.079	796.945
252.185	905.89
256.289	916.148
260.391	945.686
264.492	917.475
268.59	866.494
272.687	830.726
276.781	1042.16
280.874	1166.78
284.964	1077.58
289.053	748.543
293.14	473.663
297.225	369.914
301.308	329.285
305.389	306.776
309.468	223.389
313.545	126.124
317.62	114.981
321.693	15.956
325.765	15.047
329.834	23.748
333.902	33.449
337.967	34.067
342.031	19.62
346.093	18.11
350.153	72.521
354.21	52.876
358.267	23.202
362.321	6.433
366.373	21.037
370.423	15.592
374.471	12.194
378.518	69.941
382.563	142.807
386.605	295.48
390.646	488.025
394.685	719.376
398.722	913.857
402.757	1320.47
406.79	1575.21
410.821	1468.08
414.851	1306.06
418.878	1116.13
422.904	1170.31
426.927	1434.58
430.949	1574.93
434.969	1567.36
438.987	1543.92
443.003	1534.58
447.018	1656.32
451.03	1757.16
455.041	1777.11
459.049	1756.11
463.056	1487.16
467.061	1125.23
471.064	935.345
475.065	805.476
479.064	917.627
483.062	1072.81
487.057	964.01
491.051	632.313
495.043	369.192
499.032	185.157
503.02	102.437
507.007	72.224
510.991	41.216
514.973	56.546
518.954	44.159
522.933	65.9
526.91	113.813
530.885	211.418
534.858	377.927
538.829	714.584
542.799	1478.77
546.766	1795.37
550.732	1772.59
554.696	2249.92
558.658	2738.28
562.618	2279.19
566.576	1328.12
570.533	801.134
574.488	495.921
578.44	389.566
582.391	524.906
586.341	968.597
590.288	1366.25
594.233	1207.39
598.177	1275.37
602.119	2165.68
606.059	2251.7
609.997	1526.39
613.933	1254.84
617.868	1627.68
621.801	1780.94
625.731	1752.24
629.66	1585.32
633.588	1197.12
637.513	509.227
641.437	163.267
645.358	76.303
649.278	75.253
653.196	15.175
657.113	61.476
661.027	1.393
664.94	22.96
668.851	25.531
672.76	14.95
676.667	7.632
680.572	11.108
684.476	18.755
688.378	4.402
692.278	25.765
696.176	38.624
700.072	33.27
703.967	20.29
707.86	39.884
711.751	26.858
715.64	48.622
719.527	61.157
723.413	5.478
727.297	28.547
731.179	36.396
735.059	11.936
738.937	45.492
742.814	18.728
746.689	10.222
750.562	12.417
754.433	0.895
758.303	43.401
762.17	8.542
766.036	32.745
769.901	8.776
773.763	13.44
777.624	26.353
781.482	11.422
785.339	37.345
789.195	11.849
793.048	1.185
796.9	4.674
800.75	9.293
804.598	42.949
808.445	19.162
812.289	22.946
816.132	7.256
819.973	3.076
823.813	20.928
827.65	13.639
831.486	1.238
835.32	1.38
839.152	19.891
842.983	3.25
846.812	21.939
850.639	3.831
854.464	33.763
858.288	63.812
862.11	57.297
865.93	73.769
869.748	122.769
873.564	104.92
877.379	120.946
881.192	152.709
885.004	111.075
888.813	230.614
892.621	285.15
896.427	367.101
900.232	457.98
904.034	513.62
907.835	638.243
911.634	958.625
915.432	1730.08
919.227	3888.65
923.021	8609.4
926.813	11081.3
930.604	4793.65
934.393	2102.88
938.18	1727.37
941.965	1959.3
945.749	2408.33
949.53	3808.65
953.311	7510.91
957.089	19931.8
960.866	45739.3
964.641	57215.5
968.414	60249.7
972.185	50545.9
975.955	26613.5
979.723	9042.95
983.49	4506.26
987.254	3662.61
991.017	3809.37
994.779	4244.78
998.538	4592.54
1002.3	4643.56
1006.05	3988.82
1009.81	2876.34
1013.56	2722.1
1017.31	2830.3
1021.06	3009.39
1024.81	3399.49
1028.55	3559.94
1032.3	3981.28
1036.04	4053.15
1039.78	3078.88
1043.52	2014.47
1047.26	1466.42
1050.99	1529.7
1054.73	1670.92
1058.46	1833.36
1062.19	1973
1065.92	2040.86
1069.65	1636.93
1073.37	1478.2
1077.1	1483.63
1080.82	1813.22
1084.54	2493.95
1088.26	3099.84
1091.97	2950.86
1095.69	2426.03
1099.4	2099.41
1103.12	1857.97
1106.83	1653.61
1110.54	1210.4
1114.24	700.62
1117.95	460.68
1121.65	376.903
1125.35	242.181
1129.06	123.89
1132.75	157.344
1136.45	214.413
1140.15	147.778
1143.84	177.822
1147.53	235.87
1151.22	225.213
1154.91	100.029
1158.6	101.906
1162.28	29.437
1165.97	34.285
1169.65	14.62
1173.33	78.033
1177.01	5.233
1180.69	42.716
1184.36	12.356
1188.04	110.452
1191.71	89.433
1195.38	31.909
1199.05	10.998
1202.71	32.609
1206.38	87.172
1210.04	31.24
1213.71	52.465
1217.37	53.73
1221.03	45.671
1224.68	65.578
1228.34	35.424
1231.99	36.316
1235.65	50.778
1239.3	51.153
1242.95	18.351
1246.59	22.766
1250.24	32.919
1253.88	36.809
1257.53	15.566
1261.17	38.136
1264.81	43.686
1268.45	15.084
1272.08	12.038
1275.72	16.589
1279.35	29.176
1282.98	27.768
1286.61	30.58
1290.24	39.023
1293.87	0.932
1297.49	20.944
1301.11	2.356
1304.73	3.956
1308.36	87.449
1311.97	0.021
1315.59	49.567
1319.2	6.472
1322.82	4.861
1326.43	39.285
1330.04	38.58
1333.65	22.14
1337.26	5.506
1340.86	26.221
1344.47	26.177
1348.07	59.955
1351.67	100.544
1355.27	58.964
1358.87	41.394
1362.46	43.498
1366.06	87.467
1369.65	94.297
1373.24	54.202
1376.83	143.867
1380.42	86.821
1384	89.972
1387.59	65.218
1391.17	101.139
1394.75	117.559
1398.33	129.293
1401.91	137.823
1405.49	92.475
1409.06	67.863
1412.64	106.564
1416.21	52.725
1419.78	71.412
1423.35	60.731
1426.91	30.382
1430.48	129.132
1434.05	143.705
1437.61	105.546
1441.17	114.48
1444.73	100.266
1448.29	127.184
1451.84	186.015
1455.4	112.425
1458.95	201.892
1462.5	107.397
1466.05	81.742
1469.6	126.994
1473.15	150.963
1476.69	37.115
1480.24	65.063
1483.78	113.09
1487.32	61.915
1490.86	116.543
1494.39	103.795
1497.93	26.572
1501.46	41.867
1505	33.98
1508.53	111.209
1512.06	55.066
1515.59	33.099
1519.11	22.946
1522.64	1.767
