Measurement: Raman, 785 nm, unoriented, Raman Data Processed
Mineral: Bobierrite
Rruff sample: R060681
Ideal chemistry: Mg_3_(PO_4_)_2_8H_2_O
Locality: Kovdor Massif, Kola Peninsula, Murmanskaja Oblast', Northern Region, Russia
Source: Michael Scott
Description: Colorless sectile tabular crystals
Measured chemistry: (Mg_2.94_Fe_0.05_Mn_0.01_)_Σ=3_(P_1.00_O_4_)_2_·8H_2_O; H_2_O estimated by difference
Raman shift (cm-1)	intensity
120.564	0
123.456	0.153931
126.349	51.4193
129.242	1023.05
132.135	3259.51
135.027	6273.47
137.92	7266.76
140.813	3218.63
143.705	1751.31
146.598	2450.26
149.491	3779.57
152.383	4178.17
155.276	2279.47
158.169	754.802
161.062	342.751
163.954	599.15
166.847	837.008
169.74	1033.38
172.632	1221.98
175.525	760.306
178.418	790.615
181.311	1633.17
184.203	3260.7
187.096	1356.91
189.989	30.9959
192.881	154.78
195.774	27.7283
198.667	376.772
201.559	1252.89
204.452	2261.53
207.345	3697.57
210.238	6311.17
213.13	11307.8
216.023	15584
218.916	12259.5
221.808	8765.96
224.701	6244.59
227.594	2347.91
230.486	1379.16
233.379	1705.35
236.272	1737.49
239.165	1136.45
242.057	455.095
244.95	22.3118
247.843	103.791
250.735	52.1985
253.628	179.736
256.521	337.847
259.413	827.342
262.306	1641.9
265.199	1553.16
268.091	974.65
270.984	1211.75
273.877	2280.93
276.77	4441.99
279.662	8147.22
282.555	13651.1
285.448	13735.3
288.34	6681.01
291.233	2845.48
294.126	1523.72
297.018	688.421
299.911	379.625
302.804	180.475
305.697	113.059
308.589	229.481
311.482	433.245
314.375	863.379
317.267	1547.14
320.16	2194.37
323.053	2208.94
325.945	1455.58
328.838	732.151
331.731	273.604
334.624	70.0024
337.516	4.80975
340.409	77.1514
343.302	65.1594
346.194	43.6986
349.087	20.6413
351.98	43.4671
354.872	87.1639
357.765	243.43
360.658	339.748
363.551	464.097
366.443	368.973
369.336	218.115
372.229	94.9097
375.121	55.2345
378.014	27.3998
380.907	26.3189
383.799	3.74261
386.692	34.4717
389.585	126.304
392.478	192.197
395.37	259.295
398.263	260.253
401.156	165.143
404.048	144.534
406.941	255.474
409.834	504.323
412.727	875.633
415.619	1416.89
418.512	2052.58
421.405	2294.34
424.297	1963.86
427.19	1322.52
430.083	779.539
432.975	477.363
435.868	320.72
438.761	177.603
441.654	116.542
444.546	100.875
447.439	215.362
450.332	357.776
453.224	580.868
456.117	1100.8
459.01	1717.86
461.902	2677.19
464.795	4012.65
467.688	5000.77
470.58	5267.22
473.473	4191.71
476.366	3121.56
479.259	1913.62
482.151	1169.29
485.044	731.916
487.937	480.502
490.829	300.934
493.722	152.117
496.615	91.0654
499.507	26.5231
502.4	43.2471
505.293	47.7194
508.185	46.0884
511.078	26.7704
513.971	18.5248
516.864	81.3378
519.756	150.592
522.649	271.705
525.542	417.143
528.434	600.761
531.327	841.724
534.22	1087.19
537.112	1462.23
540.005	2028.59
542.898	2659.66
545.791	3615.66
548.683	5035.8
551.576	6878.85
554.469	8917.42
557.362	10330.9
560.254	9753.03
563.147	7477.77
566.04	5449.27
568.932	4285.59
571.825	3137.19
574.718	3422.34
577.61	4348.91
580.503	5656.67
583.396	6504.06
586.289	5443.33
589.181	3820.53
592.074	2431.93
594.967	1531.06
597.859	907.037
600.752	650.415
603.645	457.843
606.537	327.155
609.43	167.964
612.323	28.3048
615.216	35.8065
618.108	37.1228
621.001	41.6797
623.894	26.2528
626.786	60.0104
629.679	103.688
632.572	164.548
635.464	186.685
638.357	207.656
641.25	157.693
644.143	168.887
647.035	139.487
649.928	83.3112
652.821	224.291
655.713	381.078
658.606	458.043
661.499	571.527
664.391	780.208
667.284	930.387
670.177	982.247
673.07	952.39
675.962	942.455
678.855	743.947
681.748	641.323
684.64	537.391
687.533	421.529
690.426	370.666
693.318	335.647
696.211	319.853
699.104	327.629
701.997	338.113
704.889	316.754
707.782	310.337
710.675	347.198
713.567	301.135
716.46	325.939
719.353	319.173
722.245	243.42
725.138	251.015
728.031	173.522
730.924	169.427
733.816	120.108
736.709	54.8029
739.602	25.7704
742.494	4.61682
745.387	0.847595
748.28	2.09576
751.172	29.8629
754.065	7.18677
756.958	31.8327
759.851	6.92389
762.743	67.2404
765.636	77.5065
768.529	143.933
771.421	233.851
774.314	314.129
777.207	441.557
780.099	538.616
782.992	636.265
785.885	740.233
788.778	754.921
791.67	694.205
794.563	615.551
797.456	529.789
800.348	405.375
803.241	334.783
806.134	262.856
809.026	259.594
811.919	228.141
814.812	154.742
817.705	132.497
820.597	81.5434
823.49	85.6663
826.383	52.0731
829.275	2.81195
832.168	30.187
835.061	7.66956
837.953	34.0861
840.846	23.0613
843.739	17.5164
846.631	18.5068
849.524	2.09106
852.417	32.5841
855.31	21.5048
858.202	19.8917
861.095	23.1432
863.988	24.1865
866.88	45.6155
869.773	11.6406
872.666	24.0752
875.558	46.0211
878.451	81.2686
881.344	88.3141
884.237	90.8041
887.129	85.3897
890.022	62.4899
892.915	49.6348
895.807	23.673
898.7	33.2284
901.593	6.38232
904.485	8.61279
907.378	11.1085
910.271	64.6101
913.164	175.636
916.056	269.605
918.949	398.625
921.842	565.6
924.734	803.983
927.627	1220.6
930.52	1769.43
933.412	2467.32
936.305	3565.02
939.198	5142.5
942.091	7787.49
944.983	12079.5
947.876	18377.9
950.769	25367.8
953.661	27935.4
956.554	22746.1
959.447	15034
962.339	9356.56
965.232	6108.96
968.125	4213.89
971.018	2933.17
973.91	2183.91
976.803	1672.45
979.696	1405.14
982.588	1263.66
985.481	1223.98
988.374	1206.77
991.266	1261.09
994.159	1346.56
997.052	1431.88
999.945	1431.92
1002.84	1337.49
1005.73	1096.15
1008.62	832.077
1011.51	615.644
1014.41	444.893
1017.3	341.743
1020.19	312.029
1023.09	208.529
1025.98	138.56
1028.87	63.036
1031.76	6.48645
1034.66	86.9289
1037.55	99.5297
1040.44	58.5397
1043.34	1.96094
1046.23	49.5538
1049.12	194.888
1052.01	353.056
1054.91	624.245
1057.8	971.617
1060.69	1473.98
1063.58	2454.23
1066.48	4198.65
1069.37	6992.4
1072.26	9501.32
1075.15	9060.34
1078.05	5554.18
1080.94	3057.67
1083.83	1729.42
1086.72	1133.78
1089.62	761.472
1092.51	534.799
1095.4	475.168
1098.3	441.211
1101.19	464.575
1104.08	441.793
1106.97	303.939
1109.87	259.175
1112.76	156.138
1115.65	45.0992
1118.55	61.7203
1121.44	21.2291
1124.33	17.9776
1127.22	2.57208
1130.12	14.6058
1133.01	20.3626
1135.9	0.208923
1138.79	18.5974
1141.69	26.3864
1144.58	13.7335
1147.47	9.10446
1150.37	30.6782
1153.26	24.4901
1156.15	3.73846
1159.04	24.4004
1161.94	39.7159
1164.83	35.9051
1167.72	42.0613
1170.61	23.9943
1173.51	53.5017
1176.4	63.3366
1179.29	32.5782
1182.18	71.3633
1185.08	53.3252
1187.97	34.7773
1190.86	50.2771
1193.76	44.1765
1196.65	44.7277
1199.54	58.5914
1202.43	26.1903
1205.33	33.2425
1208.22	42.0149
1211.11	27.6757
1214	18.5666
1216.9	23.511
1219.79	52.9898
1222.68	10.8442
1225.58	45.3574
1228.47	32.7879
1231.36	25.682
1234.25	40.7395
1237.15	26.7173
1240.04	33.7227
1242.93	28.2081
1245.82	35.955
1248.72	53.9139
1251.61	17.1818
1254.5	56.6084
1257.39	30.7821
1260.29	39.4622
1263.18	27.1605
1266.07	23.8659
1268.97	0.053375
