Measurement: Raman, 532 nm, unoriented, Raman Data Processed
Mineral: Bobierrite
Rruff sample: R060681
Ideal chemistry: Mg_3_(PO_4_)_2_8H_2_O
Locality: Kovdor Massif, Kola Peninsula, Murmanskaja Oblast', Northern Region, Russia
Source: Michael Scott
Description: Colorless sectile tabular crystals
Measured chemistry: (Mg_2.94_Fe_0.05_Mn_0.01_)_Σ=3_(P_1.00_O_4_)_2_·8H_2_O; H_2_O estimated by difference
Raman shift (cm-1)	intensity
113.809	0
117.184	56.323
120.559	233.33
123.934	599.05
127.309	1073.76
130.683	2027.52
134.058	4565.43
137.433	10466.8
140.808	4304.92
144.182	1621.45
147.557	1227.42
150.932	1475.64
154.307	1689.52
157.682	586.869
161.057	524.438
164.431	723.505
167.806	1091.57
171.181	1913.31
174.556	2169.82
177.931	2635.36
181.305	4902.82
184.68	8926.61
188.055	2887.49
191.43	1464.68
194.805	1548.12
198.18	2134.42
201.554	3544.77
204.929	4689.23
208.304	7626.03
211.679	13614.6
215.054	23082.7
218.428	19581.3
221.803	11982.4
225.178	7645.21
228.553	4707.1
231.928	5432.3
235.303	5855.57
238.677	4088.54
242.052	2620.99
245.427	1656.56
248.802	1402.97
252.177	1671.33
255.551	2250.76
258.926	3606.17
262.301	6186.39
265.676	5062.34
269.051	2652.26
272.426	2537.11
275.8	3816.89
279.175	6624.06
282.55	12089.2
285.925	12266.2
289.3	6001.42
292.674	4078.26
296.049	3215.08
299.424	2051.3
302.799	1331.94
306.174	1039.32
309.548	1063.27
312.923	1449.83
316.298	2283.48
319.673	2912.51
323.048	2551.65
326.422	1401.57
329.797	564.496
333.172	206.012
336.547	23.515
339.922	113.888
343.297	140.697
346.671	189.103
350.046	181.797
353.421	89.485
356.796	22.281
360.171	80.989
363.546	188.701
366.92	163.302
370.295	32.811
373.67	115.479
377.045	159.499
380.42	192.777
383.794	152.488
387.169	94.125
390.544	5.901
393.919	76.634
397.294	237.011
400.668	254.551
404.043	372.175
407.418	615.554
410.793	1128.5
414.168	1900.28
417.543	3022.44
420.917	3830.12
424.292	3495.51
427.667	2236.19
431.042	1375.9
434.417	829.332
437.791	699.025
441.166	585.983
444.541	607.182
447.916	746.855
451.291	1165.18
454.665	1790.24
458.04	2891.69
461.415	4672.98
464.79	7139.22
468.165	9555.51
471.54	9507.76
474.914	6910.51
478.289	4268.29
481.664	2529.2
485.039	1613.12
488.414	1015.15
491.789	579.791
495.163	328.27
498.538	136.02
501.913	51.757
505.288	5.584
508.663	36.061
512.037	37.496
515.412	71.948
518.787	184.025
522.162	317.575
525.537	534.11
528.911	750.973
532.286	1105.88
535.661	1612.83
539.036	2220.73
542.411	3263.44
545.786	4766.06
549.16	6931.79
552.535	10123.7
555.91	13772.2
559.285	15707.1
562.66	13072.8
566.034	9041.23
569.409	6110.32
572.784	4725.15
576.159	4472.24
579.534	5295.27
582.909	6363.43
586.283	6257.85
589.658	5068.02
593.033	3069.84
596.408	1813.55
599.783	1272.4
603.157	936.742
606.532	714.91
609.907	531.454
613.282	391.22
616.657	347.685
620.031	304.245
623.406	360.135
626.781	448.554
630.156	523.668
633.531	572.074
636.906	542.336
640.28	368.385
643.655	204.631
647.03	91.508
650.405	57.781
653.78	93.264
657.154	177.889
660.529	354.939
663.904	529.941
667.279	746.892
670.654	990.43
674.029	957.433
677.403	878.699
680.778	800.416
684.153	642.69
687.528	534.605
690.903	474.49
694.277	427.201
697.652	422.809
701.027	441.881
704.402	509.005
707.777	557.521
711.151	576.667
714.526	600.261
717.901	572.851
721.276	556.52
724.651	502.074
728.026	358.311
731.4	292.066
734.775	171.516
738.15	93.072
741.525	4.023
744.9	46.706
748.274	133.312
751.649	146.597
755.024	198.605
758.399	142.649
761.774	131.302
765.149	85.171
768.523	73.946
771.898	201.869
775.273	326.64
778.648	542.95
782.023	706.917
785.397	901.624
788.772	942.14
792.147	816.815
795.522	675.114
798.897	470.16
802.271	255.811
805.646	157.774
809.021	9.16
812.396	10.972
815.771	87.508
819.146	99.099
822.52	102.017
825.895	60.396
829.27	57.208
832.645	138.356
836.02	279.67
839.394	471.408
842.769	628.127
846.144	759.708
849.519	885.609
852.894	870.99
856.269	868.29
859.643	865.787
863.018	881.222
866.393	958.865
869.768	1077.84
873.143	1298.59
876.518	1647.64
879.892	1938.26
883.267	2229.8
886.642	2380.33
890.017	2525.92
893.391	2529.72
896.766	2506.93
900.141	2397.6
903.516	2322.87
906.891	2362.95
910.266	2444.96
913.64	2528.39
917.015	2766.66
920.39	3153.7
923.765	3843.72
927.14	4732.52
930.515	5989.16
933.889	7641.38
937.264	10153.9
940.639	13936.2
944.014	19937.2
947.388	29056.9
950.763	40900.9
954.138	46206
957.513	34783.8
960.888	20645.3
964.263	12220.3
967.638	8017.88
971.012	5474.02
974.387	4234.58
977.762	3544.79
981.137	3193
984.511	3185.43
987.886	3406.5
991.261	3824.04
994.636	4290.14
998.011	4685.42
1001.39	4742.91
1004.76	4129.56
1008.13	3107.8
1011.51	2220.78
1014.88	1480.87
1018.26	1008.3
1021.63	632.36
1025.01	448.817
1028.38	205.967
1031.76	43.666
1035.13	116.633
1038.51	171.749
1041.88	169.13
1045.26	140.545
1048.63	66.316
1052.01	102.006
1055.38	339.126
1058.76	737.814
1062.13	1517.2
1065.51	2810.02
1068.88	4986.7
1072.26	8019.46
1075.63	8008.08
1079.01	4441.16
1082.38	2107.84
1085.76	1022.4
1089.13	568.012
1092.51	324.337
1095.88	253.286
1099.26	312.696
1102.63	333.376
1106.01	281.694
1109.38	67.529
1112.76	10.153
1116.13	43.793
1119.5	103.512
1122.88	120.59
1126.25	102.082
1129.63	79.399
1133	98.119
1136.38	126.945
1139.75	44.888
1143.13	78.461
1146.5	38.57
1149.88	84.08
1153.25	61.301
1156.63	22.579
1160	14.406
1163.38	15.956
1166.75	15.435
1170.13	37.062
1173.5	18.04
1176.88	33.486
1180.25	44.965
1183.63	17.011
1187	68.801
1190.38	29.849
1193.75	2.103
1197.12	13.469
1200.5	18.47
1203.88	9.452
1207.25	38.56
1210.62	46.558
1214	11.767
1217.37	14.979
1220.75	11.411
1224.12	63.566
1227.5	4.714
1230.87	76.005
1234.25	33.744
1237.62	67.016
1241	99.972
1244.37	63.1
1247.75	52.026
1251.12	83.979
1254.5	64.823
1257.87	82.669
1261.25	53.493
1264.62	49.916
1268	53.584
