Measurement: Raman, 532 nm, unoriented, Raman Data Processed
Mineral: Bobjonesite
Rruff sample: R060577
Ideal chemistry: V^4+^OSO_4_3H_2_O
Locality: Petrified log in the North Mesa 5 mine, Temple Mountain, Emery County, Utah, USA
Source: Michael Scott
Description: Blue tabular crystals
Raman shift (cm-1)	intensity
116.22	0
119.595	894.413
122.969	878.912
126.344	211.116
129.719	71.457
133.094	170.399
136.469	219.892
139.844	603.094
143.218	1198.12
146.593	1792.38
149.968	2130.06
153.343	1869.14
156.718	950.547
160.092	328.819
163.467	25.086
166.842	237.493
170.217	172.531
173.592	112.598
176.966	56.58
180.341	215.739
183.716	471.185
187.091	927.789
190.466	1712.03
193.84	3287.5
197.215	5110.38
200.59	7275.47
203.965	8402.9
207.34	7366.71
210.715	5777.9
214.089	4167.11
217.464	2649.09
220.839	2052.48
224.214	2016.4
227.589	2081.63
230.964	1959.76
234.338	1882.73
237.713	2160.68
241.088	2543.49
244.463	2652.7
247.838	2458.66
251.212	2370.83
254.587	2442.19
257.962	2606.08
261.337	3457.11
264.712	5324.02
268.086	7800.04
271.461	9383.2
274.836	8858.55
278.211	6347.28
281.586	4042.39
284.961	2587.29
288.335	1737.84
291.71	1403.61
295.085	1404.59
298.46	1519.36
301.835	1770.7
305.209	2159.7
308.584	2725.3
311.959	3233.72
315.334	3422.89
318.709	2773.01
322.083	1687.31
325.458	836.344
328.833	385.284
332.208	212.49
335.583	2.963
338.958	76.419
342.332	87.958
345.707	126.236
349.082	101.556
352.457	58.081
355.832	65.472
359.207	56.442
362.581	44.936
365.956	57.482
369.331	26.184
372.706	81.031
376.081	72.963
379.455	97.958
382.83	116.576
386.205	135.238
389.58	140.65
392.955	136.044
396.329	126.883
399.704	152.037
403.079	76.965
406.454	101.75
409.829	77.545
413.203	92.651
416.578	189.841
419.953	139.979
423.328	188.737
426.703	235.4
430.078	419.259
433.452	528.154
436.827	654.051
440.202	1013.55
443.577	1407.56
446.952	1817.35
450.327	2305.78
453.701	2953.8
457.076	3546.09
460.451	4268.48
463.826	4784.55
467.201	4976.3
470.575	5139.65
473.95	5245.52
477.325	4832.59
480.7	3861.38
484.075	2993.28
487.449	2253.27
490.824	1737.57
494.199	1455.99
497.574	1165.79
500.949	1028.96
504.323	906.896
507.698	890.946
511.073	832.275
514.448	748.521
517.823	734.468
521.198	600.867
524.572	526.711
527.947	378.287
531.322	285.457
534.697	239.228
538.072	136.009
541.446	35.863
544.821	64.503
548.196	99.365
551.571	10.39
554.946	36.173
558.321	77.324
561.695	23.029
565.07	46.748
568.445	21.232
571.82	29.311
575.195	64.183
578.57	130.739
581.944	148.104
585.319	281.263
588.694	420.841
592.069	526
595.443	724.999
598.818	885.09
602.193	1064.64
605.568	1267.58
608.943	1423.01
612.318	1585.21
615.692	1723.17
619.067	1795.7
622.442	2024.46
625.817	2276.91
629.192	2473.72
632.567	2641.72
635.941	2847.02
639.316	2797.84
642.691	2489.49
646.066	2035.96
649.441	1648.07
652.815	1322.02
656.19	1039.39
659.565	851.554
662.94	658.462
666.315	542.886
669.69	575.987
673.064	568.338
676.439	598.505
679.814	566.042
683.189	483.772
686.563	389.436
689.938	274.487
693.313	223.514
696.688	211.909
700.063	76.939
703.438	75.181
706.812	51.871
710.187	1.704
713.562	22.279
716.937	3.482
720.312	32.056
723.687	12.719
727.061	23.143
730.436	9.781
733.811	34.154
737.186	40.164
740.561	43.275
743.935	18.419
747.31	52.495
750.685	67.404
754.06	41.508
757.435	71.758
760.81	41.299
764.184	31.088
767.559	60.835
770.934	59.912
774.309	83.439
777.683	98.178
781.058	76.794
784.433	53.672
787.808	18.989
791.183	123.268
794.558	158.581
797.932	106.921
801.307	127.385
804.682	168.787
808.057	120.041
811.432	140.022
814.807	185.674
818.181	178.358
821.556	175.809
824.931	301.167
828.306	347.542
831.681	383.684
835.055	501.102
838.43	657.098
841.805	810.752
845.18	827.407
848.555	780.719
851.93	732.506
855.304	632.778
858.679	515.37
862.054	484.384
865.429	388.282
868.804	259.503
872.178	151.622
875.553	132.366
878.928	149.533
882.303	208.624
885.678	150.386
889.052	115.104
892.427	167.281
895.802	170.912
899.177	166.543
902.552	111.141
905.927	47.562
909.301	64.141
912.676	45.367
916.051	16.612
919.426	62.496
922.801	19.023
926.175	77.367
929.55	86.435
932.925	17.346
936.3	60.034
939.675	10.183
943.049	57.29
946.424	44.474
949.799	15.614
953.174	119.372
956.549	12.204
959.924	118.05
963.298	157.504
966.673	211.621
970.048	226.634
973.423	361.442
976.798	625.439
980.172	1164.49
983.547	2099.93
986.922	4481.85
990.297	9624.06
993.672	18349.2
997.047	33576.8
1000.42	52202.8
1003.8	23663.8
1007.17	7079.02
1010.55	6051.98
1013.92	6794.41
1017.29	10938.2
1020.67	18739.7
1024.05	21921.6
1027.42	8390.2
1030.8	2732.3
1034.17	1123.41
1037.54	459.33
1040.92	190.599
1044.29	117.378
1047.67	158.607
1051.04	627.743
1054.42	1690.49
1057.79	3480.14
1061.17	6444.45
1064.54	10628.4
1067.92	14455.3
1071.29	10106.5
1074.67	3867.73
1078.04	1400.85
1081.42	428.23
1084.79	29.873
1088.17	75.234
1091.54	72.485
1094.92	27.077
1098.29	149.413
1101.67	396.189
1105.04	765.958
1108.41	959.107
1111.79	1165.95
1115.16	1350.66
1118.54	1278.62
1121.91	1124.85
1125.29	840.621
1128.66	743.801
1132.04	680.869
1135.41	901.671
1138.79	1048.16
1142.16	1262.21
1145.54	1331.29
1148.91	1246.25
1152.29	1030.26
1155.66	739.413
1159.04	467.539
1162.41	349.055
1165.79	172.054
1169.16	101.931
1172.54	40.266
1175.91	28.099
1179.29	22.271
1182.66	34.903
1186.04	62.979
1189.41	0.425
1192.79	59.098
1196.16	41.594
1199.54	12.935
1202.91	2.055
1206.29	77.055
1209.66	65.301
1213.04	87.222
1216.41	95.151
1219.78	22.393
1223.16	80.039
1226.53	135.664
1229.91	129.379
1233.28	157.638
1236.66	124.855
1240.03	155.989
1243.41	170.941
1246.78	130.774
1250.16	188.826
1253.53	150.948
1256.91	170.907
1260.28	91.169
1263.66	20.475
1267.03	57.028
1270.41	46.819
1273.78	62.253
1277.16	56.702
1280.53	59.087
1283.91	17.358
1287.28	10.892
1290.66	49.428
1294.03	12.093
