Measurement: Raman, 532 nm, unoriented, Raman Data Processed
Mineral: Bobkingite
Rruff sample: R141030
Ideal chemistry: Cu^2+^_5_Cl_2_(OH)_8_2H_2_O
Locality: Cerro Minado Mines, Cuesta Alta, Huércal-Overa, Almería, Andalusia, Spain
Source: William W. Pinch and Robert Pecorini
Description: Aggregates of acicular to bladed bundles of blue crystals on quartz
Raman shift (cm-1)	intensity
90.7474	0
94.1222	7.2162
97.4971	17.3927
100.872	37.9283
104.247	68.2373
107.621	90.7288
110.996	90.1535
114.371	59.4702
117.746	30.6102
121.121	11.5081
124.496	5.55975
127.87	1.94644
131.245	1.01306
134.62	0.938644
137.995	8.25796
141.37	11.0722
144.744	14.6086
148.119	23.0391
151.494	42.1107
154.869	54.5108
158.244	25.9924
161.619	8.91425
164.993	3.50728
168.368	2.97047
171.743	2.59752
175.118	0.619263
178.493	0.221287
181.868	0.433002
185.242	0.945415
188.617	0.750305
191.992	0.421261
195.367	1.30627
198.742	1.52338
202.116	2.84136
205.491	4.39283
208.866	6.58592
212.241	8.22377
215.616	10.1156
218.99	15.0973
222.365	15.1296
225.74	17.1543
229.115	16.5941
232.49	15.4522
235.865	15.8793
239.239	17.5986
242.614	19.357
245.989	18.4025
249.364	13.2312
252.739	10.9238
256.113	9.20473
259.488	7.45995
262.863	8.1585
266.238	8.80685
269.613	9.04427
272.988	7.81249
276.362	7.94091
279.737	9.08145
283.112	10.5769
286.487	11.6327
289.862	9.38577
293.236	9.01225
296.611	5.58778
299.986	3.99571
303.361	3.54635
306.736	1.1505
310.111	1.84967
313.485	1.12173
316.86	1.28181
320.235	0.869202
323.61	0.392712
326.985	0.177258
330.359	0.97595
333.734	0.203655
337.109	0.152338
340.484	1.19029
343.859	0.138878
347.233	0.449144
350.608	0.125166
353.983	0.704052
357.358	1.76924
360.733	4.45442
364.108	5.44986
367.482	7.20071
370.857	10.7703
374.232	11.6566
377.607	15.4066
380.982	17.3003
384.356	18.4014
387.731	19.3165
391.106	12.6214
394.481	8.77664
397.856	4.12744
401.231	5.48722
404.605	8.8935
407.98	12.4476
411.355	19.5449
414.73	29.1963
418.105	35.4612
421.479	35.0871
424.854	24.7252
428.229	13.3471
431.604	6.51201
434.979	2.55192
438.354	0.477831
441.728	0.176903
445.103	1.15463
448.478	0.159821
451.853	0.8829
455.228	3.07421
458.603	6.28322
461.977	9.62195
465.352	14.2486
468.727	19.9312
472.102	23.6712
475.477	28.6248
478.851	33.699
482.226	39.0172
485.601	40.5514
488.976	43.12
492.351	44.0403
495.726	47.5447
499.1	50.9497
502.475	54.6071
505.85	52.6009
509.225	44.926
512.6	37.4763
515.974	30.9134
519.349	24.6485
522.724	21.047
526.099	19.4875
529.474	16.9233
532.848	12.6678
536.223	11.9451
539.598	8.07706
542.973	6.67398
546.348	4.68681
549.722	3.51045
553.097	2.29675
556.472	1.4013
559.847	0.835157
563.222	0.018299
566.597	0.204195
569.971	0.513403
573.346	0.693001
576.721	0.03133
580.096	0.759512
583.471	0.080475
586.846	1.60823
590.22	0.739431
593.595	0.464516
596.97	1.26405
600.345	0.644621
603.72	0.86051
607.094	1.22895
610.469	0.484236
613.844	0.632277
617.219	1.26048
620.594	1.62796
623.968	0.158098
627.343	2.01839
630.718	0.564335
634.093	0.088501
637.468	1.17492
640.843	0.043684
644.217	0.471529
647.592	0.603863
650.967	1.05515
654.342	1.5623
657.717	1.81657
661.091	1.6571
664.466	0.542675
667.841	0.005684
671.216	0.566446
674.591	1.53933
677.966	0.45927
681.34	1.05271
684.715	0.726624
688.09	0.457947
691.465	0.347204
694.84	0.247297
698.215	0.069748
701.589	0.299215
704.964	0.584082
708.339	2.4032
711.714	2.77111
715.089	3.33224
718.463	4.33372
721.838	6.67975
725.213	11.0875
728.588	12.7747
731.963	18.0981
735.337	20.244
738.712	17.196
742.087	11.4763
745.462	9.77797
748.837	6.09497
752.212	4.31902
755.586	5.09721
758.961	3.33353
762.336	2.70552
765.711	3.00979
769.086	3.40331
772.46	3.06745
775.835	2.48774
779.21	3.09082
782.585	2.17525
785.96	1.58658
789.335	1.99454
792.709	0.664337
796.084	1.23584
799.459	1.11903
802.834	0.320484
806.209	0.196119
809.583	1.11042
812.958	1.42033
816.333	0.81488
819.708	0.008934
823.083	1.58844
826.457	1.1924
829.832	0.046909
833.207	0.361231
836.582	0.627884
839.957	0.789797
843.332	0.149616
846.706	0.482141
850.081	0.71176
853.456	2.14959
856.831	0.256033
860.206	1.92968
863.581	4.12592
866.955	4.38075
870.33	5.97551
873.705	7.46934
877.08	5.70285
880.455	7.21298
883.829	6.89156
887.204	5.3569
890.579	3.48465
893.954	3.57231
897.329	1.95254
900.703	0.499931
904.078	0.887114
907.453	0.814362
910.828	0.580584
914.203	0.384672
917.578	0.929754
920.952	1.42133
924.327	1.40413
927.702	3.92299
931.077	3.94659
934.452	4.99403
937.827	5.76766
941.201	6.66815
944.576	7.06119
947.951	7.15478
951.326	6.66123
954.701	8.92392
958.075	9.0015
961.45	10.0677
964.825	9.47272
968.2	10.1799
971.575	9.06752
974.949	7.52302
978.324	8.22036
981.699	6.6646
985.074	7.09273
988.449	7.82378
991.823	7.86577
995.198	6.87653
998.573	6.77583
1001.95	5.76485
1005.32	5.30996
1008.7	3.30011
1012.07	1.52548
1015.45	2.39004
1018.82	1.23602
1022.2	0.899899
1025.57	0.369108
1028.95	0.151848
1032.32	0.752634
1035.7	0.411308
1039.07	0.136089
1042.45	0.618963
1045.82	0.424812
1049.19	0.501858
1052.57	0.476156
1055.94	0.480297
1059.32	1.17664
1062.69	1.03597
1066.07	1.62724
1069.44	0.411747
1072.82	0.233547
1076.19	0.260969
1079.57	0.903517
1082.94	1.68571
1086.32	0.956807
1089.69	1.57662
1093.07	0.986353
1096.44	1.35182
1099.82	1.3784
1103.19	1.64076
1106.57	2.71422
1109.94	1.4789
1113.32	0.131413
1116.69	1.37879
1120.07	3.3247
1123.44	0.669183
1126.82	2.23496
1130.19	0.405587
1133.57	3.08507
1136.94	2.13833
1140.32	2.1213
1143.69	0.935327
1147.07	1.85785
1150.44	0.482864
1153.82	1.70138
1157.19	1.94717
1160.56	0.89807
1163.94	2.24257
1167.31	1.98899
1170.69	0.135435
1174.06	0.859755
1177.44	2.65118
1180.81	2.1516
1184.19	1.83105
1187.56	1.72523
1190.94	1.11431
1194.31	0.527768
1197.69	1.46758
1201.06	1.53646
1204.44	1.48211
1207.81	1.41819
1211.19	2.50475
1214.56	0.913033
1217.94	0.302377
1221.31	0.261101
1224.69	2.42956
1228.06	1.01718
1231.44	1.91287
1234.81	0.44647
1238.18	2.09816
1241.56	1.10014
1244.93	0.665778
1248.31	0.001309
1251.68	1.03299
1255.06	1.35709
1258.43	1.65248
1261.81	1.82833
1265.18	1.01289
1268.56	0.524261
1271.93	0.539746
1275.31	0.577156
1278.68	0.215216
1282.06	1.10515
1285.43	1.70394
1288.81	0.021237
1292.18	0.748074
1295.56	0.413486
1298.93	1.16915
