Measurement: Raman, 532 nm, unoriented, Raman Data Processed
Mineral: Bobtraillite
Rruff sample: R070414
Ideal chemistry: (Na,Ca)_13_Sr_11_(Zr,Y,Nb)_14_Si_42_B_6_O_132_(OH)_12_12H_2_O
Locality: Mont Saint-Hilaire, Rouville County, Quebec, Canada
Source: Michael Scott
Description: Pale gray hexagonal prisms, co-type material
Raman shift (cm-1)	intensity
164.607	0
167.5	429.609
170.393	563.008
173.286	414.055
176.178	375.816
179.071	177.91
181.964	22.875
184.856	17.2969
187.749	109.106
190.642	175.402
193.535	17.6758
196.427	219.891
199.32	165.336
202.213	92.3477
205.105	131.789
207.998	94.5859
210.891	26.9023
213.783	8.37891
216.676	39.6992
219.569	68.4336
222.462	25.8281
225.354	13.5859
228.247	100.477
231.14	51.0352
234.032	168.652
236.925	221.422
239.818	472.769
242.71	507.769
245.603	710.894
248.496	944.246
251.388	1409.72
254.281	1595.69
257.174	1040.21
260.067	694.094
262.959	338.023
265.852	141.781
268.745	229.695
271.637	108.004
274.53	305.117
277.423	117.887
280.315	91.5469
283.208	67.3672
286.101	0.324219
288.994	416.484
291.886	545.234
294.779	1035.72
297.672	1208.2
300.564	1372.5
303.457	1372.45
306.35	1612.18
309.243	1808.91
312.135	1665.03
315.028	1081.65
317.921	631.746
320.813	552.945
323.706	428.547
326.599	324.363
329.491	462.262
332.384	324.539
335.277	759.535
338.17	858.332
341.062	959.289
343.955	1057.25
346.848	994.953
349.74	1147.32
352.633	1240.78
355.526	932.473
358.418	628.922
361.311	511.332
364.204	275.043
367.097	53.6836
369.989	100.25
372.882	130.535
375.775	161.891
378.667	17.5312
381.56	213.231
384.453	61.6094
387.346	249.266
390.238	109.449
393.131	174.586
396.024	85.7344
398.916	51.5586
401.809	12.2031
404.702	114.531
407.594	67.5078
410.487	308.273
413.38	651.195
416.272	1106.06
419.165	1407.65
422.058	1835.24
424.951	2053.07
427.843	2264.79
430.736	1962.17
433.629	1541.63
436.521	1173.56
439.414	904.867
442.307	602.469
445.2	420.059
448.092	303.445
450.985	161.219
453.878	257.668
456.77	636.981
459.663	755.383
462.556	1305.11
465.448	1954.61
468.341	2561.24
471.234	3130.65
474.127	2845.78
477.019	2141.11
479.912	1420.05
482.805	819.836
485.697	320.188
488.59	89.8984
491.483	106.856
494.375	6.76953
497.268	73.875
500.161	237.766
503.053	324.543
505.946	594.117
508.839	633.004
511.732	457.43
514.624	220.492
517.517	68.3516
520.41	91.9727
523.302	37.4727
526.195	115.738
529.088	68.707
531.981	116.453
534.873	175.688
537.766	142.691
540.659	269.598
543.551	363.906
546.444	627.641
549.337	730.473
552.229	918.691
555.122	1440.4
558.015	2174.7
560.908	3141.86
563.8	4413.56
566.693	5371.35
569.586	6108.92
572.478	5225.15
575.371	3920.08
578.264	2431.93
581.156	1602.95
584.049	1155.24
586.942	723.133
589.835	590.727
592.727	625.828
595.62	450.34
598.513	428.109
601.405	531.305
604.298	643.055
607.191	915.484
610.083	1166.18
612.976	2066.43
615.869	2764.42
618.762	3474.23
621.654	4136.97
624.547	4028.52
627.44	4319.67
630.332	4648.47
633.225	4465.54
636.118	3811.27
639.01	2772.48
641.903	1718.08
644.796	1005.42
647.689	727.848
650.581	544.496
653.474	666.812
656.367	255.07
659.259	211.094
662.152	179.043
665.045	183.988
667.938	12.1758
670.83	9.6875
673.723	122.043
676.616	13.4219
679.508	1.55859
682.401	70.7422
685.294	138.891
688.186	50.7539
691.079	63.9609
693.972	57.5742
696.865	41.6719
699.757	34.2656
702.65	22.2578
705.543	112.508
708.435	123.074
711.328	194.184
714.221	113.121
717.113	123.992
720.006	169.812
722.899	349.297
725.792	529.555
728.684	444.602
731.577	532.027
734.47	420.727
737.362	693.398
740.255	684.324
743.148	512.832
746.04	602.918
748.933	407.578
751.826	461.344
754.719	475.859
757.611	389.098
760.504	279.773
763.397	323.812
766.289	245.617
769.182	302.879
772.075	277.367
774.967	330.227
777.86	297.773
780.753	150.953
783.646	170.488
786.538	266.894
789.431	326.992
792.324	188.832
795.216	388.359
798.109	257.019
801.002	242.926
803.894	137.769
806.787	192.488
809.68	73.332
812.573	37.1055
815.465	117.75
818.358	157.887
821.251	91.4844
824.143	126.402
827.036	107.918
829.929	32.3555
832.822	68.0352
835.714	54.0977
838.607	115.629
841.5	16.8633
844.392	346.188
847.285	219.766
850.178	382.531
853.07	443.481
855.963	567.531
858.856	701.445
861.749	488.812
864.641	328.523
867.534	43.5703
870.427	86.3008
873.319	63.0625
876.212	93.5195
879.105	48.4648
881.997	40.0703
884.89	42.125
887.783	147.269
890.676	402.449
893.568	554.676
896.461	869.957
899.354	1170.7
902.246	1872.46
905.139	2269.74
908.032	3054.88
910.924	3822.23
913.817	4173.27
916.71	4255.91
919.602	4145.1
922.495	4472.48
925.388	4621.03
928.281	5103.06
931.173	6204.69
934.066	7806.37
936.959	9509.71
939.851	10928.2
942.744	11478.8
945.637	11309.8
948.529	10188.7
951.422	8441.22
954.315	6228.9
957.208	4135.34
960.1	2644.72
962.993	1667.07
965.886	891.523
968.778	571.66
971.671	362.891
974.564	150.375
977.457	11.8477
980.349	23.8164
983.242	20.9883
986.135	121.984
989.027	65.8398
991.92	170.531
994.813	189.133
997.705	260.281
1000.6	342.211
1003.49	501.398
1006.38	398.231
1009.28	310.281
1012.17	365.738
1015.06	537.547
1017.95	460.578
1020.85	649.062
1023.74	580.484
1026.63	764.805
1029.53	655.731
1032.42	623.527
1035.31	617.711
1038.2	584.398
1041.1	423.445
1043.99	167.051
1046.88	144.445
1049.77	106.57
1052.67	19.3281
1055.56	5.14062
1058.45	63.1992
1061.35	23.8555
1064.24	123.859
1067.13	90.207
1070.02	109.055
1072.92	131.801
1075.81	92.2422
1078.7	162.473
1081.59	121.961
1084.49	267.234
1087.38	242.106
1090.27	289.41
1093.16	302.481
1096.06	226.898
1098.95	205.992
1101.84	278.484
1104.73	265.731
1107.63	295.754
1110.52	287.625
1113.41	201.777
1116.31	305.805
1119.2	117.484
1122.09	360.867
1124.98	212.879
1127.88	160.746
1130.77	173.121
1133.66	179.715
1136.56	375.969
1139.45	273.863
1142.34	489.535
1145.23	276.031
1148.13	326.449
1151.02	239.816
1153.91	208.121
1156.8	105.801
1159.7	249.133
1162.59	62.957
1165.48	223.652
1168.38	180.356
1171.27	225.082
1174.16	118.106
1177.05	58.9062
1179.95	232.969
1182.84	285.023
1185.73	223.711
1188.62	369.941
1191.52	330.648
1194.41	345.613
1197.3	265.254
1200.19	218.375
1203.09	256.176
1205.98	192.824
1208.87	175.523
1211.77	141.644
1214.66	51.6875
1217.55	45.9375
1220.44	187.102
1223.34	54.5195
1226.23	85.543
1229.12	106.461
1232.01	107.555
1234.91	24.8672
1237.8	98.8359
1240.69	9.23047
1243.59	54.3672
1246.48	177.894
1249.37	21.4492
1252.26	20.1836
1255.16	79.8242
1258.05	82.9766
1260.94	79.9062
1263.83	21.125
1266.73	45.1211
1269.62	154.672
1272.51	171.281
1275.4	216.848
1278.3	41.0352
1281.19	170.371
1284.08	172.703
1286.98	40.0273
1289.87	155.863
1292.76	105.953
1295.65	175.129
1298.55	76.2344
1301.44	146.371
1304.33	112.918
1307.22	33.5273
1310.12	78.4062
1313.01	120.473
