Measurement: Raman, 785 nm, unoriented, Raman Data Processed
Mineral: Bobtraillite
Rruff sample: R070414
Ideal chemistry: (Na,Ca)_13_Sr_11_(Zr,Y,Nb)_14_Si_42_B_6_O_132_(OH)_12_12H_2_O
Locality: Mont Saint-Hilaire, Rouville County, Quebec, Canada
Source: Michael Scott
Description: Pale gray hexagonal prisms, co-type material
Raman shift (cm-1)	intensity
165.856	0
168.749	258.932
171.642	274.34
174.534	79.4512
177.427	24.7168
180.32	30.5957
183.212	93.875
186.105	118.004
188.998	98.4707
191.891	183.385
194.783	306.115
197.676	363.523
200.569	466.752
203.461	462.75
206.354	254.894
209.247	182.57
212.139	5.47266
215.032	88.918
217.925	181.516
220.818	208.981
223.71	333.562
226.603	205.232
229.496	18.6816
232.388	239.643
235.281	121.639
238.174	265.397
241.066	450.549
243.959	464.859
246.852	553.688
249.745	804.967
252.637	943.709
255.53	934.051
258.423	847.51
261.315	536.832
264.208	267.432
267.101	62.6836
269.993	21.9336
272.886	16.0352
275.779	12.0312
278.672	10.7852
281.564	2.49023
284.457	1.625
287.35	208.902
290.242	354.336
293.135	272.678
296.028	447.025
298.921	519.217
301.813	688.215
304.706	960.033
307.599	1003.63
310.491	1325.26
313.384	1119.99
316.277	655.053
319.169	491.346
322.062	381.592
324.955	385.947
327.847	321.678
330.74	538.467
333.633	398.019
336.526	512.01
339.418	431
342.311	319.443
345.204	361.25
348.096	513.396
350.989	536.311
353.882	458.562
356.774	323.435
359.667	236.203
362.56	220.309
365.452	72.2285
368.345	15.7051
371.238	104.086
374.131	121.607
377.023	122.627
379.916	110.141
382.809	142.25
385.701	35.5293
388.594	69.7949
391.487	13.0762
394.38	112.992
397.272	202.922
400.165	133.412
403.058	11.7461
405.95	79.2539
408.843	82.25
411.736	150.662
414.628	401.055
417.521	556.957
420.414	694.018
423.307	984.106
426.199	977.887
429.092	1041.2
431.985	852.746
434.877	712.68
437.77	556.227
440.663	362.324
443.555	321.582
446.448	127.371
449.341	93.1328
452.234	70.0898
455.126	198.488
458.019	216.094
460.912	316.402
463.804	606.309
466.697	933.902
469.59	1311.88
472.483	1372.68
475.375	1376.86
478.268	850.102
481.161	486.859
484.053	333.414
486.946	168.762
489.839	91.0234
492.731	135.211
495.624	24.1133
498.517	71.1016
501.409	46.4219
504.302	169.527
507.195	462.25
510.088	627.113
512.98	345.883
515.873	184.617
518.766	56.2695
521.658	110.176
524.551	208.816
527.444	110.613
530.337	48.3594
533.229	94.0625
536.122	170.133
539.015	61.7969
541.907	194.867
544.8	376.949
547.693	435.438
550.585	484.766
553.478	618.656
556.371	1023.32
559.263	1613.31
562.156	2186.97
565.049	2983.7
567.942	3671.34
570.834	3901.2
573.727	3346.04
576.62	2233.81
579.512	1487.59
582.405	1074.29
585.298	778.441
588.19	606.152
591.083	418.269
593.976	352.871
596.869	289.277
599.761	325.969
602.654	436.414
605.547	628.398
608.439	776.992
611.332	954.203
614.225	1282.13
617.117	1684.92
620.01	2224.83
622.903	2610.62
625.795	2679.64
628.688	3042.6
631.581	3061.42
634.474	3051.95
637.366	2517.06
640.259	1667.69
643.152	1042.88
646.044	635.512
648.937	264.356
651.83	255.082
654.722	224.996
657.615	87.957
660.508	22.3828
663.401	35.4648
666.293	13.418
669.186	72.9453
672.079	15.2031
674.971	120.789
677.864	14.7852
680.757	30.7539
683.649	99.6172
686.542	36.8633
689.435	61.5547
692.328	113.957
695.22	65.2656
698.113	205.547
701.006	172.797
703.898	223.637
706.791	127.766
709.684	218.148
712.577	55.5859
715.469	237.191
718.362	295.941
721.255	315.832
724.147	254.219
727.04	270.348
729.933	222.777
732.825	262.676
735.718	241.727
738.611	298.574
741.504	296.34
744.396	211.961
747.289	231.273
750.182	237.277
753.074	301.574
755.967	124.07
758.86	51.9258
761.752	194.676
764.645	54.2227
767.538	159.586
770.431	69.25
773.323	78.3203
776.216	27.043
779.109	54.4023
782.001	76.8594
784.894	101.144
787.787	139.305
790.679	110.188
793.572	161.731
796.465	61.2383
799.357	19.25
802.25	82.0078
805.143	153.207
808.036	86.9023
810.928	159.352
813.821	94.3203
816.714	48.7148
819.606	112.945
822.499	48.5391
825.392	43.5938
828.284	33.6953
831.177	105.555
834.07	31.6523
836.963	209.402
839.855	29.2891
842.748	29.4375
845.641	42.4336
848.533	68.9922
851.426	66.875
854.319	160.824
857.212	210.652
860.104	140.898
862.997	212.938
865.89	135.367
868.782	274.672
871.675	200.262
874.568	36.8945
877.46	131.5
880.353	113.344
883.246	173.594
886.139	6.85938
889.031	14.6875
891.924	105.406
894.817	63.2773
897.709	221.234
900.602	459.266
903.495	475.164
906.388	726.344
909.28	815.473
912.173	1023.56
915.066	958.449
917.958	1130.56
920.851	1000.48
923.744	1130.55
926.636	1207.41
929.529	1411.79
932.422	1706.19
935.314	2127.93
938.207	2513.19
941.1	2799.57
943.993	2979.32
946.885	2887.71
949.778	2563.34
952.671	1933.39
955.563	1488.63
958.456	1105.13
961.349	692.246
964.241	465.824
967.134	293.535
970.027	161.586
972.92	89.6875
975.812	70.9961
978.705	124.141
981.598	154.926
984.49	179.473
987.383	81.3711
990.276	118.75
993.168	141.227
996.061	86.5859
998.954	178.055
1001.85	51.2188
1004.74	269.234
1007.63	191.086
1010.52	189.453
1013.42	273.922
1016.31	47.5547
1019.2	247.793
1022.1	181.488
1024.99	300.621
1027.88	247.199
1030.77	329.195
1033.67	283.203
1036.56	248.629
1039.45	120.934
1042.34	22.9414
1045.24	186.836
1048.13	70.5039
1051.02	73.6602
1053.91	69.4688
1056.81	24.5898
1059.7	24.75
1062.59	12.2969
1065.49	127.676
1068.38	89.3633
1071.27	278.481
1074.16	80.5078
1077.06	93.1953
1079.95	125.488
1082.84	114.258
1085.73	244.488
1088.63	213.242
1091.52	268.887
1094.41	280.055
1097.31	359.5
1100.2	192.297
1103.09	202.207
1105.98	216.019
1108.88	314.617
1111.77	117.469
1114.66	173.508
1117.56	335.598
1120.45	217.863
1123.34	183.793
1126.23	180.559
1129.12	414.746
1132.02	303.668
1134.91	323.871
1137.8	340.871
1140.7	275.434
1143.59	253.258
1146.48	269.711
1149.37	319.16
1152.27	279.742
1155.16	64.3594
1158.05	87.957
1160.94	85.2617
1163.84	32.6133
1166.73	58.8867
1169.62	34.918
1172.52	10.9414
1175.41	20.9609
1178.3	92.2305
1181.19	46.9297
1184.09	56.5195
1186.98	23.9102
1189.87	63.8125
1192.77	106.344
1195.66	188.078
1198.55	32.6523
1201.44	186.727
1204.34	131.758
1207.23	72.8594
1210.12	209.746
1213.01	115.652
1215.91	189.566
1218.8	121.426
1221.69	144.598
1224.58	113.957
1227.48	162.793
1230.37	164.992
1233.26	7.84375
1236.15	209.59
1239.05	37.2383
1241.94	32.4727
