Measurement: Raman, 780 nm, unoriented, Raman Data Processed
Mineral: Bohmite
Rruff sample: R120123
Ideal chemistry: AlO(OH)
Locality: Sagasen, Telemark, Norway
Source: Marcus Origlieri
Description: Pale green hexagonal tablets, associated with natrolite R120124
Raman shift (cm-1)	intensity
140.858	0
143.75	0.42881
146.643	2.24704
149.536	1.14983
152.428	2.78662
155.321	3.03772
158.214	0.159534
161.107	3.10772
163.999	1.15177
166.892	0.890133
169.785	3.73985
172.677	2.24811
175.57	0.783222
178.463	2.039
181.355	0.541946
184.248	0.853142
187.141	0.106747
190.033	0.737701
192.926	0.854355
195.819	0.492123
198.712	0.725582
201.604	1.05723
204.497	1.60757
207.39	3.05545
210.282	1.8468
213.175	1.77205
216.068	2.92613
218.96	1.92473
221.853	5.19586
224.746	4.17948
227.638	5.49482
230.531	7.48618
233.424	4.06966
236.317	4.91512
239.209	5.19195
242.102	6.51466
244.995	4.80885
247.887	4.46837
250.78	4.29792
253.673	4.7603
256.565	6.7196
259.458	4.39514
262.351	1.58844
265.244	1.32289
268.136	2.5793
271.029	2.18933
273.922	1.04925
276.814	0.699265
279.707	0.192932
282.6	1.35879
285.493	0.422852
288.385	0.69738
291.278	0.056473
294.171	0.326412
297.063	0.888454
299.956	0.131596
302.849	0.434258
305.741	0.360313
308.634	0.537601
311.527	0.136177
314.42	1.10411
317.312	0.928768
320.205	1.96663
323.098	3.22723
325.99	3.77711
328.883	6.98466
331.776	8.65189
334.668	12.3542
337.561	19.7978
340.454	28.7164
343.346	36.8161
346.239	79.8705
349.132	76.7191
352.024	98.8193
354.917	140.846
357.81	212.712
360.703	385.818
363.595	379.155
366.488	67.3578
369.381	19.786
372.273	10.1586
375.166	5.93215
378.059	3.64193
380.952	1.94089
383.844	1.05375
386.737	0.268585
389.63	0.633022
392.522	0.44593
395.415	0.188198
398.308	0.142637
401.2	0.229891
404.093	0.120363
406.986	0.873249
409.878	0.152493
412.771	0.434284
415.664	0.068979
418.557	0.493454
421.449	0.663559
424.342	0.311394
427.235	0.077593
430.127	1.17579
433.02	0.184071
435.913	1.68023
438.805	2.00219
441.698	3.09933
444.591	4.62567
447.484	6.15923
450.376	9.63502
453.269	7.71581
456.162	4.80874
459.054	4.1009
461.947	2.40775
464.84	2.40442
467.733	3.69606
470.625	4.79693
473.518	6.67043
476.411	11.6616
479.303	23.9098
482.196	32.6351
485.089	41.2091
487.981	58.0398
490.874	88.8069
493.767	133.43
496.659	120.972
499.552	50.2142
502.445	21.394
505.337	12.332
508.23	8.45089
511.123	5.42675
514.016	4.68147
516.908	5.06291
519.801	2.38044
522.694	1.5582
525.586	1.05757
528.479	1.38448
531.372	2.11414
534.264	1.31138
537.157	0.857969
540.05	0.656096
542.943	0.699482
545.835	0.793364
548.728	2.14554
551.621	0.314259
554.513	0.129095
557.406	1.07019
560.299	0.496132
563.192	0.681938
566.084	0.43976
568.977	0.639008
571.87	1.44135
574.762	1.18406
577.655	0.983349
580.548	0.802031
583.44	0.816715
586.333	0.777809
589.226	0.884371
592.119	0.510309
595.011	0.689161
597.904	0.499392
600.797	0.074331
603.689	0.833982
606.582	0.410522
609.475	0.415737
612.367	0.091839
615.26	0.287159
618.153	0.409391
621.045	0.665512
623.938	0.689554
626.831	1.29599
629.723	2.17902
632.616	1.29043
635.509	1.60568
638.402	1.96359
641.294	1.07387
644.187	2.01703
647.08	1.62561
649.972	2.2628
652.865	3.40346
655.758	5.10761
658.65	7.63635
661.543	11.3927
664.436	15.3569
667.329	23.0653
670.221	28.92
673.114	35.0246
676.007	35.7403
678.899	30.0367
681.792	20.5511
684.685	13.4331
687.577	8.23765
690.47	6.07854
693.363	3.6715
696.256	2.82545
699.148	1.64554
702.041	0.900352
704.934	0.837568
707.826	0.25091
710.719	0.914831
713.612	0.074354
716.505	1.27689
719.397	0.558876
722.29	0.705181
725.183	1.67841
728.075	1.87448
730.968	2.00749
733.861	1.77099
736.753	0.983021
739.646	0.365334
742.539	0.103378
745.432	0.630682
748.324	0.151882
751.217	0.299295
754.11	0.783764
757.002	0.068472
759.895	0.573153
762.788	0.453892
765.68	1.75461
768.573	0.647787
771.466	1.30522
774.359	1.14331
777.251	1.37163
780.144	1.82896
783.037	1.89189
785.929	1.54204
788.822	2.01288
791.715	2.25155
794.607	1.84754
797.5	2.86881
800.393	2.36977
803.285	2.75751
806.178	3.16411
809.071	2.75795
811.963	3.10174
814.856	3.25404
817.749	3.36208
820.642	3.03757
823.534	4.35872
826.427	3.91996
829.32	4.4546
832.212	4.14851
835.105	4.32609
837.998	4.96448
840.89	4.83878
843.783	4.0881
846.676	4.81529
849.569	4.5027
852.461	4.84692
855.354	3.60136
858.247	5.1699
861.139	5.06656
864.032	4.76852
866.925	4.10201
869.817	4.07121
872.71	3.99259
875.603	3.20855
878.495	2.69629
881.388	2.76987
884.281	2.98113
887.174	1.75135
890.066	1.9576
892.959	2.17188
895.852	1.37338
898.744	0.740498
901.637	0.669703
904.53	0.793732
907.423	0.067801
910.315	0.370331
913.208	0.282551
916.101	0.296652
918.993	0.522804
921.886	0.551382
924.779	0.057819
927.671	0.657272
930.564	0.230135
933.457	0.079195
936.35	0.439709
939.242	1.56618
942.135	0.587021
945.028	0.794842
947.92	0.651794
950.813	1.33087
953.706	0.632021
956.598	0.874815
959.491	0.471935
962.384	0.879732
965.277	1.0972
968.169	0.617838
971.062	1.18586
973.955	0.528807
976.847	0.781183
979.74	0.541039
982.633	1.30661
985.525	1.2272
988.418	1.17763
991.311	1.15489
994.203	0.421392
997.096	1.65625
999.989	1.07888
1002.88	0.538822
1005.77	0.423414
1008.67	0.691776
1011.56	0.656157
1014.45	0.142624
1017.35	0.25914
1020.24	0.883867
1023.13	1.19928
1026.02	0.773951
1028.92	0.058168
1031.81	1.03677
1034.7	0.507097
1037.59	1.17156
1040.49	1.86638
1043.38	1.04262
1046.27	1.89078
1049.16	1.32071
1052.06	1.03104
1054.95	0.89842
1057.84	1.06071
1060.74	1.56069
1063.63	1.29981
1066.52	0.550591
1069.41	0.921761
1072.31	1.19681
1075.2	1.39922
1078.09	1.69407
1080.98	1.4772
1083.88	1.05218
1086.77	1.01709
1089.66	0.767689
1092.56	0.016298
1095.45	0.25975
1098.34	0.988459
1101.23	1.93186
1104.13	0.400171
1107.02	0.63945
1109.91	0.67746
1112.8	1.17773
1115.7	0.336903
1118.59	0.055784
1121.48	0.692455
1124.38	0.86154
1127.27	1.21797
1130.16	1.23052
1133.05	1.34512
1135.95	1.65333
1138.84	1.28408
1141.73	0.689808
1144.62	0.877935
1147.52	0.679605
1150.41	0.394205
1153.3	0.189898
1156.19	1.26704
1159.09	0.431611
1161.98	0.890649
1164.87	1.00083
1167.77	1.13719
1170.66	0.94806
1173.55	1.05638
1176.44	1.33683
1179.34	1.39114
1182.23	1.18836
1185.12	1.78094
1188.01	0.862218
1190.91	1.30413
1193.8	0.925832
1196.69	0.962177
1199.59	1.34327
1202.48	0.912865
1205.37	1.01649
1208.26	0.746603
1211.16	1.03791
1214.05	0.917074
1216.94	1.53077
1219.83	0.985756
1222.73	0.579588
1225.62	0.922985
1228.51	0.466908
1231.4	0.457823
1234.3	0.885948
1237.19	2.62573
1240.08	0.029003
1242.97	0.854963
1245.87	0.917004
1248.76	0.875351
1251.65	1.20542
1254.55	0.823889
1257.44	0.51675
1260.33	0.473919
1263.22	0.71295
1266.12	0.898657
1269.01	0.447296
1271.9	0.85157
1274.8	0.023409
1277.69	0.884979
1280.58	0.819038
1283.47	0.160582
