Measurement: Raman, 532 nm, unoriented, Raman Data Processed
Mineral: Bohmite
Rruff sample: R120123
Ideal chemistry: AlO(OH)
Locality: Sagasen, Telemark, Norway
Source: Marcus Origlieri
Description: Pale green hexagonal tablets, associated with natrolite R120124
Raman shift (cm-1)	intensity
193.017	0
195.909	0.46468
198.802	0.629074
201.695	0.444767
204.588	0.547818
207.48	0.11122
210.373	0.918187
213.266	0.590776
216.158	0.657984
219.051	0.789346
221.944	0.910594
224.836	0.662989
227.729	2.04349
230.622	4.20839
233.514	1.32711
236.407	0.419058
239.3	0.707314
242.193	0.518786
245.085	0.054978
247.978	0.474247
250.871	0.678316
253.763	1.93236
256.656	3.46971
259.549	3.08762
262.442	0.352057
265.334	0.00816
268.227	0.14696
271.12	0.675636
274.012	0.34223
276.905	0.092517
279.798	0.440778
282.69	0.569444
285.583	0.415389
288.476	0.353646
291.368	0.211009
294.261	0.068973
297.154	0.262999
300.047	0.159656
302.939	0.342091
305.832	0.053699
308.725	0.527665
311.617	0.490296
314.51	0.957994
317.403	0.431388
320.296	0.568195
323.188	0.555184
326.081	1.07591
328.974	1.51089
331.866	2.05046
334.759	2.59164
337.652	4.03989
340.544	6.04467
343.437	8.72326
346.33	21.1118
349.223	31.8716
352.115	38.4595
355.008	49.6026
357.901	83.5936
360.793	148.963
363.686	213.141
366.579	55.3767
369.471	12.8229
372.364	5.64121
375.257	3.23846
378.149	2.49596
381.042	1.01815
383.935	0.485863
386.828	0.488915
389.72	0.390122
392.613	0.426171
395.506	0.505261
398.398	0.24823
401.291	0.427057
404.184	0.131109
407.077	0.062178
409.969	0.088696
412.862	0.065454
415.755	0.037994
418.647	0.230282
421.54	0.119598
424.433	0.250924
427.325	0.222251
430.218	0.458349
433.111	0.14027
436.003	0.534936
438.896	0.47993
441.789	1.5088
444.682	1.87003
447.574	3.16893
450.467	5.55534
453.36	5.08378
456.252	1.9907
459.145	1.32729
462.038	1.3612
464.93	1.61916
467.823	1.69891
470.716	2.51814
473.609	3.7059
476.501	5.87929
479.394	11.7683
482.287	20.8665
485.179	27.2111
488.072	36.8286
490.965	57.9894
493.858	85.5734
496.75	95.5353
499.643	50.0722
502.536	19.3411
505.428	9.64102
508.321	5.78609
511.214	4.1208
514.106	3.27791
516.999	2.88612
519.892	1.79544
522.784	1.21921
525.677	0.647761
528.57	0.355182
531.463	0.712995
534.355	0.54861
537.248	0.585395
540.141	0.28428
543.033	0.218816
545.926	0.404737
548.819	0.250629
551.712	0.023023
554.604	0.123318
557.497	0.413908
560.39	0.673429
563.282	0.042471
566.175	0.381165
569.068	0.223933
571.96	0.30732
574.853	0.206089
577.746	0.093926
580.639	0.36873
583.531	0.513169
586.424	0.285323
589.317	0.319542
592.209	0.329461
595.102	0.394244
597.995	0.26597
600.888	0.010826
603.78	0.229668
606.673	0.052428
609.566	0.240417
612.458	0.159284
615.351	0.051707
618.244	0.058459
621.136	0.083873
624.029	0.137146
626.922	0.035708
629.814	0.114436
632.707	0.596137
635.6	0.283007
638.493	0.806302
641.385	0.754162
644.278	0.737821
647.171	1.16516
650.063	1.53075
652.956	2.16728
655.849	3.5806
658.741	5.3539
661.634	8.25239
664.527	11.655
667.42	16.5179
670.312	22.237
673.205	27.5775
676.098	30.031
678.99	26.0141
681.883	18.2009
684.776	12.288
687.668	8.45482
690.561	5.97571
693.454	3.76987
696.347	2.85019
699.239	2.10312
702.132	1.26075
705.025	0.980182
707.917	0.751984
710.81	0.627486
713.703	0.801312
716.596	0.402703
719.488	0.679373
722.381	1.20196
725.274	1.36856
728.166	1.87701
731.059	2.58185
733.952	2.08316
736.844	0.987921
739.737	0.484018
742.63	0.03304
745.523	0.493536
748.415	0.069751
751.308	0.200043
754.201	0.337463
757.093	0.149993
759.986	0.12652
762.879	0.283907
765.771	0.203357
768.664	0.213189
771.557	0.684594
774.449	0.106202
777.342	0.483566
780.235	0.645668
783.128	0.665169
786.02	0.419632
788.913	0.65955
791.806	0.345933
794.698	0.928095
797.591	0.675754
800.484	1.16429
803.376	1.03242
806.269	0.91549
809.162	0.833829
812.055	1.04103
814.947	1.0878
817.84	1.26655
820.733	1.46157
823.625	1.52333
826.518	1.42016
829.411	1.59135
832.303	1.74538
835.196	1.68451
838.089	1.84527
840.982	1.35547
843.874	1.73561
846.767	2.00603
849.66	1.43189
852.552	1.87492
855.445	1.49472
858.338	1.47542
861.231	1.01453
864.123	1.24743
867.016	1.36801
869.909	1.76031
872.801	1.14061
875.694	0.912474
878.587	0.998672
881.479	0.516006
884.372	0.568449
887.265	0.627529
890.158	0.65062
893.05	0.500732
895.943	0.260171
898.836	0.340696
901.728	0.310838
904.621	0.214598
907.514	0.135808
910.406	0.244712
913.299	0.344342
916.192	0.134977
919.085	0.153193
921.977	0.006405
924.87	0.490673
927.763	0.007267
930.655	0.038248
933.548	0.29864
936.441	0.472271
939.333	0.103401
942.226	0.034095
945.119	0.158945
948.011	0.298318
950.904	0.087604
953.797	0.379962
956.69	0.363886
959.582	0.416451
962.475	0.176809
965.368	0.477021
968.26	0.569351
971.153	0.451148
974.046	0.281044
976.938	0.334754
979.831	0.41933
982.724	0.267261
985.617	0.46419
988.509	0.376377
991.402	0.166187
994.295	0.593734
997.187	0.400353
1000.08	0.296667
1002.97	0.281014
1005.87	0.37202
1008.76	0.221122
1011.65	0.312818
1014.54	0.138365
1017.44	0.51615
1020.33	0.515337
1023.22	0.371658
1026.11	0.235532
1029.01	0.356799
1031.9	0.826826
1034.79	0.640503
1037.68	0.366953
1040.58	0.44035
1043.47	0.428285
1046.36	0.168767
1049.26	0.549227
1052.15	0.391565
1055.04	0.53513
1057.93	0.480324
1060.83	0.490416
1063.72	0.390533
1066.61	0.226125
1069.51	0.156275
1072.4	0.726776
1075.29	0.248617
1078.18	0.483502
1081.08	0.276115
1083.97	0.339371
1086.86	0.39579
1089.75	0.498542
1092.65	0.453534
1095.54	0.264637
1098.43	0.552216
1101.33	0.243448
1104.22	0.350487
1107.11	0.18319
1110	0.474548
1112.89	0.644046
1115.79	0.645547
1118.68	0.082168
1121.57	0.265464
1124.47	0.256287
1127.36	0.22707
1130.25	0.150741
1133.14	0.297593
1136.04	0.644575
1138.93	0.05801
1141.82	0.260852
1144.71	0.340874
1147.61	0.024674
1150.5	0.267915
1153.39	0.361339
1156.29	0.012086
1159.18	0.586403
1162.07	0.233277
1164.96	0.194638
1167.86	0.099405
1170.75	0.41107
1173.64	0.226852
1176.54	0.11821
1179.43	0.32152
1182.32	0.343301
1185.21	0.288011
1188.11	0.068155
1191	0.481002
1193.89	0.290234
1196.78	0.367137
1199.68	0.269776
1202.57	0.260998
1205.46	0.276794
1208.35	0.39875
1211.25	0.172454
1214.14	0.631418
1217.03	0.582943
1219.92	0.027263
1222.82	0.277607
1225.71	0.620977
1228.6	0.377687
1231.5	0.101883
1234.39	0.490539
1237.28	0.254455
1240.17	0.114019
1243.07	0.204466
1245.96	0.321134
1248.85	0.144774
1251.74	0.235582
1254.64	0.894487
1257.53	0.32289
1260.42	0.428428
1263.32	0.321782
1266.21	0.188155
1269.1	0.241604
1271.99	0.191525
1274.89	0.217582
1277.78	0.148184
1280.67	0.267548
1283.57	0.257851
1286.46	0.278754
1289.35	0.464182
1292.24	0.292161
1295.13	0.369744
1298.03	0.000182
1300.92	0.094353
