Measurement: Raman, 780 nm, unoriented, Raman Data Processed
Mineral: Bohmite
Rruff sample: R120133
Ideal chemistry: AlO(OH)
Locality: Maglio-Pornaro, Tretto di Schio, Vicenza, Italy
Source: Ivano Rocchetti
Raman shift (cm-1)	intensity
171.231	0
174.124	0.543205
177.016	1.93301
179.909	0.187668
182.802	3.12777
185.694	1.34524
188.587	1.61176
191.48	0.959816
194.373	1.41415
197.265	2.32027
200.158	3.20882
203.051	0.009819
205.943	2.57091
208.836	0.019791
211.729	1.78705
214.621	0.532738
217.514	2.43953
220.407	1.94551
223.299	3.60086
226.192	6.46149
229.085	10.2861
231.978	5.73569
234.87	3.02838
237.763	3.5269
240.656	6.96083
243.548	7.16024
246.441	8.85081
249.334	7.53191
252.226	8.09914
255.119	15.1036
258.012	24.2544
260.904	3.71353
263.797	3.07102
266.69	6.54026
269.583	5.80198
272.475	0.757713
275.368	0.924294
278.261	2.03673
281.153	0.915936
284.046	0.130699
286.939	0.916027
289.832	0.917679
292.724	1.11531
295.617	0.345413
298.51	1.38408
301.402	0.25782
304.295	1.81587
307.188	1.23286
310.08	1.71093
312.973	2.14728
315.866	2.12241
318.759	3.34196
321.651	3.61195
324.544	6.53588
327.437	8.07497
330.329	10.3142
333.222	17.3301
336.115	35.9199
339.007	69.5083
341.9	47.3759
344.793	32.0215
347.685	48.0082
350.578	78.6762
353.471	171.13
356.364	410.015
359.256	1105.82
362.149	2673.36
365.042	872.785
367.934	161.705
370.827	62.743
373.72	34.1523
376.613	21.2749
379.505	13.479
382.398	7.71905
385.291	5.31967
388.183	3.70503
391.076	1.68432
393.969	1.07155
396.861	1.00415
399.754	2.68349
402.647	1.67836
405.539	0.226246
408.432	0.210503
411.325	0.467949
414.217	0.940859
417.11	1.10876
420.003	1.10483
422.896	0.046471
425.788	0.526205
428.681	1.08028
431.574	0.64584
434.466	1.74636
437.359	1.37217
440.252	2.89671
443.144	6.24091
446.037	10.7391
448.93	14.6685
451.823	20.5279
454.715	17.5342
457.608	9.08885
460.501	5.92564
463.393	6.27634
466.286	7.13443
469.179	7.84945
472.072	13.6477
474.964	16.1481
477.857	22.7581
480.75	34.064
483.642	56.0046
486.535	99.2551
489.428	194.718
492.32	414.098
495.213	693.879
498.106	403.721
500.998	143.363
503.891	66.7324
506.784	39.1733
509.677	26.2489
512.569	20.9773
515.462	17.0058
518.355	12.5521
521.247	6.96678
524.14	4.99858
527.033	3.65642
529.926	3.96827
532.818	2.64275
535.711	1.4296
538.604	1.59482
541.496	0.460054
544.389	0.232454
547.282	0.024826
550.174	0.301172
553.067	0.608528
555.96	0.100157
558.852	0.741077
561.745	0.900467
564.638	0.102982
567.53	0.782751
570.423	0.595371
573.316	0.46327
576.209	0.120092
579.101	0.229876
581.994	0.025114
584.887	0.258322
587.779	1.61743
590.672	1.131
593.565	0.95088
596.457	0.588041
599.35	0.330713
602.243	0.918495
605.136	0.393461
608.028	0.158535
610.921	0.045197
613.814	0.495922
616.706	0.649256
619.599	0.606333
622.492	1.04943
625.385	1.03754
628.277	2.39647
631.17	3.22245
634.063	7.65105
636.955	6.79712
639.848	4.55212
642.741	3.33095
645.633	2.67231
648.526	3.0197
651.419	3.93882
654.312	6.25636
657.204	10.7926
660.097	17.5944
662.99	27.5513
665.882	44.623
668.775	72.4539
671.668	111.427
674.56	146.811
677.453	138.984
680.346	95.8203
683.239	58.7435
686.131	37.8147
689.024	24.6798
691.917	17.0703
694.809	10.6346
697.702	8.52818
700.595	4.78031
703.487	3.25536
706.38	2.79096
709.273	2.27074
712.165	0.899876
715.058	1.46871
717.951	1.2857
720.843	3.11825
723.736	3.27805
726.629	4.45209
729.522	7.0223
732.414	8.35627
735.307	5.8154
738.2	1.58487
741.092	1.19977
743.985	0.102629
746.878	0.004295
749.77	0.967083
752.663	0.653307
755.556	0.289965
758.449	1.50045
761.341	0.107883
764.234	1.09393
767.127	0.493462
770.019	0.390242
772.912	0.089857
775.805	1.09098
778.697	1.53879
781.59	1.31218
784.483	1.84109
787.376	0.466663
790.268	1.17435
793.161	0.043156
796.054	1.11657
798.946	0.19207
801.839	2.0673
804.732	0.860203
807.625	0.180061
810.517	0.073509
813.41	0.767029
816.303	1.25141
819.195	1.32789
822.088	0.963547
824.981	1.59632
827.873	2.03622
830.766	1.86835
833.659	1.09408
836.552	0.924728
839.444	1.00481
842.337	1.14616
845.23	0.533562
848.122	1.3522
851.015	0.205029
853.908	0.93556
856.8	1.43348
859.693	2.1259
862.586	0.793747
865.479	0.334103
868.371	0.677242
871.264	0.970739
874.157	1.33017
877.049	0.65308
879.942	0.969975
882.835	0.063427
885.727	1.16856
888.62	0.150085
891.513	1.03433
894.405	1.57516
897.298	1.05458
900.191	1.30565
903.083	1.21018
905.976	2.34387
908.869	0.661293
911.762	0.974092
914.654	1.42888
917.547	0.498543
920.44	1.25997
923.332	0.23484
926.225	0.704876
929.118	1.99797
932.01	1.37069
934.903	1.15828
937.796	1.98795
940.689	1.38998
943.581	1.50413
946.474	0.472658
949.367	1.36578
952.259	1.16345
955.152	1.44931
958.045	0.176035
960.937	1.04286
963.83	0.277731
966.723	1.39171
969.615	1.40124
972.508	1.80082
975.401	1.11759
978.294	0.948879
981.186	0.674829
984.079	0.413296
986.972	0.808418
989.864	0.010601
992.757	0.312605
995.65	0.999607
998.543	0.199926
1001.43	0.660049
1004.33	0.863871
1007.22	0.508163
1010.11	0.292383
1013.01	0.041632
1015.9	0.809309
1018.79	1.4352
1021.68	0.932425
1024.58	0.108713
1027.47	0.152866
1030.36	0.665838
1033.26	0.573191
1036.15	0.698816
1039.04	0.44907
1041.93	0.109608
1044.83	1.1849
1047.72	1.5367
1050.61	0.316257
1053.5	0.791061
1056.4	1.05698
1059.29	1.50495
1062.18	0.506828
1065.08	0.896744
1067.97	0.895355
1070.86	1.23237
1073.75	1.95726
1076.64	1.20617
1079.54	0.922985
1082.43	1.70818
1085.32	0.981438
1088.22	1.43273
1091.11	0.675421
1094	2.33629
1096.89	0.503843
1099.79	0.854811
1102.68	1.55194
1105.57	1.26012
1108.46	0.225615
1111.36	0.354267
1114.25	0.715317
1117.14	0.679859
1120.04	0.100561
1122.93	0.486906
1125.82	0.550344
1128.71	0.388142
1131.61	0.283131
1134.5	0.597055
1137.39	0.368856
1140.29	0.699614
1143.18	0.713274
1146.07	2.37923
1148.96	0.171782
1151.86	0.088219
1154.75	0.189781
1157.64	0.184559
1160.53	1.10552
1163.43	2.39715
1166.32	0.580584
1169.21	1.68527
1172.1	0.756437
1175	1.08962
1177.89	4.78498
1180.78	4.04684
1183.67	1.84631
1186.57	0.658535
1189.46	0.666079
1192.35	1.50001
1195.25	2.09707
1198.14	0.945969
1201.03	0.382824
1203.92	1.34225
1206.82	1.16131
1209.71	0.187704
1212.6	0.998487
1215.49	2.05503
1218.39	1.18711
1221.28	2.34181
1224.17	1.69047
1227.07	1.6863
1229.96	1.67052
1232.85	1.61768
1235.74	0.478905
1238.64	1.05754
1241.53	1.09559
1244.42	1.84393
1247.32	2.04842
1250.21	1.92794
1253.1	1.40828
1255.99	2.41741
1258.88	2.04356
1261.78	2.23913
1264.67	0.831041
1267.56	1.00055
1270.46	0.149248
1273.35	0.052238
1276.24	1.97347
1279.13	0.372364
1282.03	0.94285
