Measurement: Raman, 532 nm, unoriented, Raman Data Processed
Mineral: Bohmite
Rruff sample: R120133
Ideal chemistry: AlO(OH)
Locality: Maglio-Pornaro, Tretto di Schio, Vicenza, Italy
Source: Ivano Rocchetti
Raman shift (cm-1)	intensity
200.249	0
203.141	0.15336
206.034	0.28873
208.927	0.411729
211.819	0.566882
214.712	0.605413
217.605	0.5498
220.497	0.699745
223.39	0.381161
226.283	0.410809
229.175	0.76841
232.068	0.389526
234.961	0.22689
237.854	0.090159
240.746	0.056645
243.639	0.386278
246.532	0.436954
249.424	0.517294
252.317	0.991836
255.21	2.41151
258.103	4.96105
260.995	1.13112
263.888	0.882847
266.781	1.23778
269.673	1.19921
272.566	0.627355
275.459	0.165319
278.351	0.02789
281.244	0.259384
284.137	0.205721
287.029	0.044292
289.922	0.18642
292.815	0.37201
295.708	0.055163
298.6	0.200258
301.493	0.071052
304.386	0.032869
307.278	0.32465
310.171	0.421616
313.064	0.585867
315.957	0.479131
318.849	0.951408
321.742	1.37542
324.635	1.99637
327.527	3.02741
330.42	3.9248
333.313	4.95493
336.205	7.30676
339.098	10.7325
341.991	12.3203
344.884	10.8285
347.776	25.3742
350.669	51.0657
353.562	79.6036
356.454	139.489
359.347	312.456
362.24	652.572
365.132	503.954
368.025	71.3035
370.918	25.1164
373.81	12.6451
376.703	7.37498
379.596	4.67553
382.489	3.15538
385.381	1.98098
388.274	1.37802
391.167	1.18626
394.059	0.65181
396.952	0.740233
399.845	0.577765
402.738	0.331532
405.63	0.506939
408.523	0.282619
411.416	0.264357
414.308	0.419525
417.201	0.158573
420.094	0.351177
422.986	0.202461
425.879	0.258636
428.772	0.075909
431.664	0.045963
434.557	0.136394
437.45	0.339478
440.343	0.751841
443.235	0.944763
446.128	1.79589
449.021	1.63731
451.913	2.46124
454.806	2.78826
457.699	1.95875
460.591	0.883573
463.484	1.34942
466.377	2.05783
469.27	2.75705
472.162	3.835
475.055	4.99146
477.948	6.36758
480.84	9.12402
483.733	16.0749
486.626	25.8223
489.519	44.6692
492.411	78.2607
495.304	129.311
498.197	112.526
501.089	41.3397
503.982	18.0588
506.875	10.3841
509.767	6.75536
512.66	4.66333
515.553	3.74276
518.446	2.83939
521.338	1.69743
524.231	1.37052
527.124	1.07592
530.016	0.744842
532.909	0.662929
535.802	0.373744
538.694	0.143649
541.587	0.026258
544.48	0.020911
547.372	0.03912
550.265	0.153195
553.158	0.153375
556.051	0.11392
558.943	0.090069
561.836	0.027882
564.729	0.167769
567.621	0.1186
570.514	0.322539
573.407	1.84364
576.299	0.14463
579.192	0.076013
582.085	0.145966
584.978	0.271323
587.87	0.380574
590.763	0.393332
593.656	0.002767
596.548	0.084049
599.441	0.039559
602.334	0.07203
605.226	0.053233
608.119	0.095152
611.012	0.221208
613.905	0.193727
616.797	0.128242
619.69	0.109722
622.583	0.053241
625.475	0.250955
628.368	0.621593
631.261	0.90827
634.154	1.04657
637.046	1.10287
639.939	0.963461
642.832	0.496177
645.724	0.530513
648.617	0.57765
651.51	0.839963
654.402	1.27675
657.295	2.14995
660.188	3.63401
663.081	5.97042
665.973	9.66143
668.866	14.885
671.759	22.5078
674.651	30.1925
677.544	31.0263
680.437	23.7279
683.329	15.2144
686.222	9.60175
689.115	6.48805
692.008	4.38668
694.9	3.26776
697.793	2.18044
700.686	1.40118
703.578	0.924747
706.471	0.837976
709.364	0.607794
712.256	0.40512
715.149	0.732464
718.042	0.487031
720.934	0.726653
723.827	1.20151
726.72	1.68245
729.613	2.56992
732.505	3.24323
735.398	2.74003
738.291	1.02711
741.183	0.488668
744.076	0.116985
746.969	0.196261
749.861	0.023928
752.754	0.153809
755.647	0.015695
758.54	0.064137
761.432	0.144504
764.325	0.323611
767.218	0.457451
770.11	1.04272
773.003	0.809361
775.896	0.807601
778.788	0.703315
781.681	0.418453
784.574	0.44363
787.467	0.420344
790.359	0.377355
793.252	0.350378
796.145	0.283329
799.037	0.175907
801.93	0.242006
804.823	0.220616
807.716	0.158423
810.608	0.03714
813.501	0.187655
816.394	0.196195
819.286	0.255053
822.179	0.306093
825.072	0.072501
827.964	0.178859
830.857	0.234386
833.75	0.009501
836.643	0.001686
839.535	0.247695
842.428	0.181563
845.321	0.239502
848.213	0.268289
851.106	0.0797
853.999	0.202316
856.891	0.067649
859.784	0.206974
862.677	0.042599
865.569	0.070583
868.462	0.200078
871.355	0.158044
874.248	0.23291
877.14	0.256627
880.033	0.120538
882.926	0.268082
885.818	0.086576
888.711	0.147529
891.604	0.112409
894.496	0.075326
897.389	0.057597
900.282	0.194049
903.175	0.216055
906.067	0.157259
908.96	0.174927
911.853	0.123703
914.745	0.208469
917.638	0.275429
920.531	0.197881
923.423	0.278956
926.316	0.186898
929.209	0.246363
932.102	0.239273
934.994	0.219955
937.887	0.350595
940.78	0.296654
943.672	0.347219
946.565	0.324085
949.458	0.23982
952.351	0.198566
955.243	0.22012
958.136	0.252676
961.029	0.124028
963.921	0.223054
966.814	0.232277
969.707	0.192669
972.599	0.518277
975.492	0.037702
978.385	0.311084
981.278	0.243797
984.17	0.02084
987.063	0.150849
989.956	0.298685
992.848	0.246688
995.741	0.334656
998.634	0.2555
1001.53	0.108422
1004.42	0.135348
1007.31	0.100339
1010.21	0.269399
1013.1	0.098898
1015.99	0.08858
1018.88	0.163116
1021.77	0.284362
1024.67	0.262287
1027.56	0.271837
1030.45	0.16993
1033.35	0.117836
1036.24	0.001933
1039.13	0.028934
1042.02	0.209398
1044.92	0.182292
1047.81	0.059009
1050.7	0.11797
1053.6	0.200281
1056.49	0.035494
1059.38	0.304948
1062.27	0.298198
1065.17	0.28043
1068.06	0.418976
1070.95	0.308414
1073.84	0.518591
1076.74	0.279729
1079.63	0.3888
1082.52	0.433255
1085.41	0.389796
1088.31	0.419079
1091.2	0.294212
1094.09	0.172129
1096.99	0.135696
1099.88	0.186745
1102.77	0.237923
1105.66	0.309891
1108.56	0.306717
1111.45	0.324104
1114.34	0.026289
1117.23	0.259564
1120.13	0.03612
1123.02	0.127194
1125.91	0.116518
1128.81	0.179902
1131.7	0.064662
1134.59	0.348882
1137.48	0.183911
1140.38	0.07994
1143.27	0.002779
1146.16	0.266684
1149.05	0.169616
1151.95	0.265398
1154.84	0.094138
1157.73	0.058502
1160.62	0.170911
1163.52	0.001831
1166.41	0.301723
1169.3	0.228167
1172.2	0.355629
1175.09	0.15082
1177.98	0.259421
1180.87	0.317246
1183.77	0.257119
1186.66	0.286489
1189.55	0.316988
1192.44	0.354523
1195.34	0.222431
1198.23	0.73709
1201.12	0.310952
1204.02	0.164394
1206.91	0.118012
1209.8	0.201123
1212.69	0.260663
1215.59	0.003244
1218.48	0.048846
1221.37	0.36236
1224.26	0.336777
1227.16	0.209324
1230.05	0.158286
1232.94	0.292543
1235.84	0.255554
1238.73	0.061611
1241.62	0.010314
1244.51	0.171787
1247.41	0.16397
1250.3	0.037691
1253.19	0.055673
1256.08	0.084579
1258.98	0.226587
1261.87	0.229197
1264.76	0.023982
1267.65	0.108522
1270.55	0.155513
1273.44	0.267729
1276.33	0.087583
1279.23	0.005571
1282.12	0.259728
1285.01	0.087886
1287.9	0.048452
1290.8	0.022944
1293.69	0.067196
1296.58	0.335788
1299.47	0.212791
