Measurement: Raman, 780 nm, unoriented, Raman Data Processed
Mineral: Boleite
Rruff sample: R130099
Ideal chemistry: KAg_9_Pb_26_Cu_24_Cl_62_(OH)_48_
Locality: Rowley mine, Maricopa Co., Arizona, USA
Source: Joe Ruiz
Description: Blue cubes, associated with blue bladed crystals of mammothite R130100, irregular masses of blue diaboleite, colorless cubes of paralaurianite, colorless gypsum in massive cerussite, something wrong with this raman
Raman shift (cm-1)	intensity
108.074	0
111.448	0.058136
114.823	1.68424
118.198	3.04054
121.573	4.36277
124.948	2.50014
128.322	3.54912
131.697	1.82004
135.072	3.51807
138.447	5.70438
141.822	9.94019
145.197	15.1696
148.571	20.765
151.946	24.1709
155.321	26.1403
158.696	26.4618
162.071	20.3868
165.446	11.5807
168.82	5.10939
172.195	0.87986
175.57	0.213615
178.945	0.542953
182.32	1.1282
185.694	0.416008
189.069	2.54509
192.444	3.20936
195.819	3.9629
199.194	5.32162
202.569	7.53667
205.943	8.79022
209.318	10.0718
212.693	11.1306
216.068	12.414
219.442	12.1547
222.817	13.7379
226.192	13.4248
229.567	13.205
232.942	12.9086
236.317	11.875
239.691	10.7398
243.066	8.84596
246.441	7.77379
249.816	6.34679
253.191	4.69193
256.565	3.26103
259.94	2.72283
263.315	1.96501
266.69	0.848789
270.065	1.99052
273.44	1.14331
276.814	1.90253
280.189	1.16587
283.564	0.890524
286.939	0.821247
290.314	0.370399
293.688	1.0051
297.063	1.73874
300.438	1.4091
303.813	0.827526
307.188	0.926176
310.562	0.313599
313.937	0.306623
317.312	0.034285
320.687	0.23023
324.062	0.344688
327.437	0.429235
330.811	0.24856
334.186	0.392721
337.561	0.249533
340.936	0.700979
344.311	0.406757
347.685	0.132742
351.06	1.57436
354.435	1.07995
357.81	2.07916
361.185	1.67919
364.56	2.0898
367.934	1.50088
371.309	0.808992
374.684	0.387156
378.059	0.722656
381.434	0.7556
384.808	0.495844
388.183	0.140177
391.558	0.110554
394.933	0.743156
398.308	0.084496
401.683	0.210993
405.057	0.672382
408.432	0.343315
411.807	0.122286
415.182	0.370743
418.557	0.706985
421.931	0.252136
425.306	0.91774
428.681	0.746952
432.056	0.682238
435.431	0.704062
438.805	1.00389
442.18	0.991501
445.555	1.3239
448.93	1.53216
452.305	1.95722
455.68	2.15494
459.054	2.01121
462.429	1.50771
465.804	0.941956
469.179	0.206229
472.554	1.02538
475.928	0.731613
479.303	0.572021
482.678	0.518108
486.053	0.734288
489.428	1.13336
492.803	1.32018
496.177	0.926261
499.552	1.24352
502.927	1.36637
506.302	0.867863
509.677	0.789735
513.051	1.01473
516.426	0.742546
519.801	0.370158
523.176	0.444479
526.551	0.124821
529.926	0.760983
533.3	0.823242
536.675	0.336253
540.05	0.330357
543.425	0.560974
546.799	0.160484
550.174	0.380143
553.549	0.116382
556.924	0.716867
560.299	0.175695
563.674	0.811786
567.048	1.40516
570.423	0.865188
573.798	0.881494
577.173	0.684557
580.548	0.16426
583.923	0.770094
587.297	0.561795
590.672	0.997032
594.047	0.745942
597.422	0.360936
600.797	0.388668
604.171	0.282356
607.546	0.176789
610.921	0.749923
614.296	0.643092
617.671	0.470098
621.045	0.946663
624.42	0.053538
627.795	0.03276
631.17	0.670001
634.545	0.674327
637.919	0.690426
641.294	0.315029
644.669	0.588249
648.044	0.584282
651.419	0.099895
654.794	0.185975
658.168	0.546059
661.543	0.428916
664.918	0.522607
668.293	0.829498
671.668	0.187139
675.043	0.81755
678.417	1.05685
681.792	0.753122
685.167	1.41442
688.542	1.36259
691.917	1.06903
695.291	1.01083
698.666	1.47421
702.041	1.31881
705.416	0.890461
708.791	0.978415
712.165	0.467681
715.54	0.799164
718.915	0.395386
722.29	0.913039
725.665	0.678234
729.039	1.39295
732.414	0.63463
735.789	0.888754
739.164	0.346529
742.539	0.171895
745.914	0.705007
749.288	0.016621
752.663	1.09066
756.038	0.663538
759.413	0.270083
762.788	0.280335
766.163	0.254373
769.537	0.257366
772.912	0.394007
776.287	0.378398
779.662	0.555315
783.037	1.00575
786.411	0.221848
789.786	0.265515
793.161	0.199436
796.536	0.691459
799.911	1.16678
803.285	0.54857
806.66	0.84852
810.035	0.191154
813.41	1.10255
816.785	0.654103
820.159	0.631989
823.534	0.633858
826.909	0.963183
830.284	0.942983
833.659	0.662705
837.034	1.41546
840.408	1.10637
843.783	0.223506
847.158	0.708844
850.533	1.11083
853.908	0.702126
857.283	0.838247
860.657	1.02724
864.032	0.818147
867.407	1.31261
870.782	1.24301
874.157	0.931796
877.531	1.09551
880.906	0.883703
884.281	0.033738
887.656	0.309923
891.031	0.556231
894.405	0.079502
897.78	0.233225
901.155	0.582518
904.53	0.541278
907.905	0.388341
911.279	0.661968
914.654	0.032614
918.029	0.676812
921.404	0.507382
924.779	0.020682
928.154	0.27793
931.528	0.065042
934.903	1.00309
938.278	0.531539
941.653	0.673551
945.028	0.071572
948.403	0.758865
951.777	0.292498
955.152	0.108458
958.527	0.007287
961.902	0.483166
965.277	0.572783
968.651	0.610711
972.026	0.893562
975.401	0.507765
978.776	0.617096
982.151	0.723399
985.525	1.13491
988.9	1.38066
992.275	0.107594
995.65	0.489257
999.025	0.685314
1002.4	0.476241
1005.77	0.066549
1009.15	0.460546
1012.52	0.194386
1015.9	0.257854
1019.27	0.603231
1022.65	1.05043
1026.02	0.488168
1029.4	0.629686
1032.77	0.254277
1036.15	0.06024
1039.52	0.445693
1042.9	1.03097
1046.27	1.3088
1049.65	0.36921
1053.02	1.56295
1056.4	0.233886
1059.77	0.132042
1063.15	0.057885
1066.52	0.867298
1069.9	0.022394
1073.27	0.858644
1076.64	0.860925
1080.02	1.25229
1083.39	0.433067
1086.77	0.641988
1090.14	1.18243
1093.52	0.922435
1096.89	0.23875
1100.27	0.03442
1103.64	0.21319
1107.02	0.185786
1110.39	0.01671
1113.77	0.40072
1117.14	0.646506
1120.52	0.157801
1123.89	1.04663
1127.27	1.08909
1130.64	0.092615
1134.02	0.939441
1137.39	0.22597
1140.77	1.17248
1144.14	0.187981
1147.52	0.622337
1150.89	1.35055
1154.27	0.664418
1157.64	0.302102
1161.02	0.984084
1164.39	0.294424
1167.77	0.848386
1171.14	0.573608
1174.52	0.636783
1177.89	0.061304
1181.27	0.392849
1184.64	0.81867
1188.01	0.21292
1191.39	0.762225
1194.76	0.396135
1198.14	0.82026
1201.51	0.67795
1204.89	0.700171
1208.26	0.433086
1211.64	0.596706
1215.01	0.683635
1218.39	1.41178
1221.76	0.87278
1225.14	0.742979
1228.51	1.05357
1231.89	0.620959
1235.26	0.449439
1238.64	0.706383
1242.01	0.197933
1245.39	0.170253
1248.76	0.606627
1252.14	0.33398
1255.51	0.863853
1258.88	0.856586
1262.26	0.107796
1265.63	0.269203
1269.01	0.367815
1272.38	0.071583
1275.76	0.151495
1279.13	0.559153
1282.51	0.022564
