Measurement: Raman, 532 nm, unoriented, Raman Data Processed
Mineral: Boleite
Rruff sample: R130099
Ideal chemistry: KAg_9_Pb_26_Cu_24_Cl_62_(OH)_48_
Locality: Rowley mine, Maricopa Co., Arizona, USA
Source: Joe Ruiz
Description: Blue cubes, associated with blue bladed crystals of mammothite R130100, irregular masses of blue diaboleite, colorless cubes of paralaurianite, colorless gypsum in massive cerussite, something wrong with this raman
Raman shift (cm-1)	intensity
90.808	0
94.1828	0.905663
97.5576	0.676132
100.932	2.32764
104.307	3.61124
107.682	4.32956
111.057	3.89481
114.432	3.51287
117.806	5.68592
121.181	8.85831
124.556	7.99797
127.931	8.06842
131.306	5.91164
134.681	4.40335
138.055	2.83657
141.43	2.08736
144.805	0.080109
148.18	1.1388
151.555	0.987774
154.929	0.251373
158.304	0.14397
161.679	0.022533
165.054	1.31062
168.429	0.623165
171.804	1.75824
175.178	6.18672
178.553	15.4342
181.928	29.5329
185.303	41.2487
188.678	51.1213
192.053	61.1077
195.427	71.9385
198.802	80.901
202.177	88.7948
205.552	93.8201
208.927	99.2478
212.301	99.7914
215.676	103.644
219.051	103.55
222.426	102.353
225.801	92.5366
229.175	82.2079
232.55	71.9318
235.925	62.829
239.3	56.1424
242.675	49.2194
246.05	43.1564
249.424	35.09
252.799	30.1991
256.174	27.1513
259.549	23.4942
262.924	20.1394
266.298	14.3441
269.673	11.7902
273.048	9.11994
276.423	6.91042
279.798	5.6269
283.173	5.15595
286.547	5.98787
289.922	6.36668
293.297	7.66305
296.672	10.9173
300.047	13.6443
303.421	14.5618
306.796	11.0189
310.171	5.76649
313.546	2.85963
316.921	0.67733
320.296	1.035
323.67	0.940201
327.045	2.02589
330.42	0.832272
333.795	0.279545
337.17	0.980976
340.544	2.31929
343.919	4.1845
347.294	4.26477
350.669	6.68731
354.044	8.65156
357.418	12.1406
360.793	16.167
364.168	19.3551
367.543	16.7938
370.918	10.3433
374.293	6.03875
377.667	4.82326
381.042	3.81761
384.417	2.75607
387.792	1.55579
391.167	0.540129
394.541	0.484268
397.916	0.137358
401.291	0.263138
404.666	0.033333
408.041	0.10643
411.416	0.598127
414.79	0.566032
418.165	1.21662
421.54	0.411949
424.915	0.057055
428.29	0.728525
431.664	1.63205
435.039	1.83355
438.414	3.25282
441.789	5.73117
445.164	8.40459
448.539	11.7898
451.913	17.8396
455.288	25.8561
458.663	26.6099
462.038	19.8201
465.413	12.5119
468.788	9.94766
472.162	7.47519
475.537	7.18841
478.912	7.00812
482.287	7.69517
485.662	7.64413
489.036	8.04234
492.411	9.03089
495.786	8.75566
499.161	9.81561
502.536	8.5914
505.911	7.15376
509.285	5.67169
512.66	4.33312
516.035	2.76073
519.41	2.07839
522.784	1.65184
526.159	1.40569
529.534	1.07805
532.909	0.813797
536.284	0.966225
539.659	0.760032
543.033	0.308753
546.408	0.193821
549.783	0.168211
553.158	0.090559
556.533	0.169806
559.908	0.611094
563.282	0.161689
566.657	0.559773
570.032	0.106025
573.407	0.72056
576.782	0.621529
580.156	0.59421
583.531	0.175066
586.906	0.386984
590.281	0.454191
593.656	1.11411
597.03	0.659696
600.405	0.997759
603.78	0.949809
607.155	0.254268
610.53	0.494988
613.905	0.623059
617.279	0.42756
620.654	0.005424
624.029	0.626899
627.404	0.255805
630.779	0.000508
634.154	0.278377
637.528	0.017004
640.903	0.207074
644.278	0.212681
647.653	0.17935
651.028	0.571731
654.402	0.008405
657.777	0.193769
661.152	0.459293
664.527	0.326597
667.902	0.739781
671.277	1.19179
674.651	1.20081
678.026	2.06338
681.401	2.87013
684.776	3.66
688.151	6.11545
691.525	8.29024
694.9	10.9411
698.275	13.148
701.65	13.4611
705.025	11.2076
708.399	7.69634
711.774	4.64044
715.149	3.11714
718.524	1.76254
721.899	2.68455
725.274	3.58788
728.648	4.9235
732.023	6.4356
735.398	6.76766
738.773	6.01765
742.148	4.94705
745.523	4.09757
748.897	4.0808
752.272	2.22729
755.647	2.40817
759.022	1.43861
762.396	0.684587
765.771	1.12147
769.146	0.024574
772.521	0.293032
775.896	0.30394
779.271	0.580187
782.645	0.066755
786.02	0.373335
789.395	0.059725
792.77	0.084244
796.145	1.17873
799.519	0.482037
802.894	1.35481
806.269	1.22493
809.644	2.6036
813.019	3.02343
816.394	3.19596
819.768	3.05733
823.143	3.16597
826.518	3.67911
829.893	3.25967
833.268	2.51695
836.643	2.73743
840.017	2.70145
843.392	2.59148
846.767	2.29353
850.142	1.20767
853.517	0.90137
856.891	1.00867
860.266	0.87051
863.641	0.326176
867.016	0.984164
870.391	0.386079
873.765	0.948357
877.14	0.154052
880.515	0.853771
883.89	0.39588
887.265	0.507285
890.64	0.232678
894.014	0.167834
897.389	0.441998
900.764	0.281243
904.139	0.514875
907.514	0.546444
910.889	1.13211
914.263	1.31428
917.638	2.46727
921.013	3.80986
924.388	3.07645
927.763	3.42843
931.137	1.66664
934.512	1.75088
937.887	1.05302
941.262	1.04382
944.637	1.05988
948.011	1.27517
951.386	1.08305
954.761	0.136031
958.136	1.20237
961.511	0.269224
964.886	0.060206
968.26	0.010021
971.635	0.634581
975.01	0.695824
978.385	1.50588
981.76	1.26449
985.135	1.21014
988.509	1.54785
991.884	1.15668
995.259	1.54262
998.634	0.767029
1002.01	0.608391
1005.38	0.685655
1008.76	1.09503
1012.13	1.28072
1015.51	0.420326
1018.88	1.2683
1022.26	0.567142
1025.63	1.119
1029.01	0.954505
1032.38	1.4557
1035.76	0.674941
1039.13	0.340367
1042.51	0.602567
1045.88	0.614271
1049.26	0.460506
1052.63	0.118681
1056.01	0.909111
1059.38	1.06129
1062.76	0.570131
1066.13	0.72513
1069.51	0.403847
1072.88	0.16673
1076.26	0.471147
1079.63	0.062594
1083	0.466337
1086.38	0.567722
1089.75	0.701243
1093.13	1.08089
1096.5	0.496069
1099.88	0.07946
1103.25	0.244758
1106.63	0.689118
1110	0.197466
1113.38	0.425714
1116.75	0.104457
1120.13	0.481987
1123.5	0.361351
1126.88	0.735458
1130.25	0.457428
1133.63	0.17507
1137	0.862919
1140.38	0.936802
1143.75	0.256617
1147.13	0.663831
1150.5	0.054971
1153.88	0.688126
1157.25	0.150811
1160.62	0.577548
1164	0.628125
1167.38	0.376831
1170.75	0.845565
1174.12	0.552047
1177.5	0.325142
1180.87	0.77598
1184.25	0.183939
1187.62	0.38201
1191	0.666776
1194.37	0.276745
1197.75	1.01648
1201.12	0.618433
1204.5	0.63357
1207.87	0.940011
1211.25	0.286363
1214.62	0.692922
1218	0.357298
1221.37	0.353918
1224.75	0.411672
1228.12	0.491761
1231.5	0.463017
1234.87	1.07644
1238.25	0.671633
1241.62	0.670818
1244.99	1.11635
1248.37	1.16311
1251.74	0.219848
1255.12	0.437568
1258.49	0.329415
1261.87	0.481585
1265.24	0.651009
1268.62	0.661121
1271.99	0.406937
1275.37	0.707565
1278.74	0.039025
1282.12	0.533095
1285.49	0.63096
1288.87	0.503228
1292.24	0.364303
1295.62	0.651315
1298.99	0.190988
