Measurement: Raman, 785 nm, unoriented, Raman Data Processed
Mineral: Boltwoodite
Rruff sample: R060753
Ideal chemistry: (K,Na)UO_2_(SiO_3_OH)1.5H_2_O
Locality: Rossing mine, between Rossing & Arandis, near Swakopmund, Namibia
Source: Michael Scott
Description: Radiating tufts of pale yellow-orange bladed crystals
Raman shift (cm-1)	intensity
138.884	0
141.777	345.651
144.669	779.514
147.562	1075.76
150.455	1078.82
153.347	874.297
156.24	759.501
159.133	754.057
162.025	885.066
164.918	1057.72
167.811	1084.75
170.704	1055.35
173.596	927.45
176.489	870.088
179.382	840.827
182.274	851.508
185.167	921.134
188.06	985.79
190.952	1122.03
193.845	1257.72
196.738	1568.15
199.631	1888.68
202.523	2440.19
205.416	3134.72
208.309	3834.43
211.201	4688.04
214.094	5350.7
216.987	5657.21
219.88	5438.61
222.772	4956.22
225.665	4260.02
228.558	3581.2
231.45	2944.51
234.343	2382.85
237.236	1955.3
240.128	1565.65
243.021	1303.89
245.914	1147.96
248.807	999.6
251.699	1015.05
254.592	1071.43
257.485	1191.18
260.377	1310.67
263.27	1481.06
266.163	1716.64
269.056	1980
271.948	2355.89
274.841	2650.23
277.734	2533.49
280.626	2114.14
283.519	1594.23
286.412	1197.16
289.304	894.236
292.197	761.129
295.09	735.504
297.983	684.639
300.875	762.619
303.768	913.513
306.661	1127.3
309.553	1321.25
312.446	1468.85
315.339	1587.07
318.231	1546.91
321.124	1249.39
324.017	909.341
326.909	585.301
329.802	384.588
332.695	286.14
335.588	190.984
338.48	130.06
341.373	84.661
344.266	22.486
347.158	1.576
350.051	18.991
352.944	20.078
355.836	10.532
358.729	7.208
361.622	16.047
364.515	55.677
367.407	113.868
370.3	199.07
373.193	291.199
376.085	365.965
378.978	420.51
381.871	541.441
384.763	648.036
387.656	818.489
390.549	992.901
393.442	1134.08
396.334	1188.87
399.227	1103.89
402.12	944.18
405.012	760.651
407.905	555.729
410.798	444.723
413.69	330.817
416.583	260.65
419.476	110.649
422.369	101.995
425.261	24.767
428.154	42.514
431.047	32.006
433.939	63.443
436.832	41.491
439.725	49.051
442.617	22.586
445.51	5.351
448.403	106.643
451.296	167.822
454.188	281.658
457.081	436.541
459.974	580.933
462.866	638.984
465.759	611.952
468.652	504.368
471.544	427.07
474.437	417.104
477.33	318.549
480.223	300.103
483.115	305.223
486.008	275.276
488.901	336.723
491.793	326.137
494.686	299.59
497.579	298.979
500.471	232.231
503.364	146.014
506.257	145.28
509.15	149.954
512.042	198.128
514.935	208.416
517.828	267.225
520.72	424.713
523.613	556.357
526.506	814.777
529.398	1142.1
532.291	1513.08
535.184	1787.16
538.077	1676.02
540.969	1252.91
543.862	803.837
546.755	523.047
549.647	366.525
552.54	289.258
555.433	202.021
558.326	178.346
561.218	142.239
564.111	82.676
567.004	60.869
569.896	15.473
572.789	44.251
575.682	11.835
578.574	37.061
581.467	27.728
584.36	30.353
587.253	44.901
590.145	41.952
593.038	20.577
595.931	11.138
598.823	0.924
601.716	1.682
604.609	19.578
607.501	18.651
610.394	31.004
613.287	1.468
616.18	9.572
619.072	32.799
621.965	40.216
624.858	31.383
627.75	21.384
630.643	13.823
633.536	17.4
636.428	31.282
639.321	35.061
642.214	42.135
645.107	39.889
647.999	38.849
650.892	71.039
653.785	46.206
656.677	28.461
659.57	39.139
662.463	36.128
665.355	17.748
668.248	24.222
671.141	2.341
674.034	24.807
676.926	13.743
679.819	13.301
682.712	19.234
685.604	24.961
688.497	9.072
691.39	27.407
694.282	50.386
697.175	59.188
700.068	80.466
702.961	111.189
705.853	92.487
708.746	147.536
711.639	166.459
714.531	147.657
717.424	201.403
720.317	260.684
723.209	218.078
726.102	242.099
728.995	201.024
731.888	272.255
734.78	286.757
737.673	299.487
740.566	368.465
743.458	432.266
746.351	427.447
749.244	673.757
752.136	808.763
755.029	943.769
757.922	1165.62
760.815	1525.92
763.707	1838.02
766.6	2443.5
769.493	3151.66
772.385	4237.55
775.278	5576.17
778.171	7199.02
781.063	9155.4
783.956	11804.4
786.849	15183
789.742	19594.2
792.634	24351.8
795.527	27047
798.42	24110.4
801.312	15945.4
804.205	9381.56
807.098	5829.44
809.99	3925.33
812.883	2899.62
815.776	2288.68
818.669	1962.8
821.561	1735.9
824.454	1619.25
827.347	1502.15
830.239	1375.95
833.132	1297.33
836.025	1118.12
838.917	895.544
841.81	704.993
844.703	525.19
847.596	415.022
850.488	348.12
853.381	274.587
856.274	213.044
859.166	105.172
862.059	67.269
864.952	25.419
867.844	11.913
870.737	45.287
873.63	64.74
876.523	137.427
879.415	156.585
882.308	165.629
885.201	111.872
888.093	55.908
890.986	13.022
893.879	44.282
896.771	28.484
899.664	42.66
902.557	36.352
905.45	71.499
908.342	123.426
911.235	208.649
914.128	311.492
917.02	468.816
919.913	675.446
922.806	967.85
925.698	1440.64
928.591	1973.39
931.484	2536.72
934.377	2829.33
937.269	2729.1
940.162	2556.11
943.055	2511.72
945.947	2752.58
948.84	3203.49
951.733	3932.54
954.625	4646.82
957.518	4748.21
960.411	4111.33
963.304	3115.25
966.196	2359.92
969.089	1913.74
971.982	1569.5
974.874	1218.07
977.767	902.924
980.66	724.929
983.552	604.636
986.445	543.037
989.338	391.143
992.231	346.503
995.123	264.328
998.016	254.213
1000.91	249.189
1003.8	344.097
1006.69	577.156
1009.59	511.312
1012.48	214.214
1015.37	95.592
1018.26	75.676
1021.16	40.142
1024.05	13.333
1026.94	29.879
1029.84	31.617
1032.73	0.633
1035.62	1.266
1038.51	7.515
1041.41	1.126
1044.3	6.155
1047.19	14.176
1050.09	5.501
1052.98	24.353
1055.87	17.955
1058.76	6.904
1061.65	9.652
1064.55	14.154
1067.44	7.14
1070.33	1.882
1073.23	15.418
1076.12	38.419
1079.01	21.102
1081.9	16.987
1084.8	196.838
1087.69	165.061
1090.58	5.131
1093.47	22.368
1096.37	12.884
1099.26	24.902
1102.15	0.193
1105.05	3.802
1107.94	29.244
1110.83	34.958
1113.72	21.3
1116.62	0.875
1119.51	5.708
1122.4	8.48
1125.3	19.735
1128.19	32.072
1131.08	29.926
1133.97	63.594
1136.87	75.021
1139.76	77.554
1142.65	24.443
1145.54	30.388
1148.44	48.08
1151.33	61.957
1154.22	31.506
1157.12	35.755
1160.01	17.683
1162.9	10.625
1165.79	47.574
1168.68	39.071
1171.58	38.892
1174.47	36.222
1177.36	56.394
1180.26	37.019
1183.15	42.612
1186.04	48.324
1188.93	66.275
1191.83	24.33
1194.72	14.742
1197.61	37.019
1200.51	37.551
1203.4	17.409
1206.29	16.022
1209.18	2.257
1212.08	22.084
1214.97	38.381
1217.86	23.44
1220.75	35.375
1223.65	34.51
1226.54	30.871
1229.43	14.97
1232.33	2.502
1235.22	16.226
1238.11	28.896
1241	10.178
1243.9	9.132
1246.79	9.11
1249.68	33.726
1252.57	4.313
1255.47	13.108
1258.36	2.332
1261.25	0.611
1264.14	13.157
1267.04	8.853
1269.93	6.754
1272.82	0
