Measurement: Raman, 785 nm, unoriented, Raman Data Processed
Mineral: Bonazziite
Rruff sample: R061028
Ideal chemistry: As_4_S_4_
Locality: Radvanice, Bohemia
Source: Michael Scott
Description: Red flattened prismatic crystals, this is actually a new mineral, beta As4S4
Raman shift (cm-1)	intensity
168.293	0
171.186	201.838
174.078	319.795
176.971	300.996
179.864	419.016
182.756	559.125
185.649	610.467
188.542	612.992
191.435	529.693
194.327	580.113
197.22	636.117
200.113	633.244
203.005	543.621
205.898	297.375
208.791	370.769
211.684	404.182
214.576	307.728
217.469	497.557
220.362	800.83
223.254	1036.92
226.147	1373.37
229.04	1666.72
231.932	2013.38
234.825	1940.55
237.718	1187.65
240.611	512.186
243.503	69.3203
246.396	60.8418
249.289	107.481
252.181	208.57
255.074	399.043
257.967	418.441
260.859	385.984
263.752	91.0234
266.645	190.277
269.538	404.438
272.43	568.551
275.323	645.266
278.216	472.049
281.108	24.6621
284.001	607.414
286.894	1922.44
289.786	3746.62
292.679	6039.28
295.572	9126.52
298.464	12854.5
301.357	17036.7
304.25	21418
307.143	25786
310.035	29789.2
312.928	32937.2
315.821	36369.5
318.713	39206.7
321.606	42063.4
324.499	44815.4
327.392	47112.7
330.284	48674.1
333.177	49619.3
336.07	49780.2
338.962	49578.6
341.855	49060.6
344.748	48135.3
347.64	47112.1
350.533	45693.6
353.426	44185.5
356.318	42532.4
359.211	40410.1
362.104	38490.9
364.997	36519.5
367.889	34397.5
370.782	32754.2
373.675	30871.8
376.567	28740.1
379.46	26775
382.353	24378.3
385.245	22208.1
388.138	20031.1
391.031	18070.3
393.924	15621.8
396.816	12963.4
399.709	9902.31
402.602	6728.45
405.494	3875
408.387	1702.13
411.28	365.809
414.173	204.99
417.065	297.164
419.958	371.672
422.851	287.954
425.743	325.526
428.636	281.877
431.529	180.87
434.421	116.701
437.314	162.778
440.207	325.752
443.099	432.661
445.992	731.754
448.885	1125.85
451.778	1451.84
454.67	1869.19
457.563	2312.48
460.456	2834.61
463.348	3209.34
466.241	3721.79
469.134	4043.97
472.026	4100.54
474.919	4045.91
477.812	3805.61
480.704	3604.88
483.597	3618.69
486.49	4058.87
489.383	4213.63
492.275	4186.05
495.168	3858.23
498.061	3272.97
500.953	2485.08
503.846	1732.29
506.739	1090.6
509.632	743.836
512.524	471.826
515.417	335.146
518.31	291.372
521.202	192.198
524.095	128.337
526.988	136.618
529.88	51.1338
532.773	100.624
535.666	82.1836
538.558	75.0147
541.451	13.418
544.344	19.6191
547.237	44.7725
550.129	55.0068
553.022	41.043
555.915	1.73633
558.807	70.3633
561.7	89.4512
564.593	148.37
567.486	19.7842
570.378	59.9228
573.271	35.1924
576.164	63.6738
579.056	26.9834
581.949	51.2129
584.842	87.8701
587.734	1.4834
590.627	15.8906
593.52	20.2314
596.413	70.5264
599.305	74.6416
602.198	101.047
605.091	194.071
607.983	222.639
610.876	193.666
613.769	193.84
616.661	257.752
619.554	237.495
622.447	258.026
625.34	283.047
628.232	330.977
631.125	283.228
634.018	317.196
636.91	329.551
639.803	299.535
642.696	342.019
645.588	227.436
648.481	270.919
651.374	257.763
654.266	276.342
657.159	265.28
660.052	300.971
662.945	287.141
665.837	271.886
668.73	243.217
671.623	224.002
674.515	259.481
677.408	231.831
680.301	264.397
683.193	228.464
686.086	232.422
688.979	192.666
691.872	255.996
694.764	229.193
697.657	252.525
700.55	237.941
703.442	309.407
706.335	223.116
709.228	139.833
712.12	184.714
715.013	224.52
717.906	263.662
720.799	145.609
723.691	111.476
726.584	26.5068
729.477	253.01
732.369	64.4365
735.262	46.54
738.155	1.80762
741.047	109.732
743.94	1.43066
746.833	5.57031
749.726	39.8926
752.618	45.1103
755.511	10.042
758.404	14.6895
761.296	80.5215
764.189	81.8643
767.082	10.376
769.974	45.5801
772.867	94.3769
775.76	95.5332
778.653	89.9561
781.545	89.2441
784.438	74.7344
787.331	165.087
790.223	124.126
793.116	71.0772
796.009	172.188
798.901	108.969
801.794	178.147
804.687	91.9307
807.58	187.233
810.472	190.35
813.365	217.038
816.258	69.9727
819.15	126.377
822.043	148.709
824.936	161.972
827.828	148.856
830.721	144.067
833.614	72.6182
836.506	65.9834
839.399	213.868
842.292	89.168
845.185	87.0732
848.077	90.0117
850.97	3.50684
853.863	131.064
856.755	6.97852
859.648	79.0107
862.541	33.1885
865.433	35.3047
868.326	40.2461
871.219	72.2705
874.112	107.641
877.004	31.5918
879.897	65.5576
882.79	77.8369
885.682	22.3447
888.575	43.1602
891.468	73.6397
894.361	87.7139
897.253	19.6201
900.146	67.6914
903.039	82.1611
905.931	125.758
908.824	122.152
911.717	126.519
914.609	26.2227
917.502	83.5644
920.395	92.5195
923.288	42.9287
926.18	6.02637
929.073	57.541
931.966	117.843
934.858	15.3096
937.751	47.0693
940.644	11.294
943.536	24.1162
946.429	22.0117
949.322	106.956
952.215	135.926
955.107	61.501
958	148.446
960.893	106.365
963.785	57.459
966.678	85.458
969.571	111.924
972.463	112.321
975.356	51.2978
978.249	110.093
981.141	75.5957
984.034	96.9228
986.927	68.374
989.82	50.169
992.712	55.8447
995.605	76.1992
998.498	44.8438
1001.39	159.918
1004.28	46.0391
1007.18	6.18848
1010.07	72.9502
1012.96	22.8145
1015.85	45.7383
1018.75	25.5576
1021.64	104.223
1024.53	43.2578
1027.42	29.5752
1030.32	110.385
1033.21	92.4531
1036.1	33.8955
1038.99	122.63
1041.89	150.64
1044.78	73.125
1047.67	28.2363
1050.57	17.6396
1053.46	123.249
1056.35	66.4522
1059.24	64.7324
1062.14	24.6562
1065.03	41.9941
1067.92	15.8545
1070.82	32.7022
1073.71	26.877
1076.6	66.4971
1079.49	118.312
1082.39	84.2266
1085.28	10.9238
1088.17	45.042
1091.06	151.507
1093.96	154.15
1096.85	94.0996
1099.74	127.554
1102.63	183.44
1105.53	69.5078
1108.42	111.105
1111.31	67.8379
1114.21	63.3965
1117.1	65.6162
1119.99	86.6348
1122.88	34.9395
1125.78	51.5498
1128.67	1.3916
1131.56	57.4707
1134.45	106.34
1137.35	6.80664
1140.24	85.7647
1143.13	35.8184
1146.03	122.202
1148.92	36.1533
1151.81	24.6699
1154.7	23.9707
1157.6	154.823
1160.49	29.0527
1163.38	109.792
1166.27	48.7432
1169.17	23.4238
1172.06	50.0322
1174.95	98.542
1177.85	24.3613
1180.74	61.7656
1183.63	36.3389
1186.52	66.3037
1189.42	41.8467
1192.31	75.1875
1195.2	154.398
1198.09	148.418
1200.99	225.985
1203.88	221.184
1206.77	223.412
1209.66	365.164
1212.56	471.925
1215.45	519.301
1218.34	551.599
1221.23	609.161
1224.13	610.609
1227.02	592.856
1229.91	591.539
1232.81	472.497
1235.7	365.111
1238.59	367.894
1241.48	281.447
1244.38	237.907
1247.27	185.86
1250.16	109.345
1253.06	64.8897
1255.95	61.5801
1258.84	70.9512
1261.73	2.51367
1264.63	51.3711
