Measurement: Raman, 785 nm, unoriented, Raman Data Processed
Mineral: Borax
Rruff sample: R070168
Ideal chemistry: Na_2_B_4_O_5_(OH)_4_8H_2_O
Locality: Boron, Kramer District, Kern County, California, USA
Source: Michael Scott
Description: Colorless prismatic single crystal associated with tincalconite
Measured chemistry: Na_2.00_B_4_O_5_(OH)_4_Â·8H_2_O ; = lighter phase. Darker phase is probably tincalconite; B, H, O not measured but estimated by stoichiometry
Raman shift (cm-1)	intensity
150.719	0
153.612	119.124
156.504	203.393
159.397	175.956
162.29	246.138
165.182	464.17
168.075	599.389
170.968	640.418
173.86	524.085
176.753	460.37
179.646	525.096
182.538	506.607
185.431	645.326
188.324	723.823
191.217	743.458
194.109	737.948
197.002	680.929
199.895	571.003
202.787	490.278
205.68	344.611
208.573	255.047
211.465	153.503
214.358	36.0039
217.251	27.7541
220.144	32.9248
223.036	17.4414
225.929	2.00488
228.822	20.3648
231.714	23.5862
234.607	19.959
237.5	52.2363
240.393	55.6904
243.285	45.5312
246.178	21.4219
249.071	12.2969
251.963	45.5964
254.856	64.4143
257.749	42.5796
260.641	123.106
263.534	274.801
266.427	226.885
269.32	287.424
272.212	357.027
275.105	460.506
277.998	576.897
280.89	552.707
283.783	484.717
286.676	429.016
289.568	331.037
292.461	252.06
295.354	211.433
298.247	191.132
301.139	248.967
304.032	272.849
306.925	372.943
309.817	506.473
312.71	558.719
315.603	647.215
318.495	610.63
321.388	589.806
324.281	481.818
327.173	542.893
330.066	652.807
332.959	800.852
335.852	982.583
338.744	1267.21
341.637	1534.74
344.53	1867.65
347.422	2041.58
350.315	2089.39
353.208	1768.79
356.101	1318.85
358.993	940.36
361.886	610.327
364.779	455.342
367.671	409.323
370.564	449.484
373.457	491.153
376.349	708.606
379.242	915.423
382.135	1190.7
385.027	1209.67
387.92	888.597
390.813	436.454
393.706	158.706
396.598	110.365
399.491	26.4224
402.384	23.304
405.276	15.1016
408.169	13.7354
411.062	44.1355
413.954	22.1199
416.847	13.686
419.74	19.7722
422.633	43.5808
425.525	2.53491
428.418	19.0398
431.311	34.2805
434.203	53.2705
437.096	55.5288
439.989	113.559
442.882	135.207
445.774	201.276
448.667	291.617
451.56	454.404
454.452	642.118
457.345	845.161
460.238	827.879
463.13	634.735
466.023	426.301
468.916	268.224
471.808	143.792
474.701	114.391
477.594	106.506
480.487	89.4507
483.379	88.9116
486.272	108.563
489.165	100.643
492.057	29.4724
494.95	12.1863
497.843	22.9185
500.736	25.9065
503.628	36.727
506.521	20.9214
509.414	62.2151
512.306	112.69
515.199	139.955
518.092	274.244
520.984	336.347
523.877	337.502
526.77	331.684
529.663	281.527
532.555	348.569
535.448	314.783
538.341	388.229
541.233	368.375
544.126	437.723
547.019	514.609
549.911	642.357
552.804	911.265
555.697	1232.08
558.59	1872.61
561.482	2577.34
564.375	3700.61
567.268	4971.93
570.16	6436.53
573.053	7531.39
575.946	6987.63
578.838	5047.9
581.731	3393.11
584.624	2410.89
587.516	1865.61
590.409	1438.29
593.302	1094.08
596.195	789.525
599.087	577.918
601.98	427.203
604.873	338.608
607.765	198.65
610.658	107.725
613.551	122.637
616.443	49.4983
619.336	26.248
622.229	15.2795
625.122	3.39014
628.014	10.3931
630.907	27.4463
633.8	0.87085
636.692	8.92065
639.585	41.2524
642.478	18.177
645.37	11.7014
648.263	2.30347
651.156	27.104
654.049	44.0005
656.941	34.7756
659.834	19.2
662.727	32.9338
665.619	52.4219
668.512	59.927
671.405	17.2754
674.297	70.3367
677.19	73.5325
680.083	114.021
682.976	137.819
685.868	96.9053
688.761	168.344
691.654	122.005
694.546	157.868
697.439	138.771
700.332	164.11
703.224	172.313
706.117	124.002
709.01	127.899
711.903	152.762
714.795	65.1313
717.688	131.382
720.581	113.566
723.473	114.38
726.366	106.69
729.259	111.611
732.151	145.462
735.044	184.566
737.937	231.156
740.83	253.067
743.722	339.636
746.615	379.919
749.508	440.347
752.4	520.565
755.293	516.316
758.186	566.821
761.078	536.587
763.971	519.16
766.864	511.055
769.756	459.851
772.649	397.722
775.542	427.341
778.435	339.029
781.327	357.277
784.22	260.753
787.113	243.595
790.005	207.694
792.898	115.811
795.791	122.909
798.683	95.8657
801.576	36.8054
804.469	28.6523
807.362	3.03711
810.254	16.6101
813.147	16.032
816.04	18.6077
818.932	3.81348
821.825	49.5505
824.718	15.9661
827.611	67.0012
830.503	126.719
833.396	144.023
836.289	233.294
839.181	286.556
842.074	289.248
844.967	257.945
847.859	251.137
850.752	180.564
853.645	164.078
856.538	178.032
859.43	121.877
862.323	132.385
865.216	138.757
868.108	101.668
871.001	77.8669
873.894	55.9216
876.786	40.2922
879.679	15.1746
882.572	39.4512
885.465	2.31299
888.357	43.0452
891.25	20.2932
894.143	48.2319
897.035	15.3474
899.928	44.3174
902.821	62.3491
905.713	56.45
908.606	32.9099
911.499	33.8227
914.391	0.377441
917.284	34.6433
920.177	6.13135
923.07	12.7754
925.962	28.6995
928.855	58.1953
931.748	177.831
934.64	180.875
937.533	322.048
940.426	565.728
943.318	788.333
946.211	914.816
949.104	687.21
951.997	500.38
954.889	335.136
957.782	202.739
960.675	122.887
963.567	62.6997
966.46	108.132
969.353	41.6865
972.245	5.08106
975.138	13.355
978.031	29.9695
980.924	17.5994
983.816	17.8833
986.709	12.8213
989.602	35.7041
992.494	11.1707
995.387	43.3684
998.28	43.3911
1001.17	33.6047
1004.07	67.125
1006.96	109.582
1009.85	81.5596
1012.74	129.009
1015.64	177.504
1018.53	162.756
1021.42	233.963
1024.31	350.047
1027.21	375.4
1030.1	384.503
1032.99	410.951
1035.88	423.945
1038.78	333.269
1041.67	317.23
1044.56	286.813
1047.46	281.806
1050.35	199.947
1053.24	199.798
1056.13	167.284
1059.03	134.821
1061.92	148.104
1064.81	91.2659
1067.7	98.7378
1070.6	132.271
1073.49	85.2444
1076.38	90.3909
1079.28	65.4929
1082.17	67.5664
1085.06	26.6148
1087.95	74.3901
1090.85	17.6409
1093.74	17.9551
1096.63	6.25854
1099.52	7.40381
1102.42	9.18555
1105.31	36.9844
1108.2	31.5054
1111.1	43.9285
1113.99	20.2285
1116.88	12.6873
1119.77	9.04956
1122.67	54.0422
1125.56	26.6626
1128.45	16.5029
1131.34	43.8315
1134.24	29.8037
1137.13	58.8706
1140.02	69.134
1142.91	59.0601
1145.81	67.2229
1148.7	88.1501
1151.59	115.946
1154.49	108.855
1157.38	108.293
1160.27	125.618
1163.16	115.887
1166.06	107.672
1168.95	87.9656
1171.84	141.386
1174.73	116.185
1177.63	102.349
1180.52	63.7082
1183.41	53.7549
1186.31	101.268
1189.2	121.24
1192.09	54.3694
1194.98	71.4634
1197.88	70.7974
1200.77	41.6516
1203.66	47.6936
1206.55	39.895
1209.45	8.38892
1212.34	30.8503
1215.23	64.8728
1218.12	2.13916
1221.02	39.8757
1223.91	0
