Measurement: Raman, 532 nm, unoriented, Raman Data Processed
Mineral: Boracite
Rruff sample: R070317
Ideal chemistry: Mg_3_B_7_O_13_Cl
Locality: Douglashall, Westereglen, Stassfurt District, Saxony-Anhalt, Germany
Source: James Shigley
Description: Colorless single crystal tetrahedron with minor cube modifications
Raman shift (cm-1)	intensity
156.894	0
159.786	709.396
162.679	1915
165.572	2202.47
168.464	1784.92
171.357	2196.76
174.25	2513.97
177.143	2214.37
180.035	1925.58
182.928	1740.76
185.821	1145.78
188.713	798.141
191.606	480.889
194.499	226.119
197.391	51.6875
200.284	69.0742
203.177	183.014
206.07	233.627
208.962	4.31445
211.855	25.0586
214.748	58.9961
217.64	112.441
220.533	260.141
223.426	181.514
226.318	214.025
229.211	331.754
232.104	462.904
234.996	520.25
237.889	376.502
240.782	232.91
243.675	145.209
246.567	31.9082
249.46	191.393
252.353	146.06
255.245	164.242
258.138	375.096
261.031	187.041
263.923	19.9434
266.816	16.4512
269.709	5.03906
272.602	19.8301
275.494	5.86719
278.387	11.2539
281.28	157.379
284.173	43.8125
287.065	51.1602
289.958	77.9531
292.851	195.863
295.743	220.039
298.636	158.125
301.529	223.746
304.421	323.469
307.314	185.793
310.207	317.539
313.099	293.438
315.992	313.418
318.885	439.781
321.778	319.523
324.67	245.914
327.563	277.512
330.456	100.09
333.348	139.176
336.241	183.871
339.134	20.4023
342.026	141.723
344.919	143.555
347.812	81.5977
350.705	294.582
353.597	445.465
356.49	687.016
359.383	850.715
362.275	1451.94
365.168	1270.73
368.061	507.246
370.954	662.879
373.846	1062.68
376.739	1385.14
379.632	1478.71
382.524	925
385.417	603.43
388.31	407.106
391.202	226.426
394.095	230.277
396.988	273.242
399.88	520.094
402.773	622.09
405.666	687.996
408.559	568.57
411.451	853.652
414.344	736.426
417.237	285.688
420.129	8.01953
423.022	73.6602
425.915	8.08203
428.808	27.1367
431.7	49.0469
434.593	65.2188
437.486	251.481
440.378	124.41
443.271	192.598
446.164	67.8945
449.056	293
451.949	215.195
454.842	262.414
457.735	45.6562
460.627	226.969
463.52	14.6953
466.413	115.094
469.305	216.324
472.198	120.316
475.091	92.3906
477.983	135.191
480.876	41.5273
483.769	38.3242
486.661	59.3359
489.554	111.977
492.447	3.875
495.34	19.5195
498.232	13.3906
501.125	166.078
504.018	92.5781
506.911	36.5742
509.803	124.66
512.696	282.227
515.589	373.68
518.481	587.988
521.374	714.531
524.267	670.152
527.159	706.172
530.052	677.898
532.945	867.984
535.837	769.641
538.73	621.953
541.623	493.391
544.516	726.199
547.408	774.113
550.301	902.832
553.194	606.027
556.086	486.316
558.979	468.91
561.872	185.519
564.764	8.15625
567.657	119.141
570.55	146.445
573.443	152.5
576.335	172.406
579.228	68.293
582.121	78.4922
585.013	94.2578
587.906	186.863
590.799	366.027
593.692	622.082
596.584	997.918
599.477	1323.38
602.37	1535.86
605.262	1878.88
608.155	1804.63
611.048	871.965
613.94	600.402
616.833	724.004
619.726	873.84
622.619	1145.32
625.511	784.66
628.404	641.07
631.297	802.715
634.189	1029.82
637.082	1665.47
639.975	2395
642.867	3471.42
645.76	4723.34
648.653	6113.71
651.545	7016.75
654.438	7736.77
657.331	8135.15
660.224	8099.83
663.116	6820.16
666.009	4524.45
668.902	2646.41
671.794	1559
674.687	1089.84
677.58	675.434
680.472	353.301
683.365	398.953
686.258	181.074
689.151	273.019
692.043	211.352
694.936	221.336
697.829	4.56641
700.721	166.949
703.614	204.309
706.507	393.969
709.399	110.738
712.292	197.969
715.185	171.09
718.078	151.16
720.97	45.6953
723.863	35.8906
726.756	52.8125
729.648	261.914
732.541	124.82
735.434	30.3398
738.327	66.3047
741.219	32.6875
744.112	31.7188
747.005	38.2227
749.897	98.8047
752.79	108.871
755.683	174.863
758.576	64.7461
761.468	127.512
764.361	125.547
767.254	209.18
770.146	134
773.039	151.156
775.932	311.703
778.824	219.406
781.717	305.461
784.61	378.078
787.503	105.102
790.395	71.1211
793.288	69.2695
796.181	206.172
799.073	115.535
801.966	213.508
804.859	135.641
807.751	77.543
810.644	107.356
813.537	53.5859
816.429	23.1211
819.322	183.137
822.215	138.086
825.108	38.8594
828	29.0391
830.893	43.4336
833.786	178.578
836.678	410.836
839.571	420.059
842.464	567.867
845.356	854.422
848.249	469.574
851.142	465.711
854.035	322.488
856.927	348.211
859.82	449.242
862.713	198.551
865.605	69.5898
868.498	149.941
871.391	177.336
874.284	101.934
877.176	247.402
880.069	115.832
882.962	195.258
885.854	252.219
888.747	151.242
891.64	122.941
894.533	73.8359
897.425	6.43359
900.318	22.8164
903.211	69.8516
906.103	128.098
908.996	238.285
911.889	323.316
914.781	355.312
917.674	258.703
920.567	319.195
923.46	415.25
926.352	294.25
929.245	269.727
932.138	547.391
935.03	345.769
937.923	291.68
940.816	463.215
943.708	763.656
946.601	826.18
949.494	801.375
952.386	1055.86
955.279	891.613
958.172	730.043
961.065	628.926
963.957	809.699
966.85	865.719
969.743	1111.01
972.635	1062.05
975.528	934.977
978.421	600.301
981.313	533.453
984.206	265.422
987.099	187.398
989.992	172.262
992.884	20.3398
995.777	147.356
998.67	97.0625
1001.56	80.418
1004.46	91.8594
1007.35	148.102
1010.24	8.4375
1013.13	87.3203
1016.03	135.773
1018.92	160.121
1021.81	30.8047
1024.7	265.074
1027.6	237.602
1030.49	597.711
1033.38	611.801
1036.28	737.816
1039.17	559.242
1042.06	441.934
1044.95	377.988
1047.85	248.637
1050.74	223.199
1053.63	399.606
1056.52	556.238
1059.42	577.195
1062.31	510.945
1065.2	569.008
1068.09	620.691
1070.99	341.648
1073.88	379.168
1076.77	327.336
1079.66	346.234
1082.56	492.133
1085.45	420.082
1088.34	479.797
1091.24	279.414
1094.13	589.055
1097.02	432.824
1099.91	388.195
1102.81	334.723
1105.7	206.156
1108.59	297.406
1111.48	219.527
1114.38	285.34
1117.27	106.207
1120.16	73.5234
1123.06	79.3828
1125.95	175.531
1128.84	77.0273
1131.73	125.84
1134.63	18.5039
1137.52	133.269
1140.41	111.008
1143.31	325.191
1146.2	271.941
1149.09	440.445
1151.98	489.539
1154.88	690.598
1157.77	705.082
1160.66	636.606
1163.55	470.863
1166.45	359.898
1169.34	580.215
1172.23	243.856
1175.12	281.289
1178.02	51.9141
1180.91	97.6719
1183.8	221.731
1186.69	315.172
1189.59	9.50781
1192.48	108.652
1195.37	197.887
1198.27	3.49219
1201.16	199.809
1204.05	196.266
1206.94	101.793
1209.84	39.7148
1212.73	209.383
1215.62	213.613
1218.52	429.777
1221.41	279.031
1224.3	266.312
1227.19	359.938
1230.09	349.644
1232.98	488.219
1235.87	543.379
1238.76	279.598
1241.66	151.301
1244.55	32.5078
1247.44	91.7734
1250.34	159.441
1253.23	211.644
1256.12	194.273
1259.01	72.9297
1261.91	77.9883
1264.8	218.465
1267.69	133.406
1270.58	282.477
1273.48	241.195
1276.37	71.8711
1279.26	292.414
1282.15	108.203
1285.05	282.926
1287.94	308.125
1290.83	89.9844
1293.72	126.957
1296.62	177.035
1299.51	35.875
1302.4	182.504
1305.3	122.121
