Measurement: Raman, 532 nm, unoriented, Raman Data Processed
Mineral: Borax
Rruff sample: R070168
Ideal chemistry: Na_2_B_4_O_5_(OH)_4_8H_2_O
Locality: Boron, Kramer District, Kern County, California, USA
Source: Michael Scott
Description: Colorless prismatic single crystal associated with tincalconite
Measured chemistry: Na_2.00_B_4_O_5_(OH)_4_Â·8H_2_O ; = lighter phase. Darker phase is probably tincalconite; B, H, O not measured but estimated by stoichiometry
Raman shift (cm-1)	intensity
151.628	0
154.521	216.401
157.413	467.871
160.306	480.147
163.199	565.141
166.091	703.874
168.984	785.967
171.877	714.076
174.769	677.387
177.662	709.045
180.555	667.383
183.448	824.023
186.34	955.924
189.233	1091.53
192.126	1061.23
195.018	977.254
197.911	847.168
200.804	845.729
203.696	707.377
206.589	601.115
209.482	449.465
212.375	344.26
215.267	207.641
218.16	188.049
221.053	85.6016
223.945	101.641
226.838	72.7539
229.731	16.1055
232.624	40.9883
235.516	97.2988
238.409	77.7656
241.302	19.1465
244.194	14.0156
247.087	36.0039
249.98	18.6543
252.872	8.40234
255.765	45.4258
258.658	1.52539
261.55	139.191
264.443	198.846
267.336	165.086
270.228	270.096
273.121	388.664
276.014	488.387
278.907	471.492
281.799	418.363
284.692	439.504
287.585	323.416
290.477	275.068
293.37	217.066
296.263	171.051
299.156	230.379
302.048	289.69
304.941	376.408
307.834	607.779
310.726	833.506
313.619	1043
316.512	983.262
319.404	866.656
322.297	680.873
325.19	662.109
328.082	682.729
330.975	1038.81
333.868	917.637
336.761	1284.5
339.653	1584.92
342.546	2161.09
345.439	2616.26
348.331	2741.51
351.224	2708.06
354.117	2225.51
357.01	1524
359.902	923.193
362.795	798.143
365.688	511.219
368.58	481.981
371.473	559.326
374.366	665.568
377.258	1062.61
380.151	1526.65
383.044	1746.73
385.936	1693.51
388.829	1017.84
391.722	458.727
394.615	170.106
397.507	98.0195
400.4	40.623
403.293	27.8008
406.185	3.48633
409.078	40.709
411.971	8.53906
414.863	39.457
417.756	3.72266
420.649	118.152
423.541	24.1016
426.434	9.97266
429.327	162.197
432.22	54.4453
435.112	92.4434
438.005	135.062
440.898	212.904
443.79	308.178
446.683	560.396
449.576	898.484
452.469	1174.94
455.361	1664.18
458.254	2031.23
461.147	1988.41
464.039	1212.78
466.932	794.928
469.825	551.803
472.717	344.715
475.61	361.705
478.503	370.236
481.396	224.922
484.288	244.219
487.181	138.728
490.074	33.3301
492.966	24.3125
495.859	20.291
498.752	18.752
501.644	97.2617
504.537	76.3594
507.43	141.264
510.322	77.6602
513.215	238.988
516.108	340.404
519	375.5
521.893	702.998
524.786	698.414
527.679	579.25
530.571	545.164
533.464	286.398
536.357	349.617
539.249	486.029
542.142	402.883
545.035	447.498
547.928	641
550.82	885.377
553.713	1138.17
556.606	1703.12
559.498	2488.72
562.391	3612.4
565.284	5480.25
568.176	7340.1
571.069	9589.47
573.962	10959.8
576.855	9696.34
579.747	6653.64
582.64	4299.13
585.533	3244.01
588.425	2496.78
591.318	1894.19
594.211	1434.65
597.103	1134.07
599.996	823.951
602.889	659.85
605.781	458.533
608.674	185.234
611.567	174.738
614.46	181.43
617.352	75.5547
620.245	48.5625
623.138	95.9414
626.03	0.96875
628.923	43.7246
631.816	38.25
634.708	137.076
637.601	16.9863
640.494	14.8535
643.386	23.1426
646.279	9.14844
649.172	25.7754
652.065	71.6406
654.957	5.56836
657.85	83.8086
660.743	121.412
663.635	56.9023
666.528	47.8516
669.421	175.428
672.313	116.094
675.206	101.748
678.099	85.6484
680.992	103.088
683.884	146.422
686.777	104.482
689.67	90.9688
692.562	133.803
695.455	201.123
698.348	336.209
701.24	165.406
704.133	271.066
707.026	317.422
709.919	175.361
712.811	268.084
715.704	283.43
718.597	198.772
721.489	179.557
724.382	144.469
727.275	224.951
730.167	192.693
733.06	278.377
735.953	276.463
738.846	413.158
741.738	569.494
744.631	512.307
747.524	747.207
750.416	810.809
753.309	814.416
756.202	895.562
759.094	1013.82
761.987	976.57
764.88	727.125
767.773	714.676
770.665	655.644
773.558	800.762
776.451	483.906
779.343	548.496
782.236	544.391
785.129	413.207
788.021	434.082
790.914	326.215
793.807	198.719
796.699	369.512
799.592	106.516
802.485	119.891
805.378	20.3828
808.27	159.184
811.163	60.2695
814.056	70.8047
816.948	89.1328
819.841	81.2188
822.734	31.7188
825.626	94.2031
828.519	264.625
831.412	395.356
834.305	496.43
837.197	695.375
840.09	710.965
842.983	745.082
845.875	781.734
848.768	494.863
851.661	567.059
854.553	520.848
857.446	378.988
860.339	185.766
863.231	380.367
866.124	184.367
869.017	339.973
871.91	279.348
874.802	72.9922
877.695	222.785
880.588	78.3945
883.48	112.148
886.373	175.625
889.266	52.5781
892.159	116.094
895.051	141.484
897.944	63.457
900.837	67.9609
903.729	75.207
906.622	106
909.515	33.4531
912.407	155.113
915.3	111.223
918.193	179.539
921.086	179.062
923.978	158.914
926.871	168.828
929.764	92.957
932.656	222.852
935.549	460.266
938.442	682.144
941.334	1010.33
944.227	1716.48
947.12	1746.26
950.013	1299.77
952.905	873.414
955.798	581.684
958.691	343.769
961.583	330.859
964.476	161.867
967.369	205.609
970.261	72.6289
973.154	13.9727
976.047	73.6484
978.939	132.047
981.832	22.0547
984.725	31.7109
987.618	19.6367
990.51	121.863
993.403	95.4805
996.296	6.31641
999.188	38.6484
1002.08	209.305
1004.97	205.695
1007.87	211.945
1010.76	240.332
1013.65	114.199
1016.54	306.535
1019.44	264.004
1022.33	340.894
1025.22	561.469
1028.12	635.406
1031.01	685.387
1033.9	814.625
1036.79	624.769
1039.69	637.223
1042.58	526.641
1045.47	522.012
1048.36	325.856
1051.26	426.57
1054.15	231.027
1057.04	310.91
1059.93	104.629
1062.83	215.945
1065.72	106.863
1068.61	223.734
1071.51	169.941
1074.4	138.809
1077.29	158.773
1080.18	131.332
1083.08	133.117
1085.97	144.465
1088.86	162
1091.76	181.262
1094.65	165.672
1097.54	136.539
1100.43	80.5195
1103.33	125.844
1106.22	26.8672
1109.11	192.414
1112	41.0859
1114.9	45.1523
1117.79	70.7461
1120.68	40.1328
1123.57	21.4219
1126.47	203.891
1129.36	126.277
1132.25	175.508
1135.14	203.234
1138.04	216.75
1140.93	337.098
1143.82	319.82
1146.72	284.043
1149.61	389.348
1152.5	265.223
1155.39	214.039
1158.29	227.309
1161.18	316.797
1164.07	273.281
1166.96	204.137
1169.86	102.535
1172.75	237.449
1175.64	291.824
1178.54	14.0742
1181.43	28.2461
1184.32	306.879
1187.21	114.34
1190.11	20.9102
1193	24.5547
1195.89	253.07
1198.78	0.214844
