Measurement: Raman, 780 nm, unoriented, Raman Data Processed
Mineral: Borcarite
Rruff sample: R060591
Ideal chemistry: Ca_4_MgB_4_O_6_(CO_3_)_2_(OH)_6_
Locality: Fuka mine, Bitchu-cho, Takahashi, Kawakami-gun, Okayama Prefecture, Chugoku Region, Japan
Source: Michael Scott
Description: Mass of green indistinct crystals
Measured chemistry: Ca_4.00_(Mg_0.96_Fe_0.04_)_Î£=1_B_4_O_6_(CO_3_)_2_(OH)_6_ ; trace amounts of Mg; B, C, H not measured but assumed by stoichiometry.
Raman shift (cm-1)	intensity
151.868	0
154.761	5.42725
157.654	18.3053
160.546	36.044
163.439	55.3698
166.332	84.9791
169.224	127.655
172.117	88.004
175.01	32.2116
177.902	6.25668
180.795	1.76489
183.688	3.14391
186.581	0.09687
189.473	9.46587
192.366	20.0143
195.259	26.0517
198.151	36.4518
201.044	52.2235
203.937	74.3696
206.829	109.211
209.722	154.696
212.615	119.678
215.507	55.1493
218.4	40.2445
221.293	46.9145
224.186	66.3206
227.078	91.8504
229.971	108.981
232.864	112.269
235.756	113.112
238.649	125.307
241.542	144.907
244.435	168.862
247.327	165.023
250.22	115.01
253.113	69.6584
256.005	54.2146
258.898	55.7491
261.791	64.0349
264.683	77.5522
267.576	103.576
270.469	131.19
273.361	147.787
276.254	131.92
279.147	77.5255
282.04	35.0284
284.932	13.6989
287.825	3.8141
290.718	1.43208
293.61	1.12445
296.503	0.160503
299.396	0.232311
302.288	1.78411
305.181	1.06567
308.074	1.2322
310.967	5.53242
313.859	12.1025
316.752	20.3552
319.645	26.848
322.537	28.3789
325.43	26.896
328.323	28.3912
331.216	30.6291
334.108	38.2804
337.001	42.3019
339.894	31.8239
342.786	20.2657
345.679	14.767
348.572	10.792
351.464	5.99526
354.357	2.42238
357.25	0.056561
360.142	0.176916
363.035	1.03082
365.928	0.868225
368.821	0.02491
371.713	0.07155
374.606	1.23737
377.499	1.76167
380.391	2.6098
383.284	4.11082
386.177	6.61404
389.07	9.20203
391.962	15.9243
394.855	24.0337
397.748	31.6431
400.64	40.4304
403.533	52.7865
406.426	68.2083
409.318	85.6366
412.211	84.9004
415.104	63.0954
417.997	44.3501
420.889	38.6029
423.782	35.1836
426.675	33.5694
429.567	36.3861
432.46	39.507
435.353	44.0315
438.245	41.4522
441.138	29.7956
444.031	18.3517
446.923	11.1777
449.816	7.57054
452.709	3.61725
455.602	1.6252
458.494	1.16019
461.387	0.205824
464.28	0.783611
467.172	0.061964
470.065	0.311491
472.958	1.418
475.851	1.74415
478.743	3.80815
481.636	5.45429
484.529	8.00694
487.421	10.2491
490.314	11.1938
493.207	7.93533
496.099	4.07096
498.992	1.16277
501.885	0.406591
504.777	0.27836
507.67	0.550608
510.563	0.939224
513.456	2.35133
516.348	3.1428
519.241	7.07876
522.134	9.25914
525.026	13.7306
527.919	20.5469
530.812	28.6789
533.705	37.6306
536.597	48.1501
539.49	58.9963
542.383	69.115
545.275	75.2179
548.168	72.0329
551.061	56.4444
553.953	40.6403
556.846	25.5178
559.739	16.2191
562.631	10.2561
565.524	7.18937
568.417	3.96967
571.31	2.19008
574.202	0.660872
577.095	0.456141
579.988	0.305801
582.88	0.36507
585.773	0.618454
588.666	0.522684
591.558	0.963903
594.451	2.67405
597.344	3.96909
600.237	5.60002
603.129	7.92766
606.022	9.58921
608.915	12.0795
611.807	14.505
614.7	17.1246
617.593	19.4719
620.486	22.4872
623.378	26.0799
626.271	28.2841
629.164	30.882
632.056	32.0727
634.949	32.9653
637.842	32.9736
640.734	34.6275
643.627	34.8966
646.52	34.6047
649.413	28.5348
652.305	19.205
655.198	12.5613
658.091	9.05774
660.983	8.83371
663.876	8.5301
666.769	8.82226
669.661	11.8419
672.554	18.5814
675.447	24.9426
678.34	13.114
681.232	3.21969
684.125	1.24478
687.018	0.72368
689.91	0.370712
692.803	0.755596
695.696	0.263926
698.588	0.13867
701.481	0.130028
704.374	0.892559
707.266	1.52482
710.159	3.30304
713.052	2.73926
715.945	3.73762
718.837	6.30874
721.73	9.91499
724.623	13.9385
727.515	18.2963
730.408	25.5307
733.301	37.8991
736.193	42.2879
739.086	27.4541
741.979	22.2869
744.872	25.4784
747.764	30.6119
750.657	35.2552
753.55	38.4387
756.442	33.7394
759.335	23.0975
762.228	14.505
765.12	8.91711
768.013	3.85533
770.906	2.4874
773.799	0.748587
776.691	0.580561
779.584	0.342245
782.477	0.105871
785.369	0.241043
788.262	0.120577
791.155	0.832487
794.048	1.03499
796.94	2.67124
799.833	3.61441
802.726	5.42165
805.618	7.03425
808.511	9.31495
811.404	10.8057
814.296	13.0958
817.189	14.1406
820.082	13.8455
822.975	10.2162
825.867	5.9889
828.76	3.76035
831.653	1.92827
834.545	1.02676
837.438	0.762913
840.331	0.391308
843.223	0.053658
846.116	0.133686
849.009	0.953392
851.902	1.44297
854.794	1.64961
857.687	2.14383
860.58	3.40881
863.472	4.67276
866.365	7.6397
869.258	10.0931
872.15	13.8398
875.043	19.6071
877.936	12.2928
880.829	5.37197
883.721	3.01579
886.614	2.4077
889.507	2.4459
892.399	3.1099
895.292	3.59648
898.185	2.52229
901.077	2.3276
903.97	1.61474
906.863	0.82999
909.756	0.342243
912.648	0.750694
915.541	0.241819
918.434	0.699291
921.326	0.086525
924.219	0.148195
927.112	0.209227
930.005	0.814182
932.897	0.451908
935.79	0.425415
938.683	0.999311
941.575	1.95111
944.468	2.18618
947.361	2.72122
950.253	4.09817
953.146	3.60289
956.039	4.57571
958.932	3.60414
961.824	3.86234
964.717	3.64962
967.61	4.76821
970.502	4.08737
973.395	3.85545
976.288	3.1662
979.18	2.5102
982.073	1.63167
984.966	1.92071
987.859	1.13651
990.751	0.759703
993.644	0.31531
996.537	0.659525
999.429	0.803984
1002.32	0.726984
1005.22	0.825758
1008.11	2.05287
1011	2.9657
1013.89	3.36339
1016.78	4.45013
1019.68	5.50782
1022.57	8.59432
1025.46	10.5652
1028.36	14.7723
1031.25	19.3419
1034.14	23.2302
1037.03	27.9168
1039.93	29.8274
1042.82	33.3127
1045.71	33.2053
1048.61	31.8841
1051.5	29.1489
1054.39	29.2795
1057.28	39.2841
1060.18	85.2485
1063.07	115.806
1065.96	175.503
1068.85	289.266
1071.75	534.339
1074.64	243.669
1077.53	43.2088
1080.42	12.4569
1083.32	5.40124
1086.21	2.51761
1089.1	1.64203
1092	0.211657
1094.89	0.10555
1097.78	0.192922
1100.67	0.504596
1103.57	0.048628
1106.46	0.546427
1109.35	0.484452
1112.24	0.660054
1115.14	0.842719
1118.03	0.265129
1120.92	0.434045
1123.82	0.45297
1126.71	0.606219
1129.6	0.562412
1132.49	0.227507
1135.39	0.87809
1138.28	0.856143
1141.17	1.43454
1144.06	1.34647
1146.96	1.36348
1149.85	1.59703
1152.74	1.91354
1155.63	1.7006
1158.53	1.27344
1161.42	0.051232
1164.31	0.447617
1167.21	0.385404
1170.1	0.175428
1172.99	1.01792
1175.88	0.180688
1178.78	0.655404
1181.67	1.10886
1184.56	2.91128
1187.45	1.93598
1190.35	1.80719
1193.24	1.64228
1196.13	1.35787
1199.03	1.68065
1201.92	1.39744
1204.81	1.26355
1207.7	1.53924
1210.6	2.34066
1213.49	1.97979
1216.38	1.85261
1219.27	1.6616
1222.17	1.81094
1225.06	1.21184
1227.95	0.761205
1230.85	0.657319
1233.74	0.24614
1236.63	0.893624
1239.52	0.744634
1242.42	0.291931
1245.31	0.539893
1248.2	0.159225
1251.09	0.583156
1253.99	0.472267
1256.88	0.377001
1259.77	0.048662
1262.66	0.572857
1265.56	0.359028
1268.45	0.397327
1271.34	0.104451
1274.24	0.263642
1277.13	0.601501
1280.02	0.489969
1282.91	0.493267
