Measurement: Raman, 532 nm, unoriented, Raman Data Processed
Mineral: Borcarite
Rruff sample: R110094
Ideal chemistry: Ca_4_MgB_4_O_6_(CO_3_)_2_(OH)_6_
Locality: Inner Mongolia, China
Source: Rob Lavinsky
Description: Light bluish-green tabular crystals associated with white cahnite (R110095)
Raman shift (cm-1)	intensity
135.329	0
138.704	2.84974
142.079	6.61882
145.453	0.200899
148.828	0.393752
152.203	6.76057
155.578	17.6093
158.953	37.1474
162.328	50.6345
165.702	73.146
169.077	105.596
172.452	82.1698
175.827	40.0643
179.202	30.2891
182.577	23.9178
185.951	26.8728
189.326	35.1581
192.701	60.6141
196.076	82.7016
199.451	98.6453
202.825	124.391
206.2	178.786
209.575	234.287
212.95	127.336
216.325	61.9587
219.699	63.3736
223.074	84.6409
226.449	119.771
229.824	159.026
233.199	174.708
236.573	190.019
239.948	218.29
243.323	261.683
246.698	256.235
250.073	146.921
253.448	65.7915
256.822	36.5918
260.197	30.2024
263.572	32.4526
266.947	37.9382
270.322	50.4901
273.697	43.1892
277.071	23.8993
280.446	7.99748
283.821	0.119286
287.196	1.61161
290.571	4.22441
293.945	3.03449
297.32	1.21592
300.695	0.317398
304.07	3.28869
307.445	7.16766
310.82	11.3997
314.194	16.3669
317.569	21.4645
320.944	26.7298
324.319	21.7967
327.694	15.8922
331.068	11.3942
334.443	15.0963
337.818	16.2428
341.193	11.7845
344.568	8.54604
347.942	6.45895
351.317	4.03561
354.692	2.50685
358.067	1.62767
361.442	1.02428
364.817	0.112255
368.191	0.193169
371.566	1.03482
374.941	0.677959
378.316	0.902885
381.691	0.960468
385.065	1.35164
388.44	3.16267
391.815	5.54408
395.19	9.14754
398.565	14.6389
401.94	20.6591
405.314	26.8786
408.689	39.2764
412.064	45.729
415.439	38.2638
418.814	23.582
422.188	22.8938
425.563	25.7172
428.938	31.0082
432.313	36.9327
435.688	43.4977
439.062	38.8351
442.437	21.3826
445.812	10.9396
449.187	6.64311
452.562	2.17371
455.937	0.923347
459.311	0.853054
462.686	0.272749
466.061	0.023705
469.436	1.15086
472.811	5.92356
476.185	4.38893
479.56	8.1301
482.935	12.032
486.31	14.791
489.685	15.1887
493.06	7.68677
496.434	4.78693
499.809	2.87501
503.184	1.22317
506.559	5.74916
509.934	4.42168
513.308	5.33192
516.683	6.73684
520.058	7.6113
523.433	12.7423
526.808	18.902
530.183	29.0107
533.557	45.2471
536.932	61.7571
540.307	79.7129
543.682	86.7519
547.057	75.65
550.432	51.4463
553.806	29.8497
557.181	14.2218
560.556	8.4649
563.931	4.07058
567.306	0.912102
570.68	2.14895
574.055	0.420391
577.43	1.54298
580.805	3.50504
584.18	7.2005
587.554	12.0505
590.929	18.9008
594.304	20.8857
597.679	16.9247
601.054	11.7627
604.428	5.64829
607.803	6.10177
611.178	4.41349
614.553	7.35965
617.928	6.09323
621.303	8.3347
624.677	8.63932
628.052	10.7318
631.427	11.5998
634.802	13.9244
638.177	17.165
641.552	20.9102
644.926	25.0491
648.301	25.5859
651.676	17.0235
655.051	9.41514
658.426	6.77211
661.8	8.82534
665.175	11.1547
668.55	13.8629
671.925	20.1161
675.3	30.1287
678.674	12.4883
682.049	2.07121
685.424	2.33194
688.799	0.891512
692.174	0.143518
695.549	0.310215
698.923	0.258247
702.298	0.159849
705.673	0.370813
709.048	0.742416
712.423	1.38154
715.798	3.21364
719.172	1.5256
722.547	4.45528
725.922	4.54862
729.297	8.4035
732.672	14.2712
736.046	17.4047
739.421	18.1933
742.796	25.1619
746.171	30.8648
749.546	37.5097
752.92	42.4286
756.295	33.0725
759.67	20.8959
763.045	10.8852
766.42	3.70966
769.795	2.87212
773.169	2.57877
776.544	2.39642
779.919	3.9991
783.294	7.46281
786.669	7.56543
790.043	4.83454
793.418	2.98208
796.793	0.912704
800.168	0.295528
803.543	0.306545
806.918	3.92451
810.292	5.74509
813.667	10.3973
817.042	13.4389
820.417	13.1714
823.792	8.92398
827.166	3.83801
830.541	1.86553
833.916	0.884169
837.291	0.119946
840.666	0.249376
844.04	0.043097
847.415	0.477684
850.79	0.121223
854.165	2.31218
857.54	3.09361
860.915	4.28584
864.289	7.44651
867.664	10.591
871.039	17.7772
874.414	24.1062
877.789	13.8155
881.163	4.18586
884.538	3.5205
887.913	3.57178
891.288	3.05214
894.663	2.84909
898.038	2.90552
901.412	1.15272
904.787	1.18129
908.162	0.669458
911.537	1.66173
914.912	0.284384
918.287	0.259695
921.661	0.948179
925.036	0.27706
928.411	0.94644
931.786	0.448341
935.161	0.165846
938.535	2.32414
941.91	1.86926
945.285	2.92745
948.66	2.93805
952.035	4.23578
955.409	5.80389
958.784	6.25226
962.159	4.54141
965.534	6.59464
968.909	4.97055
972.284	5.4741
975.658	3.07206
979.033	2.90922
982.408	1.53874
985.783	0.976257
989.158	0.013729
992.533	0.094385
995.907	2.22257
999.282	2.37398
1002.66	3.12096
1006.03	3.51046
1009.41	5.93391
1012.78	8.32399
1016.16	10.3535
1019.53	13.9184
1022.91	21.6711
1026.28	29.6286
1029.66	37.8423
1033.03	47.817
1036.4	57.1056
1039.78	62.0424
1043.15	58.663
1046.53	48.8807
1049.9	40.9657
1053.28	34.7885
1056.65	36.1807
1060.03	73.5388
1063.4	179.714
1066.78	263.753
1070.15	513.017
1073.53	409.766
1076.9	43.4665
1080.28	10.5886
1083.65	6.09013
1087.03	4.32333
1090.4	0.619543
1093.78	0.796379
1097.15	0.416042
1100.53	0.714378
1103.9	0.450418
1107.28	0.398539
1110.65	0.501745
1114.03	0.871014
1117.4	1.23148
1120.78	0.996286
1124.15	2.31303
1127.53	0.193392
1130.9	0.570448
1134.28	2.43649
1137.65	1.40442
1141.02	0.406563
1144.4	1.9733
1147.77	1.49991
1151.15	1.35523
1154.52	2.39319
1157.9	0.958803
1161.27	2.71244
1164.65	2.04716
1168.02	3.10246
1171.4	1.1659
1174.77	3.31416
1178.15	2.66108
1181.52	2.07432
1184.9	2.64342
1188.27	2.79508
1191.65	3.53198
1195.02	2.79664
1198.4	3.41616
1201.77	4.84194
1205.15	5.59613
1208.52	5.98267
1211.9	7.26343
1215.27	5.76451
1218.64	3.96332
1222.02	5.41781
1225.39	3.94284
1228.77	2.02702
1232.14	2.36065
1235.52	2.89629
1238.89	1.65062
1242.27	2.72882
1245.64	0.809408
1249.02	0.124119
1252.39	2.13679
1255.77	1.23669
1259.14	0.54394
1262.52	2.48642
1265.89	1.10229
1269.27	1.73304
1272.64	0.979939
1276.02	0.371891
1279.39	1.60765
1282.77	0.495319
1286.14	0.351694
1289.52	1.2918
1292.89	0.55814
1296.27	0.63912
1299.64	0.138859
1303.02	0
