Measurement: Raman, 532 nm, unoriented, Raman Data Processed
Mineral: Borcarite
Rruff sample: R060591
Ideal chemistry: Ca_4_MgB_4_O_6_(CO_3_)_2_(OH)_6_
Locality: Fuka mine, Bitchu-cho, Takahashi, Kawakami-gun, Okayama Prefecture, Chugoku Region, Japan
Source: Michael Scott
Description: Mass of green indistinct crystals
Measured chemistry: Ca_4.00_(Mg_0.96_Fe_0.04_)_Î£=1_B_4_O_6_(CO_3_)_2_(OH)_6_ ; trace amounts of Mg; B, C, H not measured but assumed by stoichiometry.
Raman shift (cm-1)	intensity
157.506	0
160.399	0.371086
163.292	13.2864
166.185	40.8891
169.077	76.5919
171.97	47.9534
174.863	15.5769
177.755	5.63509
180.648	3.39764
183.541	2.65027
186.433	4.61939
189.326	15.5007
192.219	37.2105
195.112	56.8262
198.004	66.7363
200.897	85.2068
203.79	112.658
206.682	164.728
209.575	233.641
212.468	178.868
215.36	68.0001
218.253	39.7167
221.146	43.5705
224.038	63.1112
226.931	98.8198
229.824	137.107
232.717	154.555
235.609	167.947
238.502	194.554
241.395	241.838
244.287	294.908
247.18	295.961
250.073	195.34
252.965	109.102
255.858	83.2905
258.751	88.1893
261.644	103.818
264.536	128.465
267.429	166.141
270.322	207.773
273.214	222.819
276.107	199.227
279	110.119
281.892	43.8803
284.785	14.9998
287.678	1.24487
290.571	1.61192
293.463	2.09592
296.356	0.378448
299.249	1.00516
302.141	2.25047
305.034	0.667099
307.927	4.37654
310.82	8.66545
313.712	18.0676
316.605	28.4236
319.498	33.3804
322.39	32.5726
325.283	27.9184
328.176	22.0847
331.068	23.4287
333.961	30.761
336.854	36.0483
339.747	28.3802
342.639	17.1727
345.532	13.0361
348.425	10.8735
351.317	6.10687
354.21	2.23686
357.103	0.119537
359.995	0.077698
362.888	2.00706
365.781	0.136932
368.673	0.059753
371.566	1.93964
374.459	2.31116
377.352	2.23822
380.244	3.80678
383.137	5.48793
386.03	8.6181
388.922	12.5257
391.815	19.1607
394.708	30.6125
397.601	43.3179
400.493	55.7588
403.386	73.2734
406.279	97.3821
409.171	120.832
412.064	119.387
414.957	90.2556
417.849	68.8126
420.742	66.5121
423.635	71.4363
426.527	79.8672
429.42	89.9763
432.313	104.299
435.206	117.585
438.098	111.336
440.991	76.0703
443.884	44.426
446.776	24.8279
449.669	16.3093
452.562	8.42967
455.454	4.75913
458.347	1.97139
461.24	1.79358
464.133	0.707489
467.025	1.52643
469.918	3.62726
472.811	7.02248
475.703	8.92215
478.596	18.3627
481.489	22.2442
484.382	29.7497
487.274	36.8597
490.167	38.7053
493.06	27.2752
495.952	14.8908
498.845	5.47516
501.738	3.00952
504.63	1.19678
507.523	0.58934
510.416	0.883743
513.308	0.203522
516.201	0.39386
519.094	2.06393
521.987	4.10959
524.879	6.92056
527.772	13.0812
530.665	18.4278
533.557	27.3124
536.45	34.9737
539.343	44.3605
542.236	54.3525
545.128	59.2004
548.021	56.432
550.914	44.3416
553.806	30.5253
556.699	19.0926
559.592	12.698
562.484	6.74705
565.377	5.04909
568.27	1.90709
571.163	1.43222
574.055	0.947678
576.948	1.39064
579.841	0.127975
582.733	0.492798
585.626	0.808151
588.519	2.32799
591.411	2.28894
594.304	5.09795
597.197	3.34927
600.09	6.74864
602.982	9.67746
605.875	10.4462
608.768	13.737
611.66	16.1663
614.553	20.3458
617.446	24.2395
620.338	28.3167
623.231	34.723
626.124	39.5047
629.016	43.5154
631.909	52.7333
634.802	62.682
637.695	69.7137
640.587	79.6093
643.48	89.6025
646.373	92.2852
649.265	75.4422
652.158	48.3671
655.051	29.3126
657.943	18.6465
660.836	14.3863
663.729	11.8385
666.622	11.2756
669.514	11.097
672.407	15.1625
675.3	18.7746
678.192	9.69696
681.085	2.80908
683.978	1.9623
686.87	0.284637
689.763	1.37015
692.656	0.070404
695.549	1.14668
698.441	0.14949
701.334	0.431763
704.227	0.37709
707.119	0.97081
710.012	0.105331
712.905	1.77093
715.798	1.68878
718.69	4.20303
721.583	6.78915
724.476	11.9943
727.368	17.6213
730.261	23.8997
733.154	36.2105
736.046	44.0767
738.939	34.0871
741.832	35.2747
744.725	45.7706
747.617	58.1959
750.51	69.541
753.403	75.4667
756.295	68.9925
759.188	47.4229
762.081	28.1737
764.973	16.3573
767.866	10.6312
770.759	5.50015
773.652	2.39302
776.544	0.262695
779.437	0.454208
782.33	0.473801
785.222	0.091064
788.115	0.950272
791.008	0.402771
793.9	1.44933
796.793	3.13667
799.686	3.37871
802.578	7.0592
805.471	11.5434
808.364	16.6895
811.257	19.2803
814.149	23.1499
817.042	26.5729
819.935	27.2265
822.827	19.6533
825.72	12.7177
828.613	7.40079
831.505	3.75403
834.398	4.04579
837.291	3.04457
840.184	1.37755
843.076	1.89322
845.969	1.94339
848.862	0.314957
851.754	2.03084
854.647	3.59575
857.54	5.20271
860.433	8.21307
863.325	13.5755
866.218	19.7577
869.111	22.8577
872.003	35.5059
874.896	47.3634
877.789	29.4853
880.681	9.12244
883.574	4.75922
886.467	6.07069
889.36	4.16299
892.252	4.34645
895.145	2.2807
898.038	0.588013
900.93	3.38162
903.823	3.5274
906.716	1.80693
909.608	1.42096
912.501	1.6075
915.394	0.907883
918.287	0.278458
921.179	1.00218
924.072	0.681
926.965	0.637192
929.857	0.110855
932.75	0.208832
935.643	0.861526
938.535	2.1619
941.428	2.16492
944.321	2.98529
947.213	4.77843
950.106	7.06416
952.999	7.85931
955.892	7.43269
958.784	7.89401
961.677	8.42296
964.57	8.67929
967.462	7.87047
970.355	7.13113
973.248	5.25487
976.14	6.13213
979.033	5.97913
981.926	3.76625
984.819	4.23697
987.711	3.05191
990.604	0.747314
993.497	1.7485
996.389	0.990158
999.282	0.985901
1002.17	0.973526
1005.07	0.660095
1007.96	0.557266
1010.85	2.61626
1013.75	2.57568
1016.64	2.32022
1019.53	6.56346
1022.42	7.91704
1025.32	10.421
1028.21	15.7951
1031.1	19.0031
1033.99	24.4385
1036.89	30.087
1039.78	34.4116
1042.67	35.6776
1045.57	35.9793
1048.46	34.6352
1051.35	32.1913
1054.24	29.79
1057.14	38.6659
1060.03	90.6702
1062.92	169.181
1065.81	222.794
1068.71	405.651
1071.6	715.287
1074.49	306.262
1077.38	52.7091
1080.28	17.2819
1083.17	9.96829
1086.06	5.47084
1088.96	2.06148
1091.85	0.806442
1094.74	0.850006
1097.63	1.17888
1100.53	1.6981
1103.42	0.200424
1106.31	1.40633
1109.2	0.423294
1112.1	3.72418
1114.99	1.7188
1117.88	1.72946
1120.78	2.41101
1123.67	0.562103
1126.56	0.890961
1129.45	0.52037
1132.35	0.85556
1135.24	0.094849
1138.13	0.294861
1141.02	2.58888
1143.92	0.425415
1146.81	2.49493
1149.7	3.67458
1152.6	1.64113
1155.49	0.802505
1158.38	2.5172
1161.27	1.86096
1164.17	1.0047
1167.06	2.09535
1169.95	0.772949
1172.84	1.85063
1175.74	2.23035
1178.63	1.53619
1181.52	3.14912
1184.41	4.04558
1187.31	5.27066
1190.2	3.0365
1193.09	3.78419
1195.99	2.30417
1198.88	3.76997
1201.77	3.92491
1204.66	3.21361
1207.56	5.20721
1210.45	4.27432
1213.34	4.64183
1216.23	2.55843
1219.13	2.09691
1222.02	3.24913
1224.91	2.44537
1227.81	2.36658
1230.7	1.25319
1233.59	1.91013
1236.48	0.120758
1239.38	0.483475
1242.27	0.742706
1245.16	2.04297
1248.05	1.73463
1250.95	0.977753
1253.84	0.016251
1256.73	1.77119
1259.62	1.60782
1262.52	1.54268
1265.41	0.404404
1268.3	0.039063
1271.2	1.12186
1274.09	1.91408
1276.98	0.616501
1279.87	2.5531
1282.77	0.591232
1285.66	1.10016
1288.55	0.891418
1291.44	1.22575
1294.34	1.68059
1297.23	1.8873
1300.12	2.0351
1303.02	0
