Measurement: Raman, 780 nm, unoriented, Raman Data Processed
Mineral: Borcarite
Rruff sample: R110094
Ideal chemistry: Ca_4_MgB_4_O_6_(CO_3_)_2_(OH)_6_
Locality: Inner Mongolia, China
Source: Rob Lavinsky
Description: Light bluish-green tabular crystals associated with white cahnite (R110095)
Raman shift (cm-1)	intensity
145.119	0
148.011	1.91809
150.904	13.1456
153.797	30.5158
156.689	43.8344
159.582	59.5434
162.475	83.1859
165.367	131.853
168.26	205.831
171.153	166.407
174.046	50.5703
176.938	13.3795
179.831	1.77251
182.724	2.75861
185.616	2.61494
188.509	5.11958
191.402	15.5965
194.294	22.9304
197.187	28.2595
200.08	52.2534
202.972	85.2554
205.865	166.481
208.758	254.111
211.651	156.165
214.543	49.7028
217.436	29.5757
220.329	36.919
223.221	62.5649
226.114	97.405
229.007	123.346
231.899	131.881
234.792	142.415
237.685	175.47
240.578	229.233
243.47	293.154
246.363	276.868
249.256	170.051
252.148	94.7787
255.041	68.0346
257.934	68.9383
260.827	75.8805
263.719	104.958
266.612	161.282
269.505	221.716
272.397	242.173
275.29	188.912
278.183	96.6385
281.075	41.9602
283.968	15.6509
286.861	2.92071
289.753	1.50042
292.646	0.895309
295.539	1.26876
298.432	0.048027
301.324	0.338242
304.217	3.1873
307.11	0.579506
310.002	3.99911
312.895	13.7197
315.788	24.7135
318.68	35.1126
321.573	35.0292
324.466	26.6243
327.359	18.0516
330.251	15.3649
333.144	15.8015
336.037	20.9118
338.929	19.5559
341.822	16.0944
344.715	11.2292
347.608	11.0437
350.5	7.96535
353.393	6.00079
356.286	0.694176
359.178	2.12509
362.071	3.3926
364.964	1.77192
367.856	0.151291
370.749	0.032471
373.642	2.38728
376.534	0.148647
379.427	2.94378
382.32	0.972336
385.213	3.01657
388.105	4.84941
390.998	7.97255
393.891	12.9065
396.783	22.3993
399.676	31.4807
402.569	42.9588
405.462	64.7478
408.354	92.965
411.247	112.084
414.14	103.546
417.032	72.6474
419.925	54.478
422.818	53.7674
425.71	63.9111
428.603	77.1519
431.496	101.344
434.389	128.882
437.281	128.678
440.174	89.9108
443.067	52.8653
445.959	28.3479
448.852	13.2221
451.745	9.34405
454.637	3.43688
457.53	0.726658
460.423	0.461128
463.315	3.21549
466.208	0.609844
469.101	1.95488
471.994	7.12032
474.886	10.9154
477.779	17.3477
480.672	26.871
483.564	40.2647
486.457	50.9006
489.35	48.204
492.243	29.3006
495.135	15.5652
498.028	5.83406
500.921	3.05659
503.813	5.9957
506.706	5.88369
509.599	10.6995
512.491	9.30362
515.384	8.08396
518.277	7.29213
521.169	6.93867
524.062	5.58984
526.955	8.40432
529.848	12.8131
532.74	18.5022
535.633	29.0272
538.526	40.7527
541.418	53.1605
544.311	56.9298
547.204	46.5587
550.096	29.9637
552.989	14.8963
555.882	7.98022
558.775	2.48304
561.667	1.26102
564.56	1.26228
567.453	2.0473
570.345	1.70742
573.238	0.118591
576.131	3.13994
579.024	6.93016
581.916	17.9504
584.809	29.2703
587.702	44.9048
590.594	59.5339
593.487	69.9002
596.38	61.2225
599.272	41.9908
602.165	30.1526
605.058	17.6981
607.951	17.323
610.843	21.3346
613.736	19.5082
616.629	18.3643
619.521	19.2499
622.414	19.7399
625.307	22.0725
628.199	23.8433
631.092	27.2959
633.985	33.1788
636.878	41.6504
639.77	51.6126
642.663	69.5863
645.556	83.7001
648.448	78.839
651.341	56.1186
654.234	34.6306
657.126	24.534
660.019	18.3452
662.912	14.4449
665.804	10.2632
668.697	10.263
671.59	16.8363
674.483	22.2189
677.375	12.7128
680.268	4.02194
683.161	3.11195
686.053	0.300339
688.946	1.73521
691.839	0.967945
694.731	1.38011
697.624	0.390324
700.517	1.82832
703.41	1.75477
706.302	0.709122
709.195	0.78054
712.088	2.37503
714.98	1.45818
717.873	1.70738
720.766	4.95178
723.659	4.23663
726.551	9.53125
729.444	15.2273
732.337	25.3164
735.229	31.524
738.122	26.28
741.015	29.1641
743.907	37.4329
746.8	49.9052
749.693	64.3757
752.586	69.2127
755.478	55.7948
758.371	38.9425
761.264	22.3533
764.156	12.1268
767.049	6.80379
769.942	4.41805
772.834	4.47626
775.727	2.30009
778.62	7.71771
781.513	13.1698
784.405	17.3935
787.298	14.9877
790.191	8.75727
793.083	3.63452
795.976	0.883549
798.869	0.242638
801.761	1.93769
804.654	1.33557
807.547	3.51429
810.439	6.09817
813.332	9.28725
816.225	17.2896
819.118	19.7866
822.01	16.1782
824.903	9.32818
827.796	4.04283
830.688	2.16157
833.581	0.282078
836.474	0.931377
839.366	2.57143
842.259	1.72798
845.152	0.418339
848.045	2.66256
850.937	3.87579
853.83	6.40157
856.723	5.78339
859.615	5.24953
862.508	11.0304
865.401	12.6814
868.293	20.6885
871.186	32.0805
874.079	52.8246
876.972	31.487
879.864	10.5696
882.757	8.765
885.65	5.59013
888.542	5.32396
891.435	1.69206
894.328	4.10859
897.221	3.22745
900.113	3.6495
903.006	1.30376
905.899	3.5394
908.791	1.17333
911.684	0.032772
914.577	0.624813
917.469	0.71064
920.362	1.19585
923.255	1.40395
926.148	0.127846
929.04	0.583534
931.933	4.0286
934.826	1.2839
937.718	4.22931
940.611	3.83933
943.504	4.16137
946.396	6.00111
949.289	6.98977
952.182	7.03292
955.074	6.89747
957.967	8.22927
960.86	6.62315
963.753	5.81403
966.645	8.61929
969.538	7.58835
972.431	3.7467
975.323	4.0836
978.216	4.63123
981.109	2.04236
984.001	2.09391
986.894	1.90189
989.787	0.417763
992.68	0.697796
995.572	0.346355
998.465	1.2553
1001.36	1.24025
1004.25	4.31176
1007.14	2.84683
1010.04	3.10215
1012.93	4.79126
1015.82	5.3031
1018.71	7.4604
1021.61	8.2901
1024.5	11.929
1027.39	14.7591
1030.29	19.1926
1033.18	22.1358
1036.07	28.1095
1038.96	29.6626
1041.86	29.1961
1044.75	28.783
1047.64	24.4905
1050.53	20.3199
1053.43	17.8139
1056.32	20.9257
1059.21	42.3644
1062.1	57.9723
1065	98.1445
1067.89	240.54
1070.78	641.921
1073.67	225.581
1076.57	34.1133
1079.46	11.7962
1082.35	6.24949
1085.25	6.46482
1088.14	5.13443
1091.03	2.11367
1093.92	1.22156
1096.82	1.17138
1099.71	0.616333
1102.6	0.241049
1105.49	0.037971
1108.39	2.26023
1111.28	1.38775
1114.17	0.034805
1117.07	0.811913
1119.96	2.50053
1122.85	1.30796
1125.74	3.17779
1128.64	0.038364
1131.53	0.291695
1134.42	0.388014
1137.32	2.98822
1140.21	0.668289
1143.1	0.360409
1145.99	4.49624
1148.88	2.48807
1151.78	1.22834
1154.67	3.67296
1157.56	3.97741
1160.46	3.9362
1163.35	5.93004
1166.24	4.87115
1169.13	3.0589
1172.03	5.57339
1174.92	6.17936
1177.81	4.44346
1180.7	5.67438
1183.6	5.88813
1186.49	4.29949
1189.38	3.89502
1192.28	6.49223
1195.17	2.95994
1198.06	4.73768
1200.95	4.04093
1203.85	4.28501
1206.74	8.19915
1209.63	5.17783
1212.53	7.06221
1215.42	4.28307
1218.31	7.14576
1221.2	3.63399
1224.1	4.03078
1226.99	2.79719
1229.88	2.96067
1232.77	2.58048
1235.67	3.44494
1238.56	1.1126
1241.45	1.78659
1244.34	1.26925
1247.24	2.38276
1250.13	1.46072
1253.02	0.637148
1255.91	2.13123
1258.81	1.32785
1261.7	0.647049
1264.59	0.35033
1267.49	0.049683
1270.38	2.69337
1273.27	1.22193
1276.16	1.7157
1279.06	3.51092
1281.95	1.77187
1284.84	1.28203
