Measurement: Raman, 532 nm, unoriented, Raman Data Processed
Mineral: Botryogen
Rruff sample: R070581
Ideal chemistry: MgFe^3+^(SO_4_)_2_(OH)7H_2_O
Locality: Redington mine, Knoxville, Napa County, California, USA
Source: James Shigley
Description: Red-orange aggregate of pseudo-rhombohedral crystals
Measured chemistry: (Mg_0.99_Mn_0.01_)_Σ=1_(Fe^3+^_0.97_Al_0.03_)_Σ=1_(S_1.00_O_4_)_2_(OH)·7H_2_O; OH estimated by charge balance; H_2_O by difference
Raman shift (cm-1)	intensity
154.951	0
157.844	67.5371
160.737	29.8657
163.629	126.593
166.522	236.098
169.415	313.541
172.307	431.12
175.2	504.05
178.093	740.24
180.985	840.453
183.878	884.444
186.771	933.177
189.663	1073.37
192.556	1312.29
195.449	1621.64
198.342	1936.76
201.234	2286.07
204.127	2654.32
207.02	3024.42
209.912	3173.85
212.805	3287.56
215.698	3388.85
218.59	3469.79
221.483	3571.16
224.376	3848.79
227.269	4169.75
230.161	4883.25
233.054	5522.7
235.947	6256.2
238.839	6628.73
241.732	6412.63
244.625	5705.75
247.518	4885.92
250.41	3880.41
253.303	2948.18
256.196	2071.31
259.088	1530.51
261.981	1350.35
264.874	1077.76
267.766	1053.49
270.659	1115.28
273.552	818.625
276.445	524.105
279.337	205.875
282.23	21.645
285.123	145.972
288.015	105.292
290.908	86.689
293.801	68.8311
296.693	6.64941
299.586	15.3262
302.479	103.491
305.371	96.4258
308.264	145.576
311.157	195.856
314.05	285.132
316.942	430.84
319.835	571.849
322.728	769
325.62	1038.54
328.513	1319.8
331.406	1649.23
334.298	2006.07
337.191	2333.4
340.084	2727.88
342.976	2944.47
345.869	3246.39
348.762	3331.88
351.655	3321.52
354.547	3173.66
357.44	2981.31
360.333	2743.37
363.225	2629.4
366.118	2568.03
369.011	2703.81
371.904	3015.68
374.796	3335.14
377.689	3665.5
380.582	4019.47
383.474	4234.25
386.367	4228.27
389.26	4073.64
392.152	3593.78
395.045	3095.1
397.938	2486.9
400.83	1979.07
403.723	1508.7
406.616	1042.46
409.509	681.778
412.401	375.869
415.294	143.945
418.187	21.1475
421.079	129.411
423.972	135.468
426.865	63.0547
429.757	18.873
432.65	317.474
435.543	617.046
438.435	1161.83
441.328	1915.07
444.221	2736.03
447.114	3775.45
450.006	4835.37
452.899	5561.05
455.792	5736.03
458.684	5445.8
461.577	4939.55
464.47	4265.96
467.363	3651.31
470.255	2949.94
473.148	2206.18
476.041	1711.88
478.933	1328.34
481.826	1260.64
484.719	1300.5
487.611	1596.07
490.504	1959.19
493.397	2423.18
496.289	2789.43
499.182	2882.8
502.075	2664.22
504.968	1911.28
507.86	1271.13
510.753	769.991
513.646	654.618
516.538	167.597
519.431	64.582
522.324	68.3906
525.216	52.7217
528.109	55.626
531.002	78.0005
533.895	238.643
536.787	520.245
539.68	857.839
542.573	1370.21
545.465	2000.29
548.358	2835.84
551.251	3736.91
554.144	4824.4
557.036	5897.84
559.929	6755.05
562.822	7404.18
565.714	7125.29
568.607	5903.05
571.5	4285.06
574.392	2891.26
577.285	1768.8
580.178	1139.96
583.07	771.991
585.963	549.407
588.856	460
591.749	498.058
594.641	516.914
597.534	619.604
600.427	679.612
603.319	835.059
606.212	1006.15
609.105	1108.07
611.997	1141.93
614.89	1125.29
617.783	1127.69
620.676	1061.38
623.568	864.396
626.461	658.654
629.354	374.423
632.246	167.637
635.139	126.697
638.032	26.2334
640.924	64.6706
643.817	55.3833
646.71	74.2476
649.602	4.06494
652.495	6.74707
655.388	73.2207
658.281	38.5471
661.173	124.436
664.066	130.05
666.959	120.559
669.851	145.907
672.744	168.852
675.637	157.716
678.529	208.601
681.422	216.018
684.315	209.086
687.208	210.152
690.1	185.691
692.993	119.56
695.886	129.595
698.778	122.854
701.671	107.128
704.564	32.6731
707.457	59.0374
710.349	46.2903
713.242	61.3308
716.135	111.921
719.027	89.4226
721.92	85.5169
724.813	70.4394
727.705	56.75
730.598	88.6038
733.491	38.4172
736.384	18.2048
739.276	79.8677
742.169	41.4485
745.062	13.9324
747.954	35.2307
750.847	76.5442
753.74	7.6001
756.632	4.98169
759.525	19.6706
762.418	44.4338
765.31	12.0146
768.203	8.89429
771.096	3.16626
773.989	13.9504
776.881	41.9087
779.774	13.7039
782.667	4.37646
785.559	34.6162
788.452	0.717773
791.345	35.937
794.237	21.8152
797.13	9.27905
800.023	16.9214
802.915	35.7695
805.808	33.9919
808.701	49.0403
811.594	22.0759
814.486	42.1941
817.379	59.679
820.272	56.0212
823.164	46.2495
826.057	39.9387
828.95	44.7046
831.842	13.6938
834.735	19.1013
837.628	11.0063
840.521	5.56348
843.413	54.9614
846.306	39.4744
849.199	41.1492
852.091	29.2913
854.984	51.3975
857.877	20.2153
860.769	1.6582
863.662	22.1785
866.555	0.795654
869.448	63.8376
872.34	42.4348
875.233	31.7024
878.126	53.4177
881.018	44.678
883.911	27.0303
886.804	78.0686
889.697	84.6824
892.589	91.8569
895.482	99.5359
898.375	102.456
901.267	104.441
904.16	90.7195
907.053	147.675
909.945	205.193
912.838	173.198
915.731	124.494
918.624	167.442
921.516	134.99
924.409	100.544
927.302	106.02
930.194	102.166
933.087	89.8577
935.98	39.8701
938.872	47.1589
941.765	79
944.658	4.06274
947.55	41.0847
950.443	7.51001
953.336	1.09522
956.229	11.2139
959.121	23.5466
962.014	6.13208
964.907	27.3262
967.799	9.60938
970.692	33.1697
973.585	8.40259
976.477	70.8523
979.37	112.34
982.263	245.544
985.155	440.944
988.048	891.252
990.941	2020.59
993.834	3840.39
996.726	5969.38
999.619	9176.19
1002.51	14136.6
1005.4	14198.4
1008.3	9139.45
1011.19	8044.53
1014.08	9538.72
1016.98	11888.5
1019.87	12524.9
1022.76	9023.88
1025.65	6172.47
1028.55	5370.62
1031.44	5750.75
1034.33	6661.29
1037.22	7848.87
1040.12	8766.55
1043.01	8538.02
1045.9	7120.44
1048.8	5206.56
1051.69	3452.7
1054.58	2347.48
1057.47	1548.03
1060.37	1109.97
1063.26	816
1066.15	649.132
1069.04	640.712
1071.94	633.385
1074.83	621.884
1077.72	523.492
1080.62	289.524
1083.51	101.126
1086.4	46.728
1089.29	124.435
1092.18	128.694
1095.08	11.5322
1097.97	104.011
1100.86	333.873
1103.76	633.371
1106.65	993.663
1109.54	1450.4
1112.43	2020.93
1115.33	2484.08
1118.22	2786.15
1121.11	2708.14
1124.01	2325.76
1126.9	1812.47
1129.79	1256.38
1132.68	877.821
1135.58	556.432
1138.47	434.657
1141.36	334.373
1144.25	382.373
1147.15	359.328
1150.04	375.857
1152.93	339.693
1155.83	361.519
1158.72	392.352
1161.61	517.174
1164.5	837.924
1167.4	1484.93
1170.29	2322.47
1173.18	3253.07
1176.07	4129.63
1178.97	4585.09
1181.86	4295.12
1184.75	3067.3
1187.64	1782.51
1190.54	946.192
1193.43	431.822
1196.32	142.378
1199.21	52.4722
1202.11	30.3618
1205	163.767
1207.89	206.608
1210.79	344.79
1213.68	562.993
1216.57	803.747
1219.46	1028.73
1222.36	1032.24
1225.25	723.576
1228.14	398.077
1231.04	86.4995
1233.93	11.1611
1236.82	1.92163
1239.71	36.0354
1242.61	64.7932
1245.5	16.7463
1248.39	38.5537
1251.28	45.5344
1254.18	117.269
1257.07	184.156
1259.96	269.834
1262.85	219.572
1265.75	143.807
1268.64	157.075
1271.53	143.318
1274.42	137.506
1277.32	95.5786
1280.21	37.1467
1283.1	56.7305
