Measurement: Raman, 785 nm, unoriented, Raman Data Processed
Mineral: Botryogen
Rruff sample: R070362
Ideal chemistry: MgFe^3+^(SO_4_)_2_(OH)7H_2_O
Locality: Queténa Mine, Calama, El Loa Province, Antofagasta Region, Chile
Source: Michael Scott
Description: Aggregate of orange pseudo-rhombohedral crystals
Measured chemistry: Mg_1.00_(Fe^3+^_0.90_Al_0.10_)_Σ=1_(S_1.00_O_4_)_2_(OH)·7H_2_O; OH estimated by charge balance; H_2_O by difference
Raman shift (cm-1)	intensity
127.287	0
130.18	18.6189
133.072	108.692
135.965	103.699
138.858	2.8349
141.75	9.76617
144.643	72.3663
147.536	241.895
150.429	327.608
153.321	280.269
156.214	237.365
159.107	261.192
161.999	413.758
164.892	627.467
167.785	812.986
170.677	964.809
173.57	1041.08
176.463	1145.38
179.356	1268.46
182.248	1359.82
185.141	1437.54
188.034	1633.7
190.926	1861.24
193.819	2207.1
196.712	2491.59
199.604	2678.57
202.497	2710.35
205.39	2709.35
208.282	2702.39
211.175	2550.84
214.068	2405.09
216.961	2311.07
219.853	2207.91
222.746	2171.13
225.639	2266.14
228.531	2553.82
231.424	2935.59
234.317	3414.18
237.209	3879.98
240.102	4012.65
242.995	3799.67
245.888	3268.44
248.78	2799.16
251.673	2305.95
254.566	1723.53
257.458	1182.84
260.351	1003.5
263.244	930.257
266.137	998.118
269.029	1107.9
271.922	1056.05
274.815	681.805
277.707	331.378
280.6	80.6355
283.493	20.1471
286.385	6.71515
289.278	10.9896
292.171	10.4838
295.063	12.1268
297.956	11.2613
300.849	19.4024
303.742	22.8775
306.634	38.6668
309.527	37.1515
312.42	59.4383
315.312	114.516
318.205	206.886
321.098	255.432
323.99	365.189
326.883	495.789
329.776	689.825
332.669	925.124
335.561	1122.13
338.454	1407.84
341.347	1683.15
344.239	1899.01
347.132	2028.08
350.025	2134.25
352.918	2033.94
355.81	1821.61
358.703	1525.33
361.596	1293.12
364.488	1120.63
367.381	987.084
370.274	1015.01
373.166	1133.54
376.059	1269.68
378.952	1452.63
381.844	1614.01
384.737	1679.69
387.63	1600.48
390.523	1418.8
393.415	1233.97
396.308	957.019
399.201	762.839
402.093	584.284
404.986	438.831
407.879	265.943
410.772	153.04
413.664	97.8322
416.557	62.8032
419.45	44.6844
422.342	44.3316
425.235	58.2307
428.128	97.6571
431.02	188.161
433.913	438.206
436.806	842.186
439.699	1425.12
442.591	2152.59
445.484	3067.15
448.377	4118.6
451.269	4911.35
454.162	5051.82
457.055	4619.79
459.947	3896.66
462.84	3185.46
465.733	2456
468.625	1919.43
471.518	1462.13
474.411	1101.21
477.304	906.653
480.196	743.514
483.089	771.455
485.982	981.414
488.874	1220.24
491.767	1644.83
494.66	2050.45
497.553	2361.3
500.445	2188.9
503.338	1806.04
506.231	1235.86
509.123	746.577
512.016	423.246
514.909	187.81
517.802	94.3077
520.694	46.451
523.587	22.2742
526.48	13.996
529.372	28.6492
532.265	74.3004
535.158	135.142
538.05	230.632
540.943	342.618
543.836	566.977
546.729	855.702
549.621	1183.83
552.514	1667.94
555.407	2245.34
558.299	2823.36
561.192	3300.73
564.085	3306.27
566.977	2938.4
569.87	2188.36
572.763	1450.64
575.655	900.344
578.548	544.531
581.441	342.48
584.333	281.448
587.226	258.67
590.119	315.114
593.012	339.927
595.904	467.881
598.797	597.816
601.69	787.988
604.582	988.685
607.475	1178.08
610.368	1310
613.26	1363.69
616.153	1328.44
619.046	1190.3
621.939	952.129
624.831	650.05
627.724	407.046
630.617	265.364
633.509	88.3148
636.402	19.6572
639.295	35.4799
642.188	23.4979
645.08	31.4645
647.973	30.1331
650.866	23.719
653.758	66.202
656.651	78.863
659.544	107.749
662.436	81.4756
665.329	103.18
668.222	100.37
671.115	135.91
674.007	143.802
676.9	159.819
679.793	172.725
682.685	157.485
685.578	127.276
688.471	113.784
691.363	120.694
694.256	77.8566
697.149	42.2454
700.042	22.7824
702.934	5.46503
705.827	8.25971
708.72	5.82141
711.612	2.84613
714.505	5.82873
717.398	2.26172
720.29	16.8715
723.183	6.75671
726.076	25.0626
728.968	9.38123
731.861	24.266
734.754	18.3809
737.647	21.8993
740.539	26.1434
743.432	30.2391
746.325	25.3328
749.217	33.4608
752.11	49.6549
755.003	59.7481
757.895	36.2076
760.788	45.8954
763.681	52.1979
766.574	50.2903
769.466	50.1682
772.359	46.3271
775.252	46.5545
778.144	38.3625
781.037	25.2276
783.93	12.4109
786.822	47.2801
789.715	34.7871
792.608	25.5984
795.501	5.0517
798.393	24.9838
801.286	16.1234
804.179	12.3454
807.071	7.85535
809.964	19.4463
812.857	52.994
815.75	13.0615
818.642	11.8628
821.535	24.2981
824.428	1.62237
827.32	29.2056
830.213	13.6058
833.106	16.7591
835.998	25.2739
838.891	8.65637
841.784	0.227295
844.677	16.7564
847.569	23.0677
850.462	1.01062
853.355	10.1182
856.247	2.51758
859.14	14.2493
862.033	13.2566
864.925	22.3373
867.818	7.87207
870.711	35.3174
873.604	10.6064
876.496	20.1468
879.389	24.7216
882.282	24.7093
885.174	35.5222
888.067	42.4754
890.96	48.9499
893.852	57.6655
896.745	58.2351
899.638	72.5821
902.53	75.9609
905.423	85.4254
908.316	106.769
911.209	67.1119
914.101	69.4056
916.994	69.1269
919.887	58.2142
922.779	59.2971
925.672	34.7653
928.565	32.7519
931.457	30.4587
934.35	18.2167
937.243	39.629
940.136	2.23029
943.028	9.61884
945.921	1.21869
948.814	14.5215
951.706	28.3043
954.599	27.1483
957.492	22.9893
960.385	8.65778
963.277	6.14081
966.17	22.5574
969.063	14.1612
971.955	61.0702
974.848	251.307
977.741	555.008
980.633	1019.45
983.526	1699.17
986.419	1074.87
989.312	857.033
992.204	1667.01
995.097	3388.11
997.99	6591.03
1000.88	11964.5
1003.77	10197.6
1006.67	5437.66
1009.56	4353.03
1012.45	5679.13
1015.35	8416.23
1018.24	8848.46
1021.13	5851.16
1024.02	3603.02
1026.92	2595.37
1029.81	2368.03
1032.7	2661.64
1035.6	3523.29
1038.49	4296.38
1041.38	4524.29
1044.27	3799.58
1047.17	2703.54
1050.06	1711.38
1052.95	1079.37
1055.84	699.406
1058.74	431.278
1061.63	361.695
1064.52	377.042
1067.41	511.198
1070.31	653.728
1073.2	756.457
1076.09	732.652
1078.98	582.632
1081.88	392.161
1084.77	189.455
1087.66	120.191
1090.56	74.869
1093.45	50.2535
1096.34	47.1942
1099.23	62.1765
1102.13	106.479
1105.02	175.427
1107.91	285.894
1110.81	526.654
1113.7	766.414
1116.59	923.222
1119.48	1012.41
1122.38	1029.56
1125.27	975.723
1128.16	846.138
1131.05	378.573
1133.95	245.946
1136.84	264.865
1139.73	288.672
1142.62	389.269
1145.52	475.488
1148.41	556.596
1151.3	564.511
1154.19	504.844
1157.09	413.176
1159.98	392.137
1162.87	477.763
1165.77	641.017
1168.66	932.963
1171.55	1490.6
1174.44	2081.44
1177.34	2391.01
1180.23	2097.14
1183.12	1409.05
1186.02	811.274
1188.91	364.95
1191.8	141.755
1194.69	37.6118
1197.59	6.80689
1200.48	7.00574
1203.37	28.0264
1206.26	16.8321
1209.16	27.2383
1212.05	79.3649
1214.94	196.508
1217.84	340.789
1220.73	378.954
1223.62	296.709
1226.51	162.764
1229.41	56.5668
1232.3	17.9547
1235.19	0.17926
