Measurement: Raman, 780 nm, unoriented, Raman Data Processed
Mineral: Botryogen
Rruff sample: R070581
Ideal chemistry: MgFe^3+^(SO_4_)_2_(OH)7H_2_O
Locality: Redington mine, Knoxville, Napa County, California, USA
Source: James Shigley
Description: Red-orange aggregate of pseudo-rhombohedral crystals
Measured chemistry: (Mg_0.99_Mn_0.01_)_Σ=1_(Fe^3+^_0.97_Al_0.03_)_Σ=1_(S_1.00_O_4_)_2_(OH)·7H_2_O; OH estimated by charge balance; H_2_O by difference
Raman shift (cm-1)	intensity
152.655	0
155.548	17.9541
158.441	68.9204
161.334	47.4258
164.226	233.296
167.119	413.169
170.012	538.391
172.904	637.106
175.797	846.332
178.69	931.181
181.583	1082.87
184.475	1269.19
187.368	1510.49
190.261	1878.74
193.153	2156.91
196.046	2436.85
198.939	2617.27
201.831	2925.22
204.724	3165.2
207.617	3344.36
210.51	3282.04
213.402	3205.34
216.295	3045.38
219.188	3031.18
222.08	3220.92
224.973	3610.71
227.866	4174.38
230.758	4918.65
233.651	5478.36
236.544	5925.9
239.436	5705.5
242.329	5141.19
245.222	4442.31
248.115	3521.74
251.007	2663.08
253.9	1850.6
256.793	1275.05
259.685	986.314
262.578	897.924
265.471	959.464
268.363	859.086
271.256	589.719
274.149	315.205
277.042	82.6943
279.934	76.6025
282.827	121.398
285.72	73.0454
288.613	54.0698
291.505	32.2183
294.398	29.25
297.291	45.3101
300.183	90.5762
303.076	120.398
305.969	146.26
308.861	226.808
311.754	265.656
314.647	436.156
317.539	483.102
320.432	646.295
323.325	841.038
326.218	1089.56
329.11	1379.55
332.003	1654.47
334.896	1998.51
337.788	2322.62
340.681	2509.25
343.574	2645.28
346.466	2751.56
349.359	2678.54
352.252	2383.74
355.145	2091.14
358.037	1771.76
360.93	1550.96
363.823	1466.95
366.715	1417.18
369.608	1447.08
372.501	1488.24
375.394	1736.34
378.286	1977.68
381.179	2003.75
384.072	2124.76
386.964	1955.26
389.857	1686.55
392.75	1470.43
395.642	1196.71
398.535	880.238
401.428	710.188
404.32	476.818
407.213	330.215
410.106	126.963
412.999	15.8203
415.891	66.7529
418.784	97.1919
421.677	52.6172
424.569	2.47705
427.462	99.2978
430.355	397.373
433.248	807.427
436.14	1372.35
439.033	2292.72
441.926	3256.23
444.818	4498.64
447.711	5804.84
450.604	6474.27
453.496	6446.97
456.389	5827.52
459.282	4778.22
462.175	3789.82
465.067	2899.12
467.96	2214.79
470.853	1687.51
473.745	1245.76
476.638	985.588
479.531	896.088
482.423	834.749
485.316	982.18
488.209	1311.82
491.101	1589.52
493.994	1896.93
496.887	1963.13
499.78	1704.82
502.672	1290.47
505.565	807.648
508.458	386.998
511.35	165.491
514.243	10.5093
517.136	22.2954
520.029	69.8023
522.921	35.3169
525.814	14.7144
528.707	112.885
531.599	241.546
534.492	476.229
537.385	711.178
540.278	1130.08
543.17	1590.64
546.063	2230.66
548.956	3158.78
551.848	4162.71
554.741	5263.95
557.634	6255.79
560.526	6726.56
563.419	6286.78
566.312	5254.8
569.205	3779.23
572.097	2572.89
574.99	1653.45
577.883	1064.69
580.775	732.296
583.668	538.315
586.561	430.038
589.453	448.31
592.346	529.807
595.239	660.548
598.131	654.134
601.024	848.474
603.917	1053.79
606.81	1152.11
609.702	1324.41
612.595	1328.51
615.488	1300.52
618.38	1155.83
621.273	819.148
624.166	525.859
627.058	327.922
629.951	72.6101
632.844	5.00586
635.737	67.2795
638.629	37.8372
641.522	7.07129
644.415	43.3772
647.307	86.908
650.2	76.3025
653.093	168.34
655.986	119.997
658.878	167.44
661.771	125.027
664.664	119.854
667.556	174.081
670.449	200.451
673.342	186.09
676.234	210.255
679.127	196.84
682.02	153.566
684.913	159.473
687.805	138.706
690.698	96.074
693.591	49.9089
696.483	81.1741
699.376	19.9353
702.269	9.99585
705.161	19.9526
708.054	13.2422
710.947	12.3433
713.84	40.283
716.732	69.0205
719.625	37.4978
722.518	7.09961
725.41	26.2888
728.303	31.3745
731.196	49.8518
734.088	43.197
736.981	29.7544
739.874	29.3547
742.766	29.1064
745.659	46.2595
748.552	58.5823
751.445	58.0708
754.337	86.7927
757.23	53.3999
760.123	59.6836
763.015	67.3162
765.908	79.4341
768.801	14.2422
771.693	64.6287
774.586	18.1045
777.479	57.4363
780.372	28.5093
783.264	3.12329
786.157	1.61157
789.05	23.6289
791.942	29.8264
794.835	49.7336
797.728	20.3574
800.62	30.7314
803.513	6.4397
806.406	34.9531
809.299	34.1855
812.191	22.8855
815.084	11.5903
817.977	57.0271
820.87	31.9053
823.762	30.416
826.655	34.644
829.548	49.7119
832.44	54.9846
835.333	33.3513
838.226	45.8618
841.118	7.43115
844.011	33.2385
846.904	9.979
849.797	24.8701
852.689	16.8877
855.582	22.8318
858.475	24.9131
861.367	32.1521
864.26	31.6062
867.153	14.0195
870.045	19.8367
872.938	10.0708
875.831	69.3794
878.723	27.9697
881.616	10.8867
884.509	75.3596
887.402	107.068
890.294	68.5994
893.187	52.136
896.08	38.5115
898.972	101.077
901.865	82.5227
904.758	103.464
907.65	116.894
910.543	90.4673
913.436	129.307
916.329	108.57
919.221	88.7854
922.114	93.9492
925.007	98.2659
927.899	42.7832
930.792	80.0601
933.685	51.207
936.577	45.4429
939.47	17.8157
942.363	6.23999
945.256	35.0615
948.148	21.2344
951.041	3.64575
953.934	8.3186
956.826	15.6907
959.719	48.3928
962.612	8.57886
965.505	15.7261
968.397	14.7754
971.29	27.1331
974.183	18.9883
977.075	89.4792
979.968	165.843
982.861	339.178
985.754	586.575
988.646	1192.35
991.539	2824.43
994.432	5405.1
997.324	9353.01
1000.22	12970.2
1003.11	9385.61
1006	6445.56
1008.89	6774.49
1011.79	8952.63
1014.68	11211.2
1017.57	10057
1020.47	6705.44
1023.36	4590.25
1026.25	3976.74
1029.14	4280.35
1032.04	5171.6
1034.93	6174.8
1037.82	6707.23
1040.71	6230.4
1043.61	4942.36
1046.5	3463.86
1049.39	2360.61
1052.29	1519.66
1055.18	1046.47
1058.07	765.284
1060.96	663.352
1063.86	594.667
1066.75	633.894
1069.64	737.795
1072.54	612.143
1075.43	446.586
1078.32	275.396
1081.21	80.3721
1084.11	6.93481
1087	97.7864
1089.89	70.1162
1092.78	15.7122
1095.68	18.2727
1098.57	163.252
1101.46	392.443
1104.35	630.411
1107.25	1021.63
1110.14	1447.42
1113.03	1747.64
1115.92	1939.17
1118.82	1921.07
1121.71	1599.79
1124.6	1232.73
1127.5	877.221
1130.39	651.266
1133.28	472.326
1136.17	420.462
1139.07	512.585
1141.96	622.096
1144.85	649.404
1147.74	691.023
1150.64	663.988
1153.53	595.67
1156.42	547.382
1159.32	595.983
1162.21	733.964
1165.1	1117.19
1167.99	1639.13
1170.89	2274.71
1173.78	2891.56
1176.67	3032.4
1179.56	2462.42
1182.46	1580.5
1185.35	794.538
1188.24	348.597
1191.13	110.626
1194.03	40.4958
1196.92	39.6406
1199.81	35.6113
1202.71	3.86084
1205.6	67.7835
1208.49	116.716
1211.38	315.942
1214.28	465.303
1217.17	589.558
1220.06	547.083
1222.95	400.749
1225.85	154.393
1228.74	69.2549
1231.63	15.5459
1234.53	4.88989
1237.42	2.90918
1240.31	26.7044
1243.2	4.72656
1246.1	37.3667
1248.99	32.1838
1251.88	97.4861
1254.78	110.315
1257.67	146.953
1260.56	138.547
1263.45	98.9539
1266.35	69.5154
1269.24	89.5081
1272.13	97.4802
1275.02	65.6682
1277.92	37.5764
1280.81	9.85767
1283.7	0
