Measurement: Raman, 532 nm, unoriented, Raman Data Processed
Mineral: Botryogen
Rruff sample: R070362
Ideal chemistry: MgFe^3+^(SO_4_)_2_(OH)7H_2_O
Locality: Queténa Mine, Calama, El Loa Province, Antofagasta Region, Chile
Source: Michael Scott
Description: Aggregate of orange pseudo-rhombohedral crystals
Measured chemistry: Mg_1.00_(Fe^3+^_0.90_Al_0.10_)_Σ=1_(S_1.00_O_4_)_2_(OH)·7H_2_O; OH estimated by charge balance; H_2_O by difference
Raman shift (cm-1)	intensity
131.823	0
135.198	125.983
138.573	243.377
141.948	168.316
145.323	36.5516
148.698	12.2087
152.072	29.4443
155.447	93.0765
158.822	178.934
162.197	329.666
165.572	419.969
168.946	561.429
172.321	782.901
175.696	1002.12
179.071	1152.02
182.446	1206.09
185.821	1320.88
189.195	1533.82
192.57	1894.14
195.945	2137.16
199.32	2362.87
202.695	2478.01
206.07	2506.81
209.444	2432.97
212.819	2263.15
216.194	2106.27
219.569	2035.63
222.944	2075.87
226.318	2313.3
229.693	2782.51
233.068	3317.73
236.443	3580.49
239.818	3443.03
243.192	3013.24
246.567	2425.11
249.942	1863.13
253.317	1301.5
256.692	918.302
260.067	765.264
263.441	773.096
266.816	804.767
270.191	721.809
273.566	467.878
276.941	193.797
280.315	87.6497
283.69	50.5934
287.065	28.4348
290.44	15.0116
293.815	-1.39324
297.19	-4.55299
300.564	2.53086
303.939	23.9755
307.314	47.0726
310.689	73.156
314.064	116.907
317.438	195.304
320.813	258.966
324.188	360.517
327.563	500.577
330.938	693.481
334.313	875.494
337.687	1057.44
341.062	1248.64
344.437	1432.72
347.812	1460.94
351.187	1413.53
354.562	1288.11
357.936	1084.65
361.311	1051.77
364.686	1001.27
368.061	1130.06
371.436	1258.88
374.81	1507.67
378.185	1732.89
381.56	1950.84
384.935	1947.35
388.31	1810.28
391.685	1514.46
395.059	1208.87
398.434	914.855
401.809	653.179
405.184	437.505
408.559	271.547
411.933	112.37
415.308	36.5585
418.683	0.356716
422.058	-9.2514
425.433	20.0448
428.808	73.0218
432.182	191.899
435.557	477.57
438.932	843.33
442.307	1349.23
445.682	2014.86
449.056	2585.93
452.431	2857.81
455.806	2658.16
459.181	2327.47
462.556	1879.34
465.93	1467.89
469.305	1112.12
472.68	851.399
476.055	718.748
479.43	736.643
482.805	934.324
486.179	1350.28
489.554	1930.95
492.929	2425.8
496.304	2740.1
499.679	2460.27
503.053	1806.96
506.428	1126.81
509.803	595.946
513.178	260.005
516.553	127.6
519.928	67.3074
523.302	32.6069
526.677	35.808
530.052	61.69
533.427	116.667
536.802	265.125
540.177	465.561
543.551	798.337
546.926	1231.53
550.301	1894.68
553.676	2665.9
557.051	3458.78
560.425	3874.16
563.8	3753.34
567.175	2915.33
570.55	1897.04
573.925	1159.48
577.299	741.668
580.674	489.185
584.049	370.023
587.424	375.568
590.799	458.427
594.174	534.432
597.548	665.322
600.923	781.017
604.298	945.294
607.673	1032.78
611.048	988.127
614.423	910.845
617.797	796.548
621.172	578.362
624.547	361.871
627.922	212.001
631.297	70.4288
634.671	35.3238
638.046	23.3711
641.421	9.21452
644.796	15.8535
648.171	17.6411
651.545	33.2037
654.92	58.4969
658.295	82.7521
661.67	81.2256
665.045	101.884
668.42	99.992
671.794	147.446
675.169	181.946
678.544	172.052
681.919	158.033
685.294	127.205
688.668	129.849
692.043	112.021
695.418	70.6491
698.793	48.7834
702.168	18.2112
705.543	16.1057
708.917	16.9992
712.292	22.0108
715.667	23.9982
719.042	3.39148
722.417	23.3691
725.792	25.9879
729.166	21.9943
732.541	4.96783
735.916	12.2895
739.291	29.6299
742.666	0.866028
746.04	18.8778
749.415	17.3346
752.79	14.157
756.165	4.22192
759.54	17.4636
762.915	16.659
766.289	0.239868
769.664	6.20019
773.039	10.9947
776.414	0.727173
779.789	15.3652
783.163	16.5228
786.538	0.604553
789.913	19.2136
793.288	25.9172
796.663	19.5096
800.038	28.5254
803.412	16.1161
806.787	26.4817
810.162	20.2146
813.537	29.3846
816.912	26.5042
820.286	35.7324
823.661	27.7369
827.036	21.6798
830.411	20.9632
833.786	25.6844
837.16	0.012024
840.535	11.8156
843.91	22.2834
847.285	8.67181
850.66	24.3078
854.035	1.40802
857.409	8.13873
860.784	7.29627
864.159	30.2943
867.534	27.3677
870.909	36.6229
874.284	37.832
877.658	19.8564
881.033	50.8258
884.408	61.3912
887.783	63.4898
891.158	74.9324
894.533	72.6858
897.907	94.413
901.282	100.05
904.657	118.452
908.032	119.516
911.407	124.986
914.781	112.556
918.156	101.296
921.531	95.8527
924.906	89.9448
928.281	68.8157
931.655	71.3634
935.03	47.451
938.405	36.2266
941.78	28.2868
945.155	17.4353
948.529	1.83441
951.904	4.40533
955.279	24.5521
958.654	21.9217
962.029	33.7982
965.404	29.7808
968.778	7.06989
972.153	79.2948
975.528	291.399
978.903	606.329
982.278	1016.83
985.653	744.99
989.027	1078.25
992.402	2846.44
995.777	6071.61
999.152	10296.1
1002.53	10282.8
1005.9	4900.84
1009.28	4364.78
1012.65	5855.49
1016.03	7221.77
1019.4	5249.9
1022.78	3162.28
1026.15	2544.7
1029.53	2920.48
1032.9	3779.07
1036.28	4686.84
1039.65	4908
1043.02	4081.68
1046.4	2774.68
1049.77	1707.68
1053.15	1066.23
1056.52	674.333
1059.9	530.968
1063.27	519.264
1066.65	618.849
1070.02	790.73
1073.4	841.89
1076.77	731.029
1080.15	465.892
1083.52	222.213
1086.9	49.7413
1090.27	5.13035
1093.65	3.43596
1097.02	30.2478
1100.4	114.138
1103.77	305.201
1107.15	606.37
1110.52	1010.34
1113.9	1268.04
1117.27	1402.32
1120.64	1173.23
1124.02	818.272
1127.39	518.308
1130.77	316.604
1134.14	185.038
1137.52	160.659
1140.89	252.014
1144.27	343.201
1147.64	346.911
1151.02	304.309
1154.39	223.722
1157.77	266.669
1161.14	414.313
1164.52	800.732
1167.89	1534.61
1171.27	2486.6
1174.64	3398.18
1178.02	3447.37
1181.39	2563.36
1184.77	1460.85
1188.14	784.033
1191.52	425.787
1194.89	284.797
1198.27	247.36
1201.64	213.782
1205.02	255.438
1208.39	376.788
1211.77	548.055
1215.14	807.001
1218.52	899.413
1221.89	693.379
1225.27	366.253
1228.64	146.845
1232.01	48.2979
1235.39	23.7874
1238.76	8.13456
1242.14	-2.91373
1245.51	1.20613
1248.89	6.03069
1252.26	23.9849
1255.64	57.4091
1259.01	98.1997
1262.39	122.216
1265.76	191.755
1269.14	212.171
1272.51	194.567
1275.89	135.716
1279.26	97.104
1282.64	99.9183
1286.01	91.1159
1289.39	51.4239
1292.76	26.0333
1296.14	6.21008
1299.51	25.824
1302.88	3.35877
