Measurement: Raman, 780 nm, unoriented, Raman Data Processed
Mineral: Bottinoite
Rruff sample: R060263
Ideal chemistry: Ni^2+^Sb^5+^_2_(OH)_12_6H_2_O
Locality: Ramsbeck mine, Dornberg, Sauerland, Germany
Source: Michael Scott
Description: Spherical aggregate of pale greenish-blue tabular crystals
Measured chemistry: Ni^2+^_1.00_(Sb^5+^_1.99_As_0.01_)_Σ=2_(OH)_12_·1.2H_2_O ; = gray phase. (dehydrated bottinoite due to the electronic beam)
Raman shift (cm-1)	intensity
91.5332	0
94.908	17.2382
98.2828	14.1344
101.658	26.5725
105.032	4.96816
108.407	3.03717
111.782	23.4191
115.157	48.4541
118.532	41.8602
121.907	44.7908
125.281	53.2537
128.656	43.8299
132.031	21.4007
135.406	13.4567
138.781	10.5387
142.155	16.1114
145.53	18.5816
148.905	15.7507
152.28	4.24308
155.655	4.23747
159.03	1.67532
162.404	0.45874
165.779	0.68821
169.154	1.21477
172.529	4.40637
175.904	4.98067
179.278	7.6195
182.653	7.15159
186.028	12.9425
189.403	21.8834
192.778	26.7243
196.153	32.3488
199.527	36.9313
202.902	40.6472
206.277	43.9586
209.652	48.3187
213.027	54.4998
216.401	57.3082
219.776	54.9842
223.151	57.496
226.526	58.3103
229.901	61.7754
233.275	69.5366
236.65	67.8116
240.025	53.8901
243.4	36.2153
246.775	24.4116
250.15	19.6881
253.524	16.7955
256.899	4.9346
260.274	1.4687
263.649	5.26107
267.024	7.39574
270.399	3.49887
273.773	6.67858
277.148	27.1484
280.523	54.8277
283.898	81.783
287.273	120.058
290.647	156.09
294.022	198.254
297.397	237.387
300.772	270.873
304.147	277.032
307.522	264.216
310.896	256.919
314.271	256.863
317.646	269.071
321.021	286.345
324.396	311.552
327.77	350.339
331.145	402.378
334.52	439.153
337.895	429.586
341.27	381.177
344.644	319.774
348.019	267.586
351.394	231.962
354.769	206.658
358.144	185.179
361.519	168.418
364.893	144.58
368.268	121.88
371.643	90.5163
375.018	61.2476
378.393	34.8075
381.767	20.569
385.142	7.28032
388.517	1.83203
391.892	1.25994
395.267	2.76959
398.642	2.0815
402.016	0.323677
405.391	3.95702
408.766	7.31097
412.141	7.01369
415.516	8.03706
418.89	8.46586
422.265	7.20454
425.64	6.21667
429.015	2.44218
432.39	2.96561
435.765	4.13074
439.139	4.34703
442.514	4.02883
445.889	1.06988
449.264	2.66655
452.639	1.64656
456.014	0.300201
459.388	0.892075
462.763	1.42789
466.138	0.903763
469.513	0.132874
472.887	1.71923
476.262	3.03142
479.637	8.41281
483.012	17.4437
486.387	26.8869
489.762	36.7216
493.136	49.5855
496.511	60.065
499.886	66.69
503.261	64.7035
506.636	54.7925
510.01	42.9
513.385	34.6005
516.76	32.2784
520.135	22.4084
523.51	14.3523
526.885	8.33365
530.259	1.32999
533.634	3.77699
537.009	6.71834
540.384	8.83937
543.759	4.83064
547.134	0.752441
550.508	17.8074
553.883	35.6211
557.258	59.4766
560.633	91.5186
564.008	127.71
567.382	172.877
570.757	228.567
574.132	286.953
577.507	348.331
580.882	406.051
584.256	472.337
587.631	563.569
591.006	643.175
594.381	730.197
597.756	815.879
601.131	907.739
604.505	991.388
607.88	1093.96
611.255	1228.03
614.63	1400.26
618.005	1446.44
621.38	1304.12
624.754	1094.51
628.129	915.08
631.504	762.076
634.879	618.133
638.254	476.916
641.628	360.282
645.003	264.302
648.378	190.536
651.753	139.32
655.128	101.146
658.503	69.0651
661.877	50.0808
665.252	32.0003
668.627	20.9414
672.002	12.2945
675.377	4.20813
678.751	0.602371
682.126	0.744926
685.501	4.31842
688.876	6.16441
692.251	4.69796
695.625	4.24007
699	4.35178
702.375	0.353439
705.75	2.62554
709.125	4.06757
712.5	7.01383
715.874	10.9043
719.249	13.5357
722.624	16.9808
725.999	20.6497
729.374	20.208
732.749	20.8761
736.123	26.8161
739.498	27.6057
742.873	27.4945
746.248	25.7411
749.623	20.9744
752.997	20.4357
756.372	17.6165
759.747	11.942
763.122	10.0589
766.497	8.6797
769.871	8.97133
773.246	7.06673
776.621	1.66466
779.996	6.05282
783.371	5.36737
786.745	1.32181
790.12	4.29845
793.495	3.17976
796.87	4.81867
800.245	1.90436
803.62	3.52936
806.994	4.10305
810.369	3.61921
813.744	2.4443
817.119	2.64787
820.494	3.17807
823.869	2.86344
827.243	1.73528
830.618	4.38809
833.993	2.88025
837.368	0.040146
840.743	3.03106
844.117	0.034199
847.492	2.86434
850.867	3.84178
854.242	1.81101
857.617	1.00134
860.991	2.57924
864.366	3.34441
867.741	1.97819
871.116	1.31123
874.491	2.18814
877.866	2.92086
881.24	2.31244
884.615	0.13731
887.99	2.92337
891.365	0.429949
894.74	0.010284
898.115	0.576496
901.489	1.38763
904.864	2.54795
908.239	1.34422
911.614	0.096754
914.989	1.387
918.363	2.22998
921.738	0.823715
925.113	3.11294
928.488	0.949574
931.863	1.53077
935.237	2.43665
938.612	1.69072
941.987	1.77354
945.362	0.951784
948.737	1.32645
952.112	1.72386
955.486	1.72819
958.861	0.497282
962.236	2.01941
965.611	0.406898
968.986	2.30765
972.361	0.792601
975.735	1.75779
979.11	0.856148
982.485	0.201138
985.86	0.577488
989.235	1.72179
992.609	1.35379
995.984	0.307545
999.359	3.60967
1002.73	0.455721
1006.11	3.92477
1009.48	3.26292
1012.86	2.46873
1016.23	5.70542
1019.61	7.09684
1022.98	7.58822
1026.36	8.47662
1029.73	9.1043
1033.11	8.86844
1036.48	9.53786
1039.86	8.99627
1043.23	9.66518
1046.61	10.9496
1049.98	11.3571
1053.36	9.05095
1056.73	9.25185
1060.11	7.38321
1063.48	7.71081
1066.86	6.83838
1070.23	7.22117
1073.61	5.56815
1076.98	6.31094
1080.36	8.21251
1083.73	7.23954
1087.1	6.36174
1090.48	4.29484
1093.85	4.58856
1097.23	2.78823
1100.6	2.91759
1103.98	3.62134
1107.35	4.112
1110.73	4.61743
1114.1	5.85581
1117.48	2.5412
1120.85	6.13003
1124.23	0.709091
1127.6	0.316963
1130.98	0.447622
1134.35	2.47829
1137.73	1.0865
1141.1	1.3157
1144.48	1.25346
1147.85	1.34775
1151.23	3.27074
1154.6	0.692249
1157.97	4.5174
1161.35	3.29691
1164.72	3.32849
1168.1	2.138
1171.47	3.00244
1174.85	3.75096
1178.22	4.37153
1181.6	3.50073
1184.97	3.1981
1188.35	1.55374
1191.72	3.49428
1195.1	1.92718
1198.47	3.1849
1201.85	0.501329
1205.22	0.649185
1208.6	1.44789
1211.97	0.240221
1215.35	1.58896
1218.72	1.20028
1222.1	1.1189
1225.47	1.49298
1228.85	0.88373
1232.22	0.39152
1235.6	1.40146
1238.97	0.370193
1242.35	2.85329
1245.72	0.577425
1249.1	1.2537
1252.47	2.82848
1255.85	3.36103
1259.22	2.17706
1262.6	1.42872
1265.97	5.9441
1269.34	3.26971
1272.72	2.81792
1276.09	0.621593
1279.47	2.554
1282.84	0.59359
