Measurement: Raman, 532 nm, unoriented, Raman Data Processed
Mineral: Bottinoite
Rruff sample: R060263
Ideal chemistry: Ni^2+^Sb^5+^_2_(OH)_12_6H_2_O
Locality: Ramsbeck mine, Dornberg, Sauerland, Germany
Source: Michael Scott
Description: Spherical aggregate of pale greenish-blue tabular crystals
Measured chemistry: Ni^2+^_1.00_(Sb^5+^_1.99_As_0.01_)_Σ=2_(OH)_12_·1.2H_2_O ; = gray phase. (dehydrated bottinoite due to the electronic beam)
Raman shift (cm-1)	intensity
90.4922	0
93.867	3.45375
97.2418	10.304
100.617	20.173
103.992	27.8188
107.366	32.5767
110.741	46.3038
114.116	68.879
117.491	49.5535
120.865	33.3353
124.24	31.9343
127.615	5.39381
130.99	6.28052
134.365	9.54992
137.74	3.31895
141.114	27.1023
144.489	42.4149
147.864	68.7005
151.239	104.019
154.614	126.055
157.988	136.757
161.363	152.214
164.738	172.619
168.113	179.313
171.488	181.713
174.863	171.53
178.237	165.114
181.612	154.531
184.987	151.851
188.362	147.954
191.737	151.191
195.112	152.156
198.486	154.097
201.861	149.197
205.236	137.912
208.611	140.897
211.986	147.434
215.36	159.024
218.735	164.799
222.11	175.175
225.485	186.803
228.86	207.768
232.234	229.474
235.609	241.767
238.984	217.506
242.359	160.914
245.734	115.299
249.109	105.867
252.483	105.506
255.858	76.6843
259.233	29.0507
262.608	4.42542
265.983	20.3148
269.358	20.4914
272.732	12.7097
276.107	16.049
279.482	75.3348
282.857	153.658
286.232	245.962
289.606	373.619
292.981	500.979
296.356	630.406
299.731	783.582
303.106	900.086
306.481	867.502
309.855	830.353
313.23	855.141
316.605	886.751
319.98	896.603
323.355	915.794
326.729	936.539
330.104	1006.17
333.479	1092.63
336.854	1124.36
340.229	1055.11
343.603	894.847
346.978	737.73
350.353	604.349
353.728	501.748
357.103	420.95
360.478	334.382
363.852	267.331
367.227	209.755
370.602	155.739
373.977	104.75
377.352	65.0054
380.726	34.865
384.101	15.0734
387.476	1.88086
390.851	5.84271
394.226	7.05371
397.601	5.30457
400.975	2.9154
404.35	9.11606
407.725	23.1514
411.1	36.2177
414.475	38.7808
417.849	43.8325
421.224	35.3292
424.599	29.2007
427.974	25.2104
431.349	19.5615
434.724	18.6666
438.098	16.8862
441.473	17.0824
444.848	9.92105
448.223	6.68063
451.598	4.04117
454.972	1.13107
458.347	1.9491
461.722	2.34433
465.097	1.62408
468.472	0.400085
471.846	3.11539
475.221	1.21777
478.596	9.47363
481.971	25.7822
485.346	49.9286
488.721	75.8746
492.095	106.976
495.47	144.969
498.845	176.095
502.22	198.673
505.595	193.749
508.969	173.285
512.344	145.205
515.719	131.109
519.094	107.305
522.469	88.8375
525.844	67.9806
529.218	46.0951
532.593	10.2277
535.968	11.2079
539.343	24.5055
542.718	23.7082
546.092	12.4595
549.467	11.1072
552.842	58.3663
556.217	125.936
559.592	200.37
562.967	301.049
566.341	435.202
569.716	585.245
573.091	767.7
576.466	953.582
579.841	1141.24
583.216	1362.82
586.59	1645.61
589.965	1957.44
593.34	2291.03
596.715	2599.78
600.09	2889.25
603.464	3171.96
606.839	3457.26
610.214	3880
613.589	4456.67
616.964	4938.76
620.338	4877.73
623.713	4264.06
627.088	3559.61
630.463	2982.13
633.838	2463.64
637.212	1953.18
640.587	1488.42
643.962	1096.44
647.337	803.669
650.712	579.921
654.087	418.045
657.461	295.852
660.836	200.908
664.211	135.964
667.586	82.3119
670.961	51.4172
674.335	25.2138
677.71	5.06354
681.085	3.87708
684.46	12.2839
687.835	17.7105
691.21	15.5895
694.584	11.3439
697.959	8.0274
701.334	3.5282
704.709	4.8172
708.084	12.9708
711.458	23.9887
714.833	33.0608
718.208	39.6552
721.583	49.6088
724.958	62.8142
728.332	72.7263
731.707	79.6455
735.082	83.6568
738.457	91.2378
741.832	92.6816
745.207	90.5056
748.581	80.4528
751.956	67.6514
755.331	60.2833
758.706	46.1323
762.081	33.0978
765.456	30.8942
768.83	27.1203
772.205	18.1323
775.58	17.8777
778.955	15.2764
782.33	11.0272
785.704	14.0588
789.079	12.0754
792.454	11.7748
795.829	11.1146
799.204	7.17673
802.578	8.69702
805.953	4.20703
809.328	7.03076
812.703	2.67432
816.078	4.15048
819.453	6.20792
822.827	4.61459
826.202	6.62497
829.577	5.45435
832.952	9.0621
836.327	7.32407
839.702	4.09393
843.076	4.15045
846.451	6.79398
849.826	2.47961
853.201	5.94827
856.576	3.50247
859.95	3.34558
863.325	0.345367
866.7	0.638977
870.075	3.6416
873.45	1.22409
876.824	2.37454
880.199	1.21719
883.574	0.713074
886.949	2.11725
890.324	0.807129
893.698	1.65622
897.073	2.28064
900.448	0.329071
903.823	1.08518
907.198	2.94171
910.573	0.47229
913.947	1.99857
917.322	2.61478
920.697	1.88443
924.072	2.26279
927.447	4.19403
930.822	3.28317
934.196	2.73114
937.571	0.155121
940.946	0.273346
944.321	0.281036
947.696	1.6835
951.07	0.075958
954.445	0.758118
957.82	2.25491
961.195	3.64551
964.57	0.095886
967.944	0.399597
971.319	1.09933
974.694	0.895996
978.069	2.78778
981.444	1.50851
984.819	0.773468
988.193	3.26285
991.568	3.37134
994.943	0.091644
998.318	0.461212
1001.69	1.64087
1005.07	2.91208
1008.44	5.15234
1011.82	1.52747
1015.19	6.77682
1018.57	6.85797
1021.94	8.99451
1025.32	10.3583
1028.69	18.2294
1032.07	18.9195
1035.44	20.4764
1038.82	18.9177
1042.19	21.7295
1045.57	20.8326
1048.94	22.0218
1052.32	21.4115
1055.69	20.6917
1059.07	24.4609
1062.44	17.9512
1065.81	17.3924
1069.19	17.1259
1072.56	18.9113
1075.94	21.7354
1079.31	19.1061
1082.69	18.2312
1086.06	17.3401
1089.44	12.8136
1092.81	11.3509
1096.19	7.77686
1099.56	6.72095
1102.94	5.00797
1106.31	7.71878
1109.69	5.55206
1113.06	3.64648
1116.44	3.2822
1119.81	7.72995
1123.19	3.52887
1126.56	0.58252
1129.94	1.05493
1133.31	3.38031
1136.68	0.355865
1140.06	0.936279
1143.43	4.55148
1146.81	9.81161
1150.18	12.3033
1153.56	14.9768
1156.93	20.1284
1160.31	21.8914
1163.68	21.616
1167.06	23.0421
1170.43	23.6516
1173.81	18.4015
1177.18	18.615
1180.56	12.9674
1183.93	10.9153
1187.31	10.788
1190.68	9.78214
1194.06	6.45395
1197.43	6.176
1200.81	6.85889
1204.18	5.49759
1207.56	4.5791
1210.93	2.10388
1214.31	2.18195
1217.68	5.84387
1221.06	1.90985
1224.43	0.615173
1227.81	1.5098
1231.18	1.75369
1234.56	3.77634
1237.93	1.55591
1241.31	0.630035
1244.68	1.1835
1248.05	3.02066
1251.43	7.30136
1254.8	5.62769
1258.18	3.52087
1261.55	4.67676
1264.93	1.88428
1268.3	4.55685
1271.68	5.94125
1275.05	2.60651
1278.43	3.85275
1281.8	1.80878
1285.18	0.69751
1288.55	1.34787
1291.93	1.35599
1295.3	0.783325
1298.68	3.46317
1302.05	0.645569
