Measurement: Raman, 532 nm, unoriented, Raman Data Processed
Mineral: Boulangerite
Rruff sample: R050436
Ideal chemistry: Pb_5_Sb_4_S_11_
Locality: Noche Buena mine, Noche Buena, Municipio de Mazapil, Zacatecas, Mexico
Source: University of Arizona Mineral Museum
Description: Mass of lead-gray acicular crystals
Measured chemistry: Pb_5.00_Sb_4.00_S_11.00_
Raman shift (cm-1)	intensity
152.859	0
155.752	137.637
158.645	43.843
161.538	141.219
164.43	167.236
167.323	187.429
170.216	130.021
173.108	73.977
176.001	141.12
178.894	105.033
181.786	109.013
184.679	132.759
187.572	104.28
190.464	55.923
193.357	39.12
196.25	0.02
199.143	31.845
202.035	39.834
204.928	59.636
207.821	48.821
210.713	33.87
213.606	27.471
216.499	8.893
219.391	13.43
222.284	9.611
225.177	64.44
228.07	98.809
230.962	113.029
233.855	85.459
236.748	147.905
239.64	109.571
242.533	199.539
245.426	236.913
248.318	366.907
251.211	340.815
254.104	347.499
256.997	392.695
259.889	529.1
262.782	595.048
265.675	706.528
268.567	746.813
271.46	805.79
274.353	833.838
277.246	934.455
280.138	907.457
283.031	1061.37
285.924	1062.61
288.816	1128.68
291.709	1148.56
294.602	1129.66
297.494	1209.64
300.387	1190.17
303.28	1241.33
306.173	1151.9
309.065	1073.03
311.958	722.643
314.851	618.875
317.743	509.255
320.636	464.152
323.529	439.291
326.422	341.127
329.314	371.472
332.207	337.459
335.1	376.957
337.992	407.975
340.885	449.382
343.778	411.447
346.67	387.231
349.563	301.748
352.456	361.622
355.349	364.193
358.241	233.821
361.134	202.415
364.027	142.775
366.919	43.404
369.812	59.146
372.705	35.815
375.597	13.659
378.49	3.642
381.383	23.635
384.276	31.257
387.168	7.05
390.061	66.569
392.954	32.648
395.846	57.6
398.739	26.766
401.632	22.4
404.524	47.906
407.417	139.348
410.31	270.468
413.203	359.71
416.095	464.563
418.988	644.332
421.881	821.592
424.773	1084.33
427.666	1227.62
430.559	1433.34
433.451	1587
436.344	1551.02
439.237	1521.81
442.129	1552.75
445.022	1424.76
447.915	1403.45
450.808	1389.54
453.7	1222.04
456.593	1090.57
459.486	1007.88
462.379	897.982
465.271	866.299
468.164	793.987
471.057	764.983
473.949	667.594
476.842	578.246
479.735	629.653
482.627	575.165
485.52	568.494
488.413	569.705
491.306	510.417
494.198	495.285
497.091	466.069
499.984	476.457
502.876	470.085
505.769	417.395
508.662	418.703
511.554	408.01
514.447	339.256
517.34	250.362
520.232	173.198
523.125	137.063
526.018	95.67
528.911	26.806
531.803	10.91
534.696	84.272
537.589	76.99
540.481	63.324
543.374	10.744
546.267	16.598
549.159	31.135
552.052	16.696
554.945	114.371
557.838	87.026
560.73	163.422
563.623	211.56
566.516	270.756
569.408	334.338
572.301	389.265
575.194	481.811
578.086	549.528
580.979	684.126
583.872	889.152
586.765	1118.46
589.657	1300.37
592.55	1425.47
595.443	1730.46
598.335	1907.21
601.228	2232.23
604.121	2576.52
607.013	2810
609.906	2993.98
612.799	3327.41
615.692	3447.07
618.584	3572.03
621.477	3654.91
624.37	3539.09
627.263	3495.41
630.155	3282.61
633.048	3023.13
635.941	2876.47
638.833	2632.67
641.726	2425.89
644.619	2247.89
647.511	1958.42
650.404	1633.23
653.297	1366.54
656.19	1104.91
659.082	932.167
661.975	801.833
664.868	636.537
667.76	457.888
670.653	396.768
673.546	353
676.438	320.083
679.331	212.803
682.224	141.323
685.117	207.119
688.009	97.178
690.902	93.916
693.795	115.567
696.687	117.275
699.58	53.821
702.473	7.659
705.365	25.81
708.258	52.249
711.151	18.346
714.044	25.381
716.936	10.624
719.829	6.383
722.722	12.106
725.614	49.543
728.507	12.687
731.4	47.53
734.292	47.843
737.185	1.619
740.078	59.131
742.971	15.318
745.863	19.231
748.756	26.076
751.649	50.451
754.541	74.272
757.434	101.29
760.327	59.002
763.219	13.079
766.112	105.094
769.005	72.213
771.898	85.756
774.79	50.427
777.683	6.44
780.576	74.939
783.468	50.599
786.361	132.043
789.254	128.136
792.146	174.013
795.039	213.059
797.932	209.38
800.825	216.114
803.717	209.813
806.61	218.258
809.503	220.845
812.395	230.932
815.288	239.555
818.181	250.895
821.073	241.974
823.966	189.689
826.859	236.16
829.752	190.723
832.644	209.932
835.537	156.875
838.43	166.466
841.322	130.115
844.215	87.118
847.108	135.517
850	99.73
852.893	35.698
855.786	110.981
858.679	54.891
861.571	7.751
864.464	9.563
867.357	5.484
870.25	7.691
873.142	3.337
876.035	8.593
878.928	8.717
881.82	27.815
884.713	14.819
887.606	2.168
890.498	11.146
893.391	4.156
896.284	11.77
899.177	25.089
902.069	21.499
904.962	11.25
907.855	12.548
910.747	14.209
913.64	33.004
916.533	56.393
919.425	69.104
922.318	70.727
925.211	101.078
928.104	173.179
930.996	242.198
933.889	266.348
936.782	363.043
939.674	462.354
942.567	683.829
945.46	875.67
948.352	1172.53
951.245	1486.89
954.138	1910.73
957.031	2164.75
959.923	2450.45
962.816	2559.76
965.709	2420.35
968.601	2097.31
971.494	1636.1
974.387	1207.7
977.279	867.146
980.172	645.795
983.065	460.756
985.958	351.704
988.85	201.626
991.743	145.18
994.636	86.725
997.528	79.11
1000.42	75.238
1003.31	62.926
1006.21	51.857
1009.1	35.116
1011.99	16.066
1014.88	10.047
1017.78	0.948
1020.67	18.05
1023.56	10.128
1026.45	5.597
1029.35	14.544
1032.24	4.65
1035.13	80.844
1038.03	59.44
1040.92	65.632
1043.81	75.274
1046.7	76.668
1049.6	39.852
1052.49	46.639
1055.38	42.334
1058.28	16.519
1061.17	35.468
1064.06	4.082
1066.95	43.382
1069.85	28.324
1072.74	27.49
1075.63	75.662
1078.52	33.704
1081.42	32.542
1084.31	53.51
1087.2	34.537
1090.1	33.763
1092.99	6.86
1095.88	30.172
1098.77	69.397
1101.67	49.646
1104.56	39.766
1107.45	46.102
1110.34	75.128
1113.24	7.655
1116.13	74.212
1119.02	93.521
1121.91	97.571
1124.81	47.212
1127.7	78.943
1130.59	96.275
1133.48	67.841
1136.38	90.371
1139.27	93.479
1142.16	34.894
1145.06	67.947
1147.95	52.981
1150.84	112.966
1153.73	111.25
1156.63	112.569
1159.52	103.331
1162.41	49.631
1165.31	58.483
1168.2	0.368
1171.09	19.015
1173.98	43.941
1176.88	85.523
1179.77	72.514
1182.66	58.338
1185.55	59.022
1188.45	32.209
1191.34	81.53
1194.23	94.611
1197.12	120.67
1200.02	48.318
1202.91	49.783
1205.8	1.298
1208.7	70.272
1211.59	10.621
1214.48	96.172
1217.37	41.134
1220.27	38.85
1223.16	44.253
1226.05	113.796
1228.94	64.562
1231.84	86.835
1234.73	75.231
1237.62	30.101
1240.52	34.183
1243.41	61.943
1246.3	104.54
1249.19	24.49
1252.09	68.056
1254.98	45.811
1257.87	61.844
1260.76	70.978
1263.66	83.056
1266.55	74.431
1269.44	89.466
1272.34	45.719
1275.23	38.683
1278.12	26.411
1281.01	107.764
1283.91	50.514
1286.8	44.464
1289.69	83.875
1292.58	77.38
1295.48	35.283
1298.37	17.046
