Measurement: Raman, 514 nm, unoriented, Raman Data Processed
Mineral: Boulangerite
Rruff sample: R050441
Ideal chemistry: Pb_5_Sb_4_S_11_
Locality: Sullivan mine, Kimberley, British Columbia, Canada
Source: University of Arizona Mineral Museum
Description: Lead-gray metallic massive
Measured chemistry: Pb_5.00_(Sb_3.99_As_0.01_)_Î£=4_S_11.00_
Raman shift (cm-1)	intensity
91.981	0
96.161	45.561
100.34	190.586
104.516	549.347
108.691	1120.42
112.864	1578.21
117.034	2920.99
121.203	3189.74
125.369	3397.59
129.534	4436.41
133.696	5587.99
137.857	5965.34
142.016	4884.98
146.172	3180.08
150.327	1984.26
154.48	1713
158.63	1467.07
162.779	1616
166.926	1861.87
171.07	2674.82
175.213	4159.83
179.354	6727.06
183.493	10521.8
187.63	13222.2
191.765	13374.7
195.898	11016.8
200.029	10100.4
204.158	10063.8
208.285	9913.91
212.41	6501.81
216.533	4025.49
220.654	2937.96
224.773	2220.88
228.891	1921.95
233.006	1686.77
237.119	2175.81
241.231	2689.32
245.34	3687.01
249.448	4327.76
253.553	3504.59
257.657	2733.13
261.758	2260.77
265.858	1820.38
269.956	1599.09
274.052	1559.45
278.146	1827.26
282.237	2232.55
286.327	2682.86
290.416	2611.86
294.502	2196.19
298.586	2072.58
302.668	2856.88
306.749	4419.99
310.827	3760.84
314.903	1778.39
318.978	544.435
323.051	13.536
327.121	119.157
331.19	250.817
335.257	233.696
339.322	278.73
343.385	240.776
347.446	265.335
351.505	175.633
355.563	132.245
359.618	6.203
363.672	78.81
367.723	245.994
371.773	569.896
375.821	834.775
379.866	1208.7
383.91	1636.46
387.952	2359.64
391.992	2726.28
396.031	2857.33
400.067	2865.75
404.101	2759.12
408.134	2552.53
412.165	2473.01
416.193	2679.57
420.22	2906.21
424.245	3421.79
428.268	4647.2
432.289	6156.34
436.309	7795.17
440.326	8409.67
444.342	8521.82
448.355	7858.62
452.367	6543.08
456.377	5194.21
460.385	4209.02
464.391	3584.52
468.395	3260.77
472.398	2956.79
476.398	2898.54
480.397	2799.27
484.394	2764.01
488.389	2647.38
492.382	2536.22
496.373	2290.16
500.362	1923.31
504.349	1463.38
508.335	1178.73
512.319	937.766
516.3	711.856
520.28	492.956
524.259	434.188
528.235	446.871
532.209	358.104
536.182	272.045
540.152	327.576
544.121	286.712
548.088	451.18
552.053	463.149
556.017	596.663
559.978	690.747
563.938	750.409
567.895	869.657
571.851	1044.5
575.805	1259.95
579.758	1398.02
583.708	1706.7
587.657	1913.03
591.603	2182
595.548	2563.63
599.491	3097.16
603.432	3611.66
607.372	3961.88
611.309	4192.29
615.245	4524.48
619.179	5021.45
623.111	5957.74
627.041	7518.11
630.97	10560.5
634.896	15313.1
638.821	23279.6
642.744	38761.4
646.665	55992.8
650.584	58234.9
654.502	41551.6
658.418	25712.3
662.331	15966
666.244	10621.5
670.154	7412.18
674.062	5576.19
677.969	4382.76
681.874	3441.47
685.777	2979.17
689.678	2604.22
693.577	2164.88
697.475	2069.1
701.371	1841.89
705.265	1694.14
709.157	1478.79
713.047	1399.64
716.936	1265.91
720.823	1119.98
724.708	965.824
728.591	924.332
732.472	758.01
736.352	571.357
740.23	552.542
744.106	469.566
747.98	274.429
751.853	297.132
755.723	117.672
759.592	85.023
763.459	116.179
767.325	14.125
771.188	21.163
775.05	7.307
778.91	32.761
782.768	21.627
786.625	10.305
790.479	53.802
794.332	49.927
798.183	44.5
802.033	78.608
805.88	34.666
809.726	60.405
813.57	41.177
817.413	35.568
821.253	23.532
825.092	57.043
828.929	68.541
832.764	65.085
836.598	28.661
840.429	63.771
844.259	31.486
848.088	30.779
851.914	46.381
855.739	68.151
859.562	66.625
863.383	95.806
867.203	131.694
871.02	163.165
874.836	138.639
878.65	156.708
882.463	221.514
886.274	298.061
890.083	297.352
893.89	298.391
897.695	392.184
901.499	465.733
905.301	532.036
909.102	617.425
912.9	673.639
916.697	855.884
920.492	1021.29
924.285	1227.57
928.077	1512.92
931.867	1870.82
935.655	2429.92
939.442	2967.03
943.226	3936.75
947.009	5113.02
950.791	7104.62
954.57	9563.24
958.348	13332.8
962.124	17286.6
965.899	20233.2
969.671	19365.8
973.442	15452.2
977.211	11117.6
980.979	7912.78
984.745	5645.88
988.509	4330.6
992.271	3407.53
996.032	2710.15
999.791	2221.48
1003.55	1871.96
1007.3	1625.98
1011.06	1372.7
1014.81	1259.82
1018.56	1083.93
1022.31	1050.37
1026.06	982.429
1029.8	946.636
1033.55	768.956
1037.29	794.386
1041.03	843.933
1044.77	808.603
1048.5	739.401
1052.24	789.333
1055.97	685.405
1059.7	713.645
1063.43	651.23
1067.16	635.765
1070.89	683.642
1074.61	631.742
1078.34	564.177
1082.06	636.895
1085.78	580.997
1089.5	584.478
1093.21	569.172
1096.93	533.355
1100.64	542.415
1104.35	545.306
1108.06	682.135
1111.77	667.487
1115.48	630.365
1119.18	594.93
1122.89	881.354
1126.59	756.362
1130.29	743.465
1133.99	752.133
1137.68	822.674
1141.38	789.571
1145.07	866.858
1148.76	874.515
1152.45	856.52
1156.14	766.77
1159.83	690.34
1163.51	644.917
1167.19	590.797
1170.88	537.866
1174.56	474.119
1178.23	427.941
1181.91	312.159
1185.59	269.936
1189.26	348.88
1192.93	246.986
1196.6	221.25
1200.27	179.664
1203.94	99.227
1207.6	116.466
1211.27	60.323
1214.93	118.828
1218.59	171.326
1222.25	38.887
1225.9	24.337
1229.56	5.562
1233.21	13.555
1236.86	9.724
1240.51	8.997
1244.16	2.423
1247.81	0.055
1251.45	13.502
1255.1	55.662
1258.74	39.773
1262.38	25.597
1266.02	4.451
1269.66	34.246
1273.29	34.475
1276.93	31.058
1280.56	12.927
1284.19	34.788
1287.82	106.373
1291.45	100.45
1295.07	114.305
1298.7	140.761
1302.32	121.042
1305.94	201.458
1309.56	194.396
1313.18	189.926
1316.8	208.192
1320.41	208.232
1324.02	206.046
1327.63	178.751
1331.24	146.188
1334.85	73.416
1338.46	95.526
1342.06	47.291
1345.67	52.929
1349.27	14.209
1352.87	41.223
1356.47	14.018
1360.07	20.477
1363.66	21.154
1367.25	25.457
1370.85	4.023
1374.44	26.707
1378.03	26.911
1381.61	5.882
1385.2	9.596
1388.78	3.232
1392.37	45.406
1395.95	7.246
1399.53	37.6
1403.1	53.57
1406.68	56.957
1410.26	47.17
1413.83	46.194
1417.4	126.042
1420.97	47.725
1424.54	87.273
1428.1	103.706
1431.67	86.043
1435.23	101.307
1438.8	105.011
1442.36	152.109
1445.91	124.641
1449.47	170.188
1453.03	147.631
1456.58	183.625
1460.13	163.445
1463.68	93.808
1467.23	69.13
1470.78	120.475
1474.33	130.973
1477.87	53.835
1481.42	103.569
1484.96	61.582
1488.5	111.912
1492.04	88.092
1495.57	70.236
1499.11	113.92
1502.64	5.002
1506.17	58.784
1509.71	35.542
1513.23	24.187
1516.76	39.66
1520.29	1
1523.81	5.537
