Measurement: Raman, 532 nm, unoriented, Raman Data Processed
Mineral: Bournonite
Rruff sample: R050111
Ideal chemistry: CuPbSbS_3_
Locality: Yao Gang Xian mine, Chenzhou, Hunan Province, China
Source: He Xin Jian
Description: Steel-gray short prismatic crystal
Measured chemistry: PbCuSbS_3_
Raman shift (cm-1)	intensity
175.038	0
177.931	91.301
180.823	187.782
183.716	343.239
186.609	432.59
189.501	559.138
192.394	294.083
195.287	206.075
198.18	158.607
201.072	207.018
203.965	287.87
206.858	288.869
209.75	195.413
212.643	37.87
215.536	43.561
218.428	23.631
221.321	73.07
224.214	66.743
227.107	19.322
229.999	33.604
232.892	29.328
235.785	8.775
238.677	88.014
241.57	236.349
244.463	580.417
247.355	800.631
250.248	1163.56
253.141	933.104
256.033	247.216
258.926	4.208
261.819	37.328
264.711	25.984
267.604	61.699
270.497	120.126
273.39	102.954
276.282	102.531
279.175	71.392
282.068	22.594
284.96	44.939
287.853	29.5
290.746	61.072
293.638	50.938
296.531	56.171
299.424	22.643
302.317	4.992
305.209	103.256
308.102	153.312
310.995	171.034
313.887	91.092
316.78	56.786
319.673	38.39
322.565	7.126
325.458	62.231
328.351	28.857
331.244	38.142
334.136	34.724
337.029	95.38
339.922	97.496
342.814	66.064
345.707	103.832
348.6	91.096
351.492	46.613
354.385	50.22
357.278	60.417
360.171	101.351
363.063	47.922
365.956	76.601
368.849	19.559
371.741	27.968
374.634	3.176
377.527	27.214
380.419	80.264
383.312	56.25
386.205	56.938
389.098	13.766
391.99	34.931
394.883	7.916
397.776	16.58
400.668	12.471
403.561	31.285
406.454	42.424
409.346	43.645
412.239	36.437
415.132	78.586
418.025	121.373
420.917	169.311
423.81	193.608
426.703	277.381
429.595	380.698
432.488	505.878
435.381	629.928
438.273	691.678
441.166	718.67
444.059	779.459
446.952	708.324
449.844	635.708
452.737	438.636
455.63	301.74
458.522	220.563
461.415	183.8
464.308	167.104
467.2	126.611
470.093	95.556
472.986	109.574
475.878	45.75
478.771	68.535
481.664	94.311
484.556	47.674
487.449	89.682
490.342	96.76
493.235	39.223
496.127	78.525
499.02	22.909
501.913	13.259
504.805	21.66
507.698	1.727
510.591	42.82
513.484	18.197
516.376	2.069
519.269	8.097
522.162	7.214
525.054	20.142
527.947	21.617
530.84	55.55
533.732	60.244
536.625	38.175
539.518	18.111
542.411	10.99
545.303	16.481
548.196	29.955
551.089	19.73
553.981	10.267
556.874	20.422
559.767	31.795
562.659	50.288
565.552	13.408
568.445	5.82
571.338	18.581
574.23	83.091
577.123	93.074
580.016	59.2
582.908	68.597
585.801	53.393
588.694	156.083
591.586	108.6
594.479	110.618
597.372	146.456
600.265	159.913
603.157	224.937
606.05	243.226
608.943	241.112
611.835	212.688
614.728	201.412
617.621	191.369
620.513	266.788
623.406	307.482
626.299	352.895
629.191	425.843
632.084	526.189
634.977	620.39
637.87	754.086
640.762	1010.24
643.655	1192.42
646.548	1331.21
649.44	1277.21
652.333	1061.53
655.226	786.285
658.118	633.879
661.011	426.907
663.904	334.814
666.797	302.759
669.689	223.238
672.582	217.927
675.474	92.12
678.367	117.359
681.26	76.565
684.153	83.019
687.045	81.892
689.938	103.173
692.831	133.278
695.723	100.691
698.616	125.107
701.509	127.622
704.402	109.309
707.294	111.03
710.187	113.438
713.08	116.628
715.972	71.778
718.865	77.91
721.758	28.635
724.651	35.947
727.543	90.022
730.436	1.093
733.328	3.461
736.221	4.072
739.114	12.636
742.007	11.634
744.899	68.1
747.792	17.974
750.685	47.887
753.577	55.097
756.47	59.598
759.363	6.682
762.255	49.364
765.148	6.347
768.041	31.696
770.934	28.085
773.826	25.189
776.719	30.241
779.612	25.463
782.504	9.526
785.397	6.715
788.29	42.285
791.182	35.223
794.075	19.457
796.968	22.465
799.86	10.563
802.753	22.04
805.646	33.983
808.539	56.43
811.431	37.861
814.324	14.709
817.217	31.42
820.109	29.11
823.002	31.246
825.895	41.667
828.787	96.683
831.68	44.611
834.573	7.978
837.466	50.5
840.358	16.097
843.251	10.322
846.144	8.168
849.036	6.267
851.929	65.844
854.822	20.27
857.714	14.79
860.607	5.849
863.5	3.269
866.393	1.171
869.285	32.718
872.178	33.043
875.071	23.691
877.963	32.182
880.856	58.293
883.749	25.183
886.641	16.599
889.534	33.286
892.427	41.074
895.32	103.888
898.212	56.061
901.105	32.022
903.998	18.787
906.89	21.266
909.783	49.599
912.676	86.642
915.568	33.269
918.461	57.931
921.354	78.973
924.247	110.199
927.139	131.791
930.032	156.051
932.925	139.761
935.817	153.96
938.71	238.657
941.603	293.116
944.495	340.559
947.388	508.516
950.281	609.618
953.174	789.636
956.066	889.885
958.959	1064.47
961.852	1198.69
964.744	1303.6
967.637	1131.68
970.53	1029.72
973.422	734.562
976.315	611.338
979.208	448.063
982.101	359.603
984.993	282.506
987.886	223.113
990.779	182.351
993.671	186.131
996.564	175.801
999.457	90.285
1002.35	135.151
1005.24	17.736
1008.13	71.426
1011.03	32.125
1013.92	93.142
1016.81	93.151
1019.71	110.928
1022.6	110.928
1025.49	72.529
1028.38	76.615
1031.28	84.681
1034.17	95.688
1037.06	114.454
1039.95	65.235
1042.85	64.066
1045.74	117.808
1048.63	40.334
1051.53	62.194
1054.42	67.739
1057.31	69.535
1060.2	39.621
1063.1	49.687
1065.99	62.836
1068.88	31.696
1071.77	58.844
1074.67	55.967
1077.56	57.55
1080.45	41.635
1083.35	9.446
1086.24	49.226
1089.13	39.696
1092.02	32.314
1094.92	45.785
1097.81	100.934
1100.7	126.178
1103.59	66.748
1106.49	79.362
1109.38	127.707
1112.27	120.789
1115.16	15.728
1118.06	63.083
1120.95	13.872
1123.84	26.637
1126.73	13.33
1129.63	80.308
1132.52	95.208
1135.41	113.52
1138.31	131.055
1141.2	100.417
1144.09	100.89
1146.98	85.887
1149.88	71.492
1152.77	126.749
1155.66	85.136
1158.56	16.264
1161.45	82.872
1164.34	31.523
1167.23	11.875
1170.13	37.676
1173.02	17.354
1175.91	103.415
1178.8	37.914
1181.7	3.419
1184.59	39.494
1187.48	56.253
1190.38	36.246
1193.27	23.766
1196.16	43.767
1199.05	8.023
1201.94	49.614
1204.84	28.935
1207.73	11.198
1210.62	44.23
1213.52	37.909
1216.41	28.896
1219.3	50.187
1222.19	20.428
1225.09	23.281
1227.98	8.846
1230.87	18.801
1233.77	36.413
1236.66	28.313
1239.55	60.077
1242.44	58.974
1245.34	44.625
1248.23	51.358
1251.12	32.507
1254.01	20.351
1256.91	38.855
1259.8	23.124
1262.69	17.914
1265.59	32.827
1268.48	8.687
1271.37	19.061
1274.26	7.966
1277.16	12.717
1280.05	23.169
1282.94	1.43
1285.83	58.602
1288.73	32.758
1291.62	3.105
1294.51	0.757
1297.4	12.908
1300.3	6.26
