Measurement: Raman, 785 nm, unoriented, Raman Data Processed
Mineral: Bournonite
Rruff sample: R050111
Ideal chemistry: CuPbSbS_3_
Locality: Yao Gang Xian mine, Chenzhou, Hunan Province, China
Source: He Xin Jian
Description: Steel-gray short prismatic crystal
Measured chemistry: PbCuSbS_3_
Raman shift (cm-1)	intensity
108.511	0
111.886	45.069
115.26	278.134
118.635	139.295
122.01	31.059
125.385	417.911
128.76	961.641
132.135	1178.63
135.509	530.386
138.884	275.667
142.259	384.504
145.634	613.945
149.009	889.881
152.383	643.912
155.758	613.874
159.133	697.822
162.508	903.949
165.883	991.118
169.258	1223.65
172.632	1306.41
176.007	1201.63
179.382	1149.08
182.757	1182.21
186.132	1214.32
189.507	1318.54
192.881	1362.29
196.256	1619.49
199.631	1643.94
203.006	1381.97
206.381	999.959
209.755	731.373
213.13	665.945
216.505	742.58
219.88	742.477
223.255	817.176
226.629	832.648
230.004	770.89
233.379	671.743
236.754	599.966
240.129	531.984
243.503	472.038
246.878	399.245
250.253	338.149
253.628	292.842
257.003	255.043
260.378	286.39
263.752	311.277
267.127	296.388
270.502	333.517
273.877	329.201
277.252	453.79
280.626	653.071
284.001	1032.28
287.376	1720.28
290.751	2251.27
294.126	2186.88
297.501	1369.8
300.875	999.098
304.25	1030.57
307.625	1259.37
311	1811.23
314.375	3031.18
317.75	5226.62
321.124	8014.79
324.499	9714.07
327.874	6795.72
331.249	3556.09
334.624	2107.43
337.998	1407
341.373	883.138
344.748	542.016
348.123	370.414
351.498	262.117
354.872	167.946
358.247	106.154
361.622	69.264
364.997	54.409
368.372	22.784
371.747	28.825
375.121	38.552
378.496	29.398
381.871	46.549
385.246	14.479
388.621	2.628
391.996	11.733
395.37	15.164
398.745	3.148
402.12	6.908
405.495	26.845
408.87	21.972
412.244	5.645
415.619	2.631
418.994	18.514
422.369	27.847
425.744	14.393
429.118	44.149
432.493	1.335
435.868	1.146
439.243	18.958
442.618	13.619
445.992	1.596
449.367	2.866
452.742	2.2
456.117	37.737
459.492	0.953
462.867	3.648
466.241	28.471
469.616	20.308
472.991	9.691
476.366	22.977
479.741	2.353
483.116	14.359
486.49	19.392
489.865	3.98
493.24	13.297
496.615	22.124
499.99	8.623
503.364	68.568
506.739	20.358
510.114	46.53
513.489	32.886
516.864	8.527
520.239	15.519
523.613	32.469
526.988	65.695
530.363	33.444
533.738	27.742
537.113	15.338
540.487	28.697
543.862	35.319
547.237	8.308
550.612	12.608
553.987	12.354
557.362	6.094
560.736	33.765
564.111	26.816
567.486	6.841
570.861	7.348
574.236	26.68
577.61	5.546
580.985	11.68
584.36	7.507
587.735	69.512
591.11	62.735
594.484	29.947
597.859	4.108
601.234	40.706
604.609	57.389
607.984	26.686
611.359	57.925
614.733	29.084
618.108	23.14
621.483	38.504
624.858	20.776
628.233	32.757
631.607	23.591
634.982	46.669
638.357	8.283
641.732	37.158
645.107	16.4
648.482	38.534
651.856	22.858
655.231	22.658
658.606	58.671
661.981	31.923
665.356	27.205
668.73	41.442
672.105	11.3
675.48	28.093
678.855	21.281
682.23	62.073
685.604	31.195
688.979	21.58
692.354	14.828
695.729	34.844
699.104	44.042
702.479	22.966
705.853	6.826
709.228	13.408
712.603	7.752
715.978	8.121
719.353	44.699
722.727	25.411
726.102	37.995
729.477	20.119
732.852	20.946
736.227	4.478
739.602	13.303
742.976	1.226
746.351	1.032
749.726	50.908
753.101	10.759
756.476	23.514
759.851	51.699
763.225	4.114
766.6	0.42
769.975	18.662
773.35	5.372
776.724	11.862
780.099	23.275
783.474	22.394
786.849	14.936
790.224	14.759
793.599	15.69
796.973	30.092
800.348	38.949
803.723	21.649
807.098	35.455
810.473	13.397
813.847	56.662
817.222	27.441
820.597	23.081
823.972	11.147
827.347	29.914
830.722	31.481
834.096	23.183
837.471	38.312
840.846	9.598
844.221	4.035
847.596	36.513
850.971	29.187
854.345	27.722
857.72	3.371
861.095	38.466
864.47	17.639
867.845	33.917
871.219	24.884
874.594	47.254
877.969	9.514
881.344	59.846
884.719	45.182
888.094	47.857
891.468	60.124
894.843	54.727
898.218	40.649
901.593	33.293
904.968	45.717
908.342	12.183
911.717	20.201
915.092	32.967
918.467	19.927
921.842	29.036
925.216	28.918
928.591	20.336
931.966	10.246
935.341	116.949
938.716	59.821
942.091	4.176
945.465	24.201
948.84	35.824
952.215	54.447
955.59	10.333
958.965	50.672
962.339	19.812
965.714	30.773
969.089	50.317
972.464	39.932
975.839	48.183
979.214	43.568
982.588	19.121
985.963	47.073
989.338	20.639
992.713	42.917
996.088	0.82
999.463	1.366
1002.84	44.423
1006.21	2.882
1009.59	42.578
1012.96	20.592
1016.34	28.943
1019.71	52.273
1023.09	51.581
1026.46	20.437
1029.84	34.542
1033.21	57.469
1036.59	52.252
1039.96	47.45
1043.34	53.904
1046.71	32.733
1050.09	40.734
1053.46	48.668
1056.83	51.409
1060.21	75.988
1063.58	49.644
1066.96	41.316
1070.33	61.376
1073.71	37.11
1077.08	39.893
1080.46	68.291
1083.83	34.492
1087.21	53.712
1090.58	40.859
1093.96	33.208
1097.33	8.063
1100.71	15.81
1104.08	37.302
1107.46	49.967
1110.83	65.412
1114.21	24.004
1117.58	58.682
1120.96	41.666
1124.33	30.903
1127.7	21.404
1131.08	25.931
1134.45	10.162
1137.83	82.685
1141.2	21.859
1144.58	13.326
1147.95	17.84
1151.33	8.385
1154.7	49.427
1158.08	22.729
1161.45	11.798
1164.83	26.156
1168.2	34.09
1171.58	47.03
1174.95	70.591
1178.33	33.276
1181.7	21.27
1185.08	13.277
1188.45	51.644
1191.83	28.732
1195.2	42.451
1198.58	4.505
1201.95	33.18
1205.33	15.626
1208.7	30.466
1212.08	69.351
1215.45	17.121
1218.83	10.987
1222.2	39.423
1225.58	2.507
1228.95	34.521
1232.33	2.209
1235.7	46.046
1239.07	32.738
1242.45	61.016
1245.82	41.962
1249.2	23.894
1252.57	19.585
1255.95	4.448
1259.32	39.364
1262.7	3.907
1266.07	15.502
1269.45	10.794
1272.82	0
