Measurement: Raman, 532 nm, unoriented, Raman Data Processed
Mineral: Bournonite
Rruff sample: R050364
Ideal chemistry: CuPbSbS_3_
Locality: Neudorf, Harz Mountains, Austria
Source: University of Arizona Mineral Museum
Description: Black fragment
Measured chemistry: Pb_1.00_Cu_1.00_Sb_1.00_S_3.00_
Raman shift (cm-1)	intensity
157.921	0
160.814	0.24572
163.707	1.93007
166.6	0.298027
169.492	1.55043
172.385	1.89432
175.278	0.96278
178.17	0.552746
181.063	0.560871
183.956	1.37445
186.848	3.28107
189.741	2.53826
192.634	3.34974
195.526	3.10847
198.419	1.64576
201.312	1.65818
204.205	0.458313
207.097	0.239685
209.99	0.956146
212.883	0.443773
215.775	0.140629
218.668	0.820269
221.561	0.670069
224.453	1.30043
227.346	1.0827
230.239	0.416754
233.132	0.33746
236.024	0.892021
238.917	0.318949
241.81	0.296194
244.702	0.573015
247.595	2.38387
250.488	2.47187
253.381	4.7597
256.273	6.55293
259.166	8.91081
262.059	9.98706
264.951	12.613
267.844	16.2663
270.737	19.8555
273.629	24.2434
276.522	27.6229
279.415	33.5092
282.308	39.3002
285.2	46.9546
288.093	53.3584
290.986	49.0435
293.878	33.8962
296.771	22.2871
299.664	16.9744
302.556	15.8508
305.449	17.7133
308.342	21.0486
311.235	25.8807
314.127	34.1308
317.02	42.5208
319.913	50.4802
322.805	49.5117
325.698	38.6624
328.591	24.6705
331.483	16.4012
334.376	10.3346
337.269	7.32563
340.161	4.68175
343.054	2.97706
345.947	1.84901
348.84	1.32874
351.732	0.49368
354.625	0.385588
357.518	0.560215
360.41	0.25257
363.303	0.207406
366.196	0.657775
369.089	0.171795
371.981	0.041874
374.874	0.051627
377.767	0.175394
380.659	0.595225
383.552	0.053841
386.445	0.364459
389.337	0.330647
392.23	0.955728
395.123	0.125453
398.015	0.608503
400.908	0.408008
403.801	0.399155
406.694	0.53546
409.586	0.820317
412.479	0.427508
415.372	0.734725
418.264	0.509526
421.157	0.589722
424.05	0.197633
426.942	0.756212
429.835	0.397914
432.728	0.312607
435.621	0.281484
438.513	0.613289
441.406	0.634448
444.299	1.32648
447.191	0.827001
450.084	1.1044
452.977	1.47737
455.87	1.70296
458.762	1.91476
461.655	1.25768
464.548	1.80547
467.44	2.05585
470.333	1.51075
473.226	1.41802
476.118	0.972828
479.011	0.491459
481.904	0.552295
484.796	0.369383
487.689	0.133574
490.582	0.268141
493.475	0.061113
496.367	0.293511
499.26	0.120446
502.153	0.080711
505.045	0.047537
507.938	0.11943
510.831	0.282286
513.723	0.571212
516.616	0.142839
519.509	0.055789
522.402	0.503674
525.294	0.978338
528.187	0.742591
531.08	0.426729
533.972	0.711354
536.865	1.11488
539.758	0.469689
542.65	0.598908
545.543	0.790965
548.436	0.707481
551.329	0.47467
554.221	0.395098
557.114	0.589029
560.007	0.820554
562.899	0.556314
565.792	0.387297
568.685	0.431622
571.577	0.47352
574.47	0.11899
577.363	0.220203
580.256	0.341019
583.148	0.146487
586.041	0.187094
588.934	0.187541
591.826	0.111897
594.719	0.001558
597.612	0.276055
600.505	0.285831
603.397	0.057094
606.29	0.121411
609.183	0.296367
612.075	0.394912
614.968	0.325431
617.861	0.314741
620.753	0.48788
623.646	0.375612
626.539	0.003705
629.432	0.245871
632.324	0.075827
635.217	0.330667
638.11	0.33541
641.002	0.168328
643.895	0.295416
646.788	0.258803
649.68	0.307213
652.573	0.50625
655.466	0.547606
658.359	0.450152
661.251	0.229094
664.144	0.553008
667.037	0.574949
669.929	0.779062
672.822	0.562742
675.715	0.243357
678.607	0.286155
681.5	0.645097
684.393	0.478117
687.285	0.307548
690.178	0.014673
693.071	0.412896
695.964	0.076124
698.856	0.38178
701.749	0.568471
704.642	0.381823
707.534	0.171768
710.427	0.019045
713.32	0.60371
716.212	0.087648
719.105	0.163962
721.998	0.008148
724.891	0.192683
727.783	0.590445
730.676	0.272182
733.569	0.181952
736.461	0.151309
739.354	0.553012
742.247	0.489413
745.139	0.334248
748.032	0.084856
750.925	0.03734
753.818	0.227231
756.71	0.687911
759.603	0.057173
762.496	0.036172
765.388	0.533608
768.281	0.439561
771.174	0.11726
774.067	0.506372
776.959	0.298179
779.852	0.182189
782.745	0.09548
785.637	0.421299
788.53	0.375418
791.423	0.478361
794.315	0.465967
797.208	0.142676
800.101	0.143916
802.994	0.975987
805.886	0.68405
808.779	0.274355
811.672	0.311712
814.564	0.510098
817.457	0.229871
820.35	0.403343
823.242	0.249698
826.135	0.390995
829.028	0.605051
831.92	0.852347
834.813	0.863643
837.706	0.556637
840.599	0.963284
843.491	1.07355
846.384	0.533399
849.277	0.552748
852.169	0.894983
855.062	0.798732
857.955	0.984161
860.847	0.615716
863.74	0.7458
866.633	0.832194
869.526	0.340744
872.418	0.923589
875.311	0.70592
878.204	0.564368
881.096	0.165264
883.989	0.293869
886.882	0.425286
889.774	0.002217
892.667	0.467737
895.56	0.030986
898.453	0.501513
901.345	0.5433
904.238	0.246183
907.131	0.501467
910.023	0.477839
912.916	0.257293
915.809	0.080413
918.702	0.172177
921.594	0.283116
924.487	0.468995
927.38	0.250823
930.272	0.437361
933.165	0.0855
936.058	0.282486
938.95	0.297828
941.843	0.053792
944.736	0.115779
947.629	0.004555
950.521	0.34802
953.414	0.125543
956.307	0.090482
959.199	0.23085
962.092	0.248369
964.985	0.052134
967.877	0.11197
970.77	0.386183
973.663	0.003634
976.556	0.067322
979.448	0.113884
982.341	0.219754
985.234	0.01882
988.126	0.432664
991.019	0.190429
993.912	0.103511
996.804	0.203493
999.697	0.522791
1002.59	0.342941
1005.48	0.257895
1008.38	0.38635
1011.27	0.391052
1014.16	0.056868
1017.05	0.221942
1019.95	0.152257
1022.84	0.285473
1025.73	0.285948
1028.62	0.293674
1031.52	0.539577
1034.41	0.471553
1037.3	0.724542
1040.19	0.620744
1043.09	0.288016
1045.98	0.436815
1048.87	0.289551
1051.77	0.518507
1054.66	0.505278
1057.55	0.250474
1060.44	0.334396
1063.34	0.098203
1066.23	0.471317
1069.12	0.264745
1072.02	0.367811
1074.91	0.071807
1077.8	0.421679
1080.69	0.25472
1083.59	0.081891
1086.48	0.268053
1089.37	0.574487
1092.26	0.326843
1095.16	0.177238
1098.05	0.446364
1100.94	0.275794
1103.83	0.239164
1106.73	0.338014
1109.62	0.513745
1112.51	0.248936
1115.4	0.061369
1118.3	0.31565
1121.19	0.195799
1124.08	0.09143
1126.98	0.315522
1129.87	0.313548
1132.76	0.374587
1135.65	0.461795
1138.55	0.511824
1141.44	0.316622
1144.33	0.264395
1147.22	0.118542
1150.12	0.318542
1153.01	0.172855
1155.9	0.209322
1158.8	0.202565
1161.69	0.198357
1164.58	0.139158
1167.47	0.305766
1170.37	0.207793
1173.26	0.49039
1176.15	0.115103
1179.05	0.254073
1181.94	0.736225
1184.83	0.421902
1187.72	0.388151
1190.62	0.332748
1193.51	0.362322
1196.4	0.480063
1199.29	0.283917
1202.19	0.345682
1205.08	0.327883
1207.97	0.35982
1210.86	0.234209
1213.76	0.686496
1216.65	0.379896
1219.54	0.413884
1222.43	0.146654
1225.33	0.349118
1228.22	0.265116
1231.11	0.226525
1234.01	0.048583
1236.9	0.142174
1239.79	0.098211
1242.68	0.409827
1245.58	0.448991
1248.47	0.19229
1251.36	0.084804
1254.26	0.49315
1257.15	0.303669
1260.04	0.04454
1262.93	0.371881
1265.83	0.144704
1268.72	0.343518
1271.61	0.077391
1274.5	0.315448
1277.4	0.242759
1280.29	0.348464
1283.18	0.216391
1286.07	0.355411
1288.97	0.184932
1291.86	0.379189
1294.75	0.024341
1297.64	0.13825
1300.54	0.229659
1303.43	0.124915
