Measurement: Raman, 785 nm, unoriented, Raman Data Processed
Mineral: Bournonite
Rruff sample: R050111
Ideal chemistry: CuPbSbS_3_
Locality: Yao Gang Xian mine, Chenzhou, Hunan Province, China
Source: He Xin Jian
Description: Steel-gray short prismatic crystal
Measured chemistry: PbCuSbS_3_
Raman shift (cm-1)	intensity
212.166	0
215.059	88.977
217.951	60.176
220.844	200.682
223.737	160.912
226.629	187.949
229.522	186.912
232.415	258.951
235.307	324.467
238.2	275.748
241.093	283.475
243.986	225.459
246.878	299.299
249.771	317.998
252.664	238.359
255.556	147.523
258.449	55.555
261.342	2.039
264.235	13.631
267.127	9.008
270.02	3.104
272.913	173.133
275.805	26.1
278.698	192.283
281.591	428.805
284.483	568.477
287.376	826.734
290.269	467.537
293.162	498.449
296.054	297.881
298.947	407.367
301.84	746.443
304.732	1157.44
307.625	1592.17
310.518	2158.64
313.41	2553.16
316.303	3052.7
319.196	3400.42
322.089	3014.95
324.981	2262.03
327.874	1764.94
330.767	1239.73
333.659	903.385
336.552	519.98
339.445	263.799
342.337	223.697
345.23	264.465
348.123	343.271
351.016	461.857
353.908	477.52
356.801	389.57
359.694	279.145
362.586	201.678
365.479	22.285
368.372	28.447
371.264	92.895
374.157	150.117
377.05	171.215
379.943	48.209
382.835	165.307
385.728	148.6
388.621	62.297
391.513	49.07
394.406	123.379
397.299	203.547
400.191	120.676
403.084	231.953
405.977	94.24
408.87	4.586
411.762	1.73
414.655	226.627
417.548	283.85
420.44	372.061
423.333	424.477
426.226	461.225
429.118	401.779
432.011	598.611
434.904	645.08
437.797	642.27
440.689	678.787
443.582	775.295
446.475	773.824
449.367	560.213
452.26	476.688
455.153	397.869
458.045	383.041
460.938	367.941
463.831	460.945
466.724	433.277
469.616	407.154
472.509	313.734
475.402	317.803
478.294	174.672
481.187	170.252
484.08	243.688
486.972	346.527
489.865	265.363
492.758	316.191
495.651	289.582
498.543	160.307
501.436	178.312
504.329	242.828
507.221	82.98
510.114	194.408
513.007	151.383
515.899	290.689
518.792	206.51
521.685	189.348
524.578	150.869
527.47	251.873
530.363	55.512
533.256	53.102
536.148	21.059
539.041	135.482
541.934	149.199
544.826	185.121
547.719	44.676
550.612	29.795
553.505	12.6
556.397	130.342
559.29	136.168
562.183	160.312
565.075	60.072
567.968	20.297
570.861	64.146
573.753	18.9
576.646	1.691
579.539	105.02
582.432	124.75
585.324	142.191
588.217	226.727
591.11	92.609
594.002	82.297
596.895	40.258
599.788	194.883
602.68	170.738
605.573	208.111
608.466	268.189
611.359	245.098
614.251	230.465
617.144	292.059
620.037	224.822
622.929	204.225
625.822	227.842
628.715	282.83
631.607	289.078
634.5	363.83
637.393	400.336
640.286	526.945
643.178	575.609
646.071	489.439
648.964	505.213
651.856	476.203
654.749	400.543
657.642	384.748
660.534	436.938
663.427	213.752
666.32	177.869
669.213	217.463
672.105	201.219
674.998	144.018
677.891	195.027
680.783	255.734
683.676	108.303
686.569	242.824
689.461	179.127
692.354	322.891
695.247	321.154
698.14	313.938
701.032	262.889
703.925	298.023
706.818	116.828
709.71	159.1
712.603	163.611
715.496	157.01
718.388	236.877
721.281	207.021
724.174	183.139
727.067	195.584
729.959	130.646
732.852	161.359
735.745	88.807
738.637	150.23
741.53	173.502
744.423	168.299
747.315	210.357
750.208	154.51
753.101	210.994
755.994	173.209
758.886	30.104
761.779	198.238
764.672	142.463
767.564	97.232
770.457	74.984
773.35	107.779
776.242	160.506
779.135	56.094
782.028	43.77
784.92	80.74
787.813	144.369
790.706	150.037
793.599	125.66
796.491	10.916
799.384	186.791
802.277	53.479
805.169	118.35
808.062	114.824
810.955	136.115
813.847	160.762
816.74	162.363
819.633	152.684
822.526	95.941
825.418	124.119
828.311	102
831.204	114.25
834.096	23.816
836.989	81.166
839.882	141.311
842.774	90.648
845.667	102.463
848.56	91.002
851.453	236.061
854.345	107.662
857.238	74.225
860.131	68.146
863.023	63.707
865.916	127.564
868.809	49.07
871.701	83.023
874.594	84.213
877.487	173.342
880.38	148.445
883.272	155.523
886.165	198.131
889.058	3.936
891.95	117.049
894.843	139.049
897.736	55.42
900.628	43.604
903.521	47.41
906.414	85.65
909.307	120.373
912.199	83.211
915.092	131.076
917.985	157.766
920.877	59.426
923.77	43.834
926.663	252.256
929.555	236.197
932.448	179.271
935.341	353.469
938.234	179.434
941.126	208.855
944.019	315.482
946.912	326.311
949.804	321.018
952.697	556.205
955.59	668.197
958.482	655.088
961.375	768.387
964.268	803.76
967.161	850.508
970.053	652.863
972.946	613.16
975.839	542.785
978.731	440.334
981.624	311.107
984.517	355.371
987.409	163.668
990.302	3.477
993.195	91.703
996.088	24.564
998.98	376.684
1001.87	268.303
1004.77	338.861
1007.66	148.939
1010.55	64.443
1013.44	190.002
1016.34	165.57
1019.23	148.469
1022.12	176.887
1025.02	45.244
1027.91	51.207
1030.8	237.73
1033.69	185.664
1036.59	220.502
1039.48	242.992
1042.37	226.154
1045.26	204.381
1048.16	228.488
1051.05	201.85
1053.94	216.969
1056.83	201.85
1059.73	181.719
1062.62	162.045
1065.51	41.775
1068.4	83.643
1071.3	169.9
1074.19	179.713
1077.08	254.836
1079.98	105.094
1082.87	180.812
1085.76	157.379
1088.65	62.471
1091.55	129.232
1094.44	116.125
1097.33	202.684
1100.22	188.746
1103.12	156.867
1106.01	102.951
1108.9	138.125
1111.8	110.902
1114.69	199.156
1117.58	237.445
1120.47	136.859
1123.37	130.977
1126.26	292.875
1129.15	159.094
1132.05	198.061
1134.94	104.654
1137.83	137.322
1140.72	114.375
1143.62	71.926
1146.51	133.438
1149.4	166.555
1152.29	61.416
1155.19	218.492
1158.08	101.873
1160.97	202.773
1163.86	128.195
1166.76	166.791
1169.65	83.896
1172.54	53.572
1175.43	68.834
1178.33	75.467
1181.22	11.609
1184.11	63.389
1187.01	72.463
1189.9	87.646
1192.79	8.092
1195.68	102.193
1198.58	98.084
1201.47	78.637
1204.36	54.219
1207.26	62.27
1210.15	62.723
1213.04	51.068
1215.93	52.584
1218.83	110.91
1221.72	142.703
1224.61	128.887
1227.5	120.195
1230.4	163.863
1233.29	42.514
1236.18	12.014
1239.07	45.832
1241.97	41.799
1244.86	184.049
1247.75	10.178
1250.64	27.836
1253.54	52.893
1256.43	12.084
1259.32	27.238
1262.22	144.734
1265.11	106.662
1268	68.682
1270.89	74.838
