Measurement: Raman, 532 nm, unoriented, Raman Data Processed
Mineral: Bournonite
Rruff sample: R050111
Ideal chemistry: CuPbSbS_3_
Locality: Yao Gang Xian mine, Chenzhou, Hunan Province, China
Source: He Xin Jian
Description: Steel-gray short prismatic crystal
Measured chemistry: PbCuSbS_3_
Raman shift (cm-1)	intensity
108.024	0
111.399	85.999
114.773	115.795
118.148	117.986
121.523	181.66
124.898	198.508
128.273	155.392
131.648	171.755
135.022	199.969
138.397	216.262
141.772	205.952
145.147	210.646
148.521	214.729
151.896	207.485
155.271	225.595
158.646	240.38
162.021	269.109
165.396	305.367
168.77	329.133
172.145	366.771
175.52	386.672
178.895	393.395
182.27	368.79
185.645	370.792
189.019	351.95
192.394	366.022
195.769	323.797
199.144	312.79
202.519	258.009
205.893	221.551
209.268	189.407
212.643	177.187
216.018	152.138
219.393	157.184
222.767	164.449
226.142	169.628
229.517	146.288
232.892	143.686
236.267	132.39
239.641	107.073
243.016	115.327
246.391	99.172
249.766	94.039
253.141	98.349
256.516	91.818
259.89	97.455
263.265	121.527
266.64	129.347
270.015	142.018
273.39	174.318
276.764	214.744
280.139	271.298
283.514	382.773
286.889	492.867
290.264	513.891
293.638	431.622
297.013	314.862
300.388	247.804
303.763	238.658
307.138	260.238
310.513	369.121
313.887	503.594
317.262	701.558
320.637	899.89
324.012	911.559
327.387	661.091
330.762	435.558
334.136	283.107
337.511	212.931
340.886	135.723
344.261	77.633
347.635	45.72
351.01	39.631
354.385	34.256
357.76	15.614
361.135	17.119
364.51	9.717
367.884	12.409
371.259	15.175
374.634	8.651
378.009	9.912
381.384	7.368
384.759	2.513
388.133	2.666
391.508	4.214
394.883	0.064
398.258	2.645
401.633	5.073
405.007	1.008
408.382	9.358
411.757	1.371
415.132	0.63
418.507	4.381
421.881	1.715
425.256	10.328
428.631	4.38
432.006	2.887
435.381	7.657
438.755	5.755
442.13	0.287
445.505	2.319
448.88	11.629
452.255	2.902
455.63	12.993
459.004	11.117
462.379	7.835
465.754	20.233
469.129	24.47
472.504	22.466
475.878	13.949
479.253	19.759
482.628	8.859
486.003	8.236
489.378	5.19
492.753	6.394
496.127	16.258
499.502	6.382
502.877	8.12
506.252	4.463
509.627	1.148
513.001	11.961
516.376	2.484
519.751	4.49
523.126	14.209
526.501	7.35
529.875	9.037
533.25	2.396
536.625	13.674
540	6.487
543.375	0.26
546.75	14.382
550.124	0.588
553.499	3.722
556.874	2.568
560.249	1.788
563.624	6.679
566.998	8.559
570.373	7.073
573.748	15.267
577.123	9.646
580.498	8.354
583.872	9.117
587.247	0.661
590.622	10.09
593.997	8.14
597.372	8.163
600.747	1.485
604.121	8.696
607.496	9.456
610.871	9.278
614.246	10.358
617.621	1.569
620.995	12.088
624.37	6.918
627.745	10.186
631.12	9.571
634.495	0.864
637.87	2.963
641.244	14.124
644.619	8.876
647.994	8.933
651.369	0.382
654.744	23.789
658.118	15.711
661.493	14.522
664.868	15.512
668.243	9.303
671.618	1.994
674.992	3.484
678.367	4.548
681.742	0.751
685.117	1.449
688.492	13.29
691.867	4.05
695.241	12.706
698.616	12.65
701.991	3.664
705.366	14.375
708.741	7.607
712.115	4.039
715.49	3.895
718.865	10.224
722.24	1.937
725.615	4.658
728.99	3.165
732.364	9.515
735.739	5.925
739.114	2.509
742.489	19.916
745.864	13.95
749.238	14.829
752.613	6.532
755.988	4.155
759.363	6.105
762.738	6.847
766.112	2.389
769.487	0.597
772.862	10.693
776.237	5.654
779.612	12.309
782.987	4.585
786.361	0.283
789.736	10.514
793.111	9.879
796.486	2.922
799.86	11.261
803.235	5.602
806.61	2.291
809.985	2.955
813.36	7.249
816.735	5.791
820.109	16.773
823.484	13.168
826.859	7.49
830.234	11.016
833.609	20.343
836.984	21.437
840.358	3.347
843.733	2.829
847.108	3.078
850.483	7.582
853.858	3.864
857.232	16.493
860.607	12.323
863.982	5.904
867.357	10.985
870.732	16.324
874.106	9.838
877.481	19.117
880.856	7.092
884.231	7.637
887.606	1.073
890.981	1.791
894.355	10.408
897.73	18.667
901.105	20.486
904.48	13.663
907.855	17.537
911.229	21.134
914.604	7.638
917.979	12.937
921.354	0.295
924.729	1.847
928.104	4.81
931.478	12.858
934.853	15.437
938.228	17
941.603	18.431
944.977	10.106
948.352	12.047
951.727	16.328
955.102	15.623
958.477	6.886
961.852	3.451
965.226	8.824
968.601	3.88
971.976	0.417
975.351	17.163
978.726	6.069
982.101	13.747
985.475	8.493
988.85	12.323
992.225	6.847
995.6	0.345
998.974	10.943
1002.35	14.165
1005.72	1.342
1009.1	2.615
1012.47	4.445
1015.85	7.738
1019.22	17.261
1022.6	22.72
1025.97	15.351
1029.35	17.105
1032.72	9.808
1036.1	20.878
1039.47	3.061
1042.85	0.934
1046.22	5.139
1049.6	1.308
1052.97	14.915
1056.35	22.11
1059.72	22.973
1063.1	11.093
1066.47	15.145
1069.85	19.489
1073.22	0.165
1076.6	5.87
1079.97	6.176
1083.35	4.275
1086.72	6.087
1090.09	10.155
1093.47	10.748
1096.84	14.257
1100.22	20.302
1103.59	16.198
1106.97	15.471
1110.34	17.548
1113.72	12.795
1117.09	3.296
1120.47	0.405
1123.84	1.197
1127.22	9.044
1130.59	2.352
1133.97	2.877
1137.34	21.058
1140.72	12.785
1144.09	21.196
1147.47	15.267
1150.84	19.962
1154.22	7.724
1157.59	2.239
1160.97	14.125
1164.34	2.783
1167.71	5.573
1171.09	10.597
1174.46	10.596
1177.84	12.996
1181.21	11.16
1184.59	12.802
1187.96	8.628
1191.34	14.692
1194.71	1.602
1198.09	14.958
1201.46	4.433
1204.84	9.578
1208.21	0.061
1211.59	15.765
1214.96	19.963
1218.34	16.288
1221.71	11.669
1225.09	9.904
1228.46	0.912
1231.84	4.858
1235.21	1.129
1238.59	5.496
1241.96	5.006
1245.34	6.147
1248.71	13.025
1252.09	7.827
1255.46	5.768
1258.84	10.217
1262.21	12.523
1265.59	8.341
1268.96	7.185
1272.33	2.035
1275.71	10.57
1279.08	5.567
1282.46	9.078
1285.83	8.329
1289.21	13.62
1292.58	12.237
1295.96	8.828
1299.33	1.535
