Measurement: Raman, 532 nm, unoriented, Raman Data Processed
Mineral: Bournonite
Rruff sample: R050111
Ideal chemistry: CuPbSbS_3_
Locality: Yao Gang Xian mine, Chenzhou, Hunan Province, China
Source: He Xin Jian
Description: Steel-gray short prismatic crystal
Measured chemistry: PbCuSbS_3_
Raman shift (cm-1)	intensity
136.735	0
139.627	0.748491
142.52	0.196192
145.413	0.894846
148.306	3.5439
151.198	3.96319
154.091	6.62445
156.984	9.34342
159.876	10.2683
162.769	11.9749
165.662	12.1131
168.554	12.3816
171.447	13.5434
174.34	12.0859
177.233	11.89
180.125	10.9394
183.018	10.5366
185.911	10.2018
188.803	9.33799
191.696	8.49718
194.589	8.24197
197.482	6.43523
200.374	5.06575
203.267	2.81732
206.16	1.12957
209.052	0.546589
211.945	0.055717
214.838	0.191853
217.73	0.236374
220.623	0.376129
223.516	0.374413
226.409	0.645317
229.301	0.124567
232.194	0.071089
235.087	0.335371
237.979	0.624569
240.872	0.913904
243.765	0.576475
246.657	1.14136
249.55	0.92362
252.443	1.99193
255.335	2.11177
258.228	3.0138
261.121	4.06161
264.014	5.15259
266.906	6.0871
269.799	7.64362
272.692	9.19192
275.584	11.0445
278.477	11.9051
281.37	13.8418
284.262	16.8884
287.155	21.4036
290.048	26.7313
292.941	25.3443
295.833	20.1654
298.726	15.8134
301.619	15.1835
304.511	17.2039
307.404	21.0821
310.297	25.4095
313.19	32.466
316.082	39.9151
318.975	48.6135
321.868	52.9981
324.76	47.8446
327.653	34.989
330.546	22.9978
333.438	15.1593
336.331	10.3563
339.224	7.05518
342.116	4.40009
345.009	2.99299
347.902	1.20049
350.795	1.36624
353.687	0.970039
356.58	0.123804
359.473	0.14624
362.365	0.282276
365.258	0.270785
368.151	0.281144
371.043	0.086742
373.936	0.229913
376.829	0.522611
379.721	0.372198
382.614	0.033448
385.507	0.217511
388.4	0.105966
391.292	0.449192
394.185	0.364459
397.078	0.387583
399.97	0.591978
402.863	0.300068
405.756	0.616548
408.649	0.300894
411.541	0.98348
414.434	0.798157
417.327	0.557514
420.219	0.343195
423.112	0.343109
426.005	0.201452
428.897	0.651113
431.79	0.30717
434.683	0.424069
437.575	0.376792
440.468	0.513655
443.361	0.646355
446.254	0.563338
449.146	1.19782
452.039	0.778437
454.932	0.634281
457.824	1.27584
460.717	1.12539
463.61	0.748144
466.502	1.22916
469.395	1.11962
472.288	1.19607
475.181	1.01139
478.073	0.522932
480.966	0.509622
483.859	0.466422
486.751	0.531788
489.644	0.301797
492.537	0.527391
495.43	0.102781
498.322	0.320897
501.215	0.183655
504.108	0.10793
507	0.425849
509.893	0.238144
512.786	0.272239
515.678	0.10686
518.571	0.446259
521.464	0.248484
524.356	0.391986
527.249	0.02159
530.142	0.351486
533.034	0.23442
535.927	0.612326
538.82	0.328538
541.713	0.331428
544.605	0.641718
547.498	0.481014
550.391	0.55952
553.283	0.541508
556.176	0.615977
559.069	0.359248
561.962	0.427888
564.854	0.139073
567.747	0.133887
570.64	0.211349
573.532	0.017106
576.425	0.627777
579.318	0.243749
582.21	0.184357
585.103	0.273985
587.996	0.181213
590.889	0.143077
593.781	0.187087
596.674	0.259472
599.567	0.343536
602.459	0.131846
605.352	0.35666
608.245	0.292113
611.137	0.472991
614.03	0.021071
616.923	0.078796
619.816	0.566955
622.708	0.171818
625.601	0.331098
628.494	0.184195
631.386	0.398782
634.279	0.154899
637.172	0.289124
640.064	0.057158
642.957	0.396072
645.85	0.279409
648.742	0.567743
651.635	0.62503
654.528	0.648268
657.421	0.711464
660.313	0.300601
663.206	0.396061
666.099	0.983055
668.991	0.692803
671.884	0.547728
674.777	0.480618
677.669	0.162663
680.562	0.364553
683.455	0.532177
686.348	0.230032
689.24	0.119787
692.133	0.062975
695.026	0.068275
697.918	0.226717
700.811	0.10731
703.704	0.398024
706.596	0.06764
709.489	0.278095
712.382	0.024457
715.274	0.310622
718.167	0.214438
721.06	0.009878
723.953	0.183688
726.845	0.008601
729.738	0.050011
732.631	0.589846
735.523	0.345604
738.416	0.323763
741.309	0.375706
744.202	0.475125
747.094	0.130623
749.987	0.182066
752.88	0.127279
755.772	0.033693
758.665	0.322847
761.558	0.416562
764.45	0.080972
767.343	0.26896
770.236	0.336364
773.129	0.567774
776.021	0.173161
778.914	0.043565
781.807	0.278224
784.699	0.339423
787.592	0.174242
790.485	0.488558
793.377	0.036581
796.27	0.161396
799.163	0.068735
802.056	0.00086
804.948	0.45013
807.841	0.378984
810.734	0.053076
813.626	0.332085
816.519	0.384045
819.412	0.368132
822.304	0.416868
825.197	0.398034
828.09	0.670733
830.982	0.431365
833.875	0.382899
836.768	0.240971
839.661	0.468852
842.553	0.367262
845.446	0.32239
848.339	0.453481
851.231	0.114733
854.124	0.272215
857.017	0.235733
859.909	0.289762
862.802	0.342858
865.695	0.481893
868.588	0.037654
871.48	0.496089
874.373	0.248527
877.266	0.442473
880.158	0.356001
883.051	0.574769
885.944	0.177588
888.837	0.47489
891.729	0.122733
894.622	0.136537
897.515	0.411653
900.407	0.343699
903.3	0.195879
906.193	0.473151
909.085	0.371634
911.978	0.086631
914.871	0.389522
917.763	0.343685
920.656	0.245596
923.549	0.043355
926.442	0.480031
929.334	0.301718
932.227	0.195855
935.12	0.000261
938.012	0.162693
940.905	0.401327
943.798	0.038502
946.69	0.429521
949.583	0.444853
952.476	0.116319
955.369	0.222876
958.261	0.209889
961.154	0.402189
964.047	0.083408
966.939	0.026329
969.832	0.133871
972.725	0.041454
975.617	0.206301
978.51	0.203092
981.403	0.144378
984.295	0.222907
987.188	0.606291
990.081	0.254578
992.974	0.314442
995.866	0.302013
998.759	0.091373
1001.65	0.327253
1004.54	0.165009
1007.44	0.339326
1010.33	0.187831
1013.22	0.233212
1016.12	0.178318
1019.01	0.348243
1021.9	0.168835
1024.79	0.302352
1027.69	0.295642
1030.58	0.299157
1033.47	0.173714
1036.36	0.355349
1039.26	0.356819
1042.15	0.431334
1045.04	0.214856
1047.93	0.480525
1050.83	0.496742
1053.72	0.096606
1056.61	0.121618
1059.51	0.183785
1062.4	0.548406
1065.29	0.031731
1068.18	0.070577
1071.08	0.197943
1073.97	0.282451
1076.86	0.649542
1079.76	0.27956
1082.65	0.247337
1085.54	0.237435
1088.43	0.214
1091.33	0.009738
1094.22	0.260724
1097.11	0.331594
1100	0.305741
1102.9	0.323026
1105.79	0.029756
1108.68	0.053013
1111.57	0.518366
1114.47	0.291424
1117.36	0.375055
1120.25	0.381963
1123.14	0.277042
1126.04	0.05674
1128.93	0.201726
1131.82	0.309099
1134.72	0.180473
1137.61	0.103307
1140.5	0.013613
1143.39	0.30459
1146.29	0.193137
1149.18	0.163956
1152.07	0.206154
1154.96	0.042186
1157.86	0.24691
1160.75	0.088386
1163.64	0.063541
1166.54	0.390555
1169.43	0.374654
1172.32	0.012342
1175.21	0.157463
1178.11	0.1416
1181	0.329231
1183.89	0.35152
1186.78	0.18995
1189.68	0.168223
1192.57	0.767749
1195.46	0.392616
1198.36	0.217798
1201.25	0.098221
1204.14	0.523274
1207.03	0.33695
1209.93	0.233463
1212.82	0.564146
1215.71	0.31298
1218.6	0.281136
1221.5	0.344098
1224.39	0.267077
1227.28	0.388541
1230.17	0.296785
1233.07	0.297324
1235.96	0.393015
1238.85	0.378268
1241.75	0.103035
1244.64	0.34796
1247.53	0.256142
1250.42	0.219933
1253.32	0.410233
1256.21	0.768172
1259.1	0.408068
1261.99	0.12612
1264.89	0.373875
1267.78	0.236811
1270.67	0.373103
1273.57	0.151551
1276.46	0.440585
1279.35	0.144394
1282.24	0.546606
1285.14	0.376317
1288.03	0.384924
