Measurement: Raman, 780 nm, unoriented, Raman Data Processed
Mineral: Bournonite
Rruff sample: R050111
Ideal chemistry: CuPbSbS_3_
Locality: Yao Gang Xian mine, Chenzhou, Hunan Province, China
Source: He Xin Jian
Description: Steel-gray short prismatic crystal
Measured chemistry: PbCuSbS_3_
Raman shift (cm-1)	intensity
126.884	0
129.776	0.21872
132.669	0.110714
135.562	0.354957
138.455	0.766775
141.347	0.66419
144.24	1.09788
147.133	1.90558
150.025	2.24725
152.918	2.91336
155.811	3.32046
158.703	3.57694
161.596	3.75454
164.489	3.54556
167.382	3.6833
170.274	4.12311
173.167	4.16844
176.06	4.03409
178.952	4.88479
181.845	5.12114
184.738	5.78598
187.631	6.03095
190.523	6.05959
193.416	6.07906
196.309	5.56881
199.201	4.67924
202.094	3.3578
204.987	2.2466
207.879	1.55996
210.772	0.953257
213.665	0.755219
216.558	0.388685
219.45	0.561568
222.343	0.385484
225.236	0.325087
228.128	0.129164
231.021	0.058986
233.914	0.255112
236.806	0.216862
239.699	0.218937
242.592	0.12508
245.484	0.002525
248.377	0.169424
251.27	0.317554
254.162	0.679598
257.055	1.15683
259.948	1.64477
262.841	2.3701
265.733	3.29586
268.626	5.67164
271.519	7.84606
274.411	10.043
277.304	11.37
280.197	13.5933
283.089	14.8888
285.982	15.7129
288.875	15.6055
291.768	12.9945
294.66	10.5793
297.553	8.80503
300.446	10.243
303.338	13.7496
306.231	17.0362
309.124	20.3102
312.017	23.335
314.909	26.0172
317.802	28.4925
320.695	27.2524
323.587	23.7206
326.48	17.467
329.373	11.4874
332.265	8.22968
335.158	5.9439
338.051	4.14077
340.943	2.68501
343.836	1.70363
346.729	0.860369
349.622	0.700664
352.514	0.521159
355.407	0.513619
358.3	0.391579
361.192	0.084747
364.085	0.188185
366.978	0.409
369.87	0.242084
372.763	0.164275
375.656	0.405983
378.549	0.090626
381.441	0.004164
384.334	0.04112
387.227	0.329373
390.119	0.230796
393.012	0.130366
395.905	0.029911
398.798	0.112344
401.69	0.088704
404.583	0.086325
407.476	0.058477
410.368	0.281317
413.261	0.305992
416.154	0.463115
419.046	0.263137
421.939	0.327369
424.832	0.356346
427.724	0.45056
430.617	0.358938
433.51	0.470927
436.402	0.443772
439.295	0.44016
442.188	0.441177
445.081	0.216668
447.973	0.453529
450.866	0.41528
453.759	0.399601
456.651	0.610996
459.544	0.50962
462.437	0.109497
465.329	0.371483
468.222	0.234338
471.115	0.254579
474.008	0.330204
476.9	0.229664
479.793	0.348569
482.686	0.227972
485.578	0.29236
488.471	0.354108
491.364	0.380527
494.257	0.057768
497.149	0.19474
500.042	0.042972
502.935	0.001223
505.827	0.230272
508.72	0.238942
511.613	0.459531
514.505	0.329662
517.398	0.232589
520.291	0.317972
523.183	0.086162
526.076	0.131534
528.969	0.20043
531.862	0.055357
534.754	0.135405
537.647	0.250672
540.54	0.26334
543.432	0.261845
546.325	0.282413
549.218	0.224114
552.11	0.18187
555.003	0.432854
557.896	0.144723
560.788	0.161953
563.681	0.022765
566.574	0.172512
569.467	0.270189
572.359	0.006727
575.252	0.023207
578.145	0.144313
581.037	0.079538
583.93	0.162205
586.823	0.044555
589.716	0.167831
592.608	0.190349
595.501	0.085643
598.394	0.024076
601.286	0.186316
604.179	0.114119
607.072	0.056865
609.964	0.190685
612.857	0.172421
615.75	0.03163
618.643	0.05528
621.535	0.038972
624.428	0.183153
627.321	0.01663
630.213	0.112443
633.106	0.301694
635.999	0.08074
638.891	0.225893
641.784	0.261206
644.677	0.130108
647.569	0.012873
650.462	0.042645
653.355	0.155178
656.248	0.220269
659.14	0.1836
662.033	0.272797
664.926	0.143797
667.818	0.259994
670.711	0.200532
673.604	0.168688
676.496	0.153115
679.389	0.166637
682.282	0.104043
685.175	0.021351
688.067	0.177695
690.96	0.104418
693.853	0.190636
696.745	0.041466
699.638	0.314711
702.531	0.083531
705.423	0.305612
708.316	0.171531
711.209	0.138764
714.101	0.078884
716.994	0.097625
719.887	0.063373
722.78	0.103042
725.672	0.231422
728.565	0.193373
731.458	0.175558
734.35	0.253039
737.243	0.253955
740.136	0.308715
743.029	0.183475
745.921	0.255143
748.814	0.000947
751.707	0.007629
754.599	0.147548
757.492	0.031948
760.385	0.057065
763.277	0.182816
766.17	0.321388
769.063	0.177839
771.956	0.054514
774.848	0.234375
777.741	0.088905
780.634	0.144153
783.526	0.164701
786.419	0.136817
789.312	0.019356
792.204	0.278357
795.097	0.129098
797.99	0.157109
800.882	0.167516
803.775	0.258871
806.668	0.146199
809.561	0.321556
812.453	0.112198
815.346	0.191515
818.239	0.213401
821.131	0.072014
824.024	0.099409
826.917	0.341434
829.809	0.213253
832.702	0.195682
835.595	0.163106
838.487	0.0603
841.38	0.201333
844.273	0.101477
847.166	0.359692
850.058	0.251896
852.951	0.062899
855.844	0.243294
858.736	0.310548
861.629	0.014101
864.522	0.308438
867.415	0.062383
870.307	0.217545
873.2	0.224488
876.093	0.119086
878.985	0.176323
881.878	0.263727
884.771	0.134772
887.663	0.265512
890.556	0.08595
893.449	0.089592
896.341	0.148501
899.234	0.064914
902.127	0.112806
905.02	0.098538
907.912	0.246238
910.805	0.184688
913.698	0.312591
916.59	0.043883
919.483	0.157098
922.376	0.142283
925.269	0.01397
928.161	0.325074
931.054	0.166584
933.947	0.216826
936.839	0.005856
939.732	0.028061
942.625	0.250385
945.517	0.078371
948.41	0.354744
951.303	0.330063
954.196	0.192042
957.088	0.153664
959.981	0.024021
962.874	0.179615
965.766	0.230175
968.659	0.159334
971.552	0.342608
974.444	0.199318
977.337	0.188566
980.23	0.188306
983.122	0.005552
986.015	0.269378
988.908	0.045615
991.801	0.217043
994.693	0.107493
997.586	0.179933
1000.48	0.122687
1003.37	0.158242
1006.26	0.251111
1009.16	0.184951
1012.05	0.026372
1014.94	0.240226
1017.84	0.179932
1020.73	0.076347
1023.62	0.221005
1026.51	0.031978
1029.41	0.180885
1032.3	0.397275
1035.19	0.043883
1038.08	0.098431
1040.98	0.122444
1043.87	0.313614
1046.76	0.100807
1049.65	0.111819
1052.55	0.095733
1055.44	0.050857
1058.33	0.201824
1061.22	0.191435
1064.12	0.280534
1067.01	0.243824
1069.9	0.22964
1072.8	0.324703
1075.69	0.110668
1078.58	0.012391
1081.47	0.111325
1084.37	0.172847
1087.26	0.271337
1090.15	0.117993
1093.05	0.284734
1095.94	0.199407
1098.83	0.299193
1101.72	0.198387
1104.62	0.307832
1107.51	0.238556
1110.4	0.170417
1113.29	0.009472
1116.19	0.345506
1119.08	0.241134
1121.97	0.107388
1124.87	0.16007
1127.76	0.013921
1130.65	0.318423
1133.54	0.164191
1136.43	0.048941
1139.33	0.208704
1142.22	0.138534
1145.11	0.252114
1148.01	0.090836
1150.9	0.223515
1153.79	0.287434
1156.68	0.068504
1159.58	0.403942
1162.47	0.097039
1165.36	0.2741
1168.26	0.127434
1171.15	0.308805
1174.04	0.120753
1176.93	0.206934
1179.83	0.305234
1182.72	0.110897
1185.61	0.174003
1188.5	0.231736
1191.4	0.216161
1194.29	0.307557
1197.18	0.265324
1200.08	0.39282
1202.97	0.263327
1205.86	0.1682
1208.75	0.124733
1211.65	0.250982
1214.54	0.254895
1217.43	0.12307
1220.32	0.168148
1223.22	0.225629
1226.11	0.124529
1229	0.206568
1231.89	0.037987
1234.79	0.05616
1237.68	0.333211
1240.57	0.319389
1243.46	0.142068
1246.36	0.144537
1249.25	0.272174
1252.14	0.218607
1255.04	0.266872
1257.93	0.143249
1260.82	0.189702
1263.71	0.228115
1266.61	0.169172
1269.5	0.049274
1272.39	0.197224
1275.29	0.337887
1278.18	0.061413
