Measurement: Raman, 780 nm, unoriented, Raman Data Processed
Mineral: Bournonite
Rruff sample: R050364
Ideal chemistry: CuPbSbS_3_
Locality: Neudorf, Harz Mountains, Austria
Source: University of Arizona Mineral Museum
Description: Black fragment
Measured chemistry: Pb_1.00_Cu_1.00_Sb_1.00_S_3.00_
Raman shift (cm-1)	intensity
159.538	0
162.43	0.026529
165.323	0.026489
168.216	0.13225
171.108	0.308126
174.001	0.861992
176.894	1.59308
179.786	2.5899
182.679	3.50127
185.572	4.77267
188.465	5.6724
191.357	6.84235
194.25	6.80761
197.143	6.48154
200.035	5.79309
202.928	3.8887
205.821	2.81559
208.714	1.99245
211.606	1.28938
214.499	1.08235
217.392	0.493059
220.284	0.414445
223.177	0.237844
226.07	0.080297
228.962	0.149489
231.855	0.398914
234.748	0.098126
237.641	0.190697
240.533	0.12017
243.426	0.369258
246.319	1.08152
249.211	1.01003
252.104	1.11042
254.997	2.53004
257.889	3.37112
260.782	4.94605
263.675	7.50842
266.567	10.0596
269.46	14.6638
272.353	20.0335
275.246	24.2743
278.138	28.8958
281.031	33.9131
283.924	38.2511
286.816	38.3726
289.709	34.0324
292.602	24.3462
295.495	15.7762
298.387	11.8041
301.28	11.3349
304.173	13.8965
307.065	16.9846
309.958	20.9133
312.851	26.8039
315.743	31.2975
318.636	35.4006
321.529	34.7551
324.421	28.7389
327.314	19.8959
330.207	13.9564
333.1	10.086
335.992	7.28883
338.885	4.94245
341.778	3.58216
344.67	2.09761
347.563	1.03781
350.456	0.532897
353.349	0.592263
356.241	0.456828
359.134	0.250634
362.027	0.049852
364.919	0.144661
367.812	0.070858
370.705	0.033799
373.597	0.048184
376.49	0.01676
379.383	0.042816
382.276	0.021341
385.168	0.177248
388.061	0.02905
390.954	0.036241
393.846	0.112518
396.739	0.013893
399.632	0.137586
402.524	0.013392
405.417	0.241701
408.31	0.186899
411.202	0.177945
414.095	0.437378
416.988	0.304682
419.881	0.636223
422.773	0.406556
425.666	0.455706
428.559	0.445954
431.451	0.512607
434.344	0.654191
437.237	0.752072
440.13	0.774033
443.022	0.404677
445.915	0.522314
448.808	0.630942
451.7	0.530166
454.593	0.525273
457.486	0.568302
460.378	0.310909
463.271	0.400517
466.164	0.617375
469.057	0.531482
471.949	0.581344
474.842	0.589696
477.735	0.432701
480.627	0.130725
483.52	0.483392
486.413	0.301168
489.305	0.490905
492.198	0.251047
495.091	0.361655
497.983	0.427438
500.876	0.164171
503.769	0.263774
506.662	0.270805
509.554	0.025732
512.447	0.294329
515.34	0.2019
518.232	0.26008
521.125	0.266979
524.018	0.319742
526.91	0.37739
529.803	0.31081
532.696	0.134142
535.589	0.262094
538.481	0.192131
541.374	0.098053
544.267	0.305506
547.159	0.188141
550.052	0.076053
552.945	0.246693
555.837	0.153549
558.73	0.365385
561.623	0.36877
564.516	0.299663
567.408	0.210692
570.301	0.065258
573.194	0.247865
576.086	0.152894
578.979	0.191222
581.872	0.216596
584.764	0.152184
587.657	0.09529
590.55	0.303177
593.443	0.335461
596.335	0.30697
599.228	0.470936
602.121	0.109891
605.013	0.384725
607.906	0.137038
610.799	0.260587
613.692	0.008064
616.584	0.397949
619.477	0.301466
622.37	0.193147
625.262	0.485878
628.155	0.099229
631.048	0.423685
633.94	0.227425
636.833	0.151281
639.726	0.175048
642.619	0.058715
645.511	0.325747
648.404	0.479145
651.297	0.109355
654.189	0.366309
657.082	0.012154
659.975	0.312972
662.867	0.135079
665.76	0.302722
668.653	0.257706
671.545	0.149063
674.438	0.135704
677.331	0.272223
680.224	0.175769
683.116	0.235272
686.009	0.254388
688.902	0.154835
691.794	0.107742
694.687	0.056273
697.58	0.244032
700.472	0.056168
703.365	0.019004
706.258	0.089516
709.151	0.174509
712.043	0.11993
714.936	0.095253
717.829	0.112737
720.721	0.09442
723.614	0.320547
726.507	0.216619
729.399	0.249325
732.292	0.165825
735.185	0.208415
738.078	0.054765
740.97	0.258122
743.863	0.321274
746.756	0.132759
749.648	0.400896
752.541	0.366066
755.434	0.107805
758.327	0.360466
761.219	0.172558
764.112	0.266575
767.005	0.256708
769.897	0.264813
772.79	0.416089
775.683	0.485935
778.575	0.263433
781.468	0.45341
784.361	0.254099
787.254	0.224498
790.146	0.283327
793.039	0.094459
795.932	0.174321
798.824	0.511866
801.717	0.401633
804.61	0.409298
807.502	0.446032
810.395	0.447453
813.288	0.461108
816.181	0.41977
819.073	0.469234
821.966	0.27886
824.859	0.221199
827.751	0.780895
830.644	0.321967
833.537	0.547029
836.429	0.50723
839.322	0.553785
842.215	0.399905
845.107	0.59089
848	0.364768
850.893	0.583656
853.786	0.764101
856.678	0.295918
859.571	0.401806
862.464	0.25219
865.356	0.368136
868.249	0.283124
871.142	0.538493
874.034	0.383842
876.927	0.326754
879.82	0.208584
882.713	0.066685
885.605	0.420046
888.498	0.115975
891.391	0.001291
894.283	0.431836
897.176	0.247427
900.069	0.280985
902.962	0.393983
905.854	0.302993
908.747	0.008487
911.64	0.141306
914.532	0.278773
917.425	0.237521
920.318	0.098637
923.21	0.259993
926.103	0.20563
928.996	0.110258
931.888	0.284339
934.781	0.106162
937.674	0.076016
940.567	0.22562
943.459	0.104999
946.352	0.454854
949.245	0.177085
952.137	0.037647
955.03	0.053401
957.923	0.191133
960.815	0.426333
963.708	0.368979
966.601	0.011562
969.494	0.116646
972.386	0.200352
975.279	0.129139
978.172	0.325177
981.064	0.253769
983.957	0.203798
986.85	0.1582
989.742	0.374655
992.635	0.245644
995.528	0.122851
998.42	0.112939
1001.31	0.37587
1004.21	0.016359
1007.1	0.08153
1009.99	0.256975
1012.88	0.412269
1015.78	0.05634
1018.67	0.120867
1021.56	0.525748
1024.45	0.31274
1027.35	0.356528
1030.24	0.192307
1033.13	0.08181
1036.03	0.290981
1038.92	0.263381
1041.81	0.109274
1044.7	0.721396
1047.6	0.270432
1050.49	0.247958
1053.38	0.455274
1056.28	0.30787
1059.17	0.548542
1062.06	0.312354
1064.95	0.229989
1067.85	0.156521
1070.74	0.453156
1073.63	0.09367
1076.52	0.357533
1079.42	0.083122
1082.31	0.589763
1085.2	0.157435
1088.09	0.482952
1090.99	0.761828
1093.88	0.10008
1096.77	0.29171
1099.66	0.301147
1102.56	0.329344
1105.45	0.247228
1108.34	0.210674
1111.24	0.002804
1114.13	0.131894
1117.02	0.13775
1119.91	0.144125
1122.81	0.37113
1125.7	0.398928
1128.59	0.277961
1131.48	0.110784
1134.38	0.19883
1137.27	0.18213
1140.16	0.310223
1143.06	0.277865
1145.95	0.281814
1148.84	0.098943
1151.73	0.04423
1154.63	0.53284
1157.52	0.266755
1160.41	0.324585
1163.3	0.147278
1166.2	0.03275
1169.09	0.346421
1171.98	0.09421
1174.88	0.379363
1177.77	0.667513
1180.66	0.237341
1183.55	0.257066
1186.45	0.117521
1189.34	0.293383
1192.23	0.244185
1195.12	0.113787
1198.02	0.393421
1200.91	0.398682
1203.8	0.305656
1206.69	0.095467
1209.59	0.066533
1212.48	0.198503
1215.37	0.276112
1218.27	0.087442
1221.16	0.133716
1224.05	0.115216
1226.94	0.161263
1229.84	0.267462
1232.73	0.344963
1235.62	0.269174
1238.52	0.258825
1241.41	0.29724
1244.3	0.159393
1247.19	0.465858
1250.09	0.238526
1252.98	0.146439
1255.87	0.254412
1258.76	0.259762
1261.66	0.355766
1264.55	0.258601
1267.44	0.367028
1270.33	0.4059
1273.23	0.454288
1276.12	0.0155
1279.01	0.211559
1281.9	0.481526
1284.8	0.092724
