Measurement: Raman, 532 nm, unoriented, Raman Data Processed
Mineral: Boussingaultite
Rruff sample: R061027
Ideal chemistry: (NH_4_)_2_Mg(SO_4_)_2_6H_2_O
Locality: Kladno, Bohmen, Czech Republic
Source: Michael Scott
Description: White granular aggregates
Raman shift (cm-1)	intensity
160.574	0
163.466	180.131
166.359	93.7617
169.252	61.6777
172.144	65.9023
175.037	180.529
177.93	295.773
180.822	346.129
183.715	418.234
186.608	486.299
189.501	353.912
192.393	352.885
195.286	183.799
198.179	120.762
201.071	96.1094
203.964	136.99
206.857	169.217
209.75	150.185
212.642	174.758
215.535	208.434
218.428	219.01
221.32	272.16
224.213	146.477
227.106	176.565
229.998	178.193
232.891	47.7812
235.784	477.998
238.676	119.148
241.569	207.268
244.462	273.842
247.355	198.285
250.247	123.934
253.14	21.6523
256.033	48.1562
258.925	154.797
261.818	157.492
264.711	100.799
267.603	110.525
270.496	109.492
273.389	106.295
276.281	137.191
279.174	228.875
282.067	175.863
284.96	139.461
287.852	141.391
290.745	150.609
293.638	1.16797
296.53	65.5469
299.423	94.2188
302.316	337.754
305.209	417.342
308.101	354.367
310.994	388.096
313.887	253.955
316.779	133.408
319.672	187.562
322.565	269.676
325.457	248.91
328.35	304.199
331.243	208.674
334.135	156.041
337.028	198.676
339.921	264.904
342.814	130.266
345.706	81.0371
348.599	177.344
351.492	274.85
354.384	117.6
357.277	156.264
360.17	146.611
363.062	199.197
365.955	177.394
368.848	84.1309
371.741	120.516
374.633	133.19
377.526	59.0684
380.419	104.775
383.311	99.8047
386.204	90.5449
389.097	202.769
391.99	86.293
394.882	81.2539
397.775	76.0195
400.668	107.365
403.56	85.1953
406.453	81.7031
409.346	130.471
412.238	105.908
415.131	188.965
418.024	249.205
420.916	210.391
423.809	119.307
426.702	239.065
429.594	402.56
432.487	539.949
435.38	884.816
438.273	1117.96
441.165	1673.6
444.058	2340.18
446.951	2935.39
449.843	3298.23
452.736	3293.62
455.629	2907.78
458.522	2487.41
461.414	2042.55
464.307	1313.19
467.2	987.326
470.092	826.744
472.985	553.744
475.878	234.688
478.77	221.088
481.663	137.963
484.556	269.184
487.449	220.387
490.341	1.85742
493.234	1.875
496.127	11.7715
499.019	83.0488
501.912	0.601563
504.805	63.6133
507.697	40.6934
510.59	38.1113
513.483	17.3438
516.375	99.9219
519.268	178.338
522.161	223.19
525.054	109.984
527.946	181.35
530.839	253.41
533.732	6.28125
536.624	65.6816
539.517	66.7383
542.41	264.51
545.303	184.272
548.195	338.828
551.088	183.182
553.981	267.803
556.873	191.787
559.766	124.531
562.659	358.322
565.551	364.69
568.444	414.065
571.337	421.904
574.23	502.25
577.122	264.297
580.015	458.516
582.908	449.914
585.8	594.527
588.693	700.545
591.586	808.564
594.478	928.879
597.371	1091.49
600.264	1276.72
603.157	1677.42
606.049	2065.66
608.942	2465.56
611.835	2726.36
614.727	2818.22
617.62	2886.73
620.513	2983.62
623.405	3187.1
626.298	3074.49
629.191	2659.27
632.083	2108.35
634.976	1761.55
637.869	1549.85
640.761	1365.44
643.654	1220.1
646.547	1102.24
649.44	1012.28
652.332	886.203
655.225	747.707
658.118	680.383
661.01	488.65
663.903	269.773
666.796	278.584
669.688	302.756
672.581	194.815
675.474	9.25586
678.367	37.334
681.259	127.393
684.152	149.562
687.045	270.482
689.937	160.693
692.83	247.301
695.723	176.059
698.615	46.8672
701.508	45.9062
704.401	132.609
707.294	79.5
710.186	51.9297
713.079	45.668
715.972	102.293
718.864	19.1875
721.757	172.418
724.65	231.805
727.543	230.481
730.435	32.6641
733.328	72.8789
736.221	168.731
739.113	90.7578
742.006	148.023
744.899	246.277
747.791	342.809
750.684	199.34
753.577	11.3633
756.47	141.664
759.362	75.5352
762.255	31.5117
765.148	184.981
768.04	336.344
770.933	465.176
773.826	357.211
776.718	452.312
779.611	478.609
782.504	761.301
785.396	766.914
788.289	1011.12
791.182	954.117
794.075	990.305
796.967	1240.56
799.86	1147.65
802.753	1285.76
805.645	1366.58
808.538	1486.73
811.431	1456.41
814.323	1772.32
817.216	1655.34
820.109	1741.48
823.002	1813.18
825.894	1865.59
828.787	1987.27
831.68	1688.94
834.572	1540.18
837.465	1559.94
840.358	1480.59
843.25	1245.79
846.143	1015.76
849.036	816.891
851.929	568.492
854.821	318.746
857.714	423.281
860.607	475.227
863.499	251.902
866.392	273.32
869.285	138.621
872.178	101.172
875.07	10.6289
877.963	53.3125
880.856	140.68
883.748	183.5
886.641	243.019
889.534	168.332
892.426	334.477
895.319	387.508
898.212	233.363
901.104	95.2539
903.997	54.3359
906.89	156.273
909.783	12.2617
912.675	10.9453
915.568	86.7109
918.461	50.8789
921.353	61.4023
924.246	239.809
927.139	279.301
930.031	243.125
932.924	119.535
935.817	252.852
938.71	177.297
941.602	192.742
944.495	67.9609
947.388	43.2773
950.28	69.5039
953.173	116.266
956.066	36.2539
958.958	335.496
961.851	354.453
964.744	815.156
967.636	1227.46
970.529	2866.55
973.422	5461.69
976.315	9068.31
979.207	15032.5
982.1	22524
984.993	14355.6
987.885	3726.22
990.778	1431.09
993.671	657.332
996.563	478.977
999.456	440.492
1002.35	531.672
1005.24	328.91
1008.13	198.031
1011.03	215.309
1013.92	168.769
1016.81	4.78906
1019.71	36.957
1022.6	12.0977
1025.49	173.766
1028.38	81.2812
1031.28	30.5898
1034.17	18.2188
1037.06	212.914
1039.95	90.4805
1042.85	31.043
1045.74	62.7188
1048.63	105.633
1051.53	357.133
1054.42	459.727
1057.31	576.148
1060.2	662.238
1063.1	557.066
1065.99	533.988
1068.88	656.34
1071.77	567.492
1074.67	478.359
1077.56	241.082
1080.45	125.773
1083.34	349.051
1086.24	449.492
1089.13	501.203
1092.02	488.961
1094.91	686.348
1097.81	557.816
1100.7	609.754
1103.59	628.172
1106.49	485.703
1109.38	376.91
1112.27	335.719
1115.16	284.293
1118.06	288.184
1120.95	504.012
1123.84	381.019
1126.73	772.023
1129.63	896.856
1132.52	818.195
1135.41	701.117
1138.31	415.695
1141.2	527.539
1144.09	210.066
1146.98	117.969
1149.88	157.699
1152.77	342.078
1155.66	411.516
1158.56	240.293
1161.45	304.871
1164.34	106.5
1167.23	131.004
1170.12	29.7812
1173.02	246.25
1175.91	271.426
1178.8	373.758
1181.7	387.512
1184.59	481.438
1187.48	238.269
1190.37	32.0547
1193.27	72.9609
1196.16	132.269
1199.05	72.4375
1201.94	135.215
1204.84	197.09
1207.73	214.156
1210.62	340.523
1213.52	276.004
1216.41	263.914
1219.3	187.082
1222.19	85.3164
1225.09	219.769
1227.98	239.43
1230.87	315.199
1233.77	251.453
1236.66	508.316
1239.55	366.562
1242.44	413.633
1245.34	503.238
1248.23	513.992
1251.12	434.894
1254.01	294.25
1256.91	375.441
1259.8	194.641
1262.69	29.1836
1265.58	29.5586
1268.48	344.922
1271.37	540.996
1274.26	423.66
1277.15	447.613
1280.05	223.727
1282.94	144.32
1285.83	168.539
1288.73	31.5078
1291.62	0
