Measurement: Raman, 780 nm, unoriented, Raman Data Processed
Mineral: Boussingaultite
Rruff sample: R070597
Ideal chemistry: (NH_4_)_2_Mg(SO_4_)_2_6H_2_O
Locality: The Geysers, near Cloverdale, Sonoma County, California, USA
Source: James Shigley
Description: Unconsolidated aggregate of transparent to translucent colorless to white grains
Raman shift (cm-1)	intensity
137.587	0
140.479	35.0859
143.372	515.314
146.265	1531.84
149.157	2918.97
152.05	4192.92
154.943	4488.41
157.836	3998.32
160.728	3387.57
163.621	2937.09
166.514	2648.65
169.406	2612.67
172.299	2824.61
175.192	3371.49
178.084	3914.88
180.977	4193.08
183.87	4617.94
186.763	4460.38
189.655	3950.57
192.548	3082.95
195.441	2479.84
198.333	1998.3
201.226	1584.58
204.119	1274.46
207.012	1030.72
209.904	602.338
212.797	439.164
215.69	838.113
218.582	1258.99
221.475	893
224.368	130.981
227.261	111.109
230.153	14.6504
233.046	75.7715
235.939	145.445
238.831	258.481
241.724	421.953
244.617	583.4
247.509	488.188
250.402	258.322
253.295	327.338
256.188	182.4
259.08	21.5449
261.973	7.1582
264.866	84.2012
267.758	10.8262
270.651	22.5566
273.544	61.0547
276.436	106.071
279.329	30.5752
282.222	65.9561
285.115	157.647
288.007	257.548
290.9	401.077
293.793	458.364
296.685	713.527
299.578	842.796
302.471	903.205
305.363	1068.33
308.256	1250.05
311.149	1284.38
314.041	1304.08
316.934	1346.15
319.827	1192.23
322.72	1063.92
325.612	948.084
328.505	834.118
331.398	743.394
334.29	650.16
337.183	546.375
340.076	410.31
342.969	470.611
345.861	520.143
348.754	562.99
351.647	581.629
354.539	697.258
357.432	768.305
360.325	905.987
363.217	807.617
366.11	759.408
369.003	702.447
371.896	459.272
374.788	276.797
377.681	257.431
380.574	148.746
383.466	200.673
386.359	172.078
389.252	43.1973
392.144	27.1523
395.037	31.0977
397.93	15.8896
400.822	9.51758
403.715	8.1377
406.608	31.8125
409.501	9.56445
412.393	134.856
415.286	12.3711
418.179	120.731
421.071	265.772
423.964	454.224
426.857	544.496
429.75	987.002
432.642	1600.71
435.535	1823.85
438.428	2458.11
441.32	3406.07
444.213	4741.73
447.106	6525.59
449.998	8333.7
452.891	9273.94
455.784	9583.83
458.676	9370.45
461.569	7946.95
464.462	5862.65
467.355	3953.01
470.247	2674.45
473.14	2154.72
476.033	1298.91
478.925	633.917
481.818	537.076
484.711	281.623
487.603	68.9883
490.496	40.1191
493.389	95.9414
496.282	117.743
499.174	118.037
502.067	160.044
504.96	55.8506
507.852	22.1133
510.745	88.3457
513.638	58.2549
516.53	1.13086
519.423	28.2129
522.316	55.4072
525.209	99.2041
528.101	17.6855
530.994	61.3213
533.887	30.1846
536.779	121.355
539.672	9.80566
542.565	69.6143
545.457	118.326
548.35	185.412
551.243	73.874
554.136	220.922
557.028	189.898
559.921	217.018
562.814	143.943
565.706	289.534
568.599	210.745
571.492	185.391
574.385	216.043
577.277	159.837
580.17	223.986
583.063	335.378
585.955	290.977
588.848	438.337
591.741	631.456
594.633	794.253
597.526	1113.23
600.419	1708.6
603.312	2529.28
606.204	3593.24
609.097	4783.38
611.99	5911.17
614.882	5953.03
617.775	5221.66
620.668	5039.7
623.56	5391.49
626.453	5760.17
629.346	4673.18
632.239	2915.08
635.131	1845.75
638.024	1052.44
640.917	803.007
643.809	473.825
646.702	382.204
649.595	158.296
652.487	108.97
655.38	90.4316
658.273	100.882
661.165	152.42
664.058	50.21
666.951	25.0537
669.844	38.3691
672.736	39.8193
675.629	97.4531
678.522	29.3262
681.414	1.37012
684.307	39.7051
687.2	21.8965
690.092	13.0332
692.985	26.0625
695.878	18.4736
698.771	48.7373
701.663	9.03125
704.556	1.99219
707.449	99.6523
710.341	128.316
713.234	75.7197
716.127	102.499
719.019	121.739
721.912	236.323
724.805	97.7324
727.698	126.147
730.59	173.304
733.483	116.865
736.376	160.452
739.268	85.167
742.161	82.584
745.054	148.815
747.947	53.792
750.839	40.0332
753.732	64.8438
756.625	74.3467
759.517	40.1914
762.41	85.7607
765.303	150.464
768.195	90.0469
771.088	125.107
773.981	295.096
776.874	168.148
779.766	221.314
782.659	192.734
785.552	218.866
788.444	135.759
791.337	101.906
794.23	448.987
797.122	160.181
800.015	104.155
802.908	100.785
805.801	36.6348
808.693	40.1719
811.586	27.8545
814.479	69.916
817.371	66.7744
820.264	96.6426
823.157	15.0693
826.049	122.292
828.942	21.3154
831.835	49.6631
834.728	25.5957
837.62	13.1104
840.513	59.6426
843.406	66.79
846.298	98.8135
849.191	3.27441
852.084	121.825
854.976	112.158
857.869	60.9434
860.762	2.08887
863.655	27.5215
866.547	91.0586
869.44	118.394
872.333	110.446
875.225	140.738
878.118	123.695
881.011	75.0449
883.904	167.784
886.796	84.1084
889.689	69.2725
892.582	33.2178
895.474	121.738
898.367	126.433
901.26	100.456
904.152	59.0596
907.045	84.7734
909.938	76.6094
912.831	36.1787
915.723	59.54
918.616	121.124
921.509	100.924
924.401	46.206
927.294	22.1777
930.187	3.78418
933.079	24.7334
935.972	6.92969
938.865	19.0303
941.758	46.6279
944.65	109.064
947.543	179.81
950.436	307.944
953.328	356.375
956.221	488.115
959.114	718.965
962.006	1231.48
964.899	1882.68
967.792	2583.63
970.684	4614.21
973.577	11386.8
976.47	26541.8
979.363	57358.6
982.255	106979
985.148	63303.5
988.041	19203.4
990.933	6151.85
993.826	2974.86
996.719	1718.56
999.611	1130.04
1002.5	705.236
1005.4	444.16
1008.29	290.731
1011.18	233.761
1014.08	52.2168
1016.97	4.10254
1019.86	24.0088
1022.75	26.7656
1025.65	83.4551
1028.54	86.4121
1031.43	7.68457
1034.32	37.9111
1037.22	203.302
1040.11	459.783
1043	693.296
1045.89	540.196
1048.79	344.342
1051.68	477.869
1054.57	759.933
1057.46	874.33
1060.36	1300.19
1063.25	1568.22
1066.14	1632.5
1069.04	1566.47
1071.93	1389.27
1074.82	1097.26
1077.71	922.098
1080.61	796.669
1083.5	809.58
1086.39	989.919
1089.29	1244.18
1092.18	1320
1095.07	1307.59
1097.96	1399.35
1100.86	1063.76
1103.75	851.404
1106.64	749.356
1109.53	770.957
1112.43	969.241
1115.32	1178.15
1118.21	1706.94
1121.11	2247.37
1124	2899.93
1126.89	3595.18
1129.78	4208.09
1132.68	4276.76
1135.57	3685.18
1138.46	2908.57
1141.35	2064.79
1144.25	1506.78
1147.14	1139.3
1150.03	875.902
1152.92	738.521
1155.82	548.618
1158.71	343.943
1161.6	262.094
1164.49	93.4287
1167.39	72.4473
1170.28	19.7178
1173.17	16.7646
1176.07	8.7041
1178.96	43.3027
1181.85	55.4023
1184.74	69.3926
1187.64	51.3379
1190.53	33.5967
1193.42	15.7471
1196.32	2.92871
1199.21	20.3945
1202.1	11.499
1204.99	0.28125
1207.89	142.514
1210.78	175.018
1213.67	167.286
1216.56	166.581
1219.46	172.089
1222.35	176.276
1225.24	115.51
1228.13	166.459
1231.03	140.757
1233.92	112.73
1236.81	94.7041
1239.71	45.0391
1242.6	114.185
1245.49	41.6699
1248.38	69.5019
1251.28	67.4287
1254.17	96.3672
1257.06	168.319
1259.95	60.3398
1262.85	101.645
1265.74	90.7939
1268.63	16.666
1271.53	77.9141
1274.42	58.8174
1277.31	115.922
1280.2	0
