Measurement: Raman, 785 nm, unoriented, Raman Data Processed
Mineral: Boussingaultite
Rruff sample: R061027
Ideal chemistry: (NH_4_)_2_Mg(SO_4_)_2_6H_2_O
Locality: Kladno, Bohmen, Czech Republic
Source: Michael Scott
Description: White granular aggregates
Raman shift (cm-1)	intensity
189.988	0
192.881	31.6992
195.774	83.0391
198.666	250.557
201.559	370.269
204.452	273.135
207.345	297.213
210.237	12.4492
213.13	42.3281
216.023	0.746094
218.915	153.977
221.808	338.58
224.701	337.84
227.593	244.975
230.486	209.812
233.379	132.236
236.272	346.678
239.164	273.768
242.057	363.236
244.95	312.549
247.842	132.014
250.735	201.289
253.628	261.883
256.52	381.195
259.413	248.406
262.306	415.812
265.199	277.238
268.091	143.316
270.984	149.853
273.877	128.062
276.769	94.5215
279.662	284.861
282.555	278.57
285.447	296.092
288.34	315.971
291.233	5.69141
294.125	55.8691
297.018	74.334
299.911	181.781
302.804	372.791
305.696	441.502
308.589	460.984
311.482	333.084
314.374	246.191
317.267	186.172
320.16	99.2207
323.053	234.543
325.945	379.205
328.838	465.996
331.731	461.897
334.623	364.228
337.516	191.215
340.409	102.801
343.301	134.103
346.194	174.19
349.087	339.373
351.979	383.746
354.872	358.174
357.765	267.92
360.658	91.3438
363.55	53.8867
366.443	201.799
369.336	111.375
372.228	249.883
375.121	389.879
378.014	425.918
380.906	263.584
383.799	76.8867
386.692	20.5312
389.584	202.75
392.477	119.557
395.37	378.256
398.263	315.387
401.155	520.984
404.048	86.1699
406.941	13.8672
409.833	169.912
412.726	51.1074
415.619	287.963
418.512	366.723
421.404	255.234
424.297	329.879
427.19	219.289
430.082	267.603
432.975	354.367
435.868	292.51
438.76	555.367
441.653	742.783
444.546	1031.96
447.438	1403.11
450.331	1531.6
453.224	1561.33
456.117	1105.11
459.009	1044.17
461.902	949.5
464.795	596.344
467.687	529.365
470.58	408.435
473.473	234.062
476.365	122.772
479.258	57.207
482.151	63.7676
485.044	106.887
487.936	214.688
490.829	188.836
493.722	300.338
496.614	191.467
499.507	90.8262
502.4	39.7578
505.293	24.7207
508.185	70.0078
511.078	55.0957
513.971	87.3711
516.863	33.207
519.756	80.8203
522.649	80.1523
525.541	179.594
528.434	0.416016
531.327	1.43164
534.22	152.902
537.112	215.963
540.005	232.967
542.898	213.465
545.79	99.1133
548.683	101.932
551.576	109.186
554.468	214.695
557.361	86.7012
560.254	211.926
563.146	351.525
566.039	243.367
568.932	33.4453
571.825	98.3281
574.717	103.158
577.61	34.8359
580.503	170.228
583.395	199.441
586.288	121.258
589.181	113.41
592.073	140.404
594.966	123.744
597.859	161.652
600.752	357.088
603.644	471.902
606.537	519.797
609.43	733.59
612.322	766.555
615.215	747.49
618.108	850.773
621	939.43
623.893	912.225
626.786	822.252
629.679	688.629
632.571	578.818
635.464	529.766
638.357	420.633
641.249	376.16
644.142	347.709
647.035	150.596
649.928	185.664
652.82	145.734
655.713	257.193
658.606	270.781
661.498	95.7168
664.391	47.3809
667.284	83.0098
670.176	9.28906
673.069	39.4902
675.962	132.746
678.854	68.3809
681.747	67.6309
684.64	17.5176
687.533	80.8262
690.425	28.2734
693.318	149.578
696.211	135.934
699.103	172.107
701.996	191.082
704.889	21.4863
707.781	101.791
710.674	14.2266
713.567	18.9082
716.46	62.3789
719.352	139.627
722.245	156.738
725.138	53.9102
728.03	96.4688
730.923	71.8106
733.816	65.1289
736.708	19.5234
739.601	59.9336
742.494	156.033
745.386	90.4062
748.279	187.891
751.172	92.25
754.065	106.697
756.957	37.1855
759.85	140.293
762.743	218.935
765.635	181.467
768.528	159.887
771.421	198.672
774.313	318.963
777.206	249.857
780.099	171.56
782.992	276.695
785.884	352.662
788.777	381.627
791.67	398.289
794.562	318.555
797.455	386.953
800.348	345.221
803.24	349.182
806.133	315.41
809.026	327.002
811.919	408.168
814.811	418.498
817.704	392.445
820.597	368.576
823.489	264.793
826.382	351.965
829.275	213.793
832.168	97.3164
835.06	164.83
837.953	93.2148
840.846	70.6309
843.738	115.398
846.631	34.709
849.524	28.1367
852.416	46.8477
855.309	66.2402
858.202	162.094
861.095	144.924
863.987	35.0508
866.88	30.9082
869.773	34.6895
872.665	12.2676
875.558	92.1094
878.451	73.3242
881.343	68.1777
884.236	160.291
887.129	70.4902
890.021	82.6523
892.914	106.6
895.807	5.78125
898.7	56.3047
901.592	182.443
904.485	16.4238
907.378	118.769
910.27	186.289
913.163	107.078
916.056	134.533
918.948	13.2012
921.841	57.2949
924.734	103.234
927.627	95.1055
930.519	117.195
933.412	176.768
936.305	35.5059
939.197	8.33984
942.09	34.8086
944.983	35.8555
947.875	2.59766
950.768	95.3887
953.661	158.959
956.554	38.8203
959.446	191.143
962.339	255.066
965.232	303.715
968.124	293.951
971.017	463.057
973.91	927.998
976.803	2353.22
979.695	5501.88
982.588	9119.85
985.481	4039.84
988.373	969.856
991.266	356.127
994.159	145.68
997.051	168.201
999.944	212.322
1002.84	179.809
1005.73	226.969
1008.62	320.471
1011.51	199.512
1014.41	248.525
1017.3	40.959
1020.19	62.75
1023.09	10.8438
1025.98	87.9492
1028.87	15.0215
1031.76	2.69531
1034.66	99.9727
1037.55	16.5859
1040.44	71.8086
1043.34	90.2578
1046.23	121.144
1049.12	12.0352
1052.01	134.484
1054.9	170.887
1057.8	130.32
1060.69	127.902
1063.58	169.865
1066.48	160.152
1069.37	223.461
1072.26	239.316
1075.15	231.514
1078.05	190.836
1080.94	155.51
1083.83	39.9141
1086.72	123.346
1089.62	147.963
1092.51	162.287
1095.4	255.217
1098.3	151.18
1101.19	173.519
1104.08	131.088
1106.97	131.383
1109.87	180.488
1112.76	141.918
1115.65	144.33
1118.55	151.344
1121.44	105.924
1124.33	172.328
1127.22	254.258
1130.12	242.09
1133.01	234.908
1135.9	211.973
1138.79	194.627
1141.69	149.787
1144.58	183.744
1147.47	236.066
1150.36	231.17
1153.26	165.514
1156.15	98.2949
1159.04	178.781
1161.93	74.0977
1164.83	63.1611
1167.72	56.5303
1170.61	37.3174
1173.51	4.3125
1176.4	145.092
1179.29	35.6826
1182.18	15.583
1185.08	0.291016
1187.97	38.2578
1190.86	13.0527
1193.76	39.3623
1196.65	69.3359
1199.54	134.569
1202.43	14.9922
1205.33	99.2383
1208.22	34.6592
1211.11	126.282
1214	129.622
1216.9	234.03
1219.79	261.922
1222.68	354.005
1225.58	271.256
1228.47	242.489
1231.36	292.503
1234.25	243.237
1237.14	169.588
1240.04	190.769
1242.93	118.34
1245.82	132.324
1248.72	71.9883
1251.61	118.411
1254.5	88.5449
1257.39	11.6045
1260.29	115.11
1263.18	97.3691
1266.07	28.9941
1268.96	46.2949
