Measurement: Raman, 532 nm, unoriented, Raman Data Processed
Mineral: Boussingaultite
Rruff sample: R070597
Ideal chemistry: (NH_4_)_2_Mg(SO_4_)_2_6H_2_O
Locality: The Geysers, near Cloverdale, Sonoma County, California, USA
Source: James Shigley
Description: Unconsolidated aggregate of transparent to translucent colorless to white grains
Raman shift (cm-1)	intensity
166.726	0
169.619	497.609
172.511	1077.34
175.404	1720.12
178.297	2624.96
181.189	3407.46
184.082	3944.15
186.975	3924.41
189.867	2921.48
192.76	2230.09
195.653	1546.77
198.545	1400.96
201.438	1149.78
204.331	561.721
207.224	59.3105
210.116	334.828
213.009	721.836
215.902	986.268
218.794	2451.29
221.687	745.832
224.58	216.322
227.472	29.9082
230.365	21.4668
233.258	51.6289
236.15	139.56
239.043	201.83
241.936	568.398
244.829	408.971
247.721	301.553
250.614	74.2539
253.507	161.047
256.399	40.9707
259.292	68.4805
262.185	1.17578
265.077	53.8027
267.97	90.8887
270.863	285.688
273.756	419.148
276.648	492.844
279.541	722.467
282.434	1056.33
285.326	1245.25
288.219	1459.46
291.112	1632.41
294.005	1921.07
296.897	2307.55
299.79	2549.33
302.683	3022.05
305.575	3282.86
308.468	3274.34
311.361	3083.26
314.253	3166.61
317.146	2834.43
320.039	2505.36
322.932	2531.68
325.824	2013.43
328.717	1879.68
331.61	1596.81
334.502	1567.9
337.395	1261.1
340.288	1197.42
343.18	1196.02
346.073	1537.71
348.966	1575.93
351.858	1664.16
354.751	1858.05
357.644	1941.51
360.536	2024.03
363.429	1808.69
366.322	1652.05
369.215	1591.39
372.107	1100.43
375	678.324
377.893	386.59
380.785	352.518
383.678	217.883
386.571	227.131
389.464	105.955
392.356	182.568
395.249	155.289
398.142	52.0566
401.034	178.353
403.927	335.852
406.82	34.0742
409.712	102.617
412.605	49.4688
415.498	375.324
418.39	661.344
421.283	1082.73
424.176	1546.44
427.069	2459.65
429.961	3990.93
432.854	5732.69
435.747	7580.73
438.639	10362.2
441.532	13953.6
444.425	18587.4
447.317	23831.3
450.21	28427.4
453.103	29149.3
455.996	27570.6
458.888	25064.3
461.781	20481
464.674	15079.3
467.566	10314.1
470.459	6981.05
473.352	5106.69
476.244	3033.47
479.137	1798.63
482.03	1035.02
484.923	635.781
487.815	473.629
490.708	150.102
493.601	64.2598
496.493	188.607
499.386	193.504
502.279	50.6016
505.171	68.0996
508.064	77.293
510.957	37.1875
513.85	104.324
516.742	90.084
519.635	83.2148
522.528	140.756
525.42	67.1387
528.313	202.377
531.206	319.562
534.098	184.039
536.991	224.924
539.884	390.307
542.777	375.012
545.669	477.559
548.562	605.455
551.455	659.211
554.347	669.273
557.24	586.709
560.133	888.17
563.025	991.209
565.918	1118.7
568.811	1160.89
571.703	1333.4
574.596	1307.32
577.489	1382.09
580.382	1401.45
583.274	1598.16
586.167	1727.56
589.06	2421.11
591.952	3002.86
594.845	3927.34
597.738	5796.07
600.63	7820.57
603.523	10292.7
606.416	13024.6
609.309	16179.3
612.201	17881.4
615.094	17119.1
617.987	14391.7
620.879	12841.9
623.772	12250.7
626.665	11385
629.557	8260.19
632.45	5310.53
635.343	3268.41
638.236	2026.97
641.128	1250.48
644.021	611.301
646.914	544.004
649.806	360.334
652.699	228.522
655.592	47.9844
658.484	84.125
661.377	160.377
664.27	7.98242
667.163	13.332
670.055	97.0469
672.948	44.7109
675.841	30.4844
678.733	41.5469
681.626	7.85352
684.519	46.6621
687.411	18.9102
690.304	121.978
693.197	139.318
696.09	481.867
698.982	455.607
701.875	117.191
704.768	241.559
707.66	300.065
710.553	388.93
713.446	436.963
716.338	477.227
719.231	502.5
722.124	195.418
725.016	234.449
727.909	191.445
730.802	306.572
733.695	219.031
736.587	353.25
739.48	214.897
742.373	227.221
745.265	104.519
748.158	118.522
751.051	103.801
753.943	203.541
756.836	233.857
759.729	375.256
762.622	436.035
765.514	384.148
768.407	556.686
771.3	459.772
774.192	539.26
777.085	688.988
779.978	695.394
782.87	730.814
785.763	764.812
788.656	701.547
791.548	531.219
794.441	619.832
797.334	589.035
800.227	548.4
803.119	239.207
806.012	210.744
808.905	396.969
811.797	308.992
814.69	241.416
817.583	265.955
820.476	203.467
823.368	177.906
826.261	95.0078
829.154	12.3984
832.046	154.658
834.939	120.469
837.832	50.8613
840.724	198.467
843.617	302.717
846.51	453.918
849.403	226.242
852.295	148.574
855.188	46.9922
858.081	79.1191
860.973	89.8379
863.866	152.285
866.759	100.769
869.651	119.385
872.544	81.3926
875.437	22.8438
878.33	1.37891
881.222	59.1953
884.115	86.5742
887.008	42.9297
889.9	143.684
892.793	254.758
895.686	139.744
898.578	181.981
901.471	175.086
904.364	11.9219
907.256	170.66
910.149	39.8652
913.042	119.207
915.935	268.084
918.827	184.131
921.72	54.7949
924.613	54.5703
927.505	75.7109
930.398	141.047
933.291	41.5059
936.183	36.123
939.076	129.301
941.969	136.791
944.861	339.506
947.754	455.865
950.647	837.838
953.54	1328.16
956.432	2271.28
959.325	3362.79
962.218	5399.2
965.11	8979.23
968.003	16615.9
970.896	45799.7
973.788	81461.8
976.681	124323
979.574	190329
982.467	311122
985.359	184896
988.252	49548
991.145	17638.2
994.037	9022.78
996.93	5258.74
999.823	3311.49
1002.72	2161.97
1005.61	1451.98
1008.5	808.879
1011.39	381.633
1014.29	395.582
1017.18	56.1523
1020.07	33.2305
1022.96	130.731
1025.86	290.426
1028.75	105.387
1031.64	125.906
1034.54	118.363
1037.43	518.492
1040.32	1191.4
1043.21	1608.11
1046.11	1392.94
1049	1466.3
1051.89	1722.44
1054.78	2523.07
1057.68	3380.5
1060.57	4022.69
1063.46	4546.66
1066.36	4659.06
1069.25	4399.24
1072.14	4093.82
1075.03	3680.84
1077.93	3520.86
1080.82	3595.32
1083.71	3994.75
1086.6	4889.02
1089.5	5586.09
1092.39	6045.6
1095.28	6041.82
1098.17	5442.57
1101.07	4575.41
1103.96	3657.88
1106.85	3252.13
1109.74	2935.51
1112.64	3019.98
1115.53	3550.4
1118.42	4375.24
1121.32	5576.47
1124.21	6593.42
1127.1	7619.11
1129.99	8326.34
1132.89	8294.58
1135.78	7300.1
1138.67	5781.91
1141.57	4387.92
1144.46	3280.33
1147.35	2850.37
1150.24	2701.89
1153.14	2122.27
1156.03	1606.18
1158.92	996.535
1161.81	629.231
1164.71	157.559
1167.6	118.961
1170.49	10.9023
1173.38	114.07
1176.28	80.8477
1179.17	28.3281
1182.06	162.812
1184.95	102.414
1187.85	37.5195
1190.74	6.77734
1193.63	39.8164
1196.53	150.484
1199.42	86.5156
1202.31	2.09375
1205.2	67.9414
1208.1	145.984
1210.99	217.734
1213.88	493.461
1216.78	515.926
1219.67	579.465
1222.56	490.992
1225.45	322.875
1228.35	406.633
1231.24	209.871
1234.13	169.051
1237.02	225.254
1239.92	171.25
1242.81	136.301
1245.7	225.766
1248.6	247.535
1251.49	138.922
1254.38	209.449
1257.27	297.262
1260.17	238.309
1263.06	176.176
1265.95	2.39844
