Measurement: Raman, 780 nm, unoriented, Raman Data Processed
Mineral: Brackebuschite
Rruff sample: R100087
Ideal chemistry: Pb_2_Mn^3+^(VO_4_)_2_(OH)
Locality: C & B mine, Hayden, Gila County, Arizona, USA
Source: Mark Ascher
Description: Isolated blocky reddish-brown crystals associated with yellow vanadinite
Raman shift (cm-1)	intensity
140.227	0
143.12	20.606
146.012	80.2759
148.905	170.727
151.798	262.829
154.69	357.124
157.583	396.634
160.476	405.507
163.369	483.788
166.261	500.833
169.154	458.976
172.047	391.807
174.939	264.798
177.832	133.138
180.725	29.6868
183.618	14.4862
186.51	18.8676
189.403	19.2844
192.296	114.164
195.188	218.856
198.081	344.317
200.974	484.025
203.866	633.161
206.759	761.924
209.652	859.796
212.544	915.237
215.437	877.383
218.33	756.592
221.223	579.924
224.115	401.24
227.008	245.179
229.901	141.121
232.793	80.3514
235.686	34.2992
238.579	18.4909
241.471	2.12958
244.364	16.726
247.257	24.886
250.15	22.9366
253.042	27.5295
255.935	26.1454
258.828	10.4205
261.72	14.9768
264.613	34.7305
267.506	45.8923
270.399	52.3362
273.291	69.7212
276.184	123.821
279.077	220.324
281.969	355.029
284.862	517.309
287.755	707.116
290.647	930.699
293.54	1131.98
296.433	1283.28
299.325	1344.88
302.218	1351.59
305.111	1395.42
308.004	1532.59
310.896	1746.03
313.789	2040.68
316.682	2424.14
319.574	2869.13
322.467	3355.14
325.36	3751.38
328.252	3939.89
331.145	3875.95
334.038	3666.78
336.931	3425.16
339.823	3138.18
342.716	2745.77
345.609	2250.05
348.501	1785.13
351.394	1446.86
354.287	1271.34
357.18	1191.92
360.072	1167.64
362.965	1162.54
365.858	1130.6
368.75	1047.8
371.643	939.066
374.536	857.344
377.428	813.621
380.321	780.403
383.214	697.018
386.106	579.49
388.999	425.097
391.892	276.591
394.785	162.08
397.677	78.5452
400.57	19.1584
403.463	17.0964
406.355	34.023
409.248	40.2366
412.141	34.7224
415.034	20.0842
417.926	4.43286
420.819	15.3113
423.712	30.9026
426.604	46.698
429.497	55.1846
432.39	67.4628
435.282	70.176
438.175	83.0412
441.068	95.5938
443.961	117.132
446.853	138.946
449.746	165.744
452.639	183.819
455.531	188.877
458.424	172.413
461.317	142.117
464.209	106.346
467.102	69.1861
469.995	40.7957
472.887	16.933
475.78	8.80759
478.673	5.6676
481.566	5.3591
484.458	10.0513
487.351	11.3702
490.244	14.0431
493.136	14.9906
496.029	13.3124
498.922	10.621
501.815	8.33331
504.707	5.12077
507.6	2.29767
510.493	0.540756
513.385	0.17482
516.278	2.11556
519.171	0.420258
522.063	2.95158
524.956	2.12862
527.849	0.041641
530.741	0.0625
533.634	0.234055
536.527	0.823074
539.42	2.67372
542.312	0.922562
545.205	3.23669
548.098	7.86119
550.99	6.88055
553.883	6.71365
556.776	7.95361
559.668	10.6375
562.561	10.3816
565.454	10.5653
568.347	11.7162
571.239	11.2659
574.132	12.2761
577.025	10.574
579.917	10.6901
582.81	12.4195
585.703	11.3912
588.596	12.1764
591.488	12.8518
594.381	15.082
597.274	13.3491
600.166	10.968
603.059	11.9315
605.952	10.9857
608.845	9.68668
611.737	8.1923
614.63	7.63634
617.523	10.039
620.415	6.56882
623.308	7.49007
626.201	8.22566
629.093	8.58752
631.986	8.39087
634.879	10.2331
637.771	8.8315
640.664	15.136
643.557	15.5158
646.45	20.5076
649.342	25.874
652.235	32.8335
655.128	41.8655
658.02	53.0281
660.913	70.115
663.806	88.4742
666.698	106.669
669.591	133.906
672.484	161.476
675.377	194.009
678.269	229.609
681.162	263.213
684.055	284.402
686.947	293.688
689.84	291.453
692.733	272.686
695.625	244.791
698.518	210.827
701.411	187.144
704.304	158.736
707.196	136.264
710.089	119.39
712.982	99.205
715.874	84.6599
718.767	67.7868
721.66	50.0192
724.553	42.3487
727.445	26.9292
730.338	14.701
733.231	7.4606
736.123	1.53143
739.016	0.796448
741.909	0.869659
744.801	2.74741
747.694	5.40192
750.587	5.80417
753.48	13.4699
756.372	22.0731
759.265	26.9338
762.158	28.6375
765.05	23.4797
767.943	9.8313
770.836	5.97217
773.728	43.7526
776.621	80.9064
779.514	123.888
782.407	166.955
785.299	206.992
788.192	236.373
791.085	260.885
793.977	275.293
796.87	279.759
799.763	285.69
802.655	308.311
805.548	351.28
808.441	405.422
811.333	478.358
814.226	566.24
817.119	693.546
820.012	848.251
822.904	1041.46
825.797	1275.22
828.69	1536.86
831.582	1815.22
834.475	2082.6
837.368	2315.25
840.26	2527.91
843.153	2666.16
846.046	2780.35
848.939	2921.87
851.831	3087.53
854.724	3267.34
857.617	3446.94
860.509	3508.76
863.402	3418.84
866.295	3097.04
869.188	2690.69
872.08	2238.67
874.973	1858.46
877.866	1519.88
880.758	1260.85
883.651	1056.96
886.544	892.439
889.436	735.113
892.329	626.434
895.222	526.265
898.115	436.555
901.007	358.966
903.9	280.862
906.793	217.255
909.685	164.123
912.578	117.772
915.471	81.3768
918.363	53.4289
921.256	29.8942
924.149	9.01437
927.042	7.26654
929.934	18.5217
932.827	27.3229
935.72	29.3551
938.612	26.6544
941.505	20.871
944.398	16.9472
947.29	8.35877
950.183	0.030319
953.076	7.00859
955.968	16.9153
958.861	23.5311
961.754	34.4356
964.647	43.8792
967.539	53.8565
970.432	63.1276
973.325	71.0162
976.217	81.2936
979.11	84.5446
982.003	92.6914
984.895	98.3637
987.788	100.011
990.681	99.4138
993.574	94.8656
996.466	87.8544
999.359	83.4793
1002.25	76.2147
1005.14	69.5961
1008.04	64.0004
1010.93	59.5637
1013.82	56.6598
1016.72	53.7267
1019.61	51.1298
1022.5	52.7138
1025.39	46.3018
1028.29	44.6207
1031.18	44.0555
1034.07	42.2578
1036.96	40.953
1039.86	38.2679
1042.75	36.7419
1045.64	34.2447
1048.54	33.3921
1051.43	29.6488
1054.32	28.4933
1057.21	25.1797
1060.11	23.5557
1063	21.3998
1065.89	20.969
1068.78	20.0659
1071.68	18.0325
1074.57	15.3271
1077.46	14.4556
1080.36	13.364
1083.25	12.4336
1086.14	12.0834
1089.03	10.6968
1091.92	9.18507
1094.82	8.53319
1097.71	6.51154
1100.6	6.89741
1103.5	5.3114
1106.39	4.39672
1109.28	3.77523
1112.17	3.0284
1115.07	3.37357
1117.96	1.92812
1120.85	2.49895
1123.74	2.34906
1126.64	0.737858
1129.53	0.160183
1132.42	0.30526
1135.32	0.599861
1138.21	0.253326
1141.1	0.286903
1143.99	0.356163
1146.89	0.37793
1149.78	1.46751
1152.67	0.808342
1155.57	0.180931
1158.46	1.46701
1161.35	2.01607
1164.24	0.764999
1167.14	0.303417
1170.03	0.0438
1172.92	0.65535
1175.81	0.37796
1178.71	0.419968
1181.6	0.063869
1184.49	0.147381
1187.38	1.64616
1190.28	1.01518
1193.17	1.95284
1196.06	1.81833
1198.95	1.88358
1201.85	1.47614
1204.74	1.27237
1207.63	1.01647
1210.53	2.09227
1213.42	0.831001
1216.31	2.37742
1219.2	0.699543
1222.1	2.62292
1224.99	2.35596
1227.88	1.51076
1230.78	1.83964
1233.67	2.1558
1236.56	1.4034
1239.45	1.17956
1242.35	1.12519
1245.24	1.0079
1248.13	1.47707
1251.02	0.551395
1253.92	1.21951
1256.81	1.31502
1259.7	0.673473
1262.6	1.03868
1265.49	1.13731
1268.38	0.157204
1271.27	1.92035
1274.17	1.80135
1277.06	0.607647
1279.95	1.65886
1282.84	1.07168
1285.74	0
