Measurement: Raman, 532 nm, unoriented, Raman Data Processed
Mineral: Brackebuschite
Rruff sample: R100087
Ideal chemistry: Pb_2_Mn^3+^(VO_4_)_2_(OH)
Locality: C & B mine, Hayden, Gila County, Arizona, USA
Source: Mark Ascher
Description: Isolated blocky reddish-brown crystals associated with yellow vanadinite
Raman shift (cm-1)	intensity
116.044	0
119.419	10.6711
122.794	26.1829
126.169	42.8133
129.544	12.8351
132.918	5.11894
136.293	0.868866
139.668	46.3455
143.043	118.963
146.418	192.514
149.792	307.794
153.167	459.016
156.542	580.369
159.917	632.233
163.292	694.057
166.667	719.284
170.041	734.206
173.416	686.544
176.791	585.945
180.166	502.129
183.541	450.586
186.916	443.325
190.29	468.411
193.665	535.044
197.04	647.205
200.415	794.587
203.79	967.797
207.164	1147.97
210.539	1323.36
213.914	1404.49
217.289	1353.98
220.664	1136.33
224.038	852.224
227.413	590.116
230.788	397.157
234.163	255.134
237.538	160.339
240.913	94.9407
244.287	55.1834
247.662	24.16
251.037	3.40717
254.412	7.45075
257.787	8.79804
261.161	1.10974
264.536	11.5279
267.911	6.97266
271.286	12.4719
274.661	22.4325
278.036	5.6734
281.41	72.8194
284.785	171.461
288.16	304.144
291.535	461.441
294.91	604.701
298.284	679.161
301.659	650.171
305.034	594.078
308.409	565.926
311.784	587.448
315.159	655.313
318.533	774.095
321.908	913.696
325.283	1030.04
328.658	1060.48
332.033	951.797
335.408	784.548
338.782	646.064
342.157	546.264
345.532	475.266
348.907	432.881
352.281	450.966
355.656	504.879
359.031	596.311
362.406	692.414
365.781	730.863
369.156	646.329
372.53	490.167
375.905	370.2
379.28	292.667
382.655	239.779
386.03	182.31
389.404	119.603
392.779	72.3565
396.154	37.8363
399.529	11.7364
402.904	4.89725
406.279	9.10004
409.653	11.805
413.028	9.55218
416.403	1.55325
419.778	5.30273
423.153	7.52862
426.527	15.7712
429.902	20.9787
433.277	29.3967
436.652	39.607
440.027	52.4463
443.402	66.3866
446.776	81.4883
450.151	107.237
453.526	121.689
456.901	132.67
460.276	125.225
463.651	103.07
467.025	86.0803
470.4	69.3978
473.775	59.8466
477.15	52.3756
480.525	51.3025
483.899	53.1048
487.274	53.7165
490.649	53.6752
494.024	52.8066
497.399	52.9766
500.774	48.3246
504.148	42.4741
507.523	35.4884
510.898	29.7483
514.273	21.2277
517.648	15.9004
521.022	10.0726
524.397	4.50072
527.772	3.17395
531.147	0.714264
534.522	0.583801
537.896	0.735626
541.271	1.29407
544.646	0.438034
548.021	0.728806
551.396	0.463745
554.771	0.428467
558.145	2.16779
561.52	2.36412
564.895	6.15536
568.27	10.0961
571.645	9.00549
575.019	9.5345
578.394	10.2277
581.769	12.0563
585.144	13.4274
588.519	12.3829
591.894	11.3552
595.268	9.75392
598.643	6.12746
602.018	8.04724
605.393	4.24265
608.768	2.17912
612.142	1.59781
615.517	1.29466
618.892	0.373062
622.267	1.09091
625.642	0.354889
629.016	1.28378
632.391	0.907013
635.766	5.86371
639.141	8.21573
642.516	12.3901
645.891	22.0488
649.265	36.9571
652.64	56.0484
656.015	83.0618
659.39	116.446
662.765	160.515
666.139	213.601
669.514	286.151
672.889	362.176
676.264	455.734
679.639	550.068
683.014	633.086
686.388	688.684
689.763	696.553
693.138	651.432
696.513	562.636
699.888	462.394
703.263	371.657
706.637	294.931
710.012	237.418
713.387	189.603
716.762	156.127
720.136	121.611
723.511	96.1431
726.886	72.1775
730.261	58.4227
733.636	43.7078
737.011	34.083
740.385	32.8947
743.76	31.2155
747.135	32.9567
750.51	27.452
753.885	16.1621
757.26	5.73712
760.634	8.80646
764.009	18.4902
767.384	29.1741
770.759	31.1542
774.134	24.4883
777.508	16.8489
780.883	5.75311
784.258	21.6794
787.633	51.4141
791.008	90.0527
794.383	126.964
797.757	172.677
801.132	221.386
804.507	281.989
807.882	368.298
811.257	464.983
814.631	598.007
818.006	753.29
821.381	955.707
824.756	1193.26
828.131	1499.75
831.505	1845.33
834.88	2232.01
838.255	2590.38
841.63	2937.14
845.005	3268.95
848.38	3599.29
851.754	4006.26
855.129	4440.61
858.504	4833.28
861.879	4985.7
865.254	4739.26
868.629	4148.34
872.003	3462.75
875.378	2819.48
878.753	2278.16
882.128	1844.21
885.503	1509.05
888.877	1254.67
892.252	1048.21
895.627	871.942
899.002	732.322
902.377	601.701
905.751	486.087
909.126	383.335
912.501	299.703
915.876	224.828
919.251	166.141
922.625	117.972
926	67.9299
929.375	25.8364
932.75	2.32364
936.125	21.7816
939.5	30.3333
942.875	31.4149
946.249	25.8928
949.624	21.359
952.999	8.06601
956.374	0.735229
959.749	9.25211
963.123	23.7142
966.498	31.6402
969.873	41.6004
973.248	55.9591
976.623	65.5365
979.997	73.9555
983.372	80.7161
986.747	85.8934
990.122	91.2935
993.497	97.3822
996.871	91.3186
1000.25	85.98
1003.62	78.1916
1007	67.3998
1010.37	60.078
1013.75	51.6402
1017.12	46.2568
1020.5	43.8237
1023.87	41.7547
1027.24	37.7275
1030.62	36.2089
1033.99	34.8049
1037.37	33.2624
1040.74	30.7964
1044.12	28.9415
1047.49	28.0699
1050.87	25.1148
1054.24	24.2115
1057.62	20.9146
1060.99	20.5648
1064.37	14.5631
1067.74	15.1408
1071.12	11.5891
1074.49	12.2587
1077.87	11.3713
1081.24	10.588
1084.62	6.48982
1087.99	8.40588
1091.37	7.07863
1094.74	7.23914
1098.12	5.31157
1101.49	5.23024
1104.87	5.42519
1108.24	3.46141
1111.62	2.69962
1114.99	3.99025
1118.37	2.45058
1121.74	0.727722
1125.12	2.04906
1128.49	1.60747
1131.86	2.67952
1135.24	3.31476
1138.61	1.1675
1141.99	1.50273
1145.36	2.73889
1148.74	1.66602
1152.11	0.738068
1155.49	0.094559
1158.86	1.26771
1162.24	0.672729
1165.61	0.6073
1168.99	1.37779
1172.36	0.28978
1175.74	0.414536
1179.11	1.22791
1182.49	0.767838
1185.86	2.60344
1189.24	2.11868
1192.61	3.56459
1195.99	4.55995
1199.36	3.78711
1202.73	4.64917
1206.11	7.26944
1209.48	7.08608
1212.86	6.9265
1216.23	7.39778
1219.61	7.28511
1222.98	8.34273
1226.36	9.44511
1229.73	8.39082
1233.11	8.83894
1236.48	10.2786
1239.86	8.18977
1243.23	6.45203
1246.61	8.19955
1249.98	8.75491
1253.36	7.68445
1256.73	6.0009
1260.11	4.25211
1263.48	5.03662
1266.86	3.57126
1270.23	3.36458
1273.61	2.36404
1276.98	2.58157
1280.36	2.26436
1283.73	1.26245
1287.11	0.168106
1290.48	0.647491
1293.86	2.54764
1297.23	1.94797
1300.61	1.47882
