Measurement: Raman, 780 nm, unoriented, Raman Data Processed
Mineral: Brackebuschite
Rruff sample: R050547
Ideal chemistry: Pb_2_Mn^3+^(VO_4_)_2_(OH)
Locality: Cordoba, Argentina
Source: University of Arizona Mineral Museum
Description: Brown lathlike crystals
Measured chemistry: (Pb_1.91_Zn_0.09_)_Σ=2_(Mn^3+^_0.63_Cr_0.17_Fe^3+^_0.20_)_Σ=1_((V_1.97_As_0.03_)_Σ=1_O_4_)_2_(OH)
Raman shift (cm-1)	intensity
118.893	0
122.268	3.05029
125.643	80.4653
129.018	257.271
132.393	534.586
135.767	777.597
139.142	1050.46
142.517	1294.47
145.892	1541.67
149.267	1772.34
152.642	1892.9
156.016	1859.9
159.391	1701.87
162.766	1471.78
166.141	1239.57
169.516	909.186
172.89	563.509
176.265	317.145
179.64	142.015
183.015	85.7026
186.39	97.8701
189.764	161.095
193.139	264.877
196.514	384.768
199.889	506.821
203.264	612.599
206.639	652.612
210.013	653.889
213.388	572.379
216.763	426.821
220.138	266.009
223.513	128.817
226.887	21.5596
230.262	50.4873
233.637	82.6577
237.012	77.2651
240.387	61.2012
243.762	44.0796
247.136	24.5308
250.511	0.080566
253.886	23.5972
257.261	62.2178
260.636	104.418
264.01	169.555
267.385	235.857
270.76	339.966
274.135	513.022
277.51	762.248
280.885	1108.77
284.259	1509.08
287.634	1940.02
291.009	2372.08
294.384	2714.96
297.759	3034.03
301.134	3443.44
304.508	4060.41
307.883	4952.49
311.258	6104.68
314.633	7418.16
318.007	8800.14
321.382	10065
324.757	10870.4
328.132	11018.6
331.507	10547.7
334.882	9630.14
338.256	8452.79
341.631	6969.16
345.006	5450.53
348.381	4194.43
351.756	3324.57
355.13	2805.38
358.505	2539.32
361.88	2386.65
365.255	2239.71
368.63	2037.1
372.005	1847.81
375.379	1621.3
378.754	1383.22
382.129	1114.76
385.504	826.994
388.879	551.395
392.253	327.497
395.628	157.717
399.003	44.8835
402.378	26.7363
405.753	65.0452
409.128	79.6375
412.502	71.4626
415.877	51.5725
419.252	32.0884
422.627	14.0193
426.002	46.478
429.377	75.9863
432.751	129.458
436.126	192.028
439.501	255.014
442.876	327.739
446.25	383.013
449.625	420.708
453	423.098
456.375	378.059
459.75	322.115
463.125	260.07
466.5	197.569
469.874	143.633
473.249	98.6591
476.624	70.7817
479.999	58.8644
483.373	49.0415
486.748	40.4015
490.123	42.1425
493.498	38.4349
496.873	31.8417
500.248	17.679
503.622	12.9883
506.997	10.4584
510.372	7.69629
513.747	5.13318
517.122	1.3468
520.496	7.24915
523.871	0.384521
527.246	2.55335
530.621	7.43555
533.996	0.175049
537.371	1.78052
540.745	8.64392
544.12	13.1843
547.495	14.8833
550.87	26.9281
554.245	35.5298
557.62	31.5689
560.994	39.8511
564.369	31.5049
567.744	37.5647
571.119	38.0808
574.494	33.3912
577.868	35.0994
581.243	29.1945
584.618	25.5131
587.993	28.0957
591.368	28.1615
594.742	22.0209
598.117	15.6831
601.492	15.286
604.867	11.2975
608.242	1.25598
611.616	7.67896
614.991	8.35877
618.366	7.45264
621.741	11.1773
625.116	20.348
628.491	18.8896
631.865	23.8906
635.24	45.281
638.615	52.3715
641.99	63.0425
645.365	88.609
648.74	112.475
652.114	139.734
655.489	164.966
658.864	213.406
662.239	260.105
665.614	311.467
668.988	366.221
672.363	414.326
675.738	452.818
679.113	470.87
682.488	476.35
685.862	457.784
689.237	426.789
692.612	385.168
695.987	341.839
699.362	303.047
702.737	269.437
706.111	235.462
709.486	207.73
712.861	170.919
716.236	141.571
719.611	110.217
722.986	79.4285
726.36	52.7784
729.735	29.4688
733.11	18.3946
736.485	1.01746
739.86	5.77197
743.234	14.369
746.609	27.4767
749.984	34.3457
753.359	55.846
756.734	46.8777
760.109	47.8123
763.483	23.2405
766.858	10.3477
770.233	57.363
773.608	120.647
776.982	176.387
780.357	240.576
783.732	280.249
787.107	311.666
790.482	349.869
793.857	413.837
797.231	457.818
800.606	528.685
803.981	643.866
807.356	832.294
810.731	1032.23
814.106	1291.62
817.48	1652.59
820.855	2057.65
824.23	2519.13
827.605	3006.23
830.98	3508.41
834.354	3972.64
837.729	4389.45
841.104	4777.05
844.479	5146.03
847.854	5501.16
851.229	5862.63
854.603	6134.62
857.978	6133.93
861.353	5859.43
864.728	5311.41
868.103	4603.95
871.477	3879.69
874.852	3255.63
878.227	2702.05
881.602	2247.33
884.977	1880.1
888.351	1550.84
891.726	1271.26
895.101	1029.4
898.476	813.165
901.851	642.16
905.226	475.995
908.6	377.432
911.975	277.901
915.35	215.3
918.725	153.296
922.1	88.1329
925.474	41.3898
928.849	8.35828
932.224	35.5621
935.599	61.5155
938.974	58.9089
942.348	52.582
945.723	45.4934
949.098	18.6545
952.473	0.971924
955.848	20.573
959.223	41.2415
962.597	65.2396
965.972	86.533
969.347	121.284
972.722	135.675
976.097	156.569
979.471	169.952
982.846	189.672
986.221	201.117
989.596	206.437
992.971	214.881
996.346	215.276
999.72	190.993
1003.1	171.407
1006.47	165.658
1009.85	145.431
1013.22	138.336
1016.59	127.656
1019.97	131.503
1023.34	117.293
1026.72	118.329
1030.09	107.844
1033.47	106.393
1036.84	108.186
1040.22	99.2035
1043.59	94.813
1046.97	85.5269
1050.34	84.3065
1053.72	77.1829
1057.09	75.8722
1060.47	70.5321
1063.84	68.6309
1067.22	60.1522
1070.59	65.4737
1073.97	59.0523
1077.34	51.8085
1080.72	57.9205
1084.09	58.2013
1087.47	53.7711
1090.84	41.3052
1094.21	32.2821
1097.59	28.5673
1100.96	25.3517
1104.34	20.8562
1107.71	12.2833
1111.09	8.2821
1114.46	6.4032
1117.84	2.60925
1121.21	5.48279
1124.59	4.67065
1127.96	1.15088
1131.34	3.46509
1134.71	2.45886
1138.09	1.82898
1141.46	7.1073
1144.84	2.52148
1148.21	1.89587
1151.59	5.06201
1154.96	1.84644
1158.34	7.84387
1161.71	6.4364
1165.09	3.58106
1168.46	8.26013
1171.84	12.1977
1175.21	12.6178
1178.59	7.25745
1181.96	9.75806
1185.34	9.1416
1188.71	17.667
1192.09	14.4015
1195.46	3.68237
1198.84	10.7119
1202.21	13.8184
1205.58	13.2752
1208.96	0.935303
1212.33	3.71301
1215.71	5.3894
1219.08	4.2052
1222.46	1.75415
1225.83	10.6924
1229.21	10.507
1232.58	3.99365
1235.96	6.77808
1239.33	0.004272
1242.71	0.677246
1246.08	5.08008
1249.46	12.0845
1252.83	7.50037
1256.21	3.59021
1259.58	4.3186
1262.96	1.05054
1266.33	8.18384
1269.71	13.8398
1273.08	6.3291
1276.45	7.00891
1279.83	7.33142
1283.2	1.96899
