Measurement: Raman, 532 nm, unoriented, Raman Data Processed
Mineral: Brackebuschite
Rruff sample: R050547
Ideal chemistry: Pb_2_Mn^3+^(VO_4_)_2_(OH)
Locality: Cordoba, Argentina
Source: University of Arizona Mineral Museum
Description: Brown lathlike crystals
Measured chemistry: (Pb_1.91_Zn_0.09_)_Σ=2_(Mn^3+^_0.63_Cr_0.17_Fe^3+^_0.20_)_Σ=1_((V_1.97_As_0.03_)_Σ=1_O_4_)_2_(OH)
Raman shift (cm-1)	intensity
125.156	0
128.531	7.45239
131.906	218.385
135.281	498.015
138.656	791.363
142.03	1061.15
145.405	1323.59
148.78	1605.76
152.155	1853.39
155.53	1924.08
158.905	1800.71
162.279	1637.31
165.654	1443.5
169.029	1222.25
172.404	971.425
175.779	747.801
179.153	594.932
182.528	489.197
185.903	395.932
189.278	319.227
192.653	270.056
196.028	230.397
199.402	198.965
202.777	181.907
206.152	158.244
209.527	142.793
212.902	119.354
216.276	94.246
219.651	68.7485
223.026	35.9511
226.401	6.12341
229.776	14.3252
233.15	26.7479
236.525	29.8832
239.9	36.1583
243.275	32.8588
246.65	29.1028
250.025	12.1265
253.399	8.16101
256.774	29.6088
260.149	50.4574
263.524	62.5426
266.899	74.2229
270.273	88.2079
273.648	141.435
277.023	230.266
280.398	360.262
283.773	510.51
287.147	684.365
290.522	861.919
293.897	984.346
297.272	1058.81
300.647	1143.34
304.022	1300.99
307.396	1557.08
310.771	1957.51
314.146	2468.52
317.521	3065.59
320.896	3677.72
324.271	4171.02
327.645	4417.41
331.02	4388.38
334.395	4123.18
337.77	3699.79
341.145	3143.6
344.519	2513.64
347.894	1939.21
351.269	1486.76
354.644	1191.7
358.019	1031.8
361.394	931.931
364.768	856.097
368.143	806.815
371.518	755.25
374.893	726.677
378.267	657.689
381.642	566.23
385.017	454.096
388.392	323.096
391.767	211.287
395.142	112.201
398.516	37.4049
401.891	15.7946
405.266	32.6735
408.641	45.4132
412.016	37.016
415.39	22.0089
418.765	6.95544
422.14	61.693
425.515	107.844
428.89	168.185
432.265	236.391
435.639	319.87
439.014	399.106
442.389	473.412
445.764	522.133
449.139	554.578
452.514	523.683
455.888	456.725
459.263	377.304
462.638	295.279
466.013	221.1
469.388	164.134
472.762	124.267
476.137	100.329
479.512	92.8979
482.887	81.2878
486.262	69.6757
489.637	62.5301
493.011	53.982
496.386	44.0986
499.761	35.2534
503.136	26.1089
506.511	16.7855
509.885	9.00659
513.26	4.00012
516.635	2.67169
520.01	2.7077
523.385	1.29114
526.76	3.19428
530.134	8.2168
533.509	5.59589
536.884	2.01782
540.259	3.38898
543.634	0.675903
547.008	3.62128
550.383	2.073
553.758	10.7825
557.133	12.6089
560.508	17.5089
563.882	14.4166
567.257	22.3862
570.632	24.4438
574.007	28.6758
577.382	26.5272
580.756	29.127
584.131	31.6071
587.506	24.9614
590.881	25.6252
594.256	23.9517
597.631	22.348
601.005	22.5065
604.38	18.3896
607.755	16.3546
611.13	18.841
614.505	22.2491
617.88	14.918
621.254	20.5579
624.629	23.2487
628.004	32.3647
631.379	32.9579
634.754	43.9271
638.128	58.3458
641.503	72.8148
644.878	92.044
648.253	115.753
651.628	154.294
655.002	193.92
658.377	241.654
661.752	294.33
665.127	353.03
668.502	416.416
671.876	467.348
675.251	512.885
678.626	529.554
682.001	526.623
685.376	496.207
688.751	447.028
692.125	396.78
695.5	347.712
698.875	306.631
702.25	271.602
705.625	238.715
709	202.695
712.374	172.238
715.749	139.345
719.124	114.749
722.499	91.8049
725.874	69.9288
729.248	51.8977
732.623	35.9979
735.998	22.2351
739.373	11.3784
742.748	4.43237
746.122	16.3721
749.497	31.541
752.872	48.3304
756.247	50.8438
759.622	42.8856
762.997	38.272
766.371	21.3442
769.746	15.4912
773.121	60.1683
776.496	100.361
779.871	145.795
783.245	194.535
786.62	240.94
789.995	277.564
793.37	333.175
796.745	381.822
800.12	447.618
803.494	537.702
806.869	658.967
810.244	805.553
813.619	1000.33
816.994	1239.24
820.368	1534.24
823.743	1920.15
827.118	2327.61
830.493	2737.35
833.868	3117.28
837.242	3492.95
840.617	3881.83
843.992	4264.69
847.367	4682.7
850.742	5112.96
854.117	5517.85
857.491	5705.54
860.866	5540.36
864.241	5160.14
867.616	4623.5
870.991	4032.15
874.365	3458.98
877.74	2956.36
881.115	2509.67
884.49	2124.64
887.865	1798.26
891.24	1507.32
894.614	1239.24
897.989	1008.9
901.364	812.537
904.739	637.883
908.114	483.413
911.489	372.997
914.863	292.041
918.238	219.804
921.613	152.777
924.988	89.5558
928.362	28.3384
931.737	16.9701
935.112	42.634
938.487	52.8141
941.862	52.9863
945.237	45.4494
948.611	35.3508
951.986	19.3112
955.361	1.15265
958.736	25.2601
962.111	43.5672
965.486	62.6573
968.86	78.2144
972.235	100.764
975.61	121.36
978.985	138.142
982.36	151.135
985.734	168.38
989.109	182.519
992.484	190.273
995.859	187.978
999.234	179.336
1002.61	171.855
1005.98	157.864
1009.36	142.888
1012.73	133.319
1016.11	129.78
1019.48	121.487
1022.86	116.223
1026.23	108.209
1029.61	107.116
1032.98	103.803
1036.36	99.5706
1039.73	92.8099
1043.11	90.7382
1046.48	85.6887
1049.86	76.5034
1053.23	71.2188
1056.61	64.0614
1059.98	64.7055
1063.36	55.6022
1066.73	49.8955
1070.11	45.446
1073.48	43.6307
1076.85	41.3827
1080.23	35.9688
1083.6	34.8155
1086.98	27.7822
1090.35	23.1122
1093.73	23.0664
1097.1	20.131
1100.48	17.2366
1103.85	16.883
1107.23	15.2626
1110.6	9.61545
1113.98	9.34415
1117.35	9.81583
1120.73	3.78357
1124.1	3.88446
1127.48	0.741211
1130.85	2.45135
1134.23	1.07028
1137.6	2.12265
1140.98	3.24948
1144.35	0.794678
1147.73	4.66678
1151.1	3.17545
1154.47	0.729065
1157.85	1.59216
1161.22	1.47595
1164.6	0.288544
1167.97	3.46817
1171.35	1.67062
1174.72	2.41269
1178.1	0.256714
1181.47	2.22266
1184.85	1.61572
1188.22	4.79947
1191.6	6.2728
1194.97	6.83343
1198.35	10.2278
1201.72	9.74841
1205.1	11.0146
1208.47	11.1031
1211.85	8.4075
1215.22	14.4286
1218.6	11.7488
1221.97	9.4447
1225.35	12.8924
1228.72	11.7638
1232.1	10.4153
1235.47	10.0178
1238.85	7.91305
1242.22	8.33942
1245.6	5.94846
1248.97	3.20978
1252.35	5.64874
1255.72	1.26611
1259.09	4.24326
1262.47	1.71149
1265.84	4.5126
1269.22	2.9006
1272.59	0.795013
1275.97	1.42725
1279.34	2.16788
1282.72	2.21146
1286.09	3.23505
1289.47	2.30511
1292.84	4.28732
1296.22	2.0762
1299.59	2.25348
1302.97	0.013794
