Measurement: Raman, 532 nm, unoriented, Raman Data Processed
Mineral: Bradaczekite
Rruff sample: R070029
Ideal chemistry: NaCu^2+^_4_(As^5+^O_4_)_3_
Locality: main fracture, N breakthrough, Tolbachik Volcano, Kamchatka Peninsula, Russia
Source: Michael Scott
Description: Dark blue poorly developed crystals forming a crust
Raman shift (cm-1)	intensity
125.594	0
128.969	151.126
132.344	557.298
135.719	1020.63
139.094	1459.63
142.468	2117.77
145.843	3081.84
149.218	4355.69
152.593	5106.42
155.968	4227.69
159.342	2415.21
162.717	1715.96
166.092	1387.01
169.467	1359.38
172.842	1600.81
176.216	1712.91
179.591	1726.09
182.966	1840.81
186.341	2479.65
189.716	3713.51
193.09	5592.34
196.465	7753.05
199.84	8061.82
203.215	5394.07
206.59	2500.7
209.965	1145.59
213.339	563.413
216.714	380.792
220.089	425.344
223.464	418.339
226.839	258.982
230.214	204.667
233.588	315.536
236.963	560.082
240.338	972.154
243.713	1170.94
247.088	1417.7
250.462	1704.84
253.837	2104.05
257.212	2001.93
260.587	1463.11
263.962	937.867
267.336	608.011
270.711	496.741
274.086	180.949
277.461	165.184
280.836	323.631
284.211	218.169
287.585	22.9902
290.96	593.791
294.335	1373.6
297.71	2076.72
301.084	2544.78
304.459	2435.18
307.834	2104.87
311.209	1597.32
314.584	1010.94
317.959	643.785
321.333	278.177
324.708	58.54
328.083	35.3232
331.458	66.2949
334.833	389.961
338.207	782.749
341.582	1564.74
344.957	2469.79
348.332	3523.4
351.707	4193.32
355.082	5080.73
358.456	6466.59
361.831	7550.91
365.206	8183.49
368.581	7588.86
371.956	5866
375.33	3804.36
378.705	2225.5
382.08	1121.52
385.455	519.516
388.83	182.575
392.204	35.4668
395.579	40.375
398.954	289.782
402.329	983.34
405.704	2138.42
409.079	3388.32
412.453	4635.23
415.828	5487.02
419.203	5331.09
422.578	4003.31
425.953	2807.4
429.327	1913.27
432.702	1533.21
436.077	1289.69
439.452	1234.87
442.827	1317.41
446.202	1620.36
449.576	1991.53
452.951	2459.05
456.326	1596.62
459.701	1274.43
463.075	1897.9
466.45	2928.78
469.825	4108.21
473.2	5130.53
476.575	5536.4
479.95	4979.9
483.324	3720.32
486.699	2409.39
490.074	1468.5
493.449	770.651
496.824	435.308
500.199	198.031
503.573	64.749
506.948	1.19727
510.323	98.4785
513.698	95.1362
517.073	99.4663
520.447	65.5205
523.822	47.063
527.197	35.292
530.572	140.126
533.947	240.278
537.321	604.851
540.696	773.156
544.071	1078.87
547.446	1575.48
550.821	2016.45
554.196	2383.26
557.57	2588.82
560.945	2598.8
564.32	2505.1
567.695	2195.84
571.07	1798.82
574.444	1293.94
577.819	780.638
581.194	460.514
584.569	134.022
587.944	31.6113
591.318	54.186
594.693	36.4414
598.068	46.0747
601.443	180.176
604.818	447.976
608.192	764.999
611.567	1308.95
614.942	1887.01
618.317	2490.67
621.692	2805.49
625.067	2334.88
628.441	2496.6
631.816	2274.36
635.191	2608.27
638.566	3156.01
641.941	3797.25
645.315	4306.25
648.69	4241.41
652.065	3693.32
655.44	2803.1
658.815	1993.74
662.189	1368.97
665.564	1033.06
668.939	767.548
672.314	613.899
675.689	445.086
679.063	469.336
682.438	425.506
685.813	439.147
689.188	519.735
692.563	664.058
695.938	811.324
699.312	891.594
702.687	1090.15
706.062	1356.86
709.437	1576.76
712.812	1747.56
716.187	1902.75
719.561	1818.51
722.936	1472.99
726.311	1103.25
729.686	844.456
733.061	690.521
736.435	414.313
739.81	323.051
743.185	192.391
746.56	40.7925
749.935	75.4326
753.309	135.113
756.684	181.421
760.059	162.075
763.434	279.027
766.809	350.267
770.183	321.267
773.558	258.296
776.933	15.835
780.308	544.78
783.683	1529.01
787.058	3222.26
790.432	5745.67
793.807	8988.41
797.182	11932
800.557	13559.4
803.932	12515.6
807.307	9448
810.681	6293.07
814.056	4104.39
817.431	2881.23
820.806	2583.73
824.181	3197.7
827.555	4974.3
830.93	7909.11
834.305	12001.8
837.68	16810.8
841.055	21153.7
844.429	24788.2
847.804	28244.2
851.179	32493.5
854.554	37738.3
857.929	42971.3
861.303	47509.8
864.678	50795.1
868.053	50625
871.428	45370.2
874.803	36339.4
878.178	25838.7
881.552	17701.5
884.927	12388.4
888.302	9280.14
891.677	7988.16
895.052	7904.7
898.426	8315.36
901.801	8475.49
905.176	7476.48
908.551	5605.01
911.926	3662.2
915.301	2227.95
918.675	1420.93
922.05	970.002
925.425	782.345
928.8	615.398
932.174	505.858
935.549	488.011
938.924	160.244
942.299	51.8193
945.674	312.565
949.049	475.729
952.423	387.894
955.798	272.699
959.173	119.165
962.548	5.89697
965.923	266.135
969.297	875.578
972.672	2064.99
976.047	4512.46
979.422	7768.45
982.797	10885.9
986.172	10765.2
989.546	9500.32
992.921	7334.55
996.296	4456.19
999.671	3229.85
1003.05	2573.77
1006.42	2119.22
1009.79	1772.79
1013.17	1475.99
1016.54	1279.17
1019.92	1230.8
1023.29	1247.73
1026.67	1243.51
1030.04	1027.43
1033.42	770.196
1036.79	538.272
1040.17	352.667
1043.54	285.89
1046.92	207.615
1050.29	133.694
1053.67	63.1704
1057.04	83.5503
1060.42	97.7456
1063.79	94.8149
1067.17	84.6919
1070.54	174.719
1073.92	263.908
1077.29	375.893
1080.67	491.539
1084.04	482.871
1087.42	370.63
1090.79	281.004
1094.17	296.184
1097.54	280.08
1100.91	321.487
1104.29	288.326
1107.66	334.383
1111.04	194.192
1114.41	195.576
1117.79	11.6352
1121.16	45.8901
1124.54	53.5264
1127.91	130.099
1131.29	29.5693
1134.66	94.5386
1138.04	206.734
1141.41	277.082
1144.79	220.657
1148.16	111.811
1151.54	48.4277
1154.91	25.0908
1158.29	1.95312
1161.66	21.2129
1165.04	69.7007
1168.41	14.4912
1171.79	34.7246
1175.16	24.2783
1178.54	1.15723
1181.91	25.3887
1185.29	33.356
1188.66	90.043
1192.04	279.959
1195.41	381.159
1198.79	476.057
1202.16	412.426
1205.53	168.283
1208.91	67.9912
1212.28	129.874
1215.66	100.494
1219.03	86.5132
1222.41	69.0342
1225.78	46.6509
1229.16	80.1431
1232.53	8.37354
1235.91	30.0332
1239.28	24.4619
1242.66	69.0171
1246.03	1.21875
1249.41	96.7334
1252.78	119.657
1256.16	44.5591
1259.53	98.7295
1262.91	80.4814
1266.28	65.1313
1269.66	56.3887
1273.03	38.5586
1276.4	101.573
1279.78	56.8242
1283.15	97.8603
1286.53	133.017
1289.9	80.9702
1293.28	1.64697
