Measurement: Raman, 785 nm, unoriented, Raman Data Processed
Mineral: Bradaczekite
Rruff sample: R070029
Ideal chemistry: NaCu^2+^_4_(As^5+^O_4_)_3_
Locality: main fracture, N breakthrough, Tolbachik Volcano, Kamchatka Peninsula, Russia
Source: Michael Scott
Description: Dark blue poorly developed crystals forming a crust
Raman shift (cm-1)	intensity
137.22	0
140.112	19.7621
143.005	280.816
145.898	440.533
148.79	469.748
151.683	418.597
154.576	331.794
157.469	197.534
160.361	258.958
163.254	294.437
166.147	277.179
169.039	313.417
171.932	338.997
174.825	365.121
177.717	342.444
180.61	329.373
183.503	336.827
186.395	389.023
189.288	350.556
192.181	418.529
195.074	485.222
197.966	535.865
200.859	463.195
203.752	269.826
206.644	162.827
209.537	108.757
212.43	96.7546
215.322	127.507
218.215	94.9817
221.108	150.828
224.001	85.9236
226.893	17.9392
229.786	2.27637
232.679	19.6396
235.571	33.3879
238.464	14.3794
241.357	82.8958
244.25	35.0461
247.142	57.354
250.035	101.005
252.928	97.0486
255.82	144.965
258.713	127.725
261.606	159.904
264.498	181.773
267.391	153.87
270.284	197.97
273.176	162.038
276.069	54.4312
278.962	79.3931
281.855	38.0049
284.747	73.9153
287.64	94.7422
290.533	103.636
293.425	67.6697
296.318	137.815
299.211	176.999
302.103	135.518
304.996	118.859
307.889	150.247
310.782	66.634
313.674	121.163
316.567	60.7227
319.46	35.7256
322.352	32.9839
325.245	21.7192
328.138	26.6787
331.031	6.78809
333.923	13.365
336.816	87.2212
339.709	134.382
342.601	245.576
345.494	389.372
348.387	533.425
351.279	564.831
354.172	712.326
357.065	868.449
359.957	1099.87
362.85	1238.69
365.743	1270.43
368.636	1184.95
371.528	1029.15
374.421	831.441
377.314	651.968
380.207	457.576
383.099	281.724
385.992	177.484
388.885	115.196
391.777	79.0696
394.67	139.328
397.563	145.366
400.455	224.905
403.348	293.649
406.241	359.967
409.134	486.05
412.026	531.199
414.919	643.768
417.812	595.409
420.704	512.785
423.597	382.289
426.49	318.681
429.382	264.272
432.275	246.254
435.168	193.925
438.06	219.248
440.953	253.517
443.846	269.637
446.739	318.121
449.631	371.197
452.524	460.723
455.417	318.355
458.309	133.066
461.202	146.318
464.095	114.705
466.988	153.875
469.88	207.066
472.773	222.392
475.666	206.73
478.558	162.592
481.451	76.0261
484.344	79.8936
487.236	44.4841
490.129	24.103
493.022	1.41235
495.914	17.7695
498.807	4.93433
501.7	9.88574
504.593	12.373
507.485	28.0391
510.378	18.6773
513.271	68.7407
516.163	51.7163
519.056	56.875
521.949	65.4904
524.841	60.269
527.734	25.6445
530.627	45.9493
533.52	90.0504
536.412	111.483
539.305	137.356
542.198	127.986
545.09	145.113
547.983	190.996
550.876	221.564
553.769	170.419
556.661	190.869
559.554	181.943
562.447	177.71
565.339	91.7516
568.232	69.6812
571.125	126.109
574.017	56.1282
576.91	22.2983
579.803	34.3899
582.696	13.7981
585.588	23.6815
588.481	0.951538
591.374	92.5538
594.266	71.5571
597.159	16.799
600.052	100.719
602.944	108.406
605.837	141.227
608.73	112.128
611.622	214.972
614.515	240.896
617.408	390.587
620.301	445.778
623.193	405.04
626.086	361.297
628.979	283.372
631.871	230.96
634.764	217.477
637.657	258.226
640.549	306.04
643.442	281.466
646.335	265.56
649.228	246.257
652.12	170.249
655.013	224.994
657.906	141.617
660.798	95.9941
663.691	85.2673
666.584	71.677
669.476	44.9418
672.369	79.0193
675.262	49.2432
678.155	64.4669
681.047	2.41309
683.94	2.8064
686.833	30.8456
689.726	35.9922
692.618	86.4338
695.511	95.2433
698.404	27.2112
701.296	92.6094
704.189	18.0456
707.082	115.682
709.974	136.868
712.867	100.873
715.76	141.216
718.653	137.618
721.545	76.3652
724.438	119.845
727.331	93.3727
730.223	102.115
733.116	79.7349
736.009	168.66
738.901	82.3306
741.794	43.7812
744.687	68.5251
747.58	12.278
750.472	47.2334
753.365	23.1293
756.258	7.00012
759.15	2.36816
762.043	76.2339
764.936	13.6891
767.828	56.0017
770.721	25.1074
773.614	13.2543
776.506	20.1079
779.399	20.2878
782.292	10.1284
785.185	168.633
788.077	249.524
790.97	373.789
793.863	453.026
796.755	541.461
799.648	661.28
802.541	702.069
805.433	590.13
808.326	524.579
811.219	434.139
814.112	383.752
817.004	381.804
819.897	365.533
822.79	467.537
825.682	571.78
828.575	805.186
831.468	1028.58
834.361	1442.48
837.253	1734.87
840.146	2001.29
843.039	2175.48
845.931	2247.18
848.824	2302.63
851.717	2438.74
854.609	2567
857.502	2839.86
860.395	3117.16
863.288	3453.36
866.18	3821.6
869.073	3809.2
871.966	3477.24
874.858	2897.66
877.751	2153.27
880.644	1619.08
883.536	1238.17
886.429	882.055
889.322	749.666
892.215	571.939
895.107	571.209
898	519.148
900.893	493.652
903.785	419.004
906.678	380.605
909.571	267.526
912.463	198.027
915.356	111.525
918.249	67.5059
921.141	63.3726
924.034	4.39844
926.927	57.1118
929.82	58.2881
932.712	15.0903
935.605	48.3994
938.498	10.1132
941.39	46.5797
944.283	73.1609
947.176	32.9648
950.068	60.4512
952.961	27.222
955.854	0.289673
958.747	19.8657
961.639	15.4421
964.532	67.9298
967.425	104.452
970.317	146.951
973.21	266.265
976.103	551.718
978.995	924.526
981.888	1254.61
984.781	1197.22
987.674	1398.56
990.566	1193.19
993.459	806.296
996.352	470.249
999.244	394.517
1002.14	337.935
1005.03	222.415
1007.92	217.13
1010.82	135.875
1013.71	153.891
1016.6	110.614
1019.49	107.795
1022.39	109.882
1025.28	99.4264
1028.17	184.388
1031.06	101.801
1033.96	60.9511
1036.85	99.4696
1039.74	67.6024
1042.63	51.7905
1045.53	9.44116
1048.42	67.1245
1051.31	38.6237
1054.21	25.1262
1057.1	15.3145
1059.99	52.9227
1062.88	28.7398
1065.78	40.4113
1068.67	62.8596
1071.56	87.6199
1074.45	92.7289
1077.35	104.441
1080.24	96.7753
1083.13	78.4626
1086.03	66.3519
1088.92	62.0719
1091.81	48.8971
1094.7	72.4717
1097.6	111.603
1100.49	129.794
1103.38	28.0789
1106.27	59.5928
1109.17	16.9336
1112.06	51.0405
1114.95	9.68506
1117.85	19.6575
1120.74	20.9617
1123.63	50.1492
1126.52	8.16846
1129.42	9.50122
1132.31	5.47388
1135.2	31.3479
1138.09	30.4963
1140.99	94.8132
1143.88	67.696
1146.77	54.3565
1149.66	63.9456
1152.56	38.1938
1155.45	60.1096
1158.34	32.864
1161.24	19.5642
1164.13	26.4087
1167.02	56.3994
1169.91	27.2163
1172.81	50.4719
1175.7	83.832
1178.59	174.181
1181.48	149.253
1184.38	93.4602
1187.27	96.2188
1190.16	189.62
1193.06	159.388
1195.95	198.497
1198.84	168.496
1201.73	135.539
1204.63	105.419
1207.52	151.442
1210.41	177.648
1213.3	49.5969
1216.2	95.7529
1219.09	92.98
1221.98	72.0999
1224.88	66.5972
1227.77	9.1853
1230.66	49.4778
1233.55	84.9651
1236.45	26.2991
1239.34	43.3369
1242.23	54.5984
1245.12	0
