Measurement: Raman, 532 nm, unoriented, Raman Data Processed
Mineral: Braggite
Rruff sample: R070567
Ideal chemistry: PtS
Locality: Minneapolis Adit, J M Reef, Stillwater Complex, Beartooth Mountains, Stillwater County, Montana, USA
Source: James Shigley
Description: Tin-white metallic massive
Raman shift (cm-1)	intensity
155.813	0
158.706	59.0029
161.598	2.29828
164.491	32.6055
167.384	34.4089
170.276	39.0505
173.169	65.6844
176.062	68.6986
178.954	24.767
181.847	48.1709
184.74	10.8192
187.633	29.1401
190.525	41.8165
193.418	10.6746
196.311	44.7687
199.203	38.3032
202.096	10.1527
204.989	38.9542
207.881	21.3107
210.774	19.606
213.667	29.3773
216.56	12.7923
219.452	3.24548
222.345	14.5045
225.238	33.4308
228.13	3.17395
231.023	26.8098
233.916	16.9699
236.809	21.3884
239.701	62.3077
242.594	48.789
245.487	33.7386
248.379	37.5387
251.272	32.2508
254.165	37.17
257.057	12.4229
259.95	23.8896
262.843	44.7281
265.736	24.1193
268.628	33.9122
271.521	16.7991
274.414	18.2632
277.306	9.06171
280.199	13.8308
283.092	38.7436
285.984	11.0848
288.877	4.59821
291.77	26.7932
294.663	2.91083
297.555	8.31421
300.448	30.3616
303.341	4.72876
306.233	61.5524
309.126	81.868
312.019	117.212
314.911	160.751
317.804	272.102
320.697	290.473
323.59	361.191
326.482	605.61
329.375	1045.72
332.268	789.165
335.16	376.575
338.053	336.101
340.946	306.681
343.839	294.422
346.731	297.791
349.624	337.11
352.517	342.615
355.409	373.421
358.302	369.363
361.195	306.558
364.087	262.347
366.98	226.679
369.873	199.07
372.765	221.821
375.658	178.996
378.551	157.089
381.444	166.995
384.336	160.776
387.229	100.719
390.122	127.04
393.014	114.206
395.907	111.96
398.8	131.212
401.692	131.574
404.585	119.511
407.478	83.3235
410.371	90.3731
413.263	28.931
416.156	65.3615
419.049	18.7261
421.941	4.85803
424.834	14.5684
427.727	4.01068
430.62	1.32397
433.512	20.9327
436.405	12.0866
439.298	6.76135
442.19	5.59363
445.083	30.3864
447.976	9.8197
450.868	34.3798
453.761	5.61298
456.654	23.8254
459.546	38.2844
462.439	49.4921
465.332	65.834
468.225	37.7205
471.117	35.7147
474.01	44.3449
476.903	42.5689
479.795	53.7397
482.688	32.8622
485.581	18.9332
488.474	52.1106
491.366	28.1951
494.259	32.0189
497.152	47.8864
500.044	36.2517
502.937	28.8785
505.83	34.5607
508.722	40.2321
511.615	47.2856
514.508	22.3745
517.401	24.1949
520.293	15.5599
523.186	7.50684
526.079	0.90094
528.971	7.94311
531.864	10.3507
534.757	13.5098
537.649	43.3413
540.542	26.3444
543.435	23.0896
546.328	4.58414
549.22	8.33331
552.113	47.5121
555.006	27.2872
557.898	17.9779
560.791	33.8574
563.684	18.4266
566.577	28.8609
569.469	19.4382
572.362	20.7884
575.255	25.7115
578.147	7.0101
581.04	3.95688
583.933	13.3058
586.825	35.0343
589.718	17.7476
592.611	26.9574
595.504	19.417
598.396	0.11441
601.289	31.0948
604.182	22.8761
607.074	34.4323
609.967	6.98108
612.86	3.20526
615.752	23.1696
618.645	22.9633
621.538	21.5222
624.431	8.99393
627.323	8.64899
630.216	14.8934
633.109	24.6995
636.001	18.6667
638.894	10.8405
641.787	30.5585
644.679	10.3751
647.572	17.9578
650.465	3.254
653.357	14.9466
656.25	46.898
659.143	19.6956
662.036	9.75354
664.928	16.4211
667.821	14.7143
670.714	39.1779
673.606	25.7527
676.499	38.6507
679.392	24.2696
682.284	25.6383
685.177	19.8226
688.07	28.4406
690.963	16.9265
693.855	33.9768
696.748	23.0922
699.641	31.8143
702.533	15.1746
705.426	26.7653
708.319	22.3697
711.212	25.9204
714.104	49.2122
716.997	37.04
719.89	12.9171
722.782	27.8374
725.675	26.2845
728.568	15.5371
731.46	2.88754
734.353	22.9471
737.246	37.8347
740.139	10.4413
743.031	22.0399
745.924	46.0755
748.817	45.005
751.709	15.1965
754.602	38.7608
757.495	47.9721
760.388	17.5199
763.28	14.9657
766.173	29.747
769.066	21.256
771.958	17.5519
774.851	8.04858
777.744	25.137
780.636	22.4369
783.529	24.8794
786.422	17.7738
789.314	10.0073
792.207	21.8747
795.1	24.8164
797.993	15.2651
800.885	8.53439
803.778	10.7118
806.671	7.34576
809.563	20.2848
812.456	14.2087
815.349	25.148
818.241	4.89197
821.134	12.0138
824.027	11.3286
826.92	34.1719
829.812	31.2527
832.705	8.08517
835.598	17.7616
838.49	30.7468
841.383	14.0442
844.276	14.173
847.168	12.7583
850.061	22.4014
852.954	20.8843
855.847	57.3492
858.739	17.4046
861.632	38.9438
864.525	8.79279
867.417	35.8972
870.31	15.1491
873.203	35.9831
876.096	30.0515
878.988	22.1627
881.881	12.5805
884.774	17.7544
887.666	15.6099
890.559	4.18179
893.452	27.276
896.344	42.5767
899.237	35.1234
902.13	1.99393
905.023	26.5529
907.915	7.57397
910.808	25.8033
913.701	17.1098
916.593	32.6502
919.486	18.4997
922.379	24.498
925.271	21.2001
928.164	31.2713
931.057	53.6047
933.949	3.5932
936.842	6.83881
939.735	9.03064
942.628	22.0413
945.52	14.7345
948.413	25.0478
951.306	32.818
954.198	6.71948
957.091	1.12454
959.984	20.7385
962.876	13.3036
965.769	40.1781
968.662	9.31995
971.555	7.16751
974.447	5.89038
977.34	7.57837
980.233	19.7815
983.125	11.9867
986.018	15.4737
988.911	40.4618
991.804	15.8343
994.696	31.4647
997.589	9.15988
1000.48	12.6516
1003.37	34.0259
1006.27	23.0752
1009.16	10.2871
1012.05	11.9223
1014.95	17.0813
1017.84	28.3436
1020.73	11.1012
1023.62	32.8759
1026.52	11.839
1029.41	6.86871
1032.3	44.0842
1035.19	16.0164
1038.09	35.0663
1040.98	29.6105
1043.87	29.7357
1046.77	21.4556
1049.66	37.7181
1052.55	37.7811
1055.44	17.0364
1058.34	31.7537
1061.23	25.9005
1064.12	30.2544
1067.01	27.5566
1069.91	31.5972
1072.8	14.5773
1075.69	40.9232
1078.59	26.8307
1081.48	10.6676
1084.37	38.2723
1087.26	25.7825
1090.15	28.8057
1093.05	22.0895
1095.94	40.2872
1098.83	25.8024
1101.73	19.1517
1104.62	32.0393
1107.51	2.88953
1110.4	24.9294
1113.3	36.1141
1116.19	14.7589
1119.08	25.5424
1121.97	23.2362
1124.87	57.2472
1127.76	0.004333
1130.65	20.7862
1133.55	13.1591
1136.44	28.2099
1139.33	12.7937
1142.22	19.1723
1145.12	12.3483
1148.01	4.66846
1150.9	34.3525
1153.8	18.3841
1156.69	3.37763
1159.58	13.3359
1162.47	6.18704
1165.37	21.9738
1168.26	21.4424
1171.15	16.173
1174.04	5.1236
1176.94	29.8259
1179.83	23.0128
1182.72	17.8843
1185.62	8.03357
1188.51	23.6005
1191.4	42.6818
1194.29	42.9885
1197.18	21.5899
1200.08	1.51215
1202.97	24.2256
1205.86	31.6461
1208.76	31.8582
1211.65	10.7624
1214.54	18.5538
1217.43	12.6479
1220.33	26.2844
1223.22	19.9851
1226.11	21.9448
1229.01	7.47882
1231.9	39.807
1234.79	34.1441
1237.68	23.7143
1240.58	44.9995
1243.47	27.4697
1246.36	21.7063
1249.25	43.6556
1252.15	14.4212
1255.04	34.5041
1257.93	5.94977
1260.83	36.1624
1263.72	8.63409
1266.61	25.3649
1269.5	30.8449
1272.4	19.2389
1275.29	22.341
1278.18	23.1728
1281.07	35.8729
1283.97	3.09265
1286.86	23.7881
1289.75	7.05994
1292.64	24.8254
1295.54	2.06085
