Measurement: Raman, 785 nm, unoriented, Raman Data Processed
Mineral: Brandtite
Rruff sample: R070170
Ideal chemistry: Ca_2_Mn^2+^(As^5+^O_4_)_2_2H_2_O
Locality: Harstigen Mine, Pajsberg, Filipstad, Varmland, Sweden
Source: Michael Scott
Description: Aggregate of colorless prismatic to platy crystals
Measured chemistry: (Ca_1.99_Pb_0.01_)_Σ=2_(Mn^2+^_0.99_Mg_0.01_)_Σ=1_(As_1.00_O_4_)_2_·2.01H_2_O; H_2_O estimated by difference
Raman shift (cm-1)	intensity
116.971	0
119.863	41.2361
122.756	5.20032
125.649	5.55926
128.542	50.1198
131.434	207.552
134.327	278.022
137.22	220.065
140.112	355.241
143.005	743.619
145.898	1327.21
148.79	1412.05
151.683	1043.04
154.576	754.113
157.469	686.007
160.361	815.393
163.254	1135.17
166.147	1628.37
169.039	2263.23
171.932	3077.36
174.825	4072.11
177.717	5215.14
180.61	6336.02
183.503	6716.57
186.395	6613.11
189.288	6051.82
192.181	4733.03
195.074	3552.93
197.966	3106.54
200.859	3123.46
203.752	3083.39
206.644	2671.41
209.537	1894.38
212.43	1255.91
215.322	989.043
218.215	961.536
221.108	914.993
224.001	777.933
226.893	840.148
229.786	979.057
232.679	1122.55
235.571	1119.99
238.464	985.062
241.357	763.653
244.25	484.906
247.142	245.428
250.035	38.8406
252.928	60.3384
255.82	73.8809
258.713	99.4663
261.606	108.615
264.498	39.0842
267.391	0.324951
270.284	138.106
273.176	317.718
276.069	525.817
278.962	739.64
281.855	785.502
284.747	675.902
287.64	838.921
290.533	1180.44
293.425	1771.27
296.318	2310.12
299.211	2358.96
302.103	1777.47
304.996	1113.09
307.889	813.901
310.782	720.066
313.674	837.175
316.567	1254.07
319.46	2025.23
322.352	3254.81
325.245	5041.29
328.138	7328.36
331.031	10336
333.923	13565.5
336.816	14817.4
339.709	12754.7
342.601	9657.01
345.494	7755.97
348.387	6950.01
351.279	6760.87
354.172	6052.96
357.065	4738.92
359.957	3244.38
362.85	2159.44
365.743	1438.2
368.635	1031.13
371.528	680.472
374.421	356.413
377.314	128.538
380.206	60.2932
383.099	116.696
385.992	126.279
388.884	2.68848
391.777	115.792
394.67	403.863
397.562	792.285
400.455	1198.16
403.348	1466.03
406.241	1530.49
409.133	1828.79
412.026	2303.01
414.919	2951.49
417.811	3467.73
420.704	3553.16
423.597	3278.52
426.49	2438.53
429.382	1643.13
432.275	1148.67
435.168	1109.66
438.06	1255.7
440.953	1587.28
443.846	2115.24
446.738	2819.31
449.631	3081.69
452.524	2371.6
455.416	1497.61
458.309	1007.69
461.202	1002.52
464.095	1145.42
466.987	1492.83
469.88	1699.47
472.773	1644.74
475.665	1475.39
478.558	1176.49
481.451	897.879
484.344	671.804
487.236	386.414
490.129	237.181
493.022	109.894
495.914	35.0115
498.807	15.0479
501.7	16.861
504.592	22.3689
507.485	12.4528
510.378	33.967
513.27	27.1246
516.163	29.4871
519.056	16.1144
521.949	20.3385
524.841	25.4804
527.734	8.14563
530.627	44.4841
533.519	79.7806
536.412	56.1945
539.305	71.6638
542.197	62.5322
545.09	123.662
547.983	119.778
550.876	137.306
553.768	125.077
556.661	143.165
559.554	135.18
562.446	92.1814
565.339	111.806
568.232	109.478
571.125	77.4745
574.017	83.576
576.91	58.6101
579.803	66.9315
582.695	54.7741
585.588	62.9028
588.481	61.23
591.373	67.1312
594.266	83.397
597.159	81.6054
600.052	52.4543
602.944	47.6841
605.837	60.1283
608.73	67.6849
611.622	72.5765
614.515	62.6585
617.408	37.3018
620.3	40.3662
623.193	41.7325
626.086	82.0725
628.979	17.0949
631.871	40.8831
634.764	112.806
637.657	72.2617
640.549	63.2472
643.442	29.1162
646.335	18.5652
649.227	57.5868
652.12	58.39
655.013	43.7057
657.905	72.1144
660.798	42.7105
663.691	53.4459
666.584	37.5571
669.476	19.1708
672.369	20.9327
675.262	38.4641
678.154	2.00806
681.047	11.3929
683.94	16.6697
686.832	60.3355
689.725	85.8784
692.618	88.3521
695.511	154.694
698.403	224.224
701.296	301.701
704.189	321.379
707.081	351.577
709.974	361.477
712.867	402.764
715.76	336.867
718.652	312.928
721.545	298.735
724.438	273.42
727.33	219.206
730.223	206.857
733.116	114.987
736.008	84.4321
738.901	27.7114
741.794	2.44897
744.687	68.0999
747.579	52.9626
750.472	111.807
753.365	99.4688
756.257	130.474
759.15	59.2239
762.043	46.5054
764.935	96.8906
767.828	263.237
770.721	620.975
773.614	1208.35
776.506	2161.51
779.399	3542.09
782.292	5286.61
785.184	6936.12
788.077	7525
790.97	6342.31
793.862	4422.33
796.755	3141.4
799.648	2667.76
802.54	3110.01
805.433	4699.19
808.326	8560
811.219	17792.7
814.111	33509.5
817.004	57796.6
819.897	90029.5
822.789	91308.8
825.682	48669.8
828.575	22776.7
831.467	14439.4
834.36	11844.5
837.253	10759.7
840.146	10055.2
843.038	9066.44
845.931	7688.9
848.824	6294.11
851.716	5255.42
854.609	4594.06
857.502	4270.9
860.394	4149.78
863.287	4266.67
866.18	4478.43
869.073	4522.5
871.965	4385.13
874.858	3899.27
877.751	3164.73
880.643	2380.19
883.536	1765.85
886.429	1421.35
889.322	1033.53
892.214	603.545
895.107	256.603
898	80.4141
900.892	8.69556
903.785	88.7131
906.678	118.741
909.57	82.3208
912.463	85.2358
915.356	101.691
918.248	91.7877
921.141	33.8938
924.034	10.7417
926.927	38.7716
929.819	72.7212
932.712	96.3505
935.605	132.601
938.497	278.905
941.39	189.839
944.283	238.658
947.175	314.531
950.068	315.565
952.961	363.252
955.854	420.38
958.746	429.225
961.639	408.903
964.532	385.153
967.424	369.276
970.317	300.962
973.21	278.82
976.102	234.848
978.995	221.049
981.888	164.184
984.78	127.993
987.673	105.866
990.566	94.0477
993.459	74.6239
996.351	109.139
999.244	65.0652
1002.14	80.8738
1005.03	87.4655
1007.92	74.5008
1010.82	68.5884
1013.71	63.7725
1016.6	60.4448
1019.49	61.604
1022.39	44.5919
1025.28	35.0898
1028.17	21.8866
1031.06	29.3592
1033.96	43.5857
1036.85	18.8146
1039.74	15.3876
1042.63	41.702
1045.53	36.45
1048.42	43.1005
1051.31	3.90332
1054.2	18.9963
1057.1	19.5283
1059.99	24.7112
1062.88	30.1207
1065.78	33.7884
1068.67	35.1742
1071.56	31.3206
1074.45	25.9081
1077.35	30.3761
1080.24	12.7087
1083.13	23.6984
1086.03	4.74744
1088.92	18.9508
1091.81	8.3429
1094.7	15.2194
1097.6	18.9254
1100.49	2.78174
1103.38	24.4028
1106.27	18.77
1109.17	19.8843
1112.06	9.61267
1114.95	6.21289
1117.85	6.49744
1120.74	5.63769
1123.63	13.887
1126.52	2.08948
1129.42	21.2559
1132.31	11.8749
1135.2	22.2314
1138.09	5.89368
1140.99	0.47937
1143.88	20.1559
1146.77	1.69409
1149.66	13.1536
1152.56	0.910889
1155.45	4.85986
1158.34	14.3063
1161.23	18.4315
1164.13	14.6439
1167.02	0.172974
1169.91	17.4255
1172.81	21.5888
1175.7	2.13599
1178.59	16.9235
1181.48	2.23047
1184.38	18.5696
1187.27	11.8555
1190.16	31.523
1193.06	16.4508
1195.95	34.8483
1198.84	47.0808
1201.73	24.9094
1204.63	42.1423
1207.52	38.3511
1210.41	16.0187
1213.3	38.4858
1216.2	18.4431
1219.09	36.6323
1221.98	44.2852
1224.88	36.3704
1227.77	6.57739
