Measurement: Raman, 532 nm, unoriented, Raman Data Processed
Mineral: Brandtite
Rruff sample: R070170
Ideal chemistry: Ca_2_Mn^2+^(As^5+^O_4_)_2_2H_2_O
Locality: Harstigen Mine, Pajsberg, Filipstad, Varmland, Sweden
Source: Michael Scott
Description: Aggregate of colorless prismatic to platy crystals
Measured chemistry: (Ca_1.99_Pb_0.01_)_Σ=2_(Mn^2+^_0.99_Mg_0.01_)_Σ=1_(As_1.00_O_4_)_2_·2.01H_2_O; H_2_O estimated by difference
Raman shift (cm-1)	intensity
123.665	0
127.04	11.6798
130.415	143.141
133.79	530.96
137.165	688.746
140.539	1162.52
143.914	1831.4
147.289	2068.55
150.664	1260.41
154.038	692.015
157.413	535.714
160.788	744.891
164.163	1254.2
167.538	2112.09
170.913	3388.83
174.287	5090.02
177.662	7043.39
181.037	8555.45
184.412	8582.56
187.787	7911.22
191.161	6139.69
194.536	4594.85
197.911	4306.53
201.286	4658.53
204.661	4164.97
208.036	2954.87
211.41	1674.65
214.785	1292.65
218.16	1220.91
221.535	1043.64
224.91	1054.3
228.284	1269.87
231.659	1559.68
235.034	1539.56
238.409	1234.93
241.784	754.228
245.159	378.772
248.533	1.85791
251.908	125.995
255.283	179.193
258.658	169.373
262.033	71.4421
265.407	133.389
268.782	407.024
272.157	762.509
275.532	1261.58
278.907	1626.19
282.281	1455.07
285.656	1299.63
289.031	1900.86
292.406	2954.76
295.781	3963.91
299.156	3853.52
302.53	2597.15
305.905	1521.43
309.28	1150.34
312.655	1229.92
316.03	1885.67
319.404	3286.11
322.779	5916.59
326.154	10013
329.529	15516.8
332.904	21162.3
336.279	23887.4
339.653	20039.8
343.028	15148.6
346.403	13089.5
349.778	12456.6
353.152	11381.6
356.527	8688.35
359.902	5663.79
363.277	3560.45
366.652	2347.31
370.027	1556.67
373.401	794.984
376.776	277.926
380.151	102.134
383.526	222.714
386.901	167.967
390.276	24.5689
393.65	450.742
397.025	1000.72
400.4	1637.2
403.775	2001.29
407.15	2251.81
410.524	2969.68
413.899	4038.82
417.274	4777.41
420.649	4918.7
424.024	4078.57
427.398	2759.1
430.773	1854.7
434.148	1580.44
437.523	2031.84
440.898	2963.88
444.272	4016.59
447.647	4881.79
451.022	4562.43
454.397	2877.56
457.772	2060.43
461.147	2232.66
464.521	2870.55
467.896	3585.97
471.271	3868.51
474.646	3431.03
478.021	2893.08
481.396	2098.24
484.77	1350.62
488.145	799.092
491.52	424.109
494.895	209.751
498.269	69.6047
501.644	11.0715
505.019	5.63452
508.394	60.4534
511.769	37.0293
515.144	79.2012
518.518	51.8452
521.893	32.3315
525.268	2.06592
528.643	8.06152
532.018	30.8814
535.393	47.5957
538.767	54.2935
542.142	100.84
545.517	132.596
548.892	125.248
552.266	177.609
555.641	162.777
559.016	199.702
562.391	201.985
565.766	209.559
569.141	179.074
572.515	122.288
575.89	173.488
579.265	140.916
582.64	107.205
586.015	131.546
589.389	133.134
592.764	151.98
596.139	129.432
599.514	113.57
602.889	141.972
606.264	103.223
609.638	134.436
613.013	113.598
616.388	133.002
619.763	124.644
623.138	147.534
626.513	144.915
629.887	118.595
633.262	123.438
636.637	143.179
640.012	125.208
643.386	122.438
646.761	144.183
650.136	148.847
653.511	140.938
656.886	153.541
660.261	143.98
663.635	160.721
667.01	107.46
670.385	56.2602
673.76	73.5945
677.135	7.19263
680.51	7.30005
683.884	79.5061
687.259	111.133
690.634	141.587
694.009	286.289
697.384	458.031
700.758	659.885
704.133	769.842
707.508	879.703
710.883	908.246
714.258	927.062
717.632	947.466
721.007	892.002
724.382	763.762
727.757	688.053
731.132	528.81
734.506	305.246
737.881	208.158
741.256	62.3218
744.631	59.5889
748.006	213.616
751.381	253.3
754.755	312.084
758.13	320.735
761.505	221.132
764.88	95.189
768.255	546.16
771.63	1604.92
775.004	3601.15
778.379	6564.9
781.754	10480.5
785.129	14037.7
788.504	14937.8
791.878	11648.2
795.253	7798.89
798.628	6139
802.003	7121.27
805.378	11859.6
808.752	25045.7
812.127	59715.1
815.502	112150
818.877	172914
822.252	209219
825.626	110384
829.001	47987.3
832.376	31954.7
835.751	27423.2
839.126	25471.2
842.5	22642
845.875	18995.7
849.25	15444.1
852.625	12904.9
856	11701.8
859.375	11565.4
862.749	12020.3
866.124	12735
869.499	13173
872.874	12460.2
876.249	10540.9
879.624	8086.17
882.998	5835.39
886.373	4338.74
889.748	3097.53
893.123	1678.91
896.498	618.916
899.872	173.972
903.247	93.0234
906.622	226.633
909.997	279.692
913.372	270.994
916.746	219.323
920.121	143.002
923.496	61.8132
926.871	39.3052
930.246	121.728
933.62	220.256
936.995	334.041
940.37	445.663
943.745	560.695
947.12	655.63
950.495	791.953
953.869	883.592
957.244	962.764
960.619	1017.09
963.994	991.442
967.369	941.678
970.744	777.696
974.118	649.99
977.493	584.577
980.868	501.863
984.243	358.125
987.618	280.922
990.992	245.411
994.367	214.204
997.742	227.347
1001.12	217.69
1004.49	198.194
1007.87	179.441
1011.24	143.004
1014.62	159.853
1017.99	149.608
1021.37	114.246
1024.74	91.8088
1028.12	94.082
1031.49	67.6492
1034.87	70.9573
1038.24	95.4097
1041.62	48.2498
1044.99	61.9014
1048.36	68.1975
1051.74	59.582
1055.11	34.0845
1058.49	42.6467
1061.86	77.0623
1065.24	77.522
1068.61	82.8862
1071.99	57.6602
1075.36	56.0752
1078.74	51.5107
1082.11	24.1367
1085.49	11.0181
1088.86	5.22461
1092.24	35.6624
1095.61	13.792
1098.99	11.8323
1102.36	6.63452
1105.74	19.4282
1109.11	0.46167
1112.49	11.3577
1115.86	15.032
1119.23	0.678711
1122.61	0.963623
1125.98	19.4009
1129.36	26.604
1132.73	35.5581
1136.11	11.4631
1139.48	9.74609
1142.86	52.4011
1146.23	66.1367
1149.61	20.7427
1152.98	4.58472
1156.36	63.2131
1159.73	64.5286
1163.11	52.9836
1166.48	36.2117
1169.86	68.4014
1173.23	63.4097
1176.61	48.522
1179.98	23.7827
1183.36	3.65478
1186.73	1.68164
1190.11	37.6977
1193.48	35.167
1196.86	34.854
1200.23	33.102
1203.61	14.654
1206.98	55.6682
1210.36	57.2224
1213.73	51.3552
1217.11	57.0474
1220.48	54.4407
1223.85	43.1743
1227.23	65.532
1230.6	58.6028
1233.98	65.8979
1237.35	31.0862
1240.73	66.8193
1244.1	48.2625
1247.48	13.8359
1250.85	26.7827
1254.23	50.355
1257.6	42.374
1260.98	87.7546
1264.35	4.11133
1267.73	64.6338
1271.1	48.3079
1274.48	22.8594
1277.85	50.5476
1281.23	58.7607
1284.6	36.8171
1287.98	6.92822
1291.35	22.9028
1294.73	50.4863
1298.1	7.20459
1301.47	23.821
1304.85	7.15771
1308.22	12.8438
