Measurement: Raman, 532 nm, unoriented, Raman Data Processed
Mineral: Brannockite
Rruff sample: R070278
Ideal chemistry: KSn_2_(Li_3_Si_12_)O_30_
Locality: Foote Lithium County mine (Foote mine), Kings Mountain District, Cleveland County, North Carolina, USA
Source: Michael Scott
Description: Thin colorless hexagonal plates that fluoresce sky blue under short wave ultraviolet light, associated with colorless quartz
Raman shift (cm-1)	intensity
158.822	0
161.715	70.1655
164.607	176.544
167.5	96.0727
170.393	91.2974
173.286	92.147
176.178	157.585
179.071	341.468
181.964	472.123
184.856	701.635
187.749	835.734
190.642	644.144
193.535	622.377
196.427	651.499
199.32	824.391
202.213	984.937
205.105	1060.22
207.998	1148.62
210.891	959.271
213.783	499.386
216.676	208.84
219.569	60.1953
222.462	39.5185
225.354	6.70557
228.247	1.40283
231.14	36.602
234.032	59.46
236.925	118.872
239.818	215.482
242.71	245.675
245.603	380.334
248.496	519.368
251.388	708.769
254.281	671.578
257.174	592.773
260.067	579.819
262.959	835.256
265.852	1108.86
268.745	1579.86
271.637	1992.24
274.53	2852.45
277.423	3718.6
280.315	3823.78
283.208	2961.34
286.101	2372.84
288.994	2406.61
291.886	2177.97
294.779	1273.68
297.672	615.295
300.564	264.988
303.457	96.6103
306.35	11.522
309.243	11.9995
312.135	1.60644
315.028	26.9644
317.921	59.4404
320.813	174.997
323.706	347.188
326.599	622.801
329.491	834.197
332.384	845.229
335.277	1094.88
338.17	1174.24
341.062	1012.63
343.955	648.574
346.848	495.884
349.74	412.758
352.633	347.168
355.526	296.877
358.418	166.294
361.311	243.192
364.204	144.572
367.097	270.34
369.989	310.742
372.882	532.556
375.775	799.2
378.667	880.331
381.56	693.535
384.453	309.521
387.346	52.1255
390.238	41.2822
393.131	79.561
396.024	89.9302
398.916	71.2529
401.809	67.2075
404.702	145.052
407.594	309.1
410.487	275.15
413.38	150.067
416.272	279.766
419.165	100.064
422.058	72.6851
424.951	36.6641
427.843	111.352
430.736	174.452
433.629	487.66
436.521	694.598
439.414	1168.85
442.307	1835.98
445.2	3220.82
448.092	5605.88
450.985	8736.96
453.878	11889.8
456.77	14863.9
459.663	12563.5
462.556	7273.4
465.448	4689.71
468.341	3275.71
471.234	3003.89
474.127	3256.15
477.019	3999.34
479.912	4427.29
482.805	2799.92
485.697	1420.67
488.59	806.487
491.483	798.641
494.375	900.684
497.268	1537.8
500.161	2309.72
503.053	3368.92
505.946	4481.81
508.839	4310.05
511.732	2563.33
514.624	1276.96
517.517	660.031
520.41	308.066
523.302	186.929
526.195	32.9004
529.088	32.5273
531.981	25.4424
534.873	5.53906
537.766	26.4678
540.659	1.11719
543.551	77.9551
546.444	34.8545
549.337	60.0469
552.229	27.0684
555.122	50.8477
558.015	43.7402
560.908	40.8135
563.8	11.2363
566.693	27.335
569.586	40.3272
572.478	67.5869
575.371	146.948
578.264	122.217
581.156	194.268
584.049	97.0703
586.942	147.977
589.835	139.116
592.727	196.478
595.62	234.225
598.513	305.175
601.405	531.145
604.298	846.519
607.191	1079.09
610.083	1435.27
612.976	1376.24
615.869	840.439
618.762	528.62
621.654	323.59
624.547	229.297
627.44	181.568
630.332	239.273
633.225	243.582
636.118	308.908
639.01	203.059
641.903	301.573
644.796	343.625
647.689	375.612
650.581	225.611
653.474	274.539
656.367	172.749
659.259	154.7
662.152	150.799
665.045	153.188
667.938	87.9307
670.83	89.4512
673.723	56.7627
676.616	77.4551
679.508	95.4277
682.401	96.0654
685.294	97.3857
688.186	20.6904
691.079	65.3301
693.972	76.5762
696.865	57.5205
699.757	61.3438
702.65	49.4619
705.543	10.0185
708.435	34.7295
711.328	0.576172
714.221	49.8135
717.113	27.1572
720.006	33.1094
722.899	25.54
725.792	0.087891
728.684	34.9062
731.577	20.8125
734.47	90.6299
737.362	3.41504
740.255	60.831
743.148	73.5713
746.04	122.361
748.933	111.487
751.826	264.248
754.719	336.556
757.611	595.07
760.504	847.543
763.397	986.796
766.289	866.551
769.182	702.68
772.075	523.458
774.967	321.315
777.86	186.439
780.753	54.6875
783.646	28.9189
786.538	51.9639
789.431	69.6143
792.324	65.8584
795.216	82.7949
798.109	137.769
801.002	184.819
803.894	345.347
806.787	331.498
809.68	382.575
812.573	567.327
815.465	695.265
818.358	510.737
821.251	276.655
824.143	269.069
827.036	353.879
829.929	456.168
832.822	642.303
835.714	603.322
838.607	440.296
841.5	315.706
844.392	289.219
847.285	192.852
850.178	178.486
853.07	107.57
855.963	41.3027
858.856	51.9053
861.749	78.8574
864.641	75.0264
867.534	20.5859
870.427	32.8272
873.319	89.4902
876.212	32.6182
879.105	40.6592
881.997	49.9727
884.89	5.25781
887.783	109.781
890.676	26.2959
893.568	10.5967
896.461	58.7822
899.354	92.9014
902.246	76.8106
905.139	74.5957
908.032	66.0342
910.924	8.31152
913.817	165.031
916.71	106.775
919.602	182.549
922.495	220.637
925.388	285.387
928.281	373.921
931.173	450.887
934.066	529.484
936.959	677.494
939.851	989.185
942.744	1009.63
945.637	1314.39
948.529	1562.53
951.422	1747.97
954.315	1844.94
957.208	1835.57
960.1	1992.98
962.993	2221.9
965.886	2194
968.778	1947.65
971.671	1888.24
974.564	1847.33
977.457	1804.13
980.349	1663.13
983.242	1509.24
986.135	1141.93
989.027	774.194
991.92	538.442
994.813	364.54
997.705	281.461
1000.6	224.621
1003.49	263.247
1006.38	286.893
1009.28	361.619
1012.17	404.496
1015.06	525.07
1017.95	470.217
1020.85	495.382
1023.74	434.878
1026.63	306.143
1029.53	158.426
1032.42	114.155
1035.31	47.1631
1038.2	89.7676
1041.1	31.7148
1043.99	36.082
1046.88	15.7676
1049.77	32.9199
1052.67	17.168
1055.56	5.90039
1058.45	41.794
1061.35	40.5635
1064.24	25.6465
1067.13	92.4561
1070.02	84.2578
1072.92	156.425
1075.81	102.568
1078.7	74.8223
1081.59	219.787
1084.49	264.79
1087.38	261.947
1090.27	438.678
1093.16	585.089
1096.06	725.972
1098.95	836.838
1101.84	734.359
1104.73	636.771
1107.63	516
1110.52	542.826
1113.41	449.519
1116.31	389.763
1119.2	324.571
1122.09	350.242
1124.98	346.718
1127.88	339.325
1130.77	413.312
1133.66	544.379
1136.56	651.149
1139.45	685.314
1142.34	728.407
1145.23	686.254
1148.13	634.658
1151.02	620.669
1153.91	488.81
1156.8	538.934
1159.7	481.334
1162.59	334.515
1165.48	218.684
1168.38	107.439
1171.27	90.1816
1174.16	3.64258
1177.05	27.3018
1179.95	99.3506
1182.84	45.3184
1185.73	73.2275
1188.62	29.8418
1191.52	3.80664
1194.41	110.466
1197.3	10.9766
1200.19	64.8467
1203.09	69.9863
1205.98	62.7148
1208.87	16.7949
1211.77	112.462
1214.66	18.6719
1217.55	0.095703
1220.44	103.778
1223.34	77.8926
1226.23	34.0752
1229.12	100.724
1232.01	143.652
1234.91	65.7227
1237.8	83.458
1240.69	16.0352
1243.59	97.0107
1246.48	77.4326
1249.37	83.8086
1252.26	67.6709
1255.16	49.0645
1258.05	78.501
1260.94	92.165
1263.83	12.3994
1266.73	182.249
1269.62	46.2353
1272.51	179.442
1275.4	125.143
1278.3	192.846
1281.19	182.665
1284.08	136.509
1286.98	130.25
1289.87	197.685
1292.76	92.5234
1295.65	92.2861
1298.55	122.498
1301.44	119.101
1304.33	115.752
1307.22	7.24707
1310.12	66.8516
1313.01	42.9424
