Measurement: Raman, 532 nm, unoriented, Raman Data Processed
Mineral: Brannockite
Rruff sample: R070410
Ideal chemistry: KSn_2_(Li_3_Si_12_)O_30_
Locality: Foote Lithium County mine (Foote mine), Kings Mountain District, Cleveland County, North Carolina, USA
Source: Michael Scott
Description: Colorless hexagonal plates associated with quartz
Raman shift (cm-1)	intensity
140.502	0
143.876	209.007
147.251	906.822
150.626	2393.91
154.001	1461.11
157.376	186.955
160.75	6.56311
164.125	16.7039
167.5	10.2114
170.875	80.1021
174.25	92.7974
177.625	108.766
180.999	145.04
184.374	204.403
187.749	298.174
191.124	234.243
194.499	256.886
197.874	347.255
201.248	396.621
204.623	164.554
207.998	73.9678
211.373	51.5256
214.748	12.3709
218.122	3.24878
221.497	14.1213
224.872	23.5657
228.247	6.46387
231.622	19.0381
234.996	35.4719
238.371	101.163
241.746	209.273
245.121	187.687
248.496	223.289
251.871	374.716
255.245	368.279
258.62	211.779
261.995	284.515
265.37	609.473
268.745	1051.49
272.12	1816.03
275.494	3059.41
278.869	4006.53
282.244	2547.89
285.619	912.437
288.994	502.779
292.368	309.353
295.743	136.007
299.118	32.7839
302.493	25.7405
305.868	12.0383
309.243	12.4099
312.617	8.3269
315.992	12.1435
319.367	69.125
322.742	164.821
326.117	288.09
329.491	494.42
332.866	807.36
336.241	1064.64
339.616	986.736
342.991	627.563
346.365	355.223
349.74	331.246
353.115	314.339
356.49	312.615
359.865	366.616
363.24	451.767
366.614	482.675
369.989	710.627
373.364	1062.16
376.739	1411.93
380.114	718.001
383.488	243.151
386.863	63.7966
390.238	47.3831
393.613	5.89917
396.988	22.562
400.363	13.0869
403.737	30.0073
407.112	2.72241
410.487	11.669
413.862	27.8552
417.237	94.311
420.611	83.8799
423.986	171.956
427.361	152.306
430.736	194.693
434.111	358.616
437.486	573.934
440.86	1156.58
444.235	2360.36
447.61	4287.48
450.985	7014.15
454.36	9880.13
457.735	12052.5
461.109	6306.87
464.484	2496.78
467.859	1424.44
471.234	1142.58
474.609	1241.22
477.983	1559.31
481.358	1523.74
484.733	726.284
488.108	449.359
491.483	270.879
494.858	235.345
498.232	238.996
501.607	242.375
504.982	262.648
508.357	237.384
511.732	177.939
515.106	80.9238
518.481	93.7195
521.856	36.4656
525.231	1.70996
528.606	13.3164
531.981	14.5793
535.355	6.33252
538.73	13.294
542.105	9.67896
545.48	39.1582
548.855	25.4648
552.229	12.498
555.604	23.4656
558.979	29.5466
562.354	28.7251
565.729	29.489
569.104	43.0498
572.478	19.803
575.853	13.1687
579.228	23.0178
582.603	23.4231
585.978	26.7368
589.352	19.3184
592.727	107.119
596.102	126.76
599.477	248.784
602.852	475.396
606.227	715.654
609.601	957.698
612.976	812.803
616.351	376.004
619.726	148.145
623.101	88.6506
626.476	100.441
629.85	55.594
633.225	61.7253
636.6	95.4211
639.975	2.06323
643.35	78.6621
646.724	49.9343
650.099	92.4146
653.474	4.09741
656.849	58.1707
660.224	50.0254
663.598	54.6338
666.973	37.9922
670.348	63.2332
673.723	7.41138
677.098	7.66357
680.472	19.0737
683.847	35.9072
687.222	4.98926
690.597	11.3906
693.972	41.0493
697.347	49.9785
700.721	7.99512
704.096	56.1177
707.471	54.4522
710.846	48.7495
714.221	70.52
717.596	10.7412
720.97	23.2065
724.345	48.5454
727.72	17.7568
731.095	45.9756
734.47	33.8145
737.844	60.6973
741.219	46.9956
744.594	62.6797
747.969	69.9023
751.344	124.74
754.719	172.902
758.093	279.701
761.468	441.875
764.843	526.865
768.218	619.865
771.593	427.467
774.967	219.942
778.342	148.056
781.717	30.4155
785.092	88.3696
788.467	44.4497
791.842	11.0942
795.216	4.27783
798.591	3.88769
801.966	22.4819
805.341	29.189
808.716	54.1484
812.091	45.5972
815.465	50.9414
818.84	81.5923
822.215	117.088
825.59	216.616
828.965	300.47
832.339	459.935
835.714	420.075
839.089	257.293
842.464	110.07
845.839	134.787
849.213	108.433
852.588	87.4619
855.963	83.8188
859.338	66.8389
862.713	13.0239
866.087	57.9385
869.462	26.0801
872.837	25.8091
876.212	1.22803
879.587	49.4756
882.962	15.874
886.337	47.2891
889.711	24.1025
893.086	43.4355
896.461	16.8852
899.836	16.855
903.211	5.23682
906.585	6.5542
909.96	54.377
913.335	39.2207
916.71	28.6611
920.085	1.45019
923.46	11.7393
926.834	66.8345
930.209	28.1782
933.584	69.7837
936.959	63.6572
940.334	80.5361
943.708	72.1538
947.083	99.8003
950.458	69.062
953.833	57.4853
957.208	72.4443
960.582	91.5015
963.957	164.585
967.332	99.5762
970.707	255.009
974.082	444.001
977.457	644.381
980.831	857.353
984.206	905.165
987.581	748.199
990.956	500.951
994.331	252.905
997.705	149.355
1001.08	103.96
1004.46	108.288
1007.83	167.769
1011.21	178.432
1014.58	336.17
1017.95	379.791
1021.33	495.328
1024.7	355.565
1028.08	244.992
1031.45	160.61
1034.83	56.5537
1038.2	24.522
1041.58	36.5278
1044.95	51.9907
1048.33	43.8213
1051.7	22.853
1055.08	14.8906
1058.45	34.7036
1061.83	32.0903
1065.2	7.80518
1068.58	28.4668
1071.95	53.4268
1075.33	73.8916
1078.7	27.7119
1082.08	20.4888
1085.45	23.1924
1088.83	24.355
1092.2	52.9263
1095.58	100.36
1098.95	54.5962
1102.33	87.8071
1105.7	88.9844
1109.07	75.6011
1112.45	37.6899
1115.82	84.2466
1119.2	104.18
1122.57	170.172
1125.95	230.057
1129.32	342.558
1132.7	443.616
1136.07	431.075
1139.45	425.027
1142.82	466.051
1146.2	485.811
1149.57	473.693
1152.95	474.408
1156.32	437.648
1159.7	322.591
1163.07	170.831
1166.45	59.3218
1169.82	79.3911
1173.2	94.7075
1176.57	50.7105
1179.95	23.9678
1183.32	15.1616
1186.69	5.4541
1190.07	84.2959
1193.44	23.8833
1196.82	71.3804
1200.19	47.9497
1203.57	14.3657
1206.94	16.0122
1210.32	14.249
1213.69	44.0933
1217.07	24.0825
1220.44	55.8852
1223.82	51.6777
1227.19	65.0537
1230.57	26.5068
1233.94	40.9214
1237.32	50.8223
1240.69	0.421875
1244.07	35.0278
1247.44	44.7471
1250.82	8.62598
1254.19	13.5796
1257.57	56.8296
1260.94	53.7402
1264.32	40.0332
1267.69	44.269
1271.07	91.9121
1274.44	82.1514
1277.82	41.9131
1281.19	41.0278
1284.57	45.6987
1287.94	19.7007
1291.32	47.8174
1294.69	84.478
1298.06	36.8628
1301.44	17.2744
1304.81	16.4224
