Measurement: Raman, 532 nm, unoriented, Raman Data Processed
Mineral: Brannerite
Rruff sample: R080091
Ideal chemistry: UTi_2_O_6_
Locality: Crocker's Well, South Australia, Australia
Source: Michael Scott
Description: Light brown fragment from metamict sample R060613, after heating at T = 1000 C for 18 hours
Raman shift (cm-1)	intensity
145.869	0
149.243	35.2176
152.618	233.761
155.993	530.157
159.368	880.053
162.743	1252.59
166.117	1603.77
169.492	1845.11
172.867	1873.4
176.242	1647.94
179.617	1300.24
182.992	987.929
186.366	781.248
189.741	618.886
193.116	494.417
196.491	384.357
199.865	279.562
203.24	175.263
206.615	89.0815
209.99	30.8696
213.365	4.39075
216.74	20.9431
220.114	29.8484
223.489	28.3139
226.864	17.2808
230.239	4.28332
233.614	30.7429
236.988	69.9733
240.363	120.514
243.738	175.22
247.113	232.15
250.488	291.404
253.863	342.712
257.237	377.529
260.612	395.275
263.987	390.279
267.362	373.243
270.737	340.675
274.111	285.748
277.486	221.587
280.861	158.719
284.236	102.94
287.611	62.6473
290.986	44.6462
294.36	35.9269
297.735	33.4136
301.11	42.1342
304.485	56.9427
307.86	64.9149
311.235	77.7902
314.609	94.2175
317.984	109.48
321.359	124.781
324.734	134.487
328.109	143.439
331.483	149.564
334.858	159.868
338.233	160.954
341.608	166.377
344.983	171.397
348.358	176.739
351.732	177.956
355.107	175.019
358.482	168.023
361.857	157.918
365.231	145.733
368.606	130.735
371.981	114.288
375.356	95.4458
378.731	77.7508
382.106	64.0192
385.48	52.4046
388.855	36.0622
392.23	24.6971
395.605	12.074
398.98	4.14679
402.354	0.262146
405.729	4.71112
409.104	5.42181
412.479	6.07257
415.854	5.78937
419.229	4.6272
422.603	0.299255
425.978	0.57605
429.353	0.093628
432.728	5.5368
436.103	10.2745
439.478	10.4337
442.852	12.8448
446.227	16.5471
449.602	20.8292
452.977	24.9344
456.352	23.5676
459.726	18.6
463.101	15.6905
466.476	16.878
469.851	19.5286
473.226	24.9221
476.601	36.9721
479.975	47.5128
483.35	64.5864
486.725	60.213
490.1	56.2201
493.475	44.1091
496.849	27.8094
500.224	12.7332
503.599	2.9118
506.974	2.60059
510.349	2.65607
513.723	6.54822
517.098	18.4409
520.473	32.0579
523.848	47.2411
527.223	59.2319
530.598	71.8562
533.972	81.0688
537.347	80.9827
540.722	74.598
544.097	64.9388
547.472	53.2792
550.846	51.5465
554.221	44.2953
557.596	42.7806
560.971	38.3018
564.346	28.4188
567.721	14.9857
571.095	5.44983
574.47	0.76355
577.845	1.49774
581.22	0.975586
584.595	6.77271
587.969	13.5288
591.344	23.261
594.719	34.8351
598.094	44.7877
601.469	57.049
604.843	64.7103
608.218	78.5847
611.593	95.5086
614.968	114.021
618.343	138.055
621.718	173.495
625.092	220.342
628.467	273.495
631.842	326.126
635.217	376.696
638.592	404.098
641.966	407.823
645.341	378.764
648.716	327.892
652.091	263.669
655.466	202.63
658.841	151.578
662.215	110.364
665.59	78.3044
668.965	51.1772
672.34	34.8025
675.715	22.9949
679.09	14.7185
682.464	8.28363
685.839	4.2796
689.214	1.25189
692.589	4.89209
695.964	6.4231
699.338	4.51062
702.713	3.67664
706.088	2.52344
709.463	9.78302
712.838	23.4153
716.212	35.014
719.587	52.2301
722.962	77.9353
726.337	103.88
729.712	132.045
733.087	157.103
736.461	177.456
739.836	185.975
743.211	182.43
746.586	163.921
749.961	150.012
753.335	130.073
756.71	114.078
760.085	108.356
763.46	107.695
766.835	112.906
770.21	114.572
773.584	117.744
776.959	118.832
780.334	117.481
783.709	117.691
787.084	113.4
790.458	108.823
793.833	104.459
797.208	97.7503
800.583	91.7179
803.958	89.7165
807.332	82.954
810.707	82.8736
814.082	73.0046
817.457	66.1503
820.832	62.2203
824.207	53.8896
827.581	44.7976
830.956	37.2363
834.331	30.2632
837.706	24.9034
841.081	18.968
844.456	12.7541
847.83	8.72006
851.205	5.18494
854.58	1.8479
857.955	0.898254
861.33	3.29825
864.704	2.25084
868.079	3.37068
871.454	2.09865
874.829	1.42827
878.204	0.360489
881.578	2.06599
884.953	5.35519
888.328	7.93605
891.703	12.2832
895.078	15.2563
898.453	18.8951
901.827	20.9706
905.202	23.3879
908.577	22.9942
911.952	21.8161
915.327	22.0437
918.702	18.9001
922.076	13.6815
925.451	10.6772
928.826	8.00899
932.201	5.23669
935.576	2.71822
938.95	1.75029
942.325	0.252823
945.7	0.627029
949.075	0.563644
952.45	0.589615
955.824	1.9348
959.199	2.29411
962.574	2.50491
965.949	2.71611
969.324	3.17703
972.698	4.08685
976.073	3.78078
979.448	3.98778
982.823	4.8943
986.198	4.97344
989.573	5.68954
992.947	5.90039
996.322	6.59713
999.697	5.61262
1003.07	5.40691
1006.45	4.1777
1009.82	3.69379
1013.2	2.93566
1016.57	2.3035
1019.95	1.45002
1023.32	1.41453
1026.7	0.107193
1030.07	0.665871
1033.44	0.271614
1036.82	0.638573
1040.19	0.355019
1043.57	0.935577
1046.94	0.205582
1050.32	0.627129
1053.69	0.611694
1057.07	1.98298
1060.44	3.33195
1063.82	4.54289
1067.19	4.10272
1070.57	5.73148
1073.94	7.06103
1077.32	7.12867
1080.69	7.91985
1084.07	7.37906
1087.44	5.92203
1090.82	4.62372
1094.19	3.40477
1097.57	3.07404
1100.94	1.75304
1104.32	0.813545
1107.69	0.502174
1111.07	0.570427
1114.44	0.247574
1117.82	0.077354
1121.19	0.381096
1124.57	0.142334
1127.94	0.221672
1131.32	0.6651
1134.69	0.293633
1138.07	0.427437
1141.44	0.446693
1144.81	0.469864
1148.19	0.344475
1151.56	0.65062
1154.94	0.368256
1158.31	0.177742
1161.69	0.852867
1165.06	0.932579
1168.44	1.43452
1171.81	1.6603
1175.19	1.14959
1178.56	1.93034
1181.94	1.4463
1185.31	1.772
1188.69	2.15903
1192.06	1.41834
1195.44	1.10108
1198.81	1.32527
1202.19	1.39222
1205.56	1.50284
1208.94	1.32183
1212.31	2.01772
1215.68	0.733215
1219.06	0.93589
1222.43	0.770325
1225.81	1.28661
1229.18	1.10366
1232.56	1.33996
1235.93	1.48431
1239.31	0.647995
1242.68	0.442574
1246.06	0.604759
1249.43	1.0253
1252.81	0.759064
1256.18	0.852959
1259.56	0.232201
1262.93	0.496368
1266.31	0.103256
1269.68	0.523438
1273.06	0.060371
1276.43	0.329964
1279.81	0.084564
1283.18	3.78662
1286.56	4.89842
1289.93	3.16354
1293.31	0.467514
1296.68	0.125648
1300.06	0.553825
1303.43	0.022705
