Measurement: Raman, 785 nm, unoriented, Raman Data Processed
Mineral: Brannockite
Rruff sample: R070278
Ideal chemistry: KSn_2_(Li_3_Si_12_)O_30_
Locality: Foote Lithium County mine (Foote mine), Kings Mountain District, Cleveland County, North Carolina, USA
Source: Michael Scott
Description: Thin colorless hexagonal plates that fluoresce sky blue under short wave ultraviolet light, associated with colorless quartz
Raman shift (cm-1)	intensity
161.517	0
164.41	3.74158
167.303	39.4934
170.195	89.1062
173.088	64.4579
175.981	103.363
178.873	126.39
181.766	213.548
184.659	223.073
187.552	321.777
190.444	256.81
193.337	206.608
196.23	231.784
199.122	321.873
202.015	358.491
204.908	325.514
207.8	336.687
210.693	297.509
213.586	160.898
216.478	49.2284
219.371	47.3019
222.264	15.0494
225.157	9.38684
228.049	1.93127
230.942	0.082031
233.835	22.7047
236.727	14.1097
239.62	51.0732
242.513	107.74
245.405	175.06
248.298	213.913
251.191	275.262
254.084	307.425
256.976	263.176
259.869	252.344
262.762	413.824
265.654	636.6
268.547	915.639
271.44	1202.38
274.332	1764.43
277.225	2609.03
280.118	3014.94
283.011	2184.28
285.903	1171.76
288.796	868.765
291.689	687.423
294.581	446.261
297.474	205.586
300.367	87.7268
303.26	45.2407
306.152	1.51099
309.045	6.49622
311.938	5.72375
314.83	3.05713
317.723	68.5606
320.616	119.278
323.508	206.199
326.401	338.174
329.294	493.124
332.187	630.357
335.079	905.606
337.972	1066.42
340.865	876.446
343.757	610.395
346.65	445.964
349.543	320.803
352.435	313.598
355.328	286.164
358.221	190.34
361.113	220.527
364.006	269.18
366.899	340.899
369.792	399.683
372.684	580.092
375.577	786.977
378.47	933.171
381.362	782.62
384.255	366.668
387.148	165.101
390.041	32.7451
392.933	13.2192
395.826	18.2078
398.719	35.4315
401.611	26.7886
404.504	13.5011
407.397	0.827515
410.289	34.985
413.182	34.8807
416.075	52.1643
418.967	86.49
421.86	59.1289
424.753	83.8705
427.646	172.335
430.538	217.015
433.431	302.711
436.324	483.879
439.216	783.139
442.109	1283.37
445.002	2211.77
447.894	3406.34
450.787	4929.83
453.68	7377.81
456.573	9834.26
459.465	9157.66
462.358	5209.15
465.251	2875.48
468.143	1843.11
471.036	1343.15
473.929	1210.54
476.822	1429.23
479.714	1641.95
482.607	1176.68
485.5	584.005
488.392	341.459
491.285	246.447
494.178	244.913
497.07	368.004
499.963	414.755
502.856	592.489
505.748	829.666
508.641	846.009
511.534	566.967
514.427	304.135
517.319	118.844
520.212	46.3303
523.105	8.3418
525.997	9.22473
528.89	1.36645
531.783	22.3031
534.676	15.7288
537.568	24.9818
540.461	17.4502
543.354	33.4382
546.246	26.6583
549.139	32.4994
552.032	16.6992
554.924	33.1674
557.817	14.9177
560.71	17.6039
563.602	50.5754
566.495	14.1311
569.388	3.35327
572.281	15.9664
575.173	5.22815
578.066	20.7247
580.959	43.0057
583.851	72.1028
586.744	36.5663
589.637	58.5855
592.529	99.2433
595.422	121.038
598.315	154.167
601.208	270.342
604.1	393.329
606.993	578.822
609.886	843.031
612.778	808.787
615.671	557.607
618.564	272.411
621.457	202.674
624.349	155.342
627.242	99.7041
630.135	89.8337
633.027	66.5985
635.92	75.7585
638.813	37.9239
641.705	77.7686
644.598	136.024
647.491	98.9602
650.384	88.2931
653.276	62.7601
656.169	14.6052
659.062	39.163
661.954	29.8867
664.847	40.1649
667.74	38.8713
670.632	20.9102
673.525	42.735
676.418	45.0413
679.311	53.3531
682.203	13.738
685.096	72.8372
687.989	26.0977
690.881	21.6511
693.774	2.81262
696.667	32.1014
699.559	19.6526
702.452	1.97351
705.345	37.0149
708.237	41.912
711.13	6.23853
714.023	5.46912
716.916	26.2472
719.808	47.2779
722.701	24.6703
725.594	10.0105
728.486	24.6603
731.379	1.88501
734.272	12.1445
737.164	8.95142
740.057	7.03662
742.95	31.5552
745.843	49.577
748.735	40.8469
751.628	58.4502
754.521	112.611
757.413	110.456
760.306	171.663
763.199	177.84
766.091	222.24
768.984	222.669
771.877	165.81
774.77	89.722
777.662	25.3086
780.555	64.9073
783.448	6.72314
786.34	11.8025
789.233	8.54102
792.126	49.4359
795.019	57.6931
797.911	35.1787
800.804	16.4327
803.697	20.4414
806.589	40.9458
809.482	82.7639
812.375	67.7094
815.267	74.1362
818.16	53.0155
821.053	63.4966
823.946	79.2478
826.838	170.155
829.731	245.957
832.624	362.115
835.516	423.459
838.409	295.265
841.302	206.57
844.194	117.877
847.087	76.9619
849.98	71.1339
852.872	42.8673
855.765	77.4402
858.658	1.90405
861.551	35.5691
864.443	6.89221
867.336	11.3505
870.229	57.4873
873.121	10.5617
876.014	28.0857
878.907	18.016
881.799	36.6683
884.692	4.91736
887.585	4.34119
890.478	37.4815
893.37	5.99487
896.263	36.6993
899.156	5.27478
902.048	34.3997
904.941	39.6057
907.834	8.2052
910.726	21.5717
913.619	42.1361
916.512	41.1415
919.405	32.3545
922.297	73.4548
925.19	63.012
928.083	119.444
930.975	122.472
933.868	149.68
936.761	256.1
939.654	256.912
942.546	354.445
945.439	402.299
948.332	454.912
951.224	537.982
954.117	564.08
957.01	556.074
959.902	641.119
962.795	654.027
965.688	689.788
968.581	613.837
971.473	592.583
974.366	622.115
977.259	575.847
980.151	561.989
983.044	542.287
985.937	475.456
988.829	311.76
991.722	261.355
994.615	149.019
997.508	116.474
1000.4	89.8147
1003.29	61.7902
1006.19	107.148
1009.08	86.4802
1011.97	115.682
1014.86	120.324
1017.76	154.377
1020.65	164.636
1023.54	161.559
1026.43	136.098
1029.33	102.66
1032.22	56.8989
1035.11	11.2163
1038.01	30.1462
1040.9	15.71
1043.79	12.2741
1046.68	39.9376
1049.58	8.4071
1052.47	17.9834
1055.36	7.56018
1058.25	27.381
1061.15	16.2904
1064.04	5.56897
1066.93	18.7742
1069.83	2.04504
1072.72	15.5024
1075.61	25.5035
1078.5	46.67
1081.4	60.6208
1084.29	9.65112
1087.18	44.1198
1090.07	56.8041
1092.97	77.3348
1095.86	84.996
1098.75	123.856
1101.64	142.932
1104.54	117.222
1107.43	65.8494
1110.32	119.58
1113.21	108.15
1116.11	83.4639
1119	77.6985
1121.89	36.0785
1124.79	104.615
1127.68	118.67
1130.57	143.832
1133.46	246.84
1136.36	234.945
1139.25	219.962
1142.14	234.539
1145.04	245.694
1147.93	219.414
1150.82	189.624
1153.71	151.778
1156.61	142.407
1159.5	112.758
1162.39	79.5101
1165.28	44.068
1168.18	1.05249
1171.07	42.6491
1173.96	50.0189
1176.86	48.0435
1179.75	49.7116
1182.64	10.4083
1185.53	63.267
1188.43	44.5614
1191.32	40.7753
1194.21	24.3772
1197.1	6.02808
1200	108.913
1202.89	68.7104
1205.78	21.6254
1208.67	47.8069
1211.57	53.3199
1214.46	15.1129
1217.35	47.2305
1220.24	45.3911
1223.14	21.8578
1226.03	4.43518
1228.92	2.19226
1231.82	16.2786
1234.71	57.3562
1237.6	58.7434
1240.49	23.2145
