Measurement: Raman, 785 nm, unoriented, Raman Data Processed
Mineral: Brannockite
Rruff sample: R070410
Ideal chemistry: KSn_2_(Li_3_Si_12_)O_30_
Locality: Foote Lithium County mine (Foote mine), Kings Mountain District, Cleveland County, North Carolina, USA
Source: Michael Scott
Description: Colorless hexagonal plates associated with quartz
Raman shift (cm-1)	intensity
139.822	0
142.715	47.8754
145.607	179.383
148.5	433.017
151.393	1246.89
154.286	765.18
157.178	107.193
160.071	3.54883
162.964	3.79144
165.856	23.1038
168.749	20.7869
171.642	66.4943
174.534	62.0031
177.427	64.5379
180.32	87.6257
183.212	103.012
186.105	187.357
188.998	192.903
191.891	132.222
194.783	123.814
197.676	148.833
200.569	193.03
203.461	118.802
206.354	46.5502
209.247	50.812
212.139	20.0626
215.032	22.811
217.925	0.715637
220.818	4.74921
223.71	0.562378
226.603	10.924
229.496	18.8226
232.388	7.33807
235.281	0.225098
238.174	28.3373
241.066	57.4775
243.959	93.6949
246.852	99.2717
249.745	113.121
252.637	132.295
255.53	146.947
258.423	96.2966
261.315	139.971
264.208	260.119
267.101	450.899
269.993	655.919
272.886	934.321
275.779	1446.63
278.672	2096.44
281.564	2033.07
284.457	986.319
287.35	441.271
290.242	287.349
293.135	203.099
296.028	114.982
298.921	29.941
301.813	22.014
304.706	4.20404
307.599	2.90833
310.491	7.72266
313.384	3.79846
316.277	22.1781
319.169	37.1143
322.062	106.645
324.955	148.359
327.847	230.932
330.74	339.062
333.633	441.377
336.526	608.369
339.418	660.992
342.311	468.398
345.204	285.153
348.096	212.849
350.989	168.573
353.882	142.605
356.774	143.084
359.667	178.524
362.56	197.161
365.452	263.198
368.345	314.232
371.238	387.435
374.131	568.013
377.023	789.682
379.916	589.719
382.809	227.255
385.701	63.4902
388.594	13.6365
391.487	3.0553
394.38	3.32959
397.272	9.90967
400.165	11.7523
403.058	2.12677
405.95	7.73792
408.843	6.94592
411.736	6.38165
414.628	11.6038
417.521	15.1122
420.414	32.7211
423.307	96.1538
426.199	95.5021
429.092	92.901
431.985	136.721
434.877	233.306
437.77	357.025
440.663	583.691
443.555	1092.39
446.448	1922.74
449.341	2891.12
452.234	4219.17
455.126	6239.6
458.019	7709.13
460.912	5387.33
463.804	2440.78
466.697	1214.99
469.59	802.314
472.483	634.585
475.375	636.656
478.268	712.55
481.161	846.444
484.053	578.026
486.946	308.59
489.839	219.003
492.731	172.291
495.624	146.833
498.517	127.997
501.409	123.063
504.302	138.843
507.195	134.027
510.088	97.731
512.98	83.2175
515.873	72.7158
518.766	33.7357
521.658	15.8926
524.551	12.8238
527.444	2.89648
530.337	8.23554
533.229	22.3653
536.122	1.80469
539.015	0.001465
541.907	13.2938
544.8	16.3975
547.693	15.2937
550.585	5.15649
553.478	0.93573
556.371	11.5574
559.263	21.2545
562.156	17.9493
565.049	14.6618
567.942	12.5834
570.834	3.08942
573.727	0.656616
576.62	28.4164
579.512	9.53082
582.405	20.7078
585.298	5.96912
588.19	10.8323
591.083	27.898
593.976	34.5194
596.869	55.7991
599.761	122.368
602.654	179.508
605.547	293.024
608.439	413.94
611.332	550.359
614.225	375.216
617.117	209.732
620.01	94.6586
622.903	48.3961
625.795	6.23297
628.688	31.439
631.581	27.2886
634.474	33.6096
637.366	15.4526
640.259	8.74823
643.152	41.4442
646.044	6.37366
648.937	10.8777
651.83	2.90985
654.722	12.2045
657.615	9.06488
660.508	10.7662
663.401	7.11792
666.293	12.8099
669.186	2.10352
672.079	1.6767
674.971	12.5106
677.864	14.0596
680.757	12.4169
683.649	33.9551
686.542	11.1875
689.435	5.94177
692.328	16.6697
695.22	2.08801
698.113	19.9065
701.006	15.1135
703.898	9.87329
706.791	2.25891
709.684	5.96668
712.577	7.00971
715.469	10.9967
718.362	20.5855
721.255	2.04675
724.147	1.32416
727.04	17.4304
729.933	12.3061
732.825	28.9679
735.718	11.6449
738.611	20.5037
741.504	26.8841
744.396	0.907654
747.289	20.7239
750.182	33.2173
753.074	19.2643
755.967	42.8441
758.86	62.9211
761.752	87.5159
764.645	140.057
767.538	159.099
770.431	153.233
773.323	107.325
776.216	47.6874
779.109	65.0456
782.001	27.3303
784.894	9.35278
787.787	14.4225
790.679	0.375366
793.572	31.6335
796.465	0.341125
799.357	4.22223
802.25	31.6186
805.143	0.341125
808.036	10.1587
810.928	22.7286
813.821	20.2344
816.714	25.4355
819.606	24.4959
822.499	38.8752
825.392	55.7401
828.284	105.936
831.177	159.78
834.07	195.842
836.963	193.249
839.855	114.776
842.748	84.3168
845.641	63.7133
848.533	44.1057
851.426	37.0264
854.319	31.0735
857.212	28.0978
860.104	24.6752
862.997	37.4359
865.89	23.9054
868.782	10.1431
871.675	31.4622
874.568	6.90643
877.46	2.77246
880.353	33.3943
883.246	5.65021
886.139	21.6089
889.031	24.5885
891.924	3.63849
894.817	28.2662
897.709	28.5178
900.602	28.0957
903.495	7.16669
906.388	22.8486
909.28	1.89929
912.173	18.2216
915.066	20.7112
917.958	19.1967
920.851	32.456
923.744	32.0438
926.636	25.111
929.529	26.2405
932.422	17.3871
935.314	2.44775
938.207	23.2176
941.1	11.6924
943.993	9.67975
946.885	12.293
949.778	15.9576
952.671	18.7604
955.563	33.9601
958.456	45.4976
961.349	34.2118
964.241	34.1356
967.134	66.7962
970.027	69.2235
972.92	106.936
975.812	146.168
978.705	170.901
981.598	233.05
984.49	258.53
987.383	212.402
990.276	159.58
993.168	86.3816
996.061	61.6619
998.954	56.0615
1001.85	18.6362
1004.74	32.0275
1007.63	30.137
1010.52	47.5704
1013.42	71.5605
1016.31	102.146
1019.2	119.756
1022.1	145.14
1024.99	93.6954
1027.88	49.7848
1030.77	40.0699
1033.67	2.29926
1036.56	20.0829
1039.45	20.9875
1042.34	9.77527
1045.24	4.93518
1048.13	9.38269
1051.02	9.76831
1053.91	1.85553
1056.81	4.67798
1059.7	1.83014
1062.59	0.129089
1065.49	18.5287
1068.38	19.0869
1071.27	2.86731
1074.16	13.8087
1077.06	2.35437
1079.95	33.7381
1082.84	3.58466
1085.73	0.044861
1088.63	9.69959
1091.52	6.21307
1094.41	18.2314
1097.31	15.5674
1100.2	3.93768
1103.09	32.5868
1105.98	27.9568
1108.88	31.1052
1111.77	12.3985
1114.66	19.2187
1117.56	35.5128
1120.45	38.1824
1123.34	55.9123
1126.23	67.4855
1129.12	129.442
1132.02	178.305
1134.91	185.82
1137.8	160.399
1140.7	146.371
1143.59	126.987
1146.48	120.364
1149.37	108.83
1152.27	110.17
1155.16	114.258
1158.05	73.4147
1160.94	47.6333
1163.84	42.1578
1166.73	4.80316
1169.62	16.3364
1172.52	24.0513
1175.41	16.1639
1178.3	18.285
1181.19	9.51337
1184.09	2.47223
1186.98	19.5562
1189.87	12.613
1192.77	14.7076
1195.66	14.9697
1198.55	34.0591
1201.44	30.9597
1204.34	11.06
1207.23	10.4739
1210.12	11.7553
1213.01	7.03742
1215.91	17.3137
1218.8	21.6763
1221.69	23.955
1224.58	32.3624
1227.48	2.93982
1230.37	0.358887
1233.26	23.6502
1236.15	0
