Measurement: Raman, 532 nm, unoriented, Raman Data Processed
Mineral: Brassite
Rruff sample: R060042
Ideal chemistry: Mg(As^5+^O_3_OH)4H_2_O
Locality: Bohemia Region, Svornost mine, Jachymov, Czech Republic
Source: University of Arizona Mineral Museum
Description: White powder associated with pharmacolite, R050537
Measured chemistry: Mg_1.00_(As_1.00_O_3_OH)Â·4H_2_O
Raman shift (cm-1)	intensity
162.657	0
165.55	14.3916
168.443	31.4766
171.336	10.9644
174.228	50.0425
177.121	91.4614
180.014	153.302
182.906	155.236
185.799	138.423
188.692	145.211
191.584	124.506
194.477	139.964
197.37	174.722
200.263	163.457
203.155	124.435
206.048	97.7534
208.941	59.5693
211.833	22.1846
214.726	8.30713
217.619	6.76269
220.512	2.5669
223.404	0.424805
226.297	1.44922
229.19	9.72119
232.082	9.60596
234.975	16.3994
237.868	78.542
240.76	86.2353
243.653	117.485
246.546	111.83
249.439	113.001
252.331	59.041
255.224	77.624
258.117	110.006
261.009	134.626
263.902	140.829
266.795	173.782
269.687	219.897
272.58	270.56
275.473	256.962
278.365	248.123
281.258	238.518
284.151	298.348
287.044	327.858
289.936	385.656
292.829	472.212
295.722	459.302
298.614	412.209
301.507	364.931
304.4	292.491
307.293	232.483
310.185	91.0352
313.078	52.8535
315.971	22.5947
318.863	18.9326
321.756	3.62402
324.649	1.90039
327.541	30.9814
330.434	66.6397
333.327	56.5547
336.219	33.834
339.112	2.20606
342.005	32.7285
344.898	2.18066
347.79	7.39844
350.683	5.82715
353.576	19.1279
356.468	14.293
359.361	71.1699
362.254	30
365.147	77.5596
368.039	122.571
370.932	251.263
373.825	315.793
376.717	376.588
379.61	436.541
382.503	531.361
385.395	644.839
388.288	705.786
391.181	734.189
394.074	731.85
396.966	679.898
399.859	706.945
402.752	692.86
405.644	665.52
408.537	627.122
411.43	558.01
414.322	499.78
417.215	458.262
420.108	353.788
423	289.815
425.893	298.407
428.786	285.195
431.679	298.035
434.571	225.612
437.464	189.509
440.357	183.884
443.249	205.861
446.142	221.838
449.035	178.24
451.927	165.44
454.82	141.29
457.713	112.552
460.606	97.8926
463.498	56.0996
466.391	56.8984
469.284	35.5967
472.176	13.4746
475.069	14.5879
477.962	0.027344
480.854	29.4248
483.747	11.001
486.64	5.05859
489.533	18.4482
492.425	6.24121
495.318	4.23047
498.211	18.4482
501.103	45.7803
503.996	74.2324
506.889	59.8672
509.781	55.5518
512.674	67.1738
515.567	68.876
518.46	80.0957
521.352	86.3516
524.245	70.0293
527.138	96.7978
530.03	96.2764
532.923	90.2617
535.816	140.751
538.708	114.965
541.601	77.6074
544.494	112.532
547.386	126.767
550.279	129.944
553.172	107.203
556.065	82.043
558.957	103.054
561.85	123.155
564.743	136.323
567.635	109.741
570.528	132.481
573.421	142.98
576.313	156.009
579.206	186.353
582.099	156.193
584.992	165.132
587.884	147.541
590.777	176.11
593.67	150.228
596.562	129.758
599.455	127.291
602.348	147.824
605.24	94.4268
608.133	86.4141
611.026	59.6611
613.919	57.4141
616.811	88.6309
619.704	46.8916
622.597	58.4551
625.489	31.3252
628.382	47.3457
631.275	11.1572
634.168	43.3906
637.06	1.53027
639.953	18.1543
642.846	12.1074
645.738	9.98242
648.631	12.7744
651.524	14.4688
654.416	1.54981
657.309	11.2529
660.202	3.19727
663.095	43.9736
665.987	28.7842
668.88	47.1426
671.773	75.2109
674.665	102.135
677.558	175.047
680.451	220.856
683.343	284.496
686.236	321.788
689.129	367.076
692.021	443.644
694.914	491.919
697.807	483.638
700.7	485.521
703.592	481.763
706.485	442.124
709.378	437.254
712.27	391.356
715.163	356.926
718.056	306.022
720.948	271.424
723.841	233.096
726.734	193.613
729.627	115.78
732.519	90.9121
735.412	42.875
738.305	28.9209
741.197	31.9912
744.09	21.3232
746.983	0.428711
749.875	20.5791
752.768	33.1045
755.661	2.45019
758.554	20.3066
761.446	37.375
764.339	0.056641
767.232	39.8457
770.124	77.5781
773.017	176.46
775.91	285.999
778.803	385.647
781.695	553.711
784.588	814.971
787.481	1063.7
790.373	1437.11
793.266	1940.79
796.159	2488.48
799.051	3065.82
801.944	3646.43
804.837	4155.63
807.729	4360.72
810.622	4210.45
813.515	3669.72
816.408	2990.53
819.3	2355.45
822.193	1783.19
825.086	1420.8
827.978	1057.23
830.871	820.78
833.764	695.493
836.656	557.688
839.549	534.726
842.442	524.866
845.335	572.73
848.227	685.132
851.12	863.334
854.013	1084.67
856.905	1387.83
859.798	1627.46
862.691	1752.33
865.583	1695.12
868.476	1492.17
871.369	1266.67
874.261	1098.51
877.154	925.432
880.047	798.337
882.94	636.892
885.832	558.859
888.725	423.498
891.618	331.928
894.51	219.384
897.403	169.742
900.296	86.3115
903.188	70.0703
906.081	61.794
908.974	9.36914
911.867	1.08398
914.759	25.2041
917.652	3.88769
920.545	20.0312
923.437	5.34668
926.33	19.1943
929.223	16.167
932.115	11.3828
935.008	0.557617
937.901	9.39844
940.794	28.3252
943.686	11.4238
946.579	4.71973
949.472	11.8701
952.364	3.71191
955.257	35.876
958.15	18.6104
961.043	35.2959
963.935	45.2295
966.828	32.334
969.721	52.0107
972.613	107.069
975.506	102.586
978.399	69.7353
981.291	58.8867
984.184	94.2383
987.077	115.186
989.97	99.8272
992.862	85.2637
995.755	72.3574
998.648	54.8184
1001.54	62.168
1004.43	103.595
1007.33	68.2139
1010.22	66.2002
1013.11	85.2031
1016	87.4775
1018.9	77.9609
1021.79	74.6836
1024.68	61.7861
1027.58	28.4502
1030.47	56.749
1033.36	54.4834
1036.25	30.7246
1039.14	58.8623
1042.04	10.8935
1044.93	24.6064
1047.82	51.6094
1050.72	28.0752
1053.61	32.5752
1056.5	13.6123
1059.39	34.9404
1062.29	22.6875
1065.18	29.1172
1068.07	20.5059
1070.96	2.47266
1073.86	21.5605
1076.75	1.31055
1079.64	42.9482
1082.54	2.44141
1085.43	14.9629
1088.32	31.6553
1091.21	31.6904
1094.11	43.4775
1097	75.2978
1099.89	49.3965
1102.79	66.8359
1105.68	34.8594
1108.57	50.5928
1111.46	40.9502
1114.36	54.8096
1117.25	38.6641
1120.14	53.2344
1123.03	59.4385
1125.93	36.2949
1128.82	16.4404
1131.71	7.97754
1134.6	5.40039
1137.5	42.8213
1140.39	31.6357
1143.28	23.0762
1146.17	55.9941
1149.07	45.9131
1151.96	93.583
1154.85	40
1157.75	22.292
1160.64	37.3467
1163.53	34.0537
1166.42	31.0977
1169.32	30.3486
1172.21	37.3984
1175.1	55.5967
1177.99	27.4883
1180.89	28.3203
1183.78	43.7803
1186.67	24.8613
1189.57	25.3906
1192.46	27.3379
1195.35	21.7539
1198.24	24.4561
1201.14	29.8154
1204.03	46.7344
1206.92	13.1055
1209.82	32.751
1212.71	6.10547
1215.6	15.0791
1218.49	51.167
1221.38	54.6416
1224.28	46.2549
1227.17	62.8779
1230.06	41.5459
1232.96	38.0127
1235.85	76.5859
1238.74	35.8477
1241.63	17.3867
1244.53	46.4453
1247.42	46.956
1250.31	58.1191
1253.2	37.7461
1256.1	33.5166
1258.99	30.8447
1261.88	41.5137
1264.78	29.9014
1267.67	18.8604
1270.56	28.3672
1273.45	55.5986
1276.35	37.4443
1279.24	8.5459
1282.13	9.99512
1285.03	23.8877
1287.92	0.004883
