Measurement: Raman, 514 nm, unoriented, Raman Data Processed
Mineral: Braunite
Rruff sample: R050385
Ideal chemistry: Mn^2+^Mn^3+^_6_SiO_12_
Locality: Jhabua District, Madhya Pradesh, India
Source: University of Arizona Mineral Museum
Description: Black prismatic crystals
Measured chemistry: (Fe^2+^_0.61_Mn^2+^_0.39_)_Σ=1_(Mn^3+^_5.94_Al_0.06_)_Σ=6_Si_1.00_O_12_
Raman shift (cm-1)	intensity
151.711	0
155.863	105.973
160.013	18.951
164.161	43.066
168.308	162.367
172.452	346.156
176.594	365.951
180.734	718.397
184.872	1272.6
189.008	1843.71
193.143	3199.92
197.275	4621.16
201.405	6953.66
205.534	9387.33
209.66	10670.5
213.784	10182.9
217.907	8550.39
222.027	6615.27
226.146	5250.28
230.263	4393
234.377	2990.23
238.49	2066.97
242.601	1317.57
246.709	1405.2
250.816	751.901
254.921	504.334
259.024	255.727
263.125	210.808
267.224	138.342
271.321	9.94
275.416	28.261
279.51	94.811
283.601	248.816
287.69	53.096
291.778	12.986
295.863	23.496
299.947	2.67
304.029	22.56
308.108	30.401
312.186	98.682
316.262	245.602
320.336	657.033
324.408	734.676
328.478	1438.99
332.546	1700.74
336.612	1635.67
340.677	911.043
344.739	551.903
348.799	198.13
352.858	219.47
356.915	94.979
360.969	109.857
365.022	258.337
369.073	280.385
373.122	314.651
377.169	474.653
381.215	345.878
385.258	177.256
389.299	185.172
393.339	26.099
397.376	31.197
401.412	0.676
405.446	73.416
409.478	101.533
413.508	160.938
417.536	161.997
421.562	127.361
425.586	248.302
429.609	276.534
433.629	341.117
437.648	301.062
441.665	228.682
445.68	373.041
449.693	414.172
453.704	294.674
457.713	339.037
461.721	433.122
465.726	532.152
469.73	650.896
473.731	509.24
477.731	724.392
481.729	813.445
485.725	607.635
489.72	797.744
493.712	868.684
497.703	1049.44
501.691	1462.97
505.678	1973.46
509.663	2479.54
513.646	2552.57
517.627	2122.34
521.607	1638.58
525.584	1082.89
529.56	900.725
533.534	762.122
537.506	629.021
541.476	525.396
545.444	611.904
549.41	510.371
553.375	555.154
557.337	604.874
561.298	848.86
565.257	1038.69
569.214	1193.64
573.17	1283.31
577.123	1318.71
581.075	1420.3
585.024	1438.84
588.972	1633.02
592.918	1875.86
596.863	2272.02
600.805	2806.69
604.746	3921.47
608.685	4855.74
612.621	5675.06
616.557	6426.06
620.49	6133.72
624.421	5853.58
628.351	4088.2
632.279	3382.47
636.205	2749.34
640.129	2184.07
644.051	1866.74
647.972	1709.87
651.89	1621.84
655.807	1517.84
659.722	1766.34
663.636	1925.41
667.547	2063.11
671.457	2424.68
675.365	2941.65
679.271	3361.65
683.175	3933.82
687.077	4103.83
690.978	3721.93
694.877	3062.68
698.774	2356.46
702.669	1735.81
706.562	1206.13
710.454	890.384
714.344	668.47
718.232	587.883
722.118	558.571
726.002	461.924
729.885	494.424
733.766	208.965
737.645	179.579
741.522	122.247
745.397	165.955
749.271	55.689
753.143	107.445
757.013	140.214
760.881	9.938
764.748	51.372
768.613	28.243
772.476	48.829
776.337	18.457
780.196	92.855
784.054	98.191
787.91	18.587
791.764	87.479
795.616	3.438
799.467	20.732
803.316	165.863
807.163	40.875
811.008	38.844
814.851	16.157
818.693	114.631
822.533	90.223
826.371	9.271
830.208	3.734
834.042	25.01
837.875	79.812
841.706	0.565
845.536	79.809
849.363	96.211
853.189	152.423
857.013	23.51
860.836	105.432
864.656	78.101
868.475	210.606
872.292	78.998
876.108	33.271
879.922	182.4
883.733	127.419
887.544	170.31
891.352	131.066
895.159	205.188
898.964	222.167
902.767	469.505
906.568	300.699
910.368	259.752
914.166	390.333
917.962	450.226
921.757	321.847
925.55	558.264
929.341	548.193
933.13	742.111
936.918	732.44
940.703	842.278
944.488	916.512
948.27	1003.71
952.051	1268.88
955.83	1047.34
959.607	1092.53
963.383	981.567
967.156	845.298
970.928	671.226
974.699	531.004
978.468	420.54
982.234	514.693
986	423.354
989.763	416.347
993.525	347.164
997.285	653.656
1001.04	245.448
1004.8	302.519
1008.55	409.031
1012.31	355.319
1016.06	300.94
1019.81	310.054
1023.56	334.585
1027.31	310.881
1031.05	409.952
1034.79	324.281
1038.53	383.146
1042.27	304.087
1046.01	393.872
1049.75	280.332
1053.48	292.897
1057.22	247.345
1060.95	394.134
1064.68	313.26
1068.4	296.613
1072.13	347.57
1075.86	343.609
1079.58	375.462
1083.3	254.303
1087.02	240.043
1090.74	220.719
1094.45	275.394
1098.17	201.995
1101.88	266.624
1105.59	141.271
1109.3	260.012
1113.01	144.556
1116.71	39.427
1120.42	304.884
1124.12	241.947
1127.82	34.234
1131.52	18.458
1135.22	52.34
1138.91	190.938
1142.61	58.933
1146.3	28.353
1149.99	38.339
1153.68	24.508
1157.37	17.778
1161.06	92.419
1164.74	163.738
1168.42	78.396
1172.1	26.997
1175.78	102.777
1179.46	3.322
1183.14	189.032
1186.81	72.55
1190.48	37.601
1194.15	96.565
1197.83	90.932
1201.49	179.411
1205.16	33.182
1208.82	142.157
1212.49	208.044
1216.15	210.843
1219.81	110.556
1223.46	206.184
1227.12	138.744
1230.78	127.227
1234.43	219.625
1238.08	120.964
1241.73	125.241
1245.38	142.45
1249.03	127.586
1252.67	108.625
1256.31	60.574
1259.95	117.398
1263.6	147.939
1267.23	1.454
1270.87	178.974
1274.51	119.594
1278.14	306.051
1281.77	26.165
1285.4	78.378
1289.03	236.282
1292.66	397.861
1296.28	41.648
1299.91	33.047
1303.53	30.987
1307.15	61.461
1310.77	118.02
1314.38	18.099
1318	50.7
1321.61	36.146
1325.23	97.285
1328.84	116.789
1332.45	61.241
1336.06	2.462
1339.66	247.933
1343.27	104.466
1346.87	168.991
1350.47	169.944
1354.07	223.132
1357.67	212.544
1361.26	175.587
1364.86	291.915
1368.45	313.301
1372.04	264.84
1375.63	297.143
1379.22	303.09
1382.81	368.886
1386.39	243.383
1389.98	217.879
1393.56	302.932
1397.14	208.507
1400.72	211.865
1404.3	254.898
1407.87	291.517
1411.45	228.475
1415.02	106.333
1418.59	164.58
1422.16	50.93
1425.73	116.045
1429.29	58.645
1432.86	155.609
1436.42	157.615
1439.98	184.522
1443.54	156.271
1447.1	165.786
1450.66	110.018
1454.21	252.856
1457.77	151.396
1461.32	115.823
1464.87	72.462
1468.42	30.012
1471.96	96.672
1475.51	55.839
1479.06	18.317
1482.6	165.688
1486.14	104.376
1489.68	62.233
1493.22	106.812
1496.75	49.28
1500.29	148.876
1503.82	91.992
1507.35	184.84
1510.88	201.002
1514.41	67.572
