Measurement: Raman, 532 nm, unoriented, Raman Data Processed
Mineral: Braunite
Rruff sample: R050385
Ideal chemistry: Mn^2+^Mn^3+^_6_SiO_12_
Locality: Jhabua District, Madhya Pradesh, India
Source: University of Arizona Mineral Museum
Description: Black prismatic crystals
Measured chemistry: (Fe^2+^_0.61_Mn^2+^_0.39_)_Σ=1_(Mn^3+^_5.94_Al_0.06_)_Σ=6_Si_1.00_O_12_
Raman shift (cm-1)	intensity
122.245	0
125.62	7.10096
128.994	15.967
132.369	10.5444
135.744	8.52695
139.119	23.6267
142.494	0.975433
145.869	1.13695
149.243	10.729
152.618	16.3518
155.993	13.1044
159.368	1.92159
162.743	5.90432
166.117	2.95303
169.492	5.58398
172.867	0.020966
176.242	1.75277
179.617	0.921783
182.992	0.831612
186.366	8.09437
189.741	5.93325
193.116	13.713
196.491	17.2289
199.865	26.7379
203.24	35.4225
206.615	45.2973
209.99	58.6704
213.365	69.1668
216.74	70.3302
220.114	64.0257
223.489	55.8613
226.864	53.6339
230.239	56.0451
233.614	51.5343
236.988	45.8207
240.363	38.3984
243.738	35.5966
247.113	36.5106
250.488	37.8687
253.863	31.2453
257.237	19.1405
260.612	12.182
263.987	7.62929
267.362	5.222
270.737	8.56819
274.111	7.44054
277.486	8.36752
280.861	9.37819
284.236	10.2757
287.611	12.213
290.986	17.1341
294.36	26.8389
297.735	28.7808
301.11	16.8106
304.485	3.8018
307.86	0.535278
311.235	1.70708
314.609	0.706787
317.984	0.144371
321.359	6.93983
324.734	11.7868
328.109	15.7764
331.483	25.9454
334.858	32.4707
338.233	30.5187
341.608	15.4008
344.983	8.37338
348.358	5.22988
351.732	2.12703
355.107	2.73552
358.482	2.89319
361.857	4.08154
365.231	5.79544
368.606	7.36128
371.981	6.85904
375.356	8.05276
378.731	8.43793
382.106	6.46634
385.48	5.50443
388.855	4.52401
392.23	4.92418
395.605	4.06491
398.98	3.40543
402.354	2.93334
405.729	1.0327
409.104	1.1198
412.479	0.71175
415.854	0.998817
419.229	0.245934
422.603	0.863235
425.978	1.49335
429.353	2.17061
432.728	1.28691
436.103	1.0359
439.478	1.00077
442.852	3.82949
446.227	5.45402
449.602	10.0474
452.977	15.4428
456.352	21.1512
459.726	30.152
463.101	40.2867
466.476	55.2775
469.851	65.3726
473.226	73.8931
476.601	75.686
479.975	60.1426
483.35	43.127
486.725	31.755
490.1	24.2264
493.475	20.0273
496.849	21.3473
500.224	24.9686
503.599	29.0649
506.974	37.602
510.349	46.1268
513.723	54.1955
517.098	52.6265
520.473	42.7918
523.848	26.9015
527.223	17.1137
530.598	10.8065
533.972	8.2979
537.347	3.89665
540.722	2.22421
544.097	1.12723
547.472	1.57871
550.846	2.83684
554.221	0.17572
557.596	2.42827
560.971	5.82495
564.346	11.0416
567.721	16.4679
571.095	23.2343
574.47	27.801
577.845	29.7164
581.22	23.7304
584.595	16.2253
587.969	8.91741
591.344	5.12991
594.719	3.77904
598.094	4.42044
601.469	9.73292
604.843	13.1751
608.218	19.8527
611.593	30.616
614.968	37.4058
618.343	45.1042
621.718	45.2532
625.092	38.3191
628.467	27.8094
631.842	16.3795
635.217	10.2756
638.592	6.09582
641.966	4.25692
645.341	3.78826
648.716	5.37927
652.091	6.53789
655.466	8.78281
658.841	7.86929
662.215	8.0115
665.59	7.65878
668.965	5.01388
672.34	9.41795
675.715	15.2265
679.09	21.879
682.464	32.8594
685.839	44.9385
689.214	54.4647
692.589	58.5053
695.964	51.0648
699.338	38.6014
702.713	25.1005
706.088	15.8942
709.463	11.7741
712.838	5.92337
716.212	6.15831
719.587	4.71532
722.962	2.07253
726.337	1.1268
729.712	0.412228
733.087	0.921898
736.461	1.46874
739.836	0.892761
743.211	0.06245
746.586	1.0339
749.961	0.640221
753.335	0.111065
756.71	1.09896
760.085	1.48797
763.46	0.00069
766.835	0.864948
770.21	3.28139
773.584	1.68818
776.959	2.98034
780.334	3.53638
783.709	3.14027
787.084	4.45141
790.458	4.50762
793.833	5.16982
797.208	3.57642
800.583	2.06369
803.958	2.69274
807.332	4.26802
810.707	2.53556
814.082	4.08827
817.457	4.44268
820.832	2.73406
824.207	4.27971
827.581	2.68626
830.956	2.73652
834.331	3.4899
837.706	2.39466
841.081	3.65662
844.456	3.46344
847.83	3.38007
851.205	3.26889
854.58	3.04372
857.955	4.14241
861.33	2.79147
864.704	2.80467
868.079	1.81154
871.454	1.37007
874.829	1.82371
878.204	1.65461
881.578	1.19498
884.953	1.55618
888.328	0.604622
891.703	0.827072
895.078	0.737144
898.453	0.908478
901.827	0.954895
905.202	2.82043
908.577	0.057983
911.952	1.39799
915.327	0.08934
918.702	0.305431
922.076	3.01806
925.451	3.15288
928.826	4.70695
932.201	7.52534
935.576	12.5743
938.95	17.2174
942.325	20.1918
945.7	23.8934
949.075	25.026
952.45	23.6864
955.824	23.9717
959.199	22.4382
962.574	16.6382
965.949	12.1165
969.324	9.35098
972.698	7.18046
976.073	5.2736
979.448	3.50975
982.823	3.38885
986.198	2.29901
989.573	1.18138
992.947	0.378281
996.322	0.909187
999.697	0.474468
1003.07	0.090107
1006.45	0.50209
1009.82	0.638901
1013.2	1.63425
1016.57	0.643997
1019.95	0.02935
1023.32	1.45166
1026.7	0.739647
1030.07	0.20163
1033.44	1.97669
1036.82	2.44911
1040.19	3.24865
1043.57	1.87664
1046.94	1.65941
1050.32	1.44073
1053.69	1.17534
1057.07	2.17525
1060.44	1.62488
1063.82	0.746067
1067.19	0.505707
1070.57	0.95203
1073.94	0.630211
1077.32	0.984814
1080.69	0.508354
1084.07	1.47284
1087.44	1.50456
1090.82	0.718334
1094.19	0.384235
1097.57	1.57605
1100.94	1.81144
1104.32	0.265762
1107.69	0.590874
1111.07	1.14409
1114.44	1.75263
1117.82	0.194683
1121.19	0.715036
1124.57	0.570698
1127.94	1.086
1131.32	0.13098
1134.69	1.60108
1138.07	1.67534
1141.44	0.450933
1144.81	1.21419
1148.19	1.22464
1151.56	1.27844
1154.94	0.209547
1158.31	0.493517
1161.69	1.21081
1165.06	1.33832
1168.44	0.209076
1171.81	1.63535
1175.19	2.26782
1178.56	1.36855
1181.94	1.33195
1185.31	1.00983
1188.69	1.42891
1192.06	0.388287
1195.44	1.02741
1198.81	2.20726
1202.19	2.26141
1205.56	1.45063
1208.94	0.761868
1212.31	0.724731
1215.68	0.497244
1219.06	0.977072
1222.43	2.15042
1225.81	1.40491
1229.18	1.94624
1232.56	2.81345
1235.93	2.00598
1239.31	1.037
1242.68	1.95827
1246.06	1.39982
1249.43	0.839417
1252.81	1.73295
1256.18	1.01074
1259.56	0.768568
1262.93	1.99695
1266.31	1.95723
1269.68	1.5989
1273.06	1.50754
1276.43	0.799835
