Measurement: Raman, 780 nm, unoriented, Raman Data Processed
Mineral: Braunite
Rruff sample: R050385
Ideal chemistry: Mn^2+^Mn^3+^_6_SiO_12_
Locality: Jhabua District, Madhya Pradesh, India
Source: University of Arizona Mineral Museum
Description: Black prismatic crystals
Measured chemistry: (Fe^2+^_0.61_Mn^2+^_0.39_)_Σ=1_(Mn^3+^_5.94_Al_0.06_)_Σ=6_Si_1.00_O_12_
Raman shift (cm-1)	intensity
120.004	0
123.379	5.3772
126.754	14.9447
130.129	17.559
133.503	10.8651
136.878	13.6845
140.253	3.21486
143.628	1.74758
147.003	3.45672
150.377	7.21517
153.752	9.04462
157.127	5.05052
160.502	2.05308
163.877	3.75521
167.251	4.28765
170.626	2.88026
174.001	2.20914
177.376	2.47836
180.751	0.317497
184.126	1.23899
187.5	5.30846
190.875	6.95873
194.25	10.3372
197.625	9.81336
201	13.6101
204.375	17.2959
207.749	17.6263
211.124	19.0468
214.499	24.6406
217.874	23.6824
221.249	25.4711
224.623	29.0763
227.998	30.7235
231.373	28.2235
234.748	29.7195
238.123	31.0726
241.498	31.2467
244.872	28.9957
248.247	27.5075
251.622	23.0198
254.997	21.656
258.372	18.4174
261.746	13.0227
265.121	12.4237
268.496	10.2813
271.871	13.051
275.246	11.0453
278.62	13.3892
281.995	14.2829
285.37	15.9041
288.745	16.9923
292.12	19.537
295.495	15.423
298.869	11.5739
302.244	6.67172
305.619	0.610428
308.994	1.90018
312.369	1.48565
315.743	1.18656
319.118	1.97713
322.493	4.4964
325.868	6.16995
329.243	3.55167
332.618	5.48232
335.992	3.82533
339.367	0.383797
342.742	0.415321
346.117	0.434814
349.492	0.557503
352.866	0.955421
356.241	1.23177
359.616	3.26703
362.991	5.22107
366.366	7.35668
369.74	7.91517
373.115	8.75723
376.49	8.25356
379.865	8.60334
383.24	4.71594
386.615	5.24188
389.989	4.41805
393.364	2.46762
396.739	3.07964
400.114	0.146118
403.489	1.37772
406.863	1.13667
410.238	1.34635
413.613	1.89759
416.988	1.55734
420.363	1.59813
423.738	1.51555
427.112	0.104633
430.487	1.2734
433.862	3.58119
437.237	4.20154
440.612	9.10013
443.986	10.8953
447.361	14.7499
450.736	20.2903
454.111	27.4218
457.486	36.2894
460.861	45.9494
464.235	52.9917
467.61	58.7467
470.985	61.1114
474.36	55.3594
477.735	48.4755
481.109	40.1705
484.484	32.8165
487.859	30.4786
491.234	28.2548
494.609	29.1869
497.983	32.0813
501.358	38.9868
504.733	41.8109
508.108	44.4479
511.483	43.3103
514.857	38.3195
518.232	32.7696
521.607	22.2332
524.982	14.8966
528.357	10.7938
531.732	5.62344
535.106	1.98526
538.481	0.793461
541.856	0.796303
545.231	0.571964
548.606	0.73209
551.981	3.49649
555.355	4.91687
558.73	6.02625
562.105	4.59503
565.48	3.62602
568.855	2.71999
572.229	3.15559
575.604	2.75559
578.979	2.96685
582.354	0.240967
585.729	1.50447
589.104	1.86711
592.478	2.29258
595.853	2.58026
599.228	6.35715
602.603	5.76846
605.978	6.81761
609.352	9.65715
612.727	10.1441
616.102	10.3953
619.477	9.00726
622.852	7.69497
626.226	6.18392
629.601	4.05805
632.976	3.93631
636.351	2.81652
639.726	2.22574
643.101	1.4913
646.475	0.939705
649.85	1.5522
653.225	0.19072
656.6	0.293396
659.975	1.52499
663.35	1.28745
666.724	1.02729
670.099	0.96748
673.474	1.8445
676.849	2.55651
680.224	2.48249
683.598	3.80862
686.973	3.045
690.348	4.70713
693.723	2.9567
697.098	3.0744
700.472	2.92775
703.847	1.10892
707.222	0.890358
710.597	1.46468
713.972	0.344421
717.346	0.265057
720.721	0.287323
724.096	1.57647
727.471	1.63887
730.846	0.320782
734.221	1.77048
737.595	1.3946
740.97	0.116882
744.345	1.32068
747.72	1.86124
751.095	0.425392
754.47	2.18478
757.844	0.841648
761.219	0.684559
764.594	0.144413
767.969	2.53959
771.344	1.6217
774.718	2.01523
778.093	2.83593
781.468	2.99168
784.843	1.71538
788.218	3.51949
791.592	1.13127
794.967	1.19539
798.342	3.35975
801.717	3.28436
805.092	2.40512
808.467	3.97357
811.841	4.77521
815.216	2.95908
818.591	4.25247
821.966	3.28533
825.341	2.20726
828.716	4.529
832.09	2.7608
835.465	4.76156
838.84	4.34145
842.215	5.00986
845.59	4.91806
848.964	5.61298
852.339	6.8899
855.714	5.68759
859.089	3.203
862.464	4.54245
865.838	5.1777
869.213	4.78695
872.588	3.20777
875.963	4.39111
879.338	2.92276
882.712	3.20849
886.087	1.51362
889.462	0.596706
892.837	1.60051
896.212	2.02478
899.587	1.93002
902.961	0.803318
906.336	1.58476
909.711	0.487541
913.086	0.287773
916.461	1.43819
919.836	0.467422
923.21	0.208565
926.585	1.81541
929.96	4.17939
933.335	3.36193
936.71	4.86018
940.084	5.62875
943.459	5.86267
946.834	6.6234
950.209	8.92405
953.584	7.40787
956.958	7.00002
960.333	4.92885
963.708	4.88005
967.083	4.26339
970.458	2.86732
973.832	2.68441
977.207	2.27572
980.582	2.41939
983.957	1.51554
987.332	1.68263
990.707	0.687794
994.081	0.308628
997.456	0.407368
1000.83	1.71876
1004.21	0.490402
1007.58	1.41409
1010.96	0.71365
1014.33	2.50562
1017.71	0.560753
1021.08	0.972572
1024.45	0.692661
1027.83	1.40194
1031.2	1.63995
1034.58	0.687687
1037.95	1.64268
1041.33	3.75799
1044.7	1.82655
1048.08	2.18084
1051.45	0.0632
1054.83	1.47749
1058.2	1.44331
1061.58	0.031452
1064.95	1.0729
1068.33	1.0452
1071.7	1.65582
1075.08	2.61736
1078.45	0.73978
1081.83	0.89188
1085.2	2.24364
1088.58	1.51955
1091.95	0.401688
1095.33	0.281767
1098.7	1.73222
1102.08	1.90211
1105.45	1.05426
1108.83	1.06119
1112.2	1.29797
1115.58	0.961287
1118.95	1.45079
1122.32	2.3418
1125.7	0.358923
1129.07	2.67859
1132.45	0.661709
1135.82	1.4802
1139.2	0.795771
1142.57	1.4786
1145.95	0.758427
1149.32	2.68775
1152.7	1.66792
1156.07	0.325127
1159.45	1.75898
1162.82	1.36593
1166.2	2.82738
1169.57	3.25463
1172.95	0.045305
1176.32	0.991365
1179.7	2.17394
1183.07	3.73634
1186.45	3.70195
1189.82	1.6157
1193.2	0.07605
1196.57	1.35218
1199.94	1.2003
1203.32	1.72221
1206.69	2.78568
1210.07	2.44845
1213.44	2.25022
1216.82	2.70159
1220.19	1.66861
1223.57	2.5482
1226.94	1.42519
1230.32	1.59328
1233.69	0.464909
1237.07	0.768265
1240.44	1.56573
1243.82	2.29872
1247.19	0.627731
1250.57	2.84294
1253.94	1.54655
1257.32	2.42027
1260.69	0.28334
1264.07	0.972561
1267.44	0.047319
1270.82	1.3601
1274.19	1.06527
1277.57	0.497515
