Measurement: Raman, 532 nm, unoriented, Raman Data Processed
Mineral: Braunite
Rruff sample: R050388
Ideal chemistry: Mn^2+^Mn^3+^_6_SiO_12_
Locality: Langban, Filipstad, Varmland, Sweden
Source: University of Arizona Mineral Museum
Description: Black crystals
Measured chemistry: (Mn^2+^_0.96_Mg_0.04_)_Î£=1_Mn^3+^_6.00_Si_1.00_O_12_
Raman shift (cm-1)	intensity
115.013	0
118.388	9.10801
121.763	29.911
125.138	42.1502
128.512	65.2213
131.887	55.8085
135.262	45.4381
138.637	62.169
142.012	17.1197
145.386	13.4484
148.761	16.5311
152.136	29.8262
155.511	27.562
158.886	5.20977
162.26	7.26329
165.635	2.81067
169.01	11.994
172.385	0.241058
175.76	5.51822
179.135	1.30482
182.509	1.90848
185.884	5.42059
189.259	11.4653
192.634	20.3149
196.009	33.572
199.383	45.8393
202.758	68.559
206.133	91.7723
209.508	117.123
212.883	150.353
216.257	171.839
219.632	161.379
223.007	131.492
226.382	113.01
229.757	116.156
233.132	100.11
236.506	71.7947
239.881	52.6398
243.256	39.298
246.631	31.8554
250.006	34.5399
253.381	29.3465
256.755	20.6408
260.13	8.99787
263.505	3.61898
266.88	0.353256
270.255	1.41419
273.629	4.29863
277.004	6.38888
280.379	9.12638
283.754	11.5136
287.129	13.7206
290.503	21.3322
293.878	37.4566
297.253	43.1212
300.628	27.912
304.003	10.0577
307.378	0.636604
310.752	0.660439
314.127	2.07402
317.502	0.421272
320.877	6.57394
324.252	12.0625
327.627	19.7491
331.001	29.2044
334.376	34.8721
337.751	35.8089
341.126	22.0647
344.5	11.6072
347.875	4.17937
351.25	4.45451
354.625	3.37486
358	3.36865
361.375	4.25096
364.749	7.08744
368.124	9.54905
371.499	12.6649
374.874	10.6796
378.249	11.2347
381.623	12.639
384.998	7.54662
388.373	8.58733
391.748	7.5968
395.123	7.31901
398.498	6.51462
401.872	4.53685
405.247	0.541214
408.622	1.54105
411.997	0.541794
415.372	1.54417
418.747	0.431938
422.121	2.52162
425.496	4.82291
428.871	4.75065
432.246	7.31171
435.621	5.06108
438.995	6.01656
442.37	7.80934
445.745	8.0608
449.12	16.03
452.495	19.6729
455.87	24.1921
459.244	27.1661
462.619	37.6527
465.994	47.144
469.369	55.625
472.744	63.4396
476.118	63.756
479.493	56.0579
482.868	39.5226
486.243	25.4895
489.618	20.2615
492.993	16.9372
496.367	16.7299
499.742	21.4483
503.117	25.9122
506.492	31.5038
509.866	43.7399
513.241	54.3954
516.616	58.6755
519.991	44.9463
523.366	28.4473
526.741	17.2767
530.115	13.3662
533.49	8.9736
536.865	5.81195
540.24	1.03841
543.615	1.63069
546.99	1.08897
550.364	4.41357
553.739	2.55299
557.114	0.750839
560.489	5.27739
563.864	9.74074
567.239	19.7644
570.613	28.8956
573.988	35.7843
577.363	37.118
580.738	31.8925
584.112	17.8181
587.487	11.1946
590.862	7.23357
594.237	7.11174
597.612	11.5476
600.987	18.0697
604.361	28.9004
607.736	47.6207
611.111	68.2871
614.486	91.7645
617.861	115.939
621.236	128.963
624.61	119.747
627.985	95.0313
631.36	66.0115
634.735	42.2546
638.11	25.6775
641.484	15.4851
644.859	10.677
648.234	11.5699
651.609	12.5864
654.984	15.2934
658.359	19.4428
661.733	16.8776
665.108	12.4898
668.483	11.343
671.858	13.5473
675.232	21.2814
678.607	26.4655
681.982	37.8033
685.357	48.6134
688.732	64.5535
692.107	74.5433
695.481	71.3662
698.856	53.1354
702.231	35.2169
705.606	21.0357
708.981	12.7587
712.356	7.31541
715.73	4.74342
719.105	3.22701
722.48	1.33385
725.855	0.646225
729.23	1.16917
732.604	0.174019
735.979	0.802048
739.354	1.13009
742.729	0.709785
746.104	0.44783
749.479	0.707146
752.853	2.06662
756.228	2.25239
759.603	1.48588
762.978	1.72255
766.353	3.13036
769.727	3.95832
773.102	3.40767
776.477	2.81509
779.852	1.98671
783.227	4.45277
786.601	5.80922
789.976	5.20669
793.351	4.88966
796.726	4.66372
800.101	4.37114
803.476	4.74321
806.85	5.2545
810.225	6.19065
813.6	3.45135
816.975	4.25831
820.35	4.42899
823.725	5.96737
827.099	5.69178
830.474	6.1079
833.849	5.76812
837.224	6.53232
840.599	5.48753
843.973	6.19896
847.348	5.83894
850.723	6.03692
854.098	5.45281
857.473	7.01815
860.847	6.51186
864.222	4.25278
867.597	5.76988
870.972	3.76371
874.347	2.88631
877.722	2.78113
881.096	4.40521
884.471	1.93743
887.846	2.50282
891.221	2.98553
894.596	2.59616
897.971	2.11341
901.345	0.462078
904.72	0.299576
908.095	0.466953
911.47	0.624073
914.845	1.10718
918.219	0.162823
921.594	1.9328
924.969	3.50628
928.344	4.83689
931.719	8.9921
935.093	13.2059
938.468	18.6714
941.843	25.7219
945.218	26.1343
948.593	25.2495
951.967	20.8532
955.342	16.5036
958.717	15.0679
962.092	11.1253
965.467	13.4401
968.842	9.70731
972.216	8.81067
975.591	5.6093
978.966	4.32647
982.341	1.94366
985.716	0.674767
989.091	2.53577
992.465	0.828293
995.84	0.815754
999.215	0.782879
1002.59	0.266232
1005.97	0.709694
1009.34	0.428799
1012.71	2.56664
1016.09	0.438271
1019.46	0.961475
1022.84	1.97355
1026.21	2.10783
1029.59	3.14415
1032.96	2.26146
1036.34	2.84908
1039.71	2.77114
1043.09	1.84816
1046.46	1.83483
1049.84	3.24862
1053.21	1.7686
1056.59	3.36393
1059.96	3.35729
1063.34	2.54738
1066.71	2.71442
1070.09	1.89155
1073.46	1.94001
1076.84	1.3149
1080.21	3.05669
1083.59	0.611187
1086.96	3.34707
1090.34	0.508495
1093.71	0.780952
1097.09	1.99759
1100.46	3.38986
1103.83	0.918125
1107.21	4.22527
1110.58	1.16835
1113.96	1.70799
1117.33	0.832169
1120.71	2.52294
1124.08	1.18259
1127.46	2.70735
1130.83	2.92176
1134.21	2.1693
1137.58	2.39464
1140.96	0.299858
1144.33	1.4701
1147.71	0.433064
1151.08	1.30504
1154.46	1.86189
1157.83	0.049301
1161.21	2.39048
1164.58	0.656799
1167.96	0.130798
1171.33	2.16719
1174.7	1.34357
1178.08	2.06645
1181.45	3.90377
1184.83	0.217289
1188.2	1.57407
1191.58	0.241531
1194.95	0.115002
1198.33	1.30595
1201.7	1.14443
1205.08	1.74098
1208.45	2.31102
1211.83	1.29666
1215.2	2.72955
1218.58	0.639118
1221.95	0.092556
1225.33	1.73293
1228.7	3.23415
1232.08	2.06802
1235.45	0.908123
1238.83	3.42771
1242.2	3.48583
1245.58	1.77937
1248.95	2.37448
1252.33	2.0728
1255.7	2.45937
1259.08	1.90945
1262.45	2.31981
1265.83	1.30981
1269.2	3.09192
1272.58	0.510933
1275.95	1.02549
1279.33	0.742096
