Measurement: Raman, 780 nm, unoriented, Raman Data Processed
Mineral: Braunite
Rruff sample: R050388
Ideal chemistry: Mn^2+^Mn^3+^_6_SiO_12_
Locality: Langban, Filipstad, Varmland, Sweden
Source: University of Arizona Mineral Museum
Description: Black crystals
Measured chemistry: (Mn^2+^_0.96_Mg_0.04_)_Î£=1_Mn^3+^_6.00_Si_1.00_O_12_
Raman shift (cm-1)	intensity
115.665	0
119.04	0.336708
122.415	7.18329
125.79	11.7109
129.164	13.8954
132.539	13.6227
135.914	13.7589
139.289	12.1383
142.664	5.05056
146.038	2.56311
149.413	3.08918
152.788	2.3064
156.163	1.67184
159.538	0.544785
162.912	0.190411
166.287	1.00493
169.662	0.906075
173.037	0.66922
176.412	0.544579
179.786	0.75359
183.161	1.68101
186.536	2.6929
189.911	4.12233
193.286	5.60179
196.661	6.36848
200.035	6.99119
203.41	8.84296
206.785	10.5491
210.16	10.6105
213.535	10.5434
216.91	9.64297
220.284	9.76503
223.659	8.80135
227.034	7.94501
230.409	8.6024
233.784	6.76023
237.158	8.02309
240.533	5.69646
243.908	5.75226
247.283	4.96442
250.658	5.88867
254.032	4.17211
257.407	4.04165
260.782	2.60954
264.157	2.10384
267.532	1.91294
270.907	2.21391
274.281	1.65178
277.656	1.61561
281.031	1.4707
284.406	2.83323
287.781	2.64642
291.156	2.47419
294.53	3.01763
297.905	2.60123
301.28	3.13073
304.655	1.05015
308.03	0.570908
311.404	0.174501
314.779	1.14132
318.154	1.14644
321.529	1.79004
324.904	4.94856
328.279	5.86649
331.653	7.15716
335.028	6.05216
338.403	3.3028
341.778	2.98162
345.152	2.22772
348.527	1.55881
351.902	1.98989
355.277	1.39179
358.652	2.39371
362.027	2.86667
365.401	3.45027
368.776	3.89674
372.151	4.71788
375.526	4.07638
378.901	4.15513
382.276	2.98794
385.65	2.64471
389.025	0.000834
392.4	1.61823
395.775	0.86311
399.15	1.49653
402.524	0.602961
405.899	0.311998
409.274	0.345789
412.649	1.02003
416.024	0.423634
419.399	0.489573
422.773	0.679661
426.148	0.476234
429.523	1.25676
432.898	1.90598
436.273	1.31597
439.647	3.34245
443.022	4.38644
446.397	5.75079
449.772	7.78505
453.147	13.175
456.522	17.8103
459.896	23.7103
463.271	31.2951
466.646	37.5066
470.021	43.1335
473.396	42.2755
476.77	36.9234
480.145	28.3918
483.52	20.5184
486.895	16.8769
490.27	12.3053
493.644	12.2775
497.019	13.8805
500.394	15.4781
503.769	18.2098
507.144	21.5561
510.519	21.979
513.893	22.842
517.268	17.3982
520.643	11.8461
524.018	7.28924
527.393	4.91569
530.768	2.85341
534.142	1.07918
537.517	0.215048
540.892	1.27882
544.267	0.230824
547.641	0.525145
551.016	1.70051
554.391	0.513494
557.766	0.796928
561.141	0.29039
564.516	0.772303
567.89	0.112204
571.265	0.122332
574.64	0.413404
578.015	0.631788
581.39	0.251717
584.764	0.957945
588.139	0.060743
591.514	1.55723
594.889	1.68518
598.264	2.70885
601.639	5.07493
605.013	7.10902
608.388	7.94642
611.763	9.4625
615.138	10.6985
618.513	10.729
621.888	9.27887
625.262	7.83386
628.637	5.98788
632.012	5.30674
635.387	2.92428
638.761	1.84339
642.136	1.46645
645.511	0.929268
648.886	0.818937
652.261	1.26143
655.636	2.0314
659.01	1.38548
662.385	0.950466
665.76	0.671148
669.135	0.367239
672.51	1.34502
675.885	0.954863
679.259	1.0601
682.634	0.7906
686.009	1.13295
689.384	0.883686
692.759	2.5079
696.133	1.71734
699.508	0.938406
702.883	0.040613
706.258	0.661184
709.633	0.930824
713.008	0.705397
716.382	0.920261
719.757	0.743402
723.132	0.393494
726.507	0.090565
729.882	0.036179
733.256	0.206497
736.631	0.895498
740.006	0.165981
743.381	0.382013
746.756	0.054523
750.13	0.543968
753.505	0.550812
756.88	0.249275
760.255	1.14894
763.63	1.10035
767.005	0.704697
770.379	0.948313
773.754	1.17039
777.129	1.78642
780.504	1.3347
783.879	1.69135
787.254	1.32398
790.628	1.99935
794.003	1.80804
797.378	1.30284
800.753	2.16524
804.128	1.69541
807.502	2.22249
810.877	3.58371
814.252	2.8515
817.627	2.94932
821.002	2.77113
824.376	2.79072
827.751	3.1242
831.126	2.85035
834.501	2.66708
837.876	2.87819
841.25	3.51198
844.625	3.11558
848	3.66877
851.375	3.53322
854.75	3.81639
858.125	3.71341
861.5	3.54548
864.874	3.32202
868.249	2.78872
871.624	2.91181
874.999	4.87078
878.374	2.24218
881.748	2.01483
885.123	1.92808
888.498	1.74308
891.873	0.793283
895.248	1.70414
898.622	0.737387
901.997	0.607723
905.372	0.361141
908.747	0.147665
912.122	0.170219
915.496	0.678974
918.871	0.11685
922.246	0.069839
925.621	0.366951
928.996	1.3499
932.37	1.47741
935.745	1.40406
939.12	1.96172
942.495	1.91227
945.87	2.58776
949.245	1.87977
952.619	2.80505
955.994	2.89972
959.369	1.63827
962.744	1.85189
966.119	1.35181
969.494	1.02411
972.868	0.951889
976.243	0.606153
979.618	0.677191
982.993	0.399744
986.368	0.11779
989.742	0.68664
993.117	0.068666
996.492	0.28145
999.867	0.040404
1003.24	1.37278
1006.62	0.192583
1009.99	1.20781
1013.37	0.739528
1016.74	1.37288
1020.12	1.36263
1023.49	0.221227
1026.87	1.48615
1030.24	1.32682
1033.62	1.07015
1036.99	0.618699
1040.37	0.061934
1043.74	0.502242
1047.11	0.775174
1050.49	2.17558
1053.86	0.433253
1057.24	0.389624
1060.61	1.84636
1063.99	0.6887
1067.36	1.33979
1070.74	0.937197
1074.11	1.2782
1077.49	1.49719
1080.86	1.12132
1084.24	0.890945
1087.61	0.72324
1090.99	0.776618
1094.36	0.631517
1097.74	0.15846
1101.11	0.945006
1104.49	0.141154
1107.86	0.986769
1111.24	0.289804
1114.61	1.47461
1117.98	1.25344
1121.36	1.25466
1124.73	1.23357
1128.11	0.093675
1131.48	1.03595
1134.86	0.480411
1138.23	0.395566
1141.61	0.682065
1144.98	0.846674
1148.36	0.306519
1151.73	0.148652
1155.11	0.44558
1158.48	0.366077
1161.86	0.73535
1165.23	1.37974
1168.61	0.318089
1171.98	0.500446
1175.36	0.468534
1178.73	1.13321
1182.11	0.510309
1185.48	0.499244
1188.86	0.823993
1192.23	1.18223
1195.61	0.149166
1198.98	0.596965
1202.36	1.32197
1205.73	0.105684
1209.11	0.638186
1212.48	1.57268
1215.86	1.18732
1219.23	0.342917
1222.61	1.75914
1225.98	1.17074
1229.35	0.716879
1232.73	0.551994
1236.1	1.53997
1239.48	1.19681
1242.85	1.06134
1246.23	1.20312
1249.6	0.618855
1252.98	1.6615
1256.35	1.39656
1259.73	0.992128
1263.1	0.749167
1266.48	1.66512
1269.85	0.375529
1273.23	1.22986
1276.6	2.25234
1279.98	2.17335
1283.35	0.345933
