Measurement: Raman, 532 nm, unoriented, Raman Data Processed
Mineral: Braunite
Rruff sample: R050390
Ideal chemistry: Mn^2+^Mn^3+^_6_SiO_12_
Locality: Oehrenstock, Thuringia, Germany
Source: University of Arizona Mineral Museum
Description: Mass of black octahedra
Measured chemistry: (Mn^2+^_0.83_Ca_0.17_)_Î£=1_Mn^3+^_6.00_Si_1.00_O_12_
Raman shift (cm-1)	intensity
145.386	0
148.279	1.36414
151.172	6.93774
154.065	11.8442
156.957	5.61467
159.85	2.26983
162.743	7.36334
165.635	5.53337
168.528	6.70235
171.421	4.28764
174.313	0.116753
177.206	0.176208
180.099	1.60376
182.992	0.363937
185.884	3.15614
188.777	3.20068
191.67	5.91132
194.562	9.72015
197.455	12.182
200.348	18.8861
203.24	26.4464
206.133	34.4052
209.026	44.3759
211.918	54.1254
214.811	64.7132
217.704	66.2974
220.596	62.4829
223.489	59.8958
226.382	54.8935
229.275	52.7856
232.167	51.3298
235.06	45.2184
237.953	40.2143
240.845	35.079
243.738	33.0789
246.631	34.1798
249.524	36.0381
252.416	32.8677
255.309	25.3152
258.202	17.3977
261.094	12.4518
263.987	9.19704
266.88	6.13415
269.772	4.83289
272.665	4.90551
275.558	4.82726
278.451	7.14797
281.343	6.145
284.236	5.48189
287.129	6.5133
290.021	10.0447
292.914	13.5259
295.807	16.7426
298.7	14.4538
301.592	8.79784
304.485	1.56045
307.378	0.568176
310.27	1.43508
313.163	0.699463
316.056	0.025383
318.948	1.24406
321.841	2.95429
324.734	6.82594
327.627	9.60628
330.519	13.7081
333.412	17.8273
336.305	18.6668
339.197	18.4775
342.09	12.7797
344.983	7.09317
347.875	4.411
350.768	2.98811
353.661	2.57378
356.553	3.48879
359.446	3.09032
362.339	2.20802
365.231	5.31301
368.124	6.37807
371.017	6.33087
373.91	7.73334
376.802	7.83978
379.695	8.38065
382.588	8.59497
385.48	7.14672
388.373	6.26527
391.266	4.77576
394.159	4.81012
397.051	5.52953
399.944	4.56643
402.837	2.5134
405.729	1.83749
408.622	2.56418
411.515	0.811081
414.407	1.30594
417.3	0.986023
420.193	0.073357
423.086	0.176918
425.978	0.503502
428.871	1.09898
431.764	0.11132
434.656	0.26207
437.549	1.57331
440.442	2.22306
443.334	4.68243
446.227	6.9745
449.12	9.55738
452.012	13.3324
454.905	14.5249
457.798	15.7469
460.691	16.9317
463.583	18.7694
466.476	21.2408
469.369	26.2809
472.261	31.7446
475.154	29.1191
478.047	28.8914
480.94	24.7199
483.832	21.3054
486.725	17.835
489.618	14.9234
492.51	10.6037
495.403	10.6165
498.296	9.87347
501.188	10.8505
504.081	11.0991
506.974	13.3427
509.866	15.4722
512.759	18.1238
515.652	18.5085
518.545	18.732
521.437	13.4721
524.33	8.61131
527.223	5.4271
530.115	2.97165
533.008	2.11301
535.901	1.11822
538.794	1.04607
541.686	0.379761
544.579	0.107536
547.472	0.250092
550.364	0.671021
553.257	0.390289
556.15	0.600769
559.043	0.838173
561.935	4.80296
564.828	6.61842
567.721	7.73012
570.613	11.1346
573.506	15.1741
576.399	14.5931
579.291	13.5618
582.184	12.0819
585.077	7.89564
587.969	4.34219
590.862	1.79574
593.755	1.03963
596.648	0.028366
599.54	1.48988
602.433	2.74918
605.326	4.96762
608.218	9.51211
611.111	11.51
614.004	16.67
616.896	20.4946
619.789	23.2232
622.682	22.3467
625.574	21.4973
628.467	17.5224
631.36	14.2716
634.253	8.57074
637.145	5.74891
640.038	3.89936
642.931	2.86364
645.823	4.00124
648.716	4.04058
651.609	3.91201
654.501	5.97817
657.394	6.73986
660.287	8.13461
663.18	8.60045
666.072	6.95092
668.965	5.20492
671.858	6.25179
674.75	8.07546
677.643	12.6622
680.536	16.5287
683.428	23.3972
686.321	30.0223
689.214	39.6309
692.107	47.8374
694.999	51.0564
697.892	47.1226
700.785	37.0994
703.677	28.5827
706.57	19.6007
709.463	14.5709
712.356	11.226
715.248	5.29003
718.141	4.4557
721.034	2.18275
723.926	1.29005
726.819	0.47744
729.712	0.175369
732.604	0.444145
735.497	0.048096
738.39	0.454788
741.283	0.65625
744.175	0.182686
747.068	0.026375
749.961	0.663704
752.853	0.361595
755.746	0.076065
758.639	0.400368
761.531	0.111221
764.424	0.706543
767.317	2.62003
770.21	1.71359
773.102	2.43397
775.995	3.09502
778.888	2.51696
781.78	2.34983
784.673	1.93593
787.566	3.91096
790.458	4.20975
793.351	3.15819
796.244	4.23558
799.136	4.10496
802.029	4.61552
804.922	4.89489
807.815	5.57754
810.707	6.58019
813.6	5.27073
816.493	6.2018
819.385	4.88862
822.278	5.49657
825.171	5.74419
828.063	5.57369
830.956	5.63364
833.849	4.14167
836.742	6.07479
839.634	4.93284
842.527	4.5469
845.42	4.42857
848.312	4.34692
851.205	4.69078
854.098	6.02293
856.99	4.47566
859.883	3.51965
862.776	3.51551
865.669	4.52994
868.561	3.67871
871.454	3.77581
874.347	2.81129
877.239	1.12685
880.132	1.67418
883.025	1.31365
885.918	0.666519
888.81	0.919312
891.703	0.153557
894.596	0.383606
897.488	0.117287
900.381	0.135567
903.274	1.02444
906.166	0.648529
909.059	0.692047
911.952	0.854149
914.845	0.368019
917.737	0.302063
920.63	2.10025
923.523	2.78654
926.415	5.01009
929.308	6.31445
932.201	8.92219
935.093	11.3591
937.986	14.4656
940.879	17.4471
943.771	19.5921
946.664	19.8225
949.557	22.0791
952.45	22.2473
955.342	23.5594
958.235	21.3029
961.128	17.5659
964.02	13.0807
966.913	9.64725
969.806	8.58182
972.698	6.70343
975.591	8.20815
978.484	11.098
981.377	17.1056
984.269	27.5095
987.162	29.2262
990.055	10.1067
992.947	3.35296
995.84	2.81453
998.733	0.961838
1001.63	0.292297
1004.52	0.106033
1007.41	0.514153
1010.3	0.918198
1013.2	1.64922
1016.09	1.23621
1018.98	1.17107
1021.87	0.235313
1024.77	1.63867
1027.66	0.80806
1030.55	0.832016
1033.44	1.03691
1036.34	1.34055
1039.23	2.26847
1042.12	0.497131
1045.02	0.996765
1047.91	1.85638
1050.8	0.831642
1053.69	0.41394
1056.59	1.83459
1059.48	1.12482
1062.37	1.31574
1065.27	1.63313
1068.16	0.194054
1071.05	0.49295
1073.94	0.84359
1076.84	0.506409
1079.73	0.108154
1082.62	1.34226
1085.51	0.553871
1088.41	1.56901
1091.3	1.68321
1094.19	0.778542
1097.09	1.83898
1099.98	2.06458
1102.87	2.03859
1105.76	0.897194
1108.65	0.728928
1111.55	1.34156
1114.44	0.694244
1117.33	0.143547
1120.23	2.52182
1123.12	1.37713
1126.01	0.850914
1128.9	0.458321
1131.8	0.649391
1134.69	2.47186
1137.58	2.0508
1140.47	1.07028
1143.37	1.38764
1146.26	0.004021
1149.15	0.27298
1152.05	0.653801
1154.94	0.651009
1157.83	0.912148
1160.72	0.165543
1163.62	0.821236
1166.51	1.41763
1169.4	0.028999
1172.3	1.10229
1175.19	0.784538
1178.08	0.439575
1180.97	0.788895
1183.87	0.335365
1186.76	0.759171
1189.65	0.737984
1192.54	0.700157
1195.44	1.30665
1198.33	0.522507
1201.22	0.550819
1204.12	1.32549
1207.01	1.07372
1209.9	1.32771
1212.79	0.65892
1215.68	1.12357
1218.58	0.359665
1221.47	0.323677
1224.36	1.52631
1227.26	0.095291
1230.15	0.969452
1233.04	0.450035
1235.93	1.8032
1238.83	1.41254
1241.72	1.58661
1244.61	1.21277
1247.51	0.580811
1250.4	0.01004
1253.29	0.655075
1256.18	1.04276
1259.08	0.621346
1261.97	0.128822
1264.86	0.48793
1267.75	0.398743
1270.65	0.888962
