Measurement: Raman, 780 nm, unoriented, Raman Data Processed
Mineral: Brazilianite
Rruff sample: R050126
Ideal chemistry: NaAl_3_(PO_4_)_2_(OH)_4_
Locality: Linopolis, Minas Gerais, Brazil
Source: Carlos and Paulo Vasconcelos
Description: Pair of greenish yellow elongated crystals
Measured chemistry: Na_1.00_Al_3.00_(P_1.00_O_4_)_2_((OH)_3.80_F_0.20_)_Î£=4_
Raman shift (cm-1)	intensity
134.598	0
137.49	0.08194
140.383	13.0316
143.276	53.7157
146.168	110.516
149.061	134.846
151.954	149.543
154.847	175.416
157.739	219.358
160.632	266.43
163.525	369.92
166.417	495.409
169.31	637.858
172.203	1011.51
175.095	643.698
177.988	190.388
180.881	42.5621
183.774	4.47607
186.666	5.73169
189.559	12.4292
192.452	42.2849
195.344	78.7918
198.237	121.752
201.13	152.825
204.022	198.58
206.915	287.001
209.808	235.867
212.701	121.842
215.593	88.3153
218.486	126.69
221.379	128.412
224.271	105.846
227.164	119.649
230.057	165.387
232.949	127.684
235.842	26.7252
238.735	1.44595
241.627	30.0414
244.52	37.2529
247.413	18.6495
250.306	25.1049
253.198	29.6116
256.091	5.80453
258.984	11.1274
261.876	49.4712
264.769	110.754
267.662	197.058
270.555	303.041
273.447	469.729
276.34	783.846
279.233	944.222
282.125	563.141
285.018	237.487
287.911	81.4215
290.803	15.4156
293.696	6.20132
296.589	35.4158
299.481	57.1529
302.374	92.0059
305.267	150.072
308.16	249.795
311.052	447.976
313.945	710.754
316.838	727.149
319.73	481.841
322.623	336.635
325.516	242.454
328.409	176.661
331.301	143.463
334.194	141.473
337.087	146.026
339.979	137.698
342.872	131.977
345.765	141.24
348.657	189.717
351.55	275.548
354.443	413.645
357.335	568.159
360.228	546.859
363.121	325.876
366.014	159.13
368.906	75.8791
371.799	19.9477
374.692	11.1837
377.584	10.6847
380.477	7.12381
383.37	21.4618
386.262	31.1331
389.155	50.7316
392.048	94.5041
394.94	156.76
397.833	240.772
400.726	355.135
403.619	471.724
406.511	576.886
409.404	628.987
412.297	615.637
415.189	550.86
418.082	456.051
420.975	372.233
423.868	311.681
426.76	251.93
429.653	179.312
432.546	127.524
435.438	96.9512
438.331	85.6428
441.224	64.6746
444.116	26.7934
447.009	0.039703
449.902	3.07727
452.795	4.49664
455.687	6.45044
458.58	14.5099
461.473	15.5195
464.365	8.00763
467.258	3.5661
470.151	7.12924
473.043	12.7512
475.936	6.98099
478.829	21.3517
481.721	75.4219
484.614	133.548
487.507	172.021
490.4	193.242
493.292	240.923
496.185	325.203
499.078	415.124
501.97	488.534
504.863	508.997
507.756	524.73
510.649	541.05
513.541	564.907
516.434	579.533
519.327	605.495
522.219	665.222
525.112	771.744
528.005	906.805
530.897	1031.94
533.79	1102.69
536.683	1060.34
539.575	917.378
542.468	765.757
545.361	676.036
548.254	676.334
551.146	722.146
554.039	795.25
556.932	904.191
559.824	940.743
562.717	865.085
565.61	784.814
568.502	658.898
571.395	475.993
574.288	323.03
577.181	268.598
580.073	318.64
582.966	440.961
585.859	609.874
588.751	829.522
591.644	1104.31
594.537	1451.52
597.429	1751.1
600.322	1746.26
603.215	1264.9
606.107	731.595
609	398.234
611.893	214.596
614.786	107.089
617.678	43.9535
620.571	3.15173
623.464	33.9838
626.356	35.0908
629.249	22.894
632.142	5.66422
635.034	24.9624
637.927	24.2496
640.82	11.3156
643.713	12.3159
646.605	23.9947
649.498	42.9294
652.391	69.5703
655.283	96.7574
658.176	118.637
661.069	124.49
663.962	105.955
666.854	67.3361
669.747	38.3946
672.64	19.6186
675.532	8.09839
678.425	5.29648
681.318	5.04221
684.21	5.21501
687.103	7.86121
689.996	9.27837
692.888	6.95541
695.781	4.07611
698.674	1.17557
701.567	6.13327
704.459	8.36255
707.352	13.949
710.245	18.232
713.137	22.9144
716.03	28.5334
718.923	27.9195
721.815	37.7995
724.708	39.7495
727.601	44.291
730.494	49.061
733.386	56.8246
736.279	57.7701
739.172	55.2159
742.064	57.1334
744.957	61.1053
747.85	60.7377
750.742	59.7546
753.635	68.4235
756.528	71.2543
759.42	77.2525
762.313	84.5861
765.206	88.1998
768.099	87.7077
770.991	88.0775
773.884	88.5279
776.777	88.4633
779.669	96.7621
782.562	102.208
785.455	108.491
788.347	123.467
791.24	131.638
794.133	139.684
797.026	142.572
799.918	136.35
802.811	125.003
805.704	105.058
808.596	90.6335
811.489	75.7871
814.382	58.6318
817.274	46.2904
820.167	32.9237
823.06	28.9303
825.953	24.6612
828.845	21.8245
831.738	16.2566
834.631	15.3129
837.523	15.5827
840.416	13.0484
843.309	14.3872
846.202	12.0815
849.094	18.0559
851.987	19.6946
854.88	22.2094
857.772	23.9528
860.665	32.7651
863.558	38.8167
866.45	42.6902
869.343	47.4915
872.236	50.2427
875.128	48.1742
878.021	45.6114
880.914	40.6699
883.807	39.6921
886.699	32.7376
889.592	30.5819
892.485	27.0851
895.377	22.6646
898.27	15.5527
901.163	13.7897
904.055	10.4842
906.948	2.48518
909.841	0.099304
912.734	4.84291
915.626	10.4138
918.519	15.0419
921.412	14.8265
924.304	15.7125
927.197	12.865
930.09	12.4341
932.982	1.70607
935.875	15.6739
938.768	41.0766
941.66	70.1242
944.553	108.891
947.446	147.248
950.339	180.483
953.231	190.02
956.124	203.143
959.017	224.443
961.909	269.306
964.802	347.673
967.695	446.392
970.587	572.184
973.48	681.632
976.373	750.623
979.266	788.121
982.158	875.638
985.051	1035.33
987.944	1144.3
990.836	1006.6
993.729	671.857
996.622	422.447
999.514	315.157
1002.41	297.587
1005.3	359.805
1008.19	492.79
1011.09	682.256
1013.98	923.325
1016.87	1149.24
1019.76	1205.27
1022.66	1049.06
1025.55	803.492
1028.44	596.531
1031.33	448.016
1034.23	326.092
1037.12	252.515
1040.01	189.201
1042.9	141.926
1045.8	95.1709
1048.69	66.4276
1051.58	59.0158
1054.48	80.8933
1057.37	127.263
1060.26	173.219
1063.15	202.219
1066.05	199.651
1068.94	197.024
1071.83	198.112
1074.72	185.536
1077.62	175.697
1080.51	159.238
1083.4	128.96
1086.3	102.139
1089.19	57.5127
1092.08	24.5464
1094.97	4.15155
1097.87	27.9739
1100.76	30.4063
1103.65	20.9708
1106.54	4.85055
1109.44	48.045
1112.33	112.162
1115.22	185.548
1118.12	189.556
1121.01	125.916
1123.9	71.6782
1126.79	40.5692
1129.69	23.9127
1132.58	12.3819
1135.47	9.02389
1138.36	11.0712
1141.26	20.1189
1144.15	37.5817
1147.04	52.4482
1149.93	47.8592
1152.83	26.891
1155.72	11.2581
1158.61	2.01587
1161.51	1.25612
1164.4	3.07829
1167.29	2.42152
1170.18	4.08675
1173.08	3.43481
1175.97	6.6169
1178.86	9.80141
1181.75	11.8027
1184.65	16.1068
1187.54	19.6119
1190.43	24.2261
1193.33	24.7881
1196.22	29.0342
1199.11	30.4137
1202	34.1538
1204.9	37.1538
1207.79	39.195
1210.68	43.0289
1213.57	45.6991
1216.47	43.5566
1219.36	43.2616
1222.25	37.5201
1225.14	35.2654
1228.04	32.9413
1230.93	31.7211
1233.82	30.1991
1236.72	26.6763
1239.61	24.2019
1242.5	25.8542
1245.39	19.9254
1248.29	18.8658
1251.18	23.3385
1254.07	14.1858
1256.96	11.4599
1259.86	12.2993
1262.75	10.157
1265.64	7.02108
1268.54	4.32029
1271.43	4.10117
1274.32	1.37389
1277.21	3.61652
1280.11	1.3424
1283	2.52463
1285.89	1.80488
