Measurement: Raman, 780 nm, unoriented, Raman Data Processed
Mineral: Brazilianite
Rruff sample: R050319
Ideal chemistry: NaAl_3_(PO_4_)_2_(OH)_4_
Locality: Minas Gerais, Brazil
Source: American Museum of Natural History
Description: Pale green fragment
Measured chemistry: Na_1.00_Al_3.00_(PO_4_)_2_(OH)_4_
Raman shift (cm-1)	intensity
92.5234	0
95.8983	44.392
99.2731	94.93
102.648	271.945
106.023	272.738
109.397	118.071
112.772	205.986
116.147	207.738
119.522	28.9051
122.897	0.200592
126.272	3.10773
129.646	1.62546
133.021	7.8175
136.396	5.90155
139.771	32.7346
143.146	82.7147
146.52	144.778
149.895	117.439
153.27	93.4403
156.645	118.722
160.02	180.535
163.395	295.209
166.769	310.314
170.144	227.124
173.519	216.971
176.894	102.028
180.269	60.8539
183.643	39.1568
187.018	30.7084
190.393	28.0735
193.768	31.8028
197.143	34.0076
200.518	18.7292
203.892	2.82811
207.267	10.55
210.642	39.2119
214.017	71.7192
217.392	114.808
220.766	109.536
224.141	67.6734
227.516	69.8125
230.891	86.6209
234.266	96.2006
237.641	111.517
241.015	139.586
244.39	146.414
247.765	109.778
251.14	180.939
254.515	184.485
257.889	24.7548
261.264	5.25386
264.639	1.97086
268.014	13.9073
271.389	23.0556
274.764	38.8685
278.138	30.2601
281.513	4.69961
284.888	20.9672
288.263	55.179
291.638	96.9011
295.012	128.878
298.387	97.4727
301.762	58.3754
305.137	56.6853
308.512	76.8901
311.887	114.954
315.261	131.501
318.636	92.6565
322.011	56.8709
325.386	25.282
328.761	6.7215
332.135	0.15123
335.51	0.433136
338.885	0.231293
342.26	1.43639
345.635	4.60736
349.01	20.3114
352.384	43.5023
355.759	74.892
359.134	78.509
362.509	49.6868
365.884	40.1655
369.258	51.4464
372.633	52.2591
376.008	52.2679
379.383	41.1582
382.758	22.6464
386.132	15.6112
389.507	19.5181
392.882	22.9867
396.257	32.0432
399.632	42.6176
403.007	54.3401
406.381	63.3841
409.756	63.1765
413.131	49.9357
416.506	21.6789
419.881	6.22553
423.255	15.7927
426.63	7.0529
430.005	19.8107
433.38	79.0366
436.755	161.879
440.13	187.7
443.504	98.6657
446.879	21.6883
450.254	4.62869
453.629	24.0083
457.004	48.6075
460.378	80.8269
463.753	112.435
467.128	112.372
470.503	56.2447
473.878	3.27078
477.252	5.40622
480.627	11.3003
484.002	50.2599
487.377	58.3226
490.752	54.1926
494.127	76.6231
497.501	119.749
500.876	160.986
504.251	174.375
507.626	174.012
511.001	169.545
514.375	147.344
517.75	113.454
521.125	95.7153
524.5	108.163
527.875	143.233
531.25	159.833
534.624	145.107
537.999	95.7036
541.374	51.8079
544.749	40.4932
548.124	76.3049
551.499	145.339
554.873	251.729
558.248	320.341
561.623	314.591
564.998	280.292
568.373	202.188
571.747	101.049
575.122	28.7502
578.497	9.797
581.872	15.3404
585.247	27.7024
588.621	66.2127
591.996	130.35
595.371	230.884
598.746	328.653
602.121	301.965
605.495	181.549
608.87	113.889
612.245	104.88
615.62	101.135
618.995	62.5999
622.37	24.3854
625.744	14.9846
629.119	23.1775
632.494	30.3746
635.869	22.025
639.244	1.69629
642.619	14.0213
645.993	13.5267
649.368	7.00798
652.743	6.28766
656.118	21.3132
659.493	30.527
662.867	26.7913
666.242	16.6831
669.617	7.13027
672.992	2.70289
676.367	0.773727
679.741	0.153099
683.116	2.04591
686.491	3.72199
689.866	5.91214
693.241	9.16675
696.615	12.7493
699.99	15.4734
703.365	15.4783
706.74	17.4789
710.115	22.5396
713.49	32.5688
716.864	39.8688
720.239	44.9948
723.614	46.1248
726.989	42.2071
730.364	39.0415
733.739	35.1127
737.113	31.7455
740.488	27.859
743.863	27.1015
747.238	23.7919
750.613	23.9132
753.987	22.5037
757.362	23.4017
760.737	25.5885
764.112	26.9231
767.487	26.4556
770.861	23.5438
774.236	21.4215
777.611	21.487
780.986	19.2756
784.361	21.2892
787.736	24.7081
791.11	28.6901
794.485	30.4504
797.86	33.3369
801.235	32.5747
804.61	27.0898
807.985	27.5461
811.359	19.4479
814.734	13.8322
818.109	11.3563
821.484	7.51004
824.859	5.5551
828.233	3.71536
831.608	2.85344
834.983	1.12632
838.358	0.72728
841.733	2.02198
845.107	1.26491
848.482	2.4163
851.857	2.00022
855.232	2.90831
858.607	4.62939
861.982	7.86894
865.356	7.68153
868.731	10.8856
872.106	11.1828
875.481	12.7987
878.856	11.8333
882.231	10.6348
885.605	9.50719
888.98	8.90406
892.355	7.38879
895.73	5.71839
899.105	3.91657
902.479	2.09317
905.854	1.2932
909.229	0.353043
912.604	1.73671
915.979	3.3244
919.353	4.73792
922.728	5.66707
926.103	4.79166
929.478	5.69929
932.853	4.16792
936.227	1.45957
939.602	1.96661
942.977	10.5968
946.352	17.4736
949.727	28.6157
953.102	41.0614
956.476	64.9476
959.851	98.6403
963.226	150.419
966.601	217.008
969.976	287.456
973.351	333.17
976.725	340.721
980.1	362.123
983.475	417.101
986.85	471.853
990.225	407.079
993.599	267.968
996.974	189.14
1000.35	169.477
1003.72	189.59
1007.1	251.776
1010.47	359.692
1013.85	506.216
1017.22	635.984
1020.6	646.289
1023.97	549.377
1027.35	450.917
1030.72	382.429
1034.1	338.7
1037.47	313.967
1040.85	281.113
1044.22	233.532
1047.6	179.692
1050.97	134.949
1054.35	103.089
1057.72	84.34
1061.1	73.2469
1064.47	62.4117
1067.85	57.3991
1071.22	51.7488
1074.6	48.3534
1077.97	43.963
1081.35	28.7531
1084.72	14.0538
1088.09	0.298386
1091.47	11.5951
1094.84	13.8337
1098.22	9.57384
1101.59	4.7348
1104.97	28.5522
1108.34	71.6025
1111.72	139.24
1115.09	204.673
1118.47	190.984
1121.84	143.187
1125.22	114.207
1128.59	95.6238
1131.97	79.2907
1135.34	83.9944
1138.72	99.1852
1142.09	135.347
1145.47	181.671
1148.84	175.318
1152.22	103.735
1155.59	51.2751
1158.96	28.7834
1162.34	19.8686
1165.71	14.4302
1169.09	10.7936
1172.46	8.98532
1175.84	3.68238
1179.21	1.42788
1182.59	0.325794
1185.96	0.431091
1189.34	0.37611
1192.71	0.795506
1196.09	0.198826
1199.46	1.23669
1202.84	2.17083
1206.21	4.2862
1209.59	2.93594
1212.96	5.0453
1216.34	3.92739
1219.71	5.83156
1223.09	5.56993
1226.46	6.08926
1229.84	7.46563
1233.21	8.6283
1236.59	7.47097
1239.96	6.21722
1243.34	5.3352
1246.71	4.03727
1250.09	4.20657
1253.46	3.26478
1256.84	2.93678
1260.21	2.7351
1263.59	1.3946
1266.96	2.52858
1270.33	2.0344
1273.71	1.6966
1277.08	1.76917
1280.46	1.09089
1283.83	1.07922
