Measurement: Raman, 532 nm, unoriented, Raman Data Processed
Mineral: Brazilianite
Rruff sample: R050319
Ideal chemistry: NaAl_3_(PO_4_)_2_(OH)_4_
Locality: Minas Gerais, Brazil
Source: American Museum of Natural History
Description: Pale green fragment
Measured chemistry: Na_1.00_Al_3.00_(PO_4_)_2_(OH)_4_
Raman shift (cm-1)	intensity
135.744	0
139.119	6.71178
142.494	22.1135
145.869	69.1649
149.243	61.2558
152.618	29.4279
155.993	32.7188
159.368	53.8867
162.743	119.226
166.117	182.708
169.492	187.082
172.867	282.863
176.242	97.7225
179.617	31.553
182.992	8.26302
186.366	0.595291
189.741	3.33202
193.116	0.335068
196.491	6.52438
199.865	2.78662
203.24	9.79124
206.615	3.38388
209.99	18.2795
213.365	42.8955
216.74	88.8888
220.114	104.77
223.489	42.574
226.864	35.0397
230.239	47.8886
233.614	63.047
236.988	100.451
240.363	141.78
243.738	176.902
247.113	174.226
250.488	260.781
253.863	346.575
257.237	89.0373
260.612	28.9993
263.987	21.9179
267.362	38.337
270.737	54.6367
274.111	77.3974
277.486	68.9442
280.861	16.4708
284.236	10.125
287.611	29.1303
290.986	63.391
294.36	103.749
297.735	90.9348
301.11	48.2586
304.485	45.0523
307.86	65.0127
311.235	110.854
314.609	134.751
317.984	84.8056
321.359	42.495
324.734	15.8148
328.109	1.96117
331.483	0.838257
334.858	6.47964
338.233	11.2209
341.608	12.0065
344.983	21.5242
348.358	38.8578
351.732	65.925
355.107	102.886
358.482	115.749
361.857	73.7007
365.231	35.0548
368.606	29.2962
371.981	24.6386
375.356	25.2583
378.731	18.0773
382.106	1.25006
385.48	6.25055
388.855	6.73688
392.23	2.21924
395.605	6.22757
398.98	20.4881
402.354	41.4775
405.729	64.234
409.104	79.5427
412.479	77.1545
415.854	52.8273
419.229	25.5592
422.603	29.392
425.978	53.0026
429.353	100.241
432.728	188.184
436.103	308.013
439.478	387.203
442.852	282.359
446.227	148.358
449.602	113.658
452.977	152.895
456.352	196.007
459.726	241.253
463.101	288.446
466.476	301.337
469.851	193.406
473.226	52.7292
476.601	12.8496
479.975	19.5211
483.35	4.04028
486.725	20.6158
490.1	3.36371
493.475	13.5372
496.849	63.0454
500.224	105.445
503.599	125.789
506.974	132.514
510.349	140.314
513.723	137.402
517.098	124.858
520.473	119.602
523.848	143.882
527.223	198.39
530.598	245.307
533.972	256.878
537.347	214.102
540.722	151.478
544.097	134.176
547.472	157.196
550.846	236.151
554.221	359.944
557.596	500.186
560.971	527.63
564.346	499.682
567.721	403.628
571.095	246.682
574.47	114.468
577.845	48.9307
581.22	20.91
584.595	1.57758
587.969	14.0076
591.344	53.0053
594.719	133.617
598.094	233.238
601.469	254.147
604.843	156.88
608.218	94.2205
611.593	89.2835
614.968	94.8174
618.343	62.8905
621.718	23.2466
625.092	18.4876
628.467	36.5629
631.842	55.7224
635.217	55.985
638.592	30.0313
641.966	1.42975
645.341	10.8523
648.716	6.71915
652.091	6.94626
655.466	28.4296
658.841	42.7741
662.215	42.26
665.59	32.0008
668.965	13.2257
672.34	6.26221
675.715	0.568176
679.09	1.56631
682.464	3.21577
685.839	3.88884
689.214	2.72389
692.589	1.39845
695.964	4.35634
699.338	8.81288
702.713	14.6838
706.088	18.9438
709.463	30.5697
712.838	44.645
716.212	52.2595
719.587	62.6825
722.962	65.8047
726.337	61.0594
729.712	56.7436
733.087	53.5534
736.461	48.7927
739.836	43.7999
743.211	41.4537
746.586	34.8557
749.961	28.4408
753.335	26.4594
756.71	25.139
760.085	24.6471
763.46	27.7996
766.835	27.2802
770.21	25.2609
773.584	25.2375
776.959	20.59
780.334	18.6791
783.709	17.3436
787.084	20.6737
790.458	26.557
793.833	26.4561
797.208	27.1547
800.583	26.9163
803.958	26.4818
807.332	23.2403
810.707	17.603
814.082	14.1659
817.457	9.8835
820.832	9.40494
824.207	7.29012
827.581	5.02602
830.956	5.72279
834.331	4.52005
837.706	2.89232
841.081	2.42012
844.456	1.96347
847.83	2.51511
851.205	2.20232
854.58	5.1218
857.955	8.87511
861.33	10.1521
864.704	12.6939
868.079	15.6724
871.454	16.8321
874.829	18.0127
878.204	17.003
881.578	17.8057
884.953	13.6169
888.328	14.5247
891.703	13.9963
895.078	10.6642
898.453	8.95164
901.827	6.34616
905.202	3.87744
908.577	1.69958
911.952	1.33119
915.327	0.097122
918.702	5.0233
922.076	5.97827
925.451	6.57796
928.826	7.31879
932.201	7.49571
935.576	4.41051
938.95	0.95575
942.325	6.34842
945.7	15.4961
949.075	27.9405
952.45	48.9192
955.824	84.0874
959.199	136.935
962.574	210.272
965.949	315.718
969.324	434.975
972.698	509.162
976.073	499.622
979.448	466.304
982.823	499.301
986.198	572.473
989.573	532.221
992.947	370.126
996.322	252.526
999.697	218.02
1003.07	235.957
1006.45	316.978
1009.82	467.118
1013.2	688.575
1016.57	924.49
1019.95	1002.82
1023.32	884.01
1026.7	721.864
1030.07	610.608
1033.44	539.945
1036.82	500.312
1040.19	453.098
1043.57	382.424
1046.94	285.414
1050.32	207.808
1053.69	151.144
1057.07	110.577
1060.44	87.3391
1063.82	74.1512
1067.19	62.144
1070.57	58.1739
1073.94	55.7868
1077.32	50.6643
1080.69	42.7628
1084.07	25.8402
1087.44	4.95163
1090.82	10.889
1094.19	16.8702
1097.57	17.2499
1100.94	0.498779
1104.32	36.0717
1107.69	95.1269
1111.07	189.141
1114.44	298.058
1117.82	310.392
1121.19	226.45
1124.57	166.678
1127.94	127.033
1131.32	96.6558
1134.69	87.9637
1138.07	99.134
1141.44	133.415
1144.81	195.59
1148.19	232.842
1151.56	151.451
1154.94	72.8376
1158.31	34.7772
1161.69	22.6116
1165.06	18.3128
1168.44	13.7374
1171.81	8.08452
1175.19	4.90964
1178.56	0.876511
1181.94	1.19652
1185.31	0.359848
1188.69	1.58696
1192.06	0.822769
1195.44	0.939682
1198.81	3.30118
1202.19	5.04375
1205.56	4.32519
1208.94	6.2027
1212.31	9.61203
1215.68	8.54074
1219.06	8.74521
1222.43	10.8218
1225.81	10.7138
1229.18	11.5077
1232.56	11.8125
1235.93	11.2266
1239.31	8.3308
1242.68	6.80513
1246.06	7.00212
1249.43	7.34413
1252.81	4.5932
1256.18	5.82069
1259.56	5.92668
1262.93	2.9489
1266.31	4.69061
1269.68	2.25151
1273.06	2.83838
1276.43	2.29437
1279.81	2.26593
1283.18	0.358917
1286.56	3.41957
1289.93	2.51053
1293.31	0.747787
