Measurement: Raman, 514 nm, unoriented, Raman Data Processed
Mineral: Brazilianite
Rruff sample: R050319
Ideal chemistry: NaAl_3_(PO_4_)_2_(OH)_4_
Locality: Minas Gerais, Brazil
Source: American Museum of Natural History
Description: Pale green fragment
Measured chemistry: Na_1.00_Al_3.00_(PO_4_)_2_(OH)_4_
Raman shift (cm-1)	intensity
80.823	0
85.009	1764.86
89.193	2100.56
93.375	821.813
97.554	2303.01
101.732	5341.1
105.908	5123.59
110.082	697.815
114.254	183.31
118.424	153.261
122.592	50.888
126.758	135.023
130.922	12.429
135.083	44.623
139.243	342.471
143.401	689.521
147.557	740.204
151.711	435.243
155.863	303.426
160.013	338.73
164.161	1078.86
168.308	2651.74
172.452	4767.13
176.594	1781.02
180.734	457
184.872	199.837
189.008	127.257
193.143	125.138
197.275	468.627
201.405	557.088
205.534	557.322
209.66	566.307
213.784	542.018
217.907	664.342
222.027	628.534
226.146	518.306
230.263	581.774
234.377	345.789
238.49	541.909
242.601	896.387
246.709	808.332
250.816	986.053
254.921	880.972
259.024	0.519
263.125	58.393
267.224	126.233
271.321	242.509
275.416	375.88
279.51	944.328
283.601	1473.78
287.69	1004.58
291.778	415.567
295.863	183.063
299.947	177.897
304.029	380.521
308.108	1154.55
312.186	2360.97
316.262	2395.19
320.336	2454.51
324.408	2375.27
328.478	1679.47
332.546	1411.07
336.612	1168.96
340.677	1105.14
344.739	1322.7
348.799	2214.63
352.858	4396.94
356.915	6766.59
360.969	5630.56
365.022	3099.84
369.073	1495.41
373.122	341.271
377.169	24.566
381.215	22.766
385.258	34.383
389.299	58.047
393.339	117.952
397.376	475.464
401.412	933.305
405.446	1881.37
409.478	2628.84
413.508	2921.78
417.536	2562.13
421.562	2279.79
425.586	2206.8
429.609	1690.75
433.629	1511.4
437.648	1300.35
441.665	900.54
445.68	290.97
449.693	33.365
453.704	89.568
457.713	203.649
461.721	153.497
465.726	80.756
469.73	17.868
473.731	219.564
477.731	129.271
481.729	355.067
485.725	580.958
489.72	986.924
493.712	1822.96
497.703	2583.21
501.691	3608.53
505.678	3902.99
509.663	4318.53
513.646	4492.14
517.627	4931.76
521.607	5622.41
525.584	6905.21
529.56	8419.88
533.534	8866.19
537.506	8158.62
541.476	6540.98
545.444	5760.88
549.41	5697.45
553.375	7255.89
557.337	9800.11
561.298	10375.7
565.257	10274.1
569.214	8821.7
573.17	6138.16
577.123	4786.42
581.075	4653.23
585.024	5104.57
588.972	7103.5
592.918	10059.1
596.863	14629.7
600.805	13913.2
604.746	8575.02
608.685	4989.06
612.621	3323.85
616.557	2756.8
620.49	2436.49
624.421	2087.83
628.351	2247.48
632.279	2307.33
636.205	1947.66
640.129	1829.07
644.051	1810.94
647.972	1839.71
651.89	1914.14
655.807	2566.01
659.722	2845.85
663.636	2285.78
667.547	1724.6
671.457	945.82
675.365	596.977
679.271	396.328
683.175	335.631
687.077	209.713
690.978	187.564
694.877	372.918
698.774	48.896
702.669	24.949
706.562	187.074
710.454	118.756
714.344	52.863
718.232	100.838
722.118	94.773
726.002	82.135
729.885	72.117
733.766	18.467
737.645	80.193
741.522	6.936
745.397	201.846
749.271	169.975
753.143	90.227
757.013	32.527
760.881	144.387
764.748	148.848
768.613	172.02
772.476	225.189
776.337	304.439
780.196	183.543
784.054	201.361
787.91	70.869
791.764	186.057
795.616	122.914
799.467	178.428
803.316	33.615
807.163	292.365
811.008	75.596
814.851	145.432
818.693	21.184
822.533	56.768
826.371	40.395
830.208	20.125
834.042	47.744
837.875	191.314
841.706	404.721
845.536	241.1
849.363	141.613
853.189	89.277
857.013	268.32
860.836	236.355
864.656	311.453
868.475	18.418
872.292	59.129
876.108	19.48
879.922	55.566
883.733	40.279
887.544	79.561
891.352	38.379
895.159	121.986
898.964	219.09
902.767	74.295
906.568	179.66
910.368	191.248
914.166	226.938
917.962	308.709
921.757	461.248
925.55	970.469
929.341	1041.76
933.13	695.781
936.918	928.779
940.703	1616.16
944.488	1974.52
948.27	2850.07
952.051	3218.14
955.83	3356.57
959.607	3442.67
963.383	4094.65
967.156	5905.38
970.928	8443.8
974.699	9639.39
978.468	9480.78
982.234	10923.1
986	14854.5
989.763	15424.1
993.525	10480.4
997.285	7280.56
1001.04	6074.65
1004.8	5926.14
1008.55	6843.02
1012.31	9800.49
1016.06	13973.9
1019.81	15872.2
1023.56	14193.6
1027.31	11388.6
1031.05	9324.32
1034.79	7594.38
1038.53	6763.33
1042.27	5696.94
1046.01	4764.47
1049.75	4112.9
1053.48	3284.41
1057.22	3300.34
1060.95	3352.94
1064.68	4069.96
1068.4	5469.57
1072.13	6369.89
1075.86	6584.14
1079.58	6525.8
1083.3	5904.69
1087.02	5510.76
1090.74	4625.23
1094.45	3879.43
1098.17	3369.16
1101.88	2979.7
1105.59	3092.43
1109.3	3389.39
1113.01	5353.07
1116.71	6968.59
1120.42	5255.36
1124.12	3459.13
1127.82	2185.34
1131.52	1621.6
1135.22	961.865
1138.91	904.314
1142.61	642.895
1146.3	822.654
1149.99	712.969
1153.68	458.422
1157.37	342.047
1161.06	211.459
1164.74	255.508
1168.42	403.545
1172.1	52.072
1175.78	151.047
1179.46	102.6
1183.14	224.35
1186.81	133.934
1190.48	166.564
1194.15	26.818
1197.83	228.119
1201.49	103.461
1205.16	311.312
1208.82	25.121
1212.49	207.137
1216.15	163.773
1219.81	103.674
1223.46	138.607
1227.12	98.67
1230.78	265.938
1234.43	345.381
1238.08	261.939
1241.73	184.387
1245.38	55.887
1249.03	56.475
1252.67	173.117
1256.31	129.834
1259.95	181.596
1263.6	152.283
1267.23	138.506
1270.87	43.125
1274.51	71.893
1278.14	173.996
1281.77	18.311
1285.4	12.535
1289.03	124.352
1292.66	92.066
1296.28	96.871
1299.91	348.947
1303.53	128.252
1307.15	150.91
1310.77	247.797
1314.38	253.773
1318	194.637
1321.61	369.781
1325.23	47.281
1328.84	205.836
1332.45	560.613
1336.06	454.758
1339.66	267.793
1343.27	313.512
1346.87	397.141
1350.47	260.812
1354.07	662.191
1357.67	533.035
1361.26	746.539
1364.86	486.969
1368.45	666.332
1372.04	461.629
1375.63	600.133
1379.22	49.512
1382.81	287.094
1386.39	467.535
1389.98	309.883
1393.56	430.445
1397.14	465.367
1400.72	336.195
1404.3	348.164
1407.87	13.465
1411.45	13.273
1415.02	121.836
1418.59	110.121
1422.16	107.773
1425.73	288.852
1429.29	126.543
