Measurement: Raman, 514 nm, unoriented, Raman Data Processed
Mineral: Brazilianite
Rruff sample: R050126
Ideal chemistry: NaAl_3_(PO_4_)_2_(OH)_4_
Locality: Linopolis, Minas Gerais, Brazil
Source: Carlos and Paulo Vasconcelos
Description: Pair of greenish yellow elongated crystals
Measured chemistry: Na_1.00_Al_3.00_(P_1.00_O_4_)_2_((OH)_3.80_F_0.20_)_Î£=4_
Raman shift (cm-1)	intensity
73.842	0
78.031	1304.77
82.218	5826.92
86.404	9033.65
90.587	6773.89
94.768	4012.12
98.947	8090.71
103.124	15711
107.3	6209.85
111.473	1333.27
115.644	847.266
119.813	28.913
123.981	144.36
128.146	155.275
132.309	144.523
136.47	150.978
140.63	758.672
144.787	1394.09
148.942	1244.86
153.096	736.323
157.247	540.511
161.396	923.482
165.544	2850.51
169.689	8399.4
173.833	8671.79
177.974	2263.7
182.114	458.126
186.251	127.396
190.387	125.23
194.52	503.919
198.652	962.448
202.782	1141.77
206.909	1477.85
211.035	1242.62
215.159	1352.05
219.281	1797.1
223.4	1103.73
227.518	1198.42
231.634	1450.18
235.748	927.933
239.86	1552.16
243.97	1775.28
248.079	1493.44
252.185	3107.54
256.289	973.408
260.391	43.644
264.492	99.827
268.59	809.452
272.687	1040.02
276.781	1754.74
280.874	2636.4
284.964	2681.5
289.053	1307.72
293.14	386.208
297.225	233.456
301.308	321.078
305.389	1021.63
309.468	3280.39
313.545	4751.3
317.62	4926.64
321.693	4694.26
325.765	3540.17
329.834	2887.01
333.902	2239.68
337.967	1854.13
342.031	2080.48
346.093	2799.72
350.153	5008.82
354.21	9888.78
358.267	14008.6
362.321	9039.21
366.373	4460.63
370.423	1800.83
374.471	131.857
378.518	174.282
382.563	10.214
386.605	293.377
390.646	243.416
394.685	87.456
398.722	843.334
402.757	2208.13
406.79	3828.27
410.821	5629.52
414.851	5621.91
418.878	4306.31
422.904	3908.64
426.927	3429.22
430.949	2430.49
434.969	2488.55
438.987	2952.35
443.003	1509.87
447.018	474.049
451.03	164.951
455.041	112.386
459.049	59.221
463.056	194.442
467.061	292.451
471.064	266.357
475.065	87.569
479.064	395.26
483.062	821.411
487.057	1421.01
491.051	2247.02
495.043	4096.45
499.032	6287.28
503.02	7732.49
507.007	8004.06
510.991	8625.98
514.973	9498.22
518.954	10245.8
522.933	11999.6
526.91	14780.8
530.885	18042.8
534.858	18311.4
538.829	15458
542.799	12779.8
546.766	11192.3
550.732	12397.1
554.696	16226.1
558.658	20687.5
562.618	22085.1
566.576	20810.1
570.533	16083
574.488	11376.3
578.44	9055.77
582.391	9080.16
586.341	11032.8
590.288	15721.7
594.233	23182.6
598.177	30388.7
602.119	24354.9
606.059	14606.7
609.997	8971.97
613.933	6268.88
617.868	5292.98
621.801	4322.32
625.731	4256.67
629.66	4197.78
633.588	4375.63
637.513	4189.19
641.437	3671.48
645.358	3347.45
649.278	3719.12
653.196	4564.79
657.113	5121.79
661.027	5416.44
664.94	4445.74
668.851	2735.66
672.76	1606.2
676.667	1076.36
680.572	714.11
684.476	462.457
688.378	0.375
692.278	2.639
696.176	83.713
700.072	32.884
703.967	185.074
707.86	58.152
711.751	203.571
715.64	77.179
719.527	84.297
723.413	53.875
727.297	105.321
731.179	82.333
735.059	6.974
738.937	26.249
742.814	229.6
746.689	269.925
750.562	279.429
754.433	280.133
758.303	522.501
762.17	487.104
766.036	485.181
769.901	528.845
773.763	526.19
777.624	366.079
781.482	567.469
785.339	480.364
789.195	579.771
793.048	657.697
796.9	625.148
800.75	515.132
804.598	652.654
808.445	400.716
812.289	361.333
816.132	440.519
819.973	552.278
823.813	870.625
827.65	1084.57
831.486	1160.12
835.32	1097.28
839.152	856.07
842.983	537.358
846.812	329.48
850.639	452.662
854.464	268.266
858.288	201.504
862.11	80.049
865.93	144.425
869.748	1.062
873.564	61.596
877.379	89.958
881.192	48.049
885.004	131.742
888.813	0.725
892.621	40.317
896.427	149.217
900.232	130.321
904.034	35.06
907.835	210.076
911.634	143.476
915.432	368.484
919.227	408.947
923.021	672.492
926.813	833.104
930.604	1106.84
934.393	1491.66
938.18	2536.61
941.965	3452.75
945.749	4666.11
949.53	5943.66
953.311	6688.37
957.089	6795.25
960.866	7580.15
964.641	9780.83
968.414	13965.8
972.185	18327
975.955	20350.5
979.723	20975.4
983.49	25070.5
987.254	31238.1
991.017	28005
994.779	19248.5
998.538	14263.4
1002.3	12310.9
1006.05	13195.2
1009.81	16500.4
1013.56	23653.3
1017.31	32148.6
1021.06	34085.6
1024.81	29193
1028.55	22923.5
1032.3	18694.6
1036.04	16206.2
1039.78	14476.9
1043.52	12350.4
1047.26	9894.19
1050.99	8037.72
1054.73	7085.93
1058.46	7009.3
1062.19	7833.96
1065.92	9491.09
1069.65	11314
1073.37	12957.7
1077.1	13006.6
1080.82	12631.7
1084.54	12148.8
1088.26	10954.3
1091.97	9244.88
1095.69	8030.82
1099.4	6809.59
1103.12	6526.12
1106.83	6723.52
1110.54	8894
1114.24	13241
1117.95	15016.5
1121.65	10320.5
1125.35	6660.65
1129.06	4249.02
1132.75	3166.28
1136.45	2584.99
1140.15	1918.46
1143.84	1843.51
1147.53	1907.77
1151.22	1544.26
1154.91	1145.47
1158.6	1014.09
1162.28	711.77
1165.97	701.65
1169.65	564.023
1173.33	324.385
1177.01	329.098
1180.69	147.246
1184.36	168.324
1188.04	326.904
1191.71	305.9
1195.38	37.848
1199.05	49.842
1202.71	173.4
1206.38	81.133
1210.04	113.676
1213.71	163.246
1217.37	10.141
1221.03	6.166
1224.68	131.814
1228.34	13.615
1231.99	2.314
1235.65	16.404
1239.3	78.484
1242.95	63.865
1246.59	180.275
1250.24	111.898
1253.88	153.416
1257.53	199.922
1261.17	24.174
1264.81	184.012
1268.45	50.875
1272.08	32.705
1275.72	36.525
1279.35	46.277
1282.98	113.797
1286.61	121.223
1290.24	163.514
1293.87	51.795
1297.49	43.578
1301.11	95.229
1304.73	81.262
1308.36	10.516
1311.97	32.977
1315.59	192.641
1319.2	65.49
1322.82	44.527
1326.43	262.828
1330.04	86.447
1333.65	160.377
1337.26	156.654
1340.86	318.127
1344.47	203.99
1348.07	280.287
1351.67	428.143
1355.27	408.287
1358.87	445.113
1362.46	240.166
1366.06	491.422
1369.65	347.221
1373.24	311.141
1376.83	296.031
1380.42	371.721
1384	477.248
1387.59	232.549
1391.17	399.594
1394.75	403.889
1398.33	296.219
1401.91	268.447
1405.49	222.996
1409.06	172.107
1412.64	314.475
1416.21	377.975
1419.78	400.057
1423.35	238.912
1426.91	193.188
1430.48	254.328
1434.05	307.652
1437.61	494.764
1441.17	338.217
1444.73	375.424
1448.29	479.857
1451.84	592.863
1455.4	618.379
1458.95	491.412
1462.5	269.053
1466.05	187.141
1469.6	376.301
1473.15	519.234
1476.69	324.055
1480.24	202.533
1483.78	426.832
1487.32	209.521
1490.86	97.533
1494.39	311.182
1497.93	5.061
1501.46	228.125
1505	124.637
1508.53	89.771
1512.06	181.855
1515.59	0.246
