Measurement: Raman, 532 nm, unoriented, Raman Data Processed
Mineral: Brazilianite
Rruff sample: R050126
Ideal chemistry: NaAl_3_(PO_4_)_2_(OH)_4_
Locality: Linopolis, Minas Gerais, Brazil
Source: Carlos and Paulo Vasconcelos
Description: Pair of greenish yellow elongated crystals
Measured chemistry: Na_1.00_Al_3.00_(P_1.00_O_4_)_2_((OH)_3.80_F_0.20_)_Î£=4_
Raman shift (cm-1)	intensity
152.645	0
155.537	19.1982
158.43	71.6252
161.323	141.702
164.215	281.297
167.108	438.354
170.001	586.964
172.894	947.639
175.786	621.206
178.679	177.974
181.572	40.8707
184.464	4.08612
187.357	7.09445
190.25	1.07779
193.143	24.7728
196.035	58.4301
198.928	90.6769
201.821	109.74
204.713	132.025
207.606	210.948
210.499	197.681
213.391	127.715
216.284	119.856
219.177	169.708
222.07	176.047
224.962	137.121
227.855	152.284
230.748	193.722
233.64	168.446
236.533	90.1892
239.426	80.1812
242.318	110.222
245.211	105.357
248.104	33.3214
250.996	11.9909
253.889	54.1717
256.782	2.96976
259.675	32.4652
262.567	1.37286
265.46	44.8449
268.353	105.72
271.245	176.665
274.138	287.413
277.031	502.339
279.923	656.247
282.816	422.473
285.709	206.677
288.601	94.2042
291.494	32.3565
294.387	25.4767
297.28	39.2708
300.172	50.5664
303.065	75.3931
305.958	118.208
308.85	207.108
311.743	367.598
314.636	566.447
317.529	596.364
320.421	441.034
323.314	336.73
326.207	245.812
329.099	171.529
331.992	130.513
334.885	114.39
337.777	103.443
340.67	102.225
343.563	113.808
346.455	137.776
349.348	195.748
352.241	296.404
355.134	455.316
358.026	609.414
360.919	575.464
363.812	339.591
366.704	167.277
369.597	83.9706
372.49	26.5386
375.382	8.27493
378.275	7.5849
381.168	2.4082
384.061	12.9321
386.953	8.84882
389.846	24.2583
392.739	59.7812
395.631	119.117
398.524	193.817
401.417	290.41
404.31	397.431
407.202	485.846
410.095	529.643
412.988	526.892
415.88	476.383
418.773	393.513
421.666	325.14
424.558	276.771
427.451	226.672
430.344	164.197
433.236	119.14
436.129	97.003
439.022	89.0483
441.915	65.4757
444.807	26.5594
447.7	3.92334
450.593	8.81094
453.485	6.9386
456.378	6.77701
459.271	7.74222
462.163	8.26251
465.056	4.9494
467.949	8.08051
470.842	17.8018
473.734	17.2258
476.627	3.45978
479.52	35.1763
482.412	95.7706
485.305	160.828
488.198	213.34
491.091	262.677
493.983	343.355
496.876	457.582
499.769	572.965
502.661	660.714
505.554	678.825
508.447	681.069
511.339	690.506
514.232	691.423
517.125	674.534
520.018	655.644
522.91	690.614
525.803	779.997
528.696	902.018
531.588	1012.36
534.481	1024.01
537.374	938.554
540.266	768.987
543.159	614.62
546.052	543.26
548.944	559.348
551.837	663.61
554.73	825.273
557.622	1007.47
560.515	1057.96
563.408	973.821
566.301	858.488
569.193	697.82
572.086	476.22
574.979	287.773
577.871	205.804
580.764	216.419
583.657	321.303
586.549	485.396
589.442	716.899
592.335	1033.62
595.228	1431.84
598.12	1808.88
601.013	1841.99
603.906	1355.07
606.798	769.175
609.691	421.849
612.584	228.584
615.476	132.512
618.369	68.1644
621.262	12.3069
624.155	22.9357
627.047	30.8039
629.94	9.3587
632.833	21.363
635.725	40.602
638.618	23.5496
641.511	0.720581
644.404	9.84198
647.296	1.24469
650.189	18.5808
653.082	44.5729
655.974	73.1434
658.867	98.3336
661.76	99.8327
664.652	78.0778
667.545	44.7337
670.438	19.4675
673.33	4.49185
676.223	5.26678
679.116	7.30987
682.009	6.94266
684.901	8.43722
687.794	6.68485
690.687	4.45346
693.579	0.534393
696.472	4.38406
699.365	9.63138
702.257	16.4014
705.15	24.0668
708.043	27.337
710.936	34.3606
713.828	39.7448
716.721	44.6871
719.614	47.9616
722.506	49.7663
725.399	58.0573
728.292	60.2377
731.184	64.8629
734.077	65.9078
736.97	67.0866
739.862	64.7724
742.755	61.8583
745.648	61.1812
748.541	59.1912
751.433	65.2484
754.326	71.4442
757.219	76.0983
760.111	85.0196
763.004	89.9156
765.897	91.2882
768.79	90.9979
771.682	87.3635
774.575	86.7535
777.468	84.2983
780.36	81.6818
783.253	87.3607
786.146	92.24
789.038	106.151
791.931	117.306
794.824	124.152
797.716	132.627
800.609	130.666
803.502	121.057
806.395	109.707
809.287	95.9981
812.18	80.9272
815.073	66.6521
817.965	50.9448
820.858	42.0971
823.751	32.796
826.644	31.1099
829.536	25.1831
832.429	21.7078
835.322	19.4019
838.214	17.9552
841.107	12.0993
844	13.3732
846.892	13.9466
849.785	14.2209
852.678	15.5708
855.571	19.7261
858.463	23.0786
861.356	27.3237
864.249	31.6749
867.141	40.8506
870.034	42.8555
872.927	47.3511
875.819	49.8957
878.712	46.2866
881.605	43.2893
884.497	38.387
887.39	35.0139
890.283	31.9061
893.176	26.8021
896.068	23.9109
898.961	19.641
901.854	13.3823
904.746	8.53635
907.639	3.66576
910.532	0.717773
913.424	6.90742
916.317	10.611
919.21	13.0872
922.102	19.527
924.995	20.1176
927.888	20.8829
930.781	16.5736
933.673	10.4474
936.566	8.62155
939.459	31.0024
942.351	64.2875
945.244	104.019
948.137	140.272
951.029	169.624
953.922	176.486
956.815	177.129
959.708	194.41
962.6	241.401
965.493	316.144
968.386	428.817
971.278	564.009
974.171	688.224
977.064	779.958
979.957	871.969
982.849	1023.91
985.742	1255.33
988.635	1415.93
991.527	1243.63
994.42	841.576
997.313	538.874
1000.21	399.433
1003.1	381.88
1005.99	459.889
1008.88	617.343
1011.78	860.19
1014.67	1172.66
1017.56	1466.42
1020.45	1514.46
1023.35	1305.63
1026.24	1007.68
1029.13	754.722
1032.03	588.166
1034.92	460.806
1037.81	378.221
1040.7	312.229
1043.6	256.997
1046.49	198.116
1049.38	152.592
1052.27	128.998
1055.17	140.648
1058.06	177.731
1060.95	221.574
1063.85	240.087
1066.74	239.794
1069.63	233.007
1072.52	233.173
1075.42	233.553
1078.31	212.938
1081.2	190.059
1084.09	158.924
1086.99	116.725
1089.88	70.1757
1092.77	24.9767
1095.66	10.1846
1098.56	32.549
1101.45	40.0012
1104.34	28.3259
1107.23	3.41089
1110.13	42.27
1113.02	111.271
1115.91	187.816
1118.81	191.7
1121.7	127.671
1124.59	82.0413
1127.48	54.0747
1130.38	36.4507
1133.27	28.1178
1136.16	22.5919
1139.06	27.4795
1141.95	38.2559
1144.84	66.1086
1147.73	76.8879
1150.63	68.4671
1153.52	46.1031
1156.41	28.9899
1159.3	9.96872
1162.2	0.858063
1165.09	1.65947
1167.98	0.117798
1170.88	1.0509
1173.77	3.42439
1176.66	4.47774
1179.55	7.0024
1182.44	8.11255
1185.34	12.522
1188.23	14.9777
1191.12	18.1314
1194.02	21.0704
1196.91	24.615
1199.8	26.4564
1202.69	32.5492
1205.59	34.0258
1208.48	35.1094
1211.37	38.8382
1214.27	39.5231
1217.16	39.9586
1220.05	37.6635
1222.94	36.9828
1225.84	34.7737
1228.73	33.7116
1231.62	32.0917
1234.51	29.0838
1237.41	27.2603
1240.3	22.519
1243.19	20.617
1246.09	21.513
1248.98	19.1116
1251.87	18.8409
1254.76	15.9963
1257.66	15.3347
1260.55	14.1146
1263.44	13.1007
1266.33	11.1514
1269.23	10.6514
1272.12	7.70015
1275.01	7.52638
1277.9	5.49528
1280.8	6.22134
1283.69	3.58551
1286.58	1.12
1289.47	0.843292
1292.37	0.611237
1295.26	1.77803
1298.15	1.00871
1301.05	0.213379
1303.94	2.91986
