Measurement: Raman, 532 nm, unoriented, Raman Data Processed
Mineral: Brenkite
Rruff sample: R060247
Ideal chemistry: Ca_2_(CO_3_)F_2_
Locality: Schellkopf, Brenk, Eifel, Germany
Source: Michael Scott
Description: Colorless prismatic crystals in radial aggregates
Measured chemistry: Ca_2.00_(CO_3_)F_2.00_ ; C not measured but estimated by difference and stoichiometry
Raman shift (cm-1)	intensity
141.63	0
145.005	0.481537
148.38	4.97403
151.755	22.2512
155.129	50.5867
158.504	85.0333
161.879	128.322
165.254	160.832
168.629	161.14
172.003	154.361
175.378	170.315
178.753	180.072
182.128	107.127
185.503	71.6469
188.877	71.3509
192.252	82.6208
195.627	78.3214
199.002	52.8897
202.377	21.7146
205.752	3.20741
209.126	3.50569
212.501	1.31862
215.876	14.9311
219.251	34.4039
222.626	57.9336
226	89.3682
229.375	120.979
232.75	146.724
236.125	151.787
239.5	134.888
242.875	99.2943
246.249	57.7255
249.624	28.3427
252.999	9.65881
256.374	1.23848
259.749	0.671387
263.123	1.20401
266.498	0.537994
269.873	3.96709
273.248	12.6109
276.623	25.4423
279.998	37.6762
283.372	42.552
286.747	44.9477
290.122	48.3327
293.497	50.858
296.872	44.3663
300.247	24.1881
303.621	16.5042
306.996	12.57
310.371	10.7492
313.746	8.65819
317.12	8.47189
320.495	3.61502
323.87	3.17149
327.245	0.770721
330.62	0.2146
333.995	1.74621
337.369	1.37376
340.744	0.688049
344.119	2.51598
347.494	4.47938
350.869	6.79121
354.243	7.01443
357.618	7.15619
360.993	6.00478
364.368	2.47439
367.743	2.85393
371.118	1.26247
374.492	1.39078
377.867	0.257713
381.242	0.490662
384.617	1.13514
387.992	1.12935
391.366	0.306763
394.741	0.013878
398.116	0.20015
401.491	0.909828
404.866	0.295311
408.241	0.810272
411.615	1.3477
414.99	2.65558
418.365	1.56316
421.74	1.06744
425.115	1.82826
428.49	1.33497
431.864	1.32307
435.239	1.60741
438.614	0.011131
441.989	1.35342
445.364	1.39621
448.738	0.834953
452.113	0.858231
455.488	1.57715
458.863	0.01429
462.238	1.65897
465.613	0.288818
468.987	0.512215
472.362	0.951385
475.737	1.47514
479.112	1.5559
482.486	1.94411
485.861	0.390289
489.236	0.377586
492.611	0.841492
495.986	0.503731
499.361	1.57481
502.735	1.34653
506.11	0.930748
509.485	1.36469
512.86	0.625305
516.235	0.485741
519.61	0.892685
522.984	0.663963
526.359	1.21295
529.734	0.187119
533.109	1.76556
536.484	0.043091
539.859	1.79372
543.233	0.709206
546.608	0.156517
549.983	1.27903
553.358	1.37204
556.732	0.813911
560.107	2.35973
563.482	0.795723
566.857	1.40114
570.232	0.331131
573.607	1.67238
576.981	0.958031
580.356	1.43217
583.731	1.17794
587.106	0.789864
590.481	0.946098
593.856	1.52216
597.23	2.53132
600.605	0.419777
603.98	0.709023
607.355	0.09977
610.73	2.15285
614.104	1.76223
617.479	0.24485
620.854	1.47005
624.229	0.359283
627.604	1.81096
630.979	0.997681
634.353	2.24323
637.728	1.10329
641.103	1.71392
644.478	0.264275
647.852	1.63221
651.227	1.48854
654.602	1.03429
657.977	1.9067
661.352	0.815773
664.727	0.531799
668.101	0.428947
671.476	0.682755
674.851	2.36114
678.226	1.56052
681.601	0.643845
684.976	0.406418
688.35	1.19478
691.725	1.46838
695.1	0.752289
698.475	2.15344
701.85	4.64832
705.224	9.57051
708.599	20.6316
711.974	33.8535
715.349	57.6553
718.724	71.4584
722.098	67.9156
725.473	21.7246
728.848	5.83772
732.223	2.52699
735.598	1.845
738.973	0.80426
742.347	0.955246
745.722	0.659988
749.097	0.47377
752.472	1.25841
755.847	0.76799
759.221	1.62331
762.596	0.618362
765.971	0.27771
769.346	0.155258
772.721	0.900024
776.096	0.797455
779.47	0.140808
782.845	0.308746
786.22	0.609863
789.595	0.876846
792.97	1.77264
796.345	2.39981
799.719	0.868088
803.094	1.7171
806.469	0.152969
809.844	1.79205
813.219	1.1277
816.593	1.30473
819.968	2.40628
823.343	2.13673
826.718	2.90219
830.093	4.80609
833.467	3.73909
836.842	1.59468
840.217	1.22287
843.592	1.67967
846.967	1.56902
850.342	1.32765
853.716	1.31992
857.091	3.65309
860.466	3.2798
863.841	2.95703
867.216	2.64284
870.591	0.404694
873.965	1.62627
877.34	3.6299
880.715	5.89151
884.09	1.0327
887.465	1.30476
890.839	2.4816
894.214	0.137985
897.589	2.5654
900.964	3.83137
904.339	1.30428
907.713	0.61293
911.088	1.69544
914.463	0.20668
917.838	3.58392
921.213	0.526382
924.587	0.444946
927.962	0.582825
931.337	0.876434
934.712	2.32222
938.087	1.90933
941.462	0.12764
944.836	0.093643
948.211	1.71611
951.586	0.162308
954.961	0.160324
958.336	0.209625
961.711	0.938385
965.085	1.0995
968.46	0.440521
971.835	1.00917
975.21	0.397049
978.585	2.22051
981.959	1.06909
985.334	0.523315
988.709	0.912872
992.084	1.08331
995.459	2.41782
998.833	0.328278
1002.21	1.44603
1005.58	3.83409
1008.96	4.20393
1012.33	6.47067
1015.71	5.73723
1019.08	0.929871
1022.46	1.67297
1025.83	1.18118
1029.21	1.55772
1032.58	1.25317
1035.96	0.818802
1039.33	2.75501
1042.71	1.50214
1046.08	3.38507
1049.46	1.84235
1052.83	3.2531
1056.2	3.66663
1059.58	6.67664
1062.95	9.67448
1066.33	17.9445
1069.7	19.5158
1073.08	35.1124
1076.45	123.615
1079.83	321.111
1083.2	521.214
1086.58	1192.98
1089.95	1032.85
1093.33	130.192
1096.7	43.2174
1100.08	21.1748
1103.45	12.2327
1106.83	6.83983
1110.2	4.76741
1113.58	2.02004
1116.95	4.31125
1120.33	1.20429
1123.7	2.01962
1127.08	0.66304
1130.45	1.47809
1133.83	1.50197
1137.2	1.53334
1140.58	1.20223
1143.95	0.756454
1147.33	0.481384
1150.7	0.60759
1154.08	0.411362
1157.45	2.0215
1160.83	0.689713
1164.2	0.450012
1167.57	2.14317
1170.95	0.605453
1174.32	1.03294
1177.7	2.33601
1181.07	2.40181
1184.45	0.762802
1187.82	1.09531
1191.2	2.55322
1194.57	1.28958
1197.95	2.23611
1201.32	1.32436
1204.7	2.13922
1208.07	0.069626
1211.45	1.37248
1214.82	2.51143
1218.2	3.54401
1221.57	2.39832
1224.95	2.14482
1228.32	2.9942
1231.7	1.14177
1235.07	1.80273
1238.44	1.47942
1241.82	1.24698
1245.19	1.06473
1248.57	2.50949
1251.94	2.20912
1255.32	0.243866
1258.69	1.6582
1262.07	1.98541
1265.44	1.14586
1268.82	1.64938
1272.19	1.40431
1275.57	2.42505
1278.94	1.27476
1282.32	1.60739
1285.69	2.3219
1289.07	4.30147
1292.44	2.6075
1295.82	1.41861
1299.19	2.71742
1302.57	1.61858
