Measurement: Raman, 532 nm, unoriented, Raman Data Processed
Mineral: Brendelite
Rruff sample: R130059
Ideal chemistry: (Bi,Pb)_2_(Fe^3+^,Fe^2+^)O_2_(OH)PO_4_
Locality: Güldener Falk mine, Neustädtel, Schneeberg District, Erzgebirge, Saxony, Germany
Source: William W. Pinch
Description: Tabular brown crystals, associated with eulytine
Raman shift (cm-1)	intensity
187.713	0
190.606	2.38283
193.499	34.6932
196.392	59.4114
199.284	82.4393
202.177	110.998
205.07	137.267
207.962	185.269
210.855	236.659
213.748	299.745
216.64	357.431
219.533	414.986
222.426	457.829
225.319	476.049
228.211	467.26
231.104	425.743
233.997	357.208
236.889	286.342
239.782	217.503
242.675	163.262
245.567	114.66
248.46	76.8518
251.353	47.1921
254.245	27.0811
257.138	17.8183
260.031	7.18375
262.924	1.23395
265.816	2.21033
268.709	6.25784
271.602	7.34683
274.494	2.32483
277.387	1.28272
280.28	4.40479
283.173	8.11154
286.065	19.1247
288.958	27.488
291.851	40.8318
294.743	52.5512
297.636	62.8331
300.529	74.7889
303.421	85.448
306.314	91.8935
309.207	97.63
312.099	101.411
314.992	93.8218
317.885	84.5955
320.778	70.2864
323.67	53.8687
326.563	40.1596
329.456	26.1774
332.348	14.5671
335.241	7.70699
338.134	4.133
341.027	0.615753
343.919	0.839828
346.812	0.438492
349.705	0.549545
352.597	1.25276
355.49	2.4623
358.383	5.4348
361.276	10.1303
364.168	11.1895
367.061	18.4949
369.954	22.6234
372.846	30.2254
375.739	38.5137
378.632	48.6355
381.524	61.3831
384.417	71.4341
387.31	78.9333
390.202	79.5024
393.095	76.2224
395.988	65.6729
398.881	55.3704
401.773	43.085
404.666	33.1564
407.559	25.1744
410.451	20.6845
413.344	17.3578
416.237	15.2868
419.13	14.411
422.022	13.4384
424.915	13.1819
427.808	11.685
430.7	9.75021
433.593	9.47075
436.486	6.58623
439.378	5.08844
442.271	4.24641
445.164	0.155624
448.057	0.21489
450.949	2.34149
453.842	4.15021
456.735	2.47513
459.627	2.37708
462.52	0.111984
465.413	2.86784
468.305	5.8035
471.198	9.45584
474.091	15.0226
476.983	18.7549
479.876	23.3531
482.769	26.9828
485.662	27.6744
488.554	29.2959
491.447	31.0756
494.34	28.9624
497.232	30.404
500.125	27.891
503.018	27.2855
505.911	25.8478
508.803	20.7754
511.696	20.057
514.589	16.7508
517.481	14.2424
520.374	16.6374
523.267	18.4623
526.159	25.6446
529.052	37.3368
531.945	53.9583
534.837	77.1251
537.73	105.801
540.623	138.318
543.516	159.937
546.408	138.38
549.301	109.889
552.194	93.2553
555.086	89.5653
557.979	89.3967
560.872	84.8768
563.764	79.1572
566.657	72.6056
569.55	65.1901
572.443	57.6008
575.335	50.0354
578.228	43.7542
581.121	34.9577
584.013	30.5203
586.906	25.2038
589.799	22.0993
592.692	21.3412
595.584	20.3628
598.477	19.7274
601.37	20.7909
604.262	20.4
607.155	18.7297
610.048	18.9179
612.94	16.0245
615.833	14.5011
618.726	12.9399
621.619	8.23064
624.511	4.03214
627.404	2.70651
630.297	1.66748
633.189	0.484772
636.082	0.451569
638.975	1.68887
641.867	1.58095
644.76	0.124084
647.653	1.03104
650.545	1.32468
653.438	0.977463
656.331	0.378098
659.224	1.39281
662.116	2.03394
665.009	2.39075
667.902	2.12372
670.794	3.00835
673.687	2.95186
676.58	4.49274
679.472	5.42162
682.365	4.79549
685.258	6.40701
688.151	6.85428
691.043	8.05136
693.936	6.06421
696.829	8.0853
699.721	4.53941
702.614	4.74411
705.507	4.78517
708.399	3.88425
711.292	2.57945
714.185	4.11586
717.078	2.46533
719.97	3.21959
722.863	2.60771
725.756	1.12001
728.648	1.70439
731.541	3.07462
734.434	3.9552
737.327	2.07649
740.219	3.12633
743.112	4.03984
746.005	5.02956
748.897	5.0867
751.79	5.70847
754.683	5.56068
757.575	6.90848
760.468	5.89297
763.361	5.06897
766.254	5.14629
769.146	3.10341
772.039	2.83395
774.932	3.09152
777.824	0.692703
780.717	1.07835
783.61	1.38879
786.502	0.010254
789.395	0.002182
792.288	1.94083
795.181	2.60861
798.073	2.0089
800.966	3.77751
803.859	6.28966
806.751	8.95462
809.644	9.62524
812.537	12.8679
815.429	14.3279
818.322	15.8171
821.215	16.2536
824.107	17.4823
827	18.2064
829.893	17.149
832.786	16.825
835.678	16.1932
838.571	17.054
841.464	16.7047
844.356	15.1142
847.249	13.653
850.142	12.3841
853.034	11.2491
855.927	10.9099
858.82	9.81673
861.713	8.32646
864.605	8.64412
867.498	6.81015
870.391	5.87045
873.283	3.87604
876.176	4.00278
879.069	1.97902
881.962	2.06395
884.854	0.75827
887.747	1.19093
890.64	0.332413
893.532	0.587189
896.425	0.882172
899.318	0.174744
902.21	0.78479
905.103	0.390976
907.996	1.09381
910.889	0.715118
913.781	1.81319
916.674	0.094101
919.567	1.20663
922.459	0.713364
925.352	2.00958
928.245	5.48904
931.137	11.6968
934.03	18.0995
936.923	29.9842
939.816	41.0214
942.708	53.3213
945.601	66.7522
948.494	79.8366
951.386	87.5497
954.279	88.6045
957.172	72.8646
960.064	46.0399
962.957	22.9367
965.85	9.33165
968.742	4.55424
971.635	3.99493
974.528	10.174
977.421	18.2333
980.313	27.8395
983.206	39.6677
986.099	56.0384
988.991	75.7537
991.884	97.0619
994.777	116.97
997.669	131.576
1000.56	135.336
1003.46	132.345
1006.35	122.264
1009.24	108.088
1012.13	93.5547
1015.03	75.1523
1017.92	61.016
1020.81	48.3203
1023.7	38.2479
1026.6	30.5051
1029.49	25.9947
1032.38	24.1681
1035.28	22.4962
1038.17	22.3705
1041.06	20.4575
1043.95	22.2773
1046.85	23.8444
1049.74	24.2795
1052.63	23.8686
1055.52	24.3101
1058.42	24.4363
1061.31	21.7103
1064.2	22.8852
1067.09	19.7691
1069.99	17.5309
1072.88	15.1807
1075.77	12.5633
1078.66	8.81012
1081.56	6.39032
1084.45	4.31959
1087.34	3.55544
1090.24	1.93988
1093.13	0.631409
1096.02	1.15834
1098.91	0.23027
1101.81	1.50909
1104.7	1.17996
1107.59	1.60178
1110.48	0.803986
1113.38	1.67043
1116.27	0.092621
1119.16	0.287613
1122.06	0.5961
1124.95	0.07283
1127.84	0.778915
1130.73	2.26646
1133.63	3.79555
1136.52	4.47723
1139.41	4.80428
1142.3	5.02217
1145.2	5.81703
1148.09	5.40259
1150.98	5.40424
1153.88	6.34532
1156.77	7.9839
1159.66	7.02776
1162.55	5.97733
1165.45	6.26144
1168.34	6.4232
1171.23	6.13405
1174.12	5.80069
1177.02	4.76035
1179.91	4.65561
1182.8	4.72067
1185.69	4.39093
1188.59	3.55225
1191.48	3.61063
1194.37	2.7791
1197.27	4.06494
1200.16	3.82427
1203.05	3.65951
1205.94	2.9277
1208.84	3.81108
1211.73	4.58017
1214.62	2.67806
1217.52	3.37668
1220.41	2.62146
1223.3	0.843323
1226.19	3.36212
1229.09	1.60712
1231.98	2.3521
1234.87	1.9991
1237.76	0.365738
1240.66	1.84358
1243.55	2.33047
1246.44	1.43487
1249.33	0.939499
1252.23	0.828888
1255.12	0.911514
1258.01	1.11156
1260.9	1.34363
1263.8	1.3728
1266.69	1.1075
1269.58	1.02629
1272.48	0.389664
1275.37	0.952271
1278.26	0.6492
1281.15	0.608505
1284.05	1.12807
1286.94	0.666046
1289.83	1.18073
1292.72	1.49855
1295.62	1.55595
1298.51	0.291504
1301.4	0.096497
