Measurement: Raman, 780 nm, unoriented, Raman Data Processed
Mineral: Brendelite
Rruff sample: R130059
Ideal chemistry: (Bi,Pb)_2_(Fe^3+^,Fe^2+^)O_2_(OH)PO_4_
Locality: Güldener Falk mine, Neustädtel, Schneeberg District, Erzgebirge, Saxony, Germany
Source: William W. Pinch
Description: Tabular brown crystals, associated with eulytine
Raman shift (cm-1)	intensity
110.966	0
114.341	6.2688
117.716	48.8157
121.091	118.52
124.466	188.403
127.84	270.436
131.215	343.516
134.59	408.181
137.965	499.38
141.34	627.352
144.714	771.495
148.089	796.392
151.464	618.352
154.839	412.747
158.214	267.572
161.589	171.162
164.963	99.2905
168.338	46.3696
171.713	8.32153
175.088	15.6934
178.463	15.1352
181.838	3.74951
185.212	29.5442
188.587	66.8616
191.962	113.662
195.337	163.469
198.712	221.482
202.086	275.807
205.461	311.542
208.836	343.467
212.211	386.438
215.586	425.602
218.96	441.633
222.335	432.507
225.71	391.565
229.085	335.465
232.46	258.417
235.834	186.062
239.209	129.896
242.584	83.3726
245.959	60.0569
249.334	31.4719
252.709	16.6584
256.083	7.01611
259.458	1.9314
262.833	3.92432
266.208	1.39648
269.583	9.47827
272.957	11.8494
276.332	15.0645
279.707	24.2044
283.082	29.5513
286.457	40.9612
289.832	57.5063
293.206	69.8137
296.581	86.9976
299.956	91.8828
303.331	95.7004
306.706	103.858
310.08	102
313.455	90.9017
316.83	69.7048
320.205	53.1809
323.58	39.5972
326.954	26.5053
330.329	22.0084
333.704	14.757
337.079	9.0072
340.454	3.45435
343.829	2.1936
347.203	0.398804
350.578	3.59729
353.953	4.75623
357.328	16.7487
360.703	22.9573
364.077	32.5687
367.452	44.6923
370.827	59.4756
374.202	76.5459
377.577	92.321
380.952	111.918
384.326	126.418
387.701	137.864
391.076	134.026
394.451	125.234
397.826	102.129
401.2	73.0768
404.575	63.2877
407.95	49.2933
411.325	43.3886
414.7	39.2422
418.075	42.5598
421.449	42.0825
424.824	41.9286
428.199	43.8751
431.574	39.1296
434.949	30.1284
438.323	25.1332
441.698	19.0371
445.073	6.49475
448.448	3.17371
451.823	2.01404
455.197	2.23474
458.572	2.36365
461.947	5.63623
465.322	4.13855
468.697	3.05469
472.072	3.56482
475.446	6.42773
478.821	10.2211
482.196	16.0615
485.571	16.2474
488.946	15.1417
492.32	15.293
495.695	11.198
499.07	5.74695
502.445	10.9
505.82	6.25049
509.195	4.979
512.569	4.47595
515.944	7.20264
519.319	15.7111
522.694	24.2013
526.068	43.4668
529.443	64.2767
532.818	88.4806
536.193	119.09
539.568	158.756
542.943	168.653
546.317	135.745
549.692	103.783
553.067	82.9716
556.442	69.8052
559.817	58.1558
563.192	53.3623
566.566	37.7991
569.941	38.1008
573.316	38.9467
576.691	41.8976
580.066	41.5776
583.44	47.5983
586.815	55.0078
590.19	50.7804
593.565	44.2103
596.94	46.0604
600.314	44.4805
603.689	49.1442
607.064	45.4965
610.439	45.2662
613.814	41.8093
617.188	36.5984
620.563	26.6612
623.938	16.6805
627.313	10.2581
630.688	7.96631
634.063	5.71863
637.437	1.27564
640.812	2.19116
644.187	2.15161
647.562	1.19861
650.937	2.75952
654.312	0.027344
657.686	1.21631
661.061	0.592407
664.436	1.5282
667.811	2.67297
671.186	4.18433
674.56	1.7157
677.935	0.919312
681.31	0.319702
684.685	4.78845
688.06	5.49719
691.434	7.07617
694.809	7.0957
698.184	7.7135
701.559	2.60339
704.934	9.21753
708.308	13.3178
711.683	5.12769
715.058	7.94275
718.433	13.2373
721.808	10.2349
725.183	10.0627
728.557	6.25769
731.932	6.52393
735.307	7.31335
738.682	13.827
742.057	4.69165
745.432	6.32068
748.806	6.14905
752.181	4.77734
755.556	8.70874
758.931	1.01538
762.306	1.99768
765.68	4.26648
769.055	2.56287
772.43	0.486572
775.805	0.962036
779.18	0.773193
782.554	1.78931
785.929	2.01575
789.304	8.06274
792.679	8.31421
796.054	3.75952
799.428	7.92078
802.803	5.41809
806.178	11.7357
809.553	11.2736
812.928	16.019
816.303	15.0945
819.677	19.8184
823.052	19.7941
826.427	21.3633
829.802	26.1514
833.177	24.6706
836.552	21.7445
839.926	24.6357
843.301	26.0465
846.676	25.8829
850.051	23.8972
853.426	27.3862
856.8	20.5219
860.175	18.9767
863.55	25.2059
866.925	20.5266
870.3	14.4387
873.674	11.9215
877.049	6.73975
880.424	6.34705
883.799	4.58484
887.174	7.52527
890.548	2.71008
893.923	3.10986
897.298	1.02686
900.673	0.684326
904.048	1.94141
907.423	1.97278
910.797	0.695435
914.172	0.694092
917.547	3.23547
920.922	3.79627
924.297	7.1438
927.671	15.7118
931.046	21.9298
934.421	34.5489
937.796	48.7891
941.171	65.0736
944.545	75.7881
947.92	92.7551
951.295	95.4922
954.67	90.3635
958.045	62.7156
961.42	31.282
964.794	19.005
968.169	10.0681
971.544	5.88672
974.919	4.68311
978.294	12.4227
981.668	21.0627
985.043	26.2528
988.418	37.7903
991.793	42.6931
995.168	53.6725
998.543	51.7212
1001.92	50.4999
1005.29	43.6799
1008.67	33.3381
1012.04	24.1622
1015.42	20.9922
1018.79	15.7894
1022.17	9.64978
1025.54	11.8508
1028.92	8.44348
1032.29	1.98193
1035.67	4.86426
1039.04	3.38098
1042.41	8.24854
1045.79	6.00366
1049.16	12.6575
1052.54	17.4661
1055.91	18.8312
1059.29	19.7419
1062.66	13.8961
1066.04	11.7784
1069.41	12.1335
1072.79	8.42859
1076.16	8.65894
1079.54	7.22449
1082.91	5.64551
1086.29	1.42956
1089.66	3.02747
1093.04	3.5835
1096.41	2.02295
1099.79	1.86426
1103.16	0.574707
1106.54	2.47351
1109.91	2.5603
1113.29	1.64929
1116.66	2.67883
1120.04	3.07312
1123.41	2.02466
1126.79	6.77087
1130.16	7.44214
1133.54	10.1
1136.91	4.96899
1140.29	13.473
1143.66	13.5895
1147.03	12.6573
1150.41	13.9115
1153.78	18.3583
1157.16	16.574
1160.53	15.8192
1163.91	12.8579
1167.28	15.0907
1170.66	20.0715
1174.03	20.7328
1177.41	17.4659
1180.78	12.5179
1184.16	13.1382
1187.53	15.8268
1190.91	18.0864
1194.28	13.9545
1197.66	16.6254
1201.03	17.6835
1204.41	17.4655
1207.78	6.21948
1211.16	11.1599
1214.53	6.9071
1217.91	6.60229
1221.28	3.35132
1224.65	9.82703
1228.03	2.84424
1231.4	2.7312
1234.78	2.59436
1238.15	5.18555
1241.53	1.15796
1244.9	2.63623
1248.28	3.03259
1251.65	3.91931
1255.03	4.91101
1258.4	2.03491
1261.78	3.78333
1265.15	6.6405
1268.53	9.22498
1271.9	4.89441
1275.28	4.20715
1278.65	1.09656
1282.03	4.52319
