Measurement: Raman, 780 nm, unoriented, Raman Data Processed
Mineral: Brenkite
Rruff sample: R060247
Ideal chemistry: Ca_2_(CO_3_)F_2_
Locality: Schellkopf, Brenk, Eifel, Germany
Source: Michael Scott
Description: Colorless prismatic crystals in radial aggregates
Measured chemistry: Ca_2.00_(CO_3_)F_2.00_ ; C not measured but estimated by difference and stoichiometry
Raman shift (cm-1)	intensity
141.995	0
144.888	0.036434
147.78	0.374596
150.673	4.19156
153.566	10.0438
156.458	17.5975
159.351	26.0248
162.244	33.1848
165.137	38.3753
168.029	42.1934
170.922	37.7144
173.815	36.8432
176.707	37.7315
179.6	36.2608
182.493	20.4196
185.385	10.1065
188.278	6.60694
191.171	7.08408
194.064	6.98236
196.956	5.78193
199.849	2.86404
202.742	0.350132
205.634	0.334553
208.527	0.810215
211.42	1.37123
214.312	5.38411
217.205	11.4732
220.098	18.507
222.991	25.5043
225.883	32.4716
228.776	38.2498
231.669	44.6084
234.561	46.8291
237.454	43.816
240.347	37.231
243.239	27.7889
246.132	18.8807
249.025	9.47885
251.918	5.93905
254.81	1.52482
257.703	0.158033
260.596	0.182878
263.488	0.214813
266.381	0.022108
269.274	1.16416
272.166	2.5945
275.059	5.97001
277.952	9.0873
280.845	11.337
283.737	13.493
286.63	14.2803
289.523	14.7351
292.415	14.8582
295.308	13.8278
298.201	10.1458
301.094	6.93865
303.986	4.40273
306.879	3.04534
309.772	2.32528
312.664	2.54105
315.557	1.95586
318.45	1.91351
321.342	1.09761
324.235	0.895164
327.128	1.0865
330.021	0.517993
332.913	0.25629
335.806	0.238042
338.699	0.317067
341.591	0.073535
344.484	0.026136
347.377	0.631646
350.269	0.804479
353.162	1.21232
356.055	0.440267
358.947	0.590738
361.84	0.110289
364.733	0.277734
367.626	0.040196
370.518	0.192585
373.411	0.061165
376.304	0.230363
379.197	0.086518
382.089	0.02057
384.982	0.513573
387.875	0.341968
390.767	0.446299
393.66	0.607832
396.553	0.147706
399.445	0.321558
402.338	0.780266
405.231	0.55355
408.123	0.46848
411.016	0.735465
413.909	0.439851
416.802	1.20878
419.694	0.814847
422.587	0.757745
425.48	1.07709
428.372	0.696056
431.265	1.12015
434.158	0.500602
437.05	0.525918
439.943	0.544277
442.836	1.12059
445.729	0.723091
448.621	0.576286
451.514	0.856173
454.407	0.814849
457.299	0.613328
460.192	0.652187
463.085	0.3607
465.978	0.504361
468.87	0.402203
471.763	0.165511
474.656	0.307006
477.548	0.539419
480.441	0.290618
483.334	0.515262
486.226	0.242475
489.119	0.106364
492.012	0.699169
494.904	0.709516
497.797	0.157633
500.69	0.133403
503.583	0.339433
506.475	0.566985
509.368	0.509053
512.261	0.383813
515.153	0.36327
518.046	0.656773
520.939	0.043872
523.832	0.064622
526.724	0.288833
529.617	0.735831
532.51	0.012049
535.402	0.339284
538.295	0.09629
541.188	0.132873
544.081	0.642384
546.973	0.303451
549.866	0.63658
552.759	0.124024
555.651	0.392247
558.544	0.632177
561.437	0.042784
564.329	0.017813
567.222	0.061607
570.115	0.345152
573.008	0.398273
575.9	0.758982
578.793	0.312158
581.686	0.264139
584.578	0.254781
587.471	0.326809
590.364	0.8143
593.256	0.611178
596.149	0.670423
599.042	0.933903
601.934	0.505557
604.827	0.61498
607.72	0.549014
610.613	1.10524
613.505	0.911275
616.398	0.699559
619.291	0.82049
622.183	0.079285
625.076	0.692338
627.969	0.202358
630.861	0.230413
633.754	0.469444
636.647	0.483889
639.54	0.47365
642.432	0.575052
645.325	0.583321
648.218	0.416693
651.111	0.380018
654.003	0.02689
656.896	0.4222
659.789	0.243227
662.681	0.478776
665.574	0.260485
668.467	0.57558
671.359	1.01636
674.252	0.161734
677.145	0.131011
680.038	0.526094
682.93	0.994195
685.823	0.337648
688.716	0.595634
691.608	0.700056
694.501	0.151366
697.394	0.373571
700.286	1.36581
703.179	2.72259
706.072	5.31294
708.965	9.05846
711.857	10.8664
714.75	17.0607
717.643	22.2277
720.535	27.6588
723.428	14.2286
726.321	5.01182
729.213	1.55086
732.106	1.0143
734.999	0.49718
737.891	0.353265
740.784	0.437016
743.677	0.038807
746.57	0.609274
749.462	0.500857
752.355	0.248997
755.248	0.572733
758.14	0.330465
761.033	0.172461
763.926	0.395578
766.818	0.614833
769.711	0.141492
772.604	0.660876
775.497	0.153283
778.389	0.454769
781.282	0.360319
784.175	0.795321
787.067	0.47686
789.96	0.178317
792.853	0.363431
795.745	0.645589
798.638	0.188256
801.531	0.409774
804.424	0.017626
807.316	0.305862
810.209	0.157055
813.102	0.326303
815.994	0.021301
818.887	0.103408
821.78	0.429206
824.673	0.260368
827.565	0.700456
830.458	0.460157
833.351	0.477708
836.243	0.214721
839.136	0.46909
842.029	0.474892
844.922	0.332696
847.814	0.381603
850.707	0.563415
853.6	0.672726
856.492	0.759014
859.385	0.389545
862.278	0.782371
865.17	0.412889
868.063	0.951541
870.956	0.970715
873.848	0.410314
876.741	0.679821
879.634	1.33276
882.527	1.05904
885.419	0.303981
888.312	0.519908
891.205	0.525923
894.097	0.476022
896.99	0.531955
899.883	0.645188
902.775	0.64922
905.668	0.147542
908.561	0.099256
911.454	0.062975
914.346	0.84906
917.239	0.340077
920.132	0.22066
923.024	0.17913
925.917	0.119375
928.81	0.441315
931.703	0.586685
934.595	0.412739
937.488	0.241606
940.381	0.22424
943.273	0.205416
946.166	0.215869
949.059	0.504479
951.952	0.497388
954.844	0.277464
957.737	0.304758
960.63	0.487034
963.522	0.007267
966.415	0.314201
969.308	0.39829
972.2	0.189534
975.093	0.013463
977.986	0.32788
980.879	0.144831
983.771	0.397543
986.664	0.118089
989.557	0.021515
992.449	0.545238
995.342	0.313104
998.235	0.647372
1001.13	0.026467
1004.02	0.603569
1006.91	0.906354
1009.8	1.08926
1012.7	0.880144
1015.59	0.932683
1018.48	0.574328
1021.38	0.411549
1024.27	0.599648
1027.16	0.368001
1030.05	0.699462
1032.95	0.126335
1035.84	0.530293
1038.73	0.22109
1041.62	0.375992
1044.52	0.904387
1047.41	0.032048
1050.3	0.403749
1053.2	0.390449
1056.09	1.19085
1058.98	1.30571
1061.87	2.09695
1064.77	2.81811
1067.66	4.11483
1070.55	4.52867
1073.44	8.73156
1076.34	29.0312
1079.23	63.2213
1082.12	88.5559
1085.02	147.92
1087.91	222.497
1090.8	132.51
1093.69	23.6585
1096.59	7.77867
1099.48	4.11679
1102.37	2.2684
1105.27	2.24611
1108.16	1.25429
1111.05	0.727686
1113.94	0.880084
1116.84	0.106201
1119.73	0.168687
1122.62	0.522223
1125.51	0.926404
1128.41	0.617802
1131.3	0.338823
1134.19	0.195446
1137.08	0.111144
1139.98	0.824378
1142.87	0.532609
1145.76	0.059132
1148.65	0.203653
1151.55	0.4076
1154.44	0.020973
1157.33	0.444014
1160.23	0.022249
1163.12	0.383312
1166.01	0.402956
1168.9	0.227228
1171.8	0.48674
1174.69	0.674599
1177.58	0.488611
1180.47	0.188014
1183.37	0.697782
1186.26	0.393074
1189.15	0.751736
1192.05	0.593968
1194.94	0.098937
1197.83	0.166496
1200.72	0.461182
1203.62	0.521801
1206.51	0.474527
1209.4	0.470222
1212.3	0.965701
1215.19	0.706252
1218.08	0.540688
1220.97	0.2955
1223.87	0.297877
1226.76	0.205025
1229.65	0.607614
1232.54	0.210162
1235.44	0.368842
1238.33	0.718347
1241.22	0.733157
1244.11	0.709227
1247.01	0.723502
1249.9	0.383301
1252.79	0.023813
1255.68	0.366383
1258.58	0.095935
1261.47	0.681328
1264.36	0.274073
1267.26	0.538496
1270.15	0.385683
1273.04	0.389393
1275.93	0.278963
1278.83	0.137322
1281.72	0.088133
