Measurement: Raman, 785 nm, unoriented, Raman Data Processed
Mineral: Brewsterite-Sr
Rruff sample: R070227
Ideal chemistry: Sr(Al_2_Si_6_)O_16_5H_2_O
Locality: Strontian, North West Highlands (Argyllshire), Scotland, UK
Source: Michael Scott
Description: Colorless to off-white striated prismatic crystals associated with calcite and pyrite on gneissic matrix
Raman shift (cm-1)	intensity
153.321	0
156.214	9.94934
159.107	26.7356
161.999	179.476
164.892	315.434
167.785	430.106
170.677	480.841
173.57	416.1
176.463	339.024
179.356	251.984
182.248	164.214
185.141	91.7188
188.034	53.3268
190.926	8.56921
193.819	0.206055
196.712	0.661011
199.604	1.49011
202.497	15.5676
205.39	33.0579
208.282	12.6055
211.175	63.2273
214.068	95.2537
216.961	136.239
219.853	218.854
222.746	281.996
225.639	417.659
228.531	481.731
231.424	574.217
234.317	696.604
237.209	810.926
240.102	903.71
242.995	925.808
245.888	889.118
248.78	784.729
251.673	664.576
254.566	563.964
257.458	443.876
260.351	362.543
263.244	315.326
266.137	233.401
269.029	197.088
271.922	159.979
274.815	142.51
277.707	78.0189
280.6	94.9112
283.493	60.5005
286.385	21.0635
289.278	65.1886
292.171	15.712
295.063	14.5817
297.956	4.06006
300.849	29.1257
303.742	15.8881
306.634	8.55078
309.527	5.75134
312.42	3.0658
315.312	0.675049
318.205	2.73706
321.098	5.65271
323.99	28.8423
326.883	64.9045
329.776	57.8711
332.669	39.0721
335.561	34.9152
338.454	37.0489
341.347	48.7019
344.239	59.0968
347.132	116.152
350.025	176.513
352.918	239.244
355.81	312.264
358.703	396.44
361.596	518.374
364.488	685.399
367.381	957.276
370.274	1244.14
373.166	1621.08
376.059	1938.43
378.952	2197.05
381.844	2265.34
384.737	2168.54
387.63	1917.69
390.523	1643.85
393.415	1471.16
396.308	1326.68
399.201	1213.62
402.093	1180
404.986	1137.59
407.879	1110.3
410.772	1060.34
413.664	1052.39
416.557	1030.43
419.45	1017.39
422.342	959.697
425.235	912.366
428.128	774.498
431.02	624.544
433.913	460.449
436.806	327.747
439.699	161.458
442.591	59.6014
445.484	2.61231
448.377	33.233
451.269	39.0825
454.162	11.7246
457.055	78.0212
459.947	147.568
462.84	268.919
465.733	482.485
468.625	750.931
471.518	1136.24
474.411	1528.36
477.304	1934.11
480.196	2324.26
483.089	2740.4
485.982	3339.8
488.874	4206.9
491.767	4918.58
494.66	5093.13
497.553	4503.07
500.445	3407.34
503.338	2312.63
506.231	1473.65
509.123	944.419
512.016	609.361
514.909	379.531
517.802	244.539
520.694	146.123
523.587	56.6047
526.48	33.2573
529.372	10.2563
532.265	0.7948
535.158	0.196289
538.05	2.48212
540.943	14.8386
543.836	16.5746
546.729	0.822632
549.621	21.7302
552.514	31.391
555.407	15.6891
558.299	25.8671
561.192	21.0568
564.085	37.0052
566.977	60.033
569.87	71.1647
572.763	79.3172
575.655	87.4628
578.548	106.521
581.441	125.967
584.333	146.521
587.226	154.933
590.119	148.918
593.012	172.89
595.904	157.678
598.797	138.55
601.69	121.749
604.582	124.126
607.475	133.576
610.368	140.436
613.26	158.715
616.153	147.191
619.046	145.986
621.939	152.202
624.831	145.61
627.724	134.072
630.617	125.998
633.509	121.524
636.402	126.755
639.295	112.686
642.188	119.653
645.08	107.385
647.973	99.5184
650.866	79.2521
653.758	73.4723
656.651	60.623
659.544	57.4951
662.436	19.5987
665.329	5.61926
668.222	24.912
671.115	0.790344
674.007	6.06549
676.9	0.957153
679.793	6.19568
682.685	5.67487
685.578	4.57361
688.471	15.7684
691.363	17.1929
694.256	10.4689
697.149	7.58002
700.042	1.02374
702.934	17.2739
705.827	19.8478
708.72	17.4479
711.612	25.6174
714.505	27.5416
717.398	23.7287
720.29	55.2792
723.183	24.3171
726.076	43.5784
728.968	40.1085
731.861	55.0517
734.754	49.5692
737.647	54.8611
740.539	76.6988
743.432	71.1616
746.325	77.0029
749.217	87.7108
752.11	84.329
755.003	92.9142
757.895	94.4291
760.788	119.079
763.681	130.364
766.574	157.156
769.466	161.384
772.359	182.121
775.252	183.673
778.144	183.399
781.037	185.957
783.93	197.711
786.822	173.561
789.715	150.059
792.608	132.258
795.501	103.241
798.393	131.333
801.286	96.5378
804.179	60.3158
807.071	40.9543
809.964	35.4779
812.857	1.10687
815.75	23.6522
818.642	32.5662
821.535	0.648376
824.428	10.66
827.32	14.9857
830.213	6.98636
833.106	17.4335
835.998	3.11822
838.891	1.50415
841.784	17.5475
844.677	21.4563
847.569	16.1313
850.462	21.4482
853.355	22.295
856.247	13.4004
859.14	14.8845
862.033	24.2585
864.925	18.3488
867.818	24.7049
870.711	33.4374
873.604	24.9097
876.496	21.766
879.389	13.4772
882.282	33.8527
885.174	24.064
888.067	28.3284
890.96	52.61
893.852	45.7536
896.745	36.1525
899.638	46.8285
902.53	15.1157
905.423	14.6148
908.316	23.0064
911.209	25.3054
914.101	25.6108
916.994	11.6431
919.887	18.3474
922.779	11.7688
925.672	5.88028
928.565	13.6027
931.457	2.15256
934.35	9.00415
937.243	5.89667
940.136	13.3344
943.028	0.236847
945.921	11.221
948.814	18.1233
951.706	1.5784
954.599	0.148499
957.492	24.8186
960.385	61.695
963.277	52.7006
966.17	85.7675
969.063	101.134
971.955	144.047
974.848	110.549
977.741	110.248
980.633	112.209
983.526	90.093
986.419	75.3868
989.312	82.044
992.204	75.3307
995.097	53.5574
997.99	37.2112
1000.88	21.6713
1003.77	17.2714
1006.67	22.2109
1009.56	26.6606
1012.45	24.6104
1015.35	33.886
1018.24	27.4061
1021.13	40.6746
1024.02	58.1348
1026.92	19.5011
1029.81	40.6354
1032.7	39.3752
1035.6	44.5754
1038.49	42.659
1041.38	37.3599
1044.27	37.1605
1047.17	23.1906
1050.06	3.55719
1052.95	3.65314
1055.84	2.50665
1058.74	5.75098
1061.63	1.51038
1064.52	1.72949
1067.41	4.1449
1070.31	9.87695
1073.2	8.10834
1076.09	37.8438
1078.98	39.2535
1081.88	45.4468
1084.77	55.9672
1087.66	74.5932
1090.56	102.688
1093.45	117.56
1096.34	110.51
1099.23	155.887
1102.13	154.435
1105.02	168.585
1107.91	192.616
1110.81	204.487
1113.7	199.675
1116.59	192.326
1119.48	226.482
1122.38	248.465
1125.27	246.996
1128.16	274.386
1131.05	265.563
1133.95	279.111
1136.84	242.635
1139.73	261.357
1142.62	228.226
1145.52	219.567
1148.41	186.725
1151.3	147.295
1154.19	109.116
1157.09	90.9511
1159.98	80.7768
1162.87	52.5076
1165.77	48.5697
1168.66	28.5256
1171.55	34.103
1174.44	7.77087
1177.34	3.8226
1180.23	1.6665
1183.12	2.29645
1186.02	6.71765
1188.91	9.827
1191.8	15.6714
1194.69	1.60379
1197.59	6.88391
1200.48	14.4265
1203.37	18.7328
1206.26	13.2993
1209.16	18.6811
1212.05	21.0971
1214.94	19.6788
1217.84	8.88138
1220.73	18.5462
1223.62	5.68652
1226.51	25.9011
1229.41	24.0942
1232.3	24.6717
1235.19	11.9424
1238.08	10.4106
