Measurement: Raman, 785 nm, unoriented, Raman Data Processed
Mineral: Brewsterite-Ba
Rruff sample: R070120
Ideal chemistry: Ba(Al_2_Si_6_)O_16_5H_2_O
Locality: Strontian, North West Highlands (Argyllshire), Scotland, UK
Source: Michael Scott
Description: Colorless crystal fragment
Raman shift (cm-1)	intensity
160.844	0
163.736	165.235
166.629	190.703
169.522	310.127
172.414	276.158
175.307	170.04
178.2	155.832
181.093	74.6597
183.985	105.02
186.878	99.2012
189.771	68.0835
192.663	24.5527
195.556	82.9155
198.449	93.4375
201.341	61.5444
204.234	106.115
207.127	93.2173
210.019	30.8594
212.912	4.98389
215.805	27.8496
218.698	84.0337
221.59	105.707
224.483	181.727
227.376	208.752
230.268	266.356
233.161	279.523
236.054	320.863
238.946	350.85
241.839	345.687
244.732	315.644
247.625	312.939
250.517	229.879
253.41	199.794
256.303	175.113
259.195	140.616
262.088	116.177
264.981	41.8897
267.873	93.0298
270.766	17.352
273.659	35.9849
276.551	5.93896
279.444	16.1475
282.337	43.8603
285.23	12.0415
288.122	2.13037
291.015	24.5654
293.908	30.0664
296.8	12.2471
299.693	38.9302
302.586	17.9463
305.478	50.2085
308.371	7.53906
311.264	41.5034
314.157	39.6543
317.049	10.7324
319.942	22.5615
322.835	24.9111
325.727	29.2231
328.62	36.998
331.513	131.212
334.406	118.314
337.298	146.891
340.191	153.241
343.084	163.409
345.976	174.638
348.869	187.738
351.762	210.875
354.654	246.522
357.547	271.405
360.44	317.296
363.332	409.534
366.225	416.166
369.118	506.489
372.011	644.628
374.903	733.796
377.796	772.033
380.689	869.418
383.581	881.127
386.474	813.545
389.367	704.244
392.26	655.606
395.152	578.609
398.045	463.631
400.938	424.827
403.83	405.946
406.723	388.51
409.616	347.846
412.508	307.725
415.401	390.543
418.294	359.766
421.187	374.89
424.079	410.18
426.972	360.151
429.865	266.481
432.757	217.97
435.65	231.456
438.543	186.091
441.435	152.833
444.328	107.881
447.221	21.9448
450.113	28.3916
453.006	23.0371
455.899	44.0972
458.791	38.501
461.684	138.192
464.577	173.122
467.47	288.777
470.362	441.621
473.255	593.722
476.148	726.889
479.04	834.185
481.933	918.888
484.826	1028.05
487.719	1139.18
490.611	1223.16
493.504	1303.07
496.397	1306.06
499.289	1058.5
502.182	653.781
505.075	483.427
507.967	308.604
510.86	158.576
513.753	69.6152
516.645	36.7837
519.538	6.65332
522.431	21.0713
525.324	70.3477
528.216	39.4692
531.109	5.13916
534.002	5.35596
536.894	22.3965
539.787	64.8603
542.68	41.2798
545.572	36.3877
548.465	73.0874
551.358	106.495
554.251	111.519
557.143	204.26
560.036	176.684
562.929	143.45
565.821	178.908
568.714	181.623
571.607	133.955
574.5	105.898
577.392	110.599
580.285	127.178
583.178	86.1836
586.07	81.6572
588.963	121.038
591.856	130.125
594.748	39.3257
597.641	29.77
600.534	43.044
603.427	53.0879
606.319	48.8652
609.212	39.1914
612.105	57.335
614.997	49.5322
617.89	57.0806
620.783	74.3555
623.675	39.9404
626.568	100.421
629.461	53.6577
632.354	81.3701
635.246	47.3638
638.139	33.6489
641.032	58.0713
643.924	41.4419
646.817	52.7573
649.71	76.8589
652.602	16.2466
655.495	38.0015
658.388	41.2353
661.28	29.0938
664.173	54.124
667.066	12.8823
669.959	17.0269
672.851	8.98584
675.744	12.291
678.637	38.833
681.529	46.2769
684.422	34.0327
687.315	28.5972
690.207	0.093262
693.1	14.6987
695.993	22.9717
698.886	20.813
701.778	28.7656
704.671	14.4092
707.564	44.3296
710.456	13.3706
713.349	4.74219
716.242	3.53809
719.135	30.104
722.027	58.8608
724.92	51.9043
727.813	37.0293
730.705	65.2158
733.598	49.2534
736.491	83.1177
739.383	80.7715
742.276	74.0757
745.169	79.4878
748.061	98.3862
750.954	93.8223
753.847	145.682
756.74	90.5903
759.632	113.9
762.525	141.068
765.418	130.743
768.31	126.603
771.203	190.886
774.096	151.482
776.988	150.357
779.881	172.466
782.774	204.195
785.667	213.776
788.559	203.999
791.452	205.53
794.345	223.311
797.237	167.857
800.13	178.922
803.023	177.346
805.915	161.738
808.808	123.126
811.701	106.761
814.593	89.2461
817.486	48.7637
820.379	56.1611
823.272	60.794
826.164	39.6265
829.057	43.0732
831.95	62.0166
834.842	32.1196
837.735	29.9092
840.628	4.67456
843.52	32.5903
846.413	8.677
849.306	51.2607
852.199	24.6965
855.091	26.7258
857.984	43.727
860.877	69.644
863.769	7.11743
866.662	10.7817
869.555	9.64185
872.447	79.1843
875.34	6.4585
878.233	36.196
881.125	69.2712
884.018	69.0112
886.911	69.1262
889.804	59.4844
892.696	63.3157
895.589	56.637
898.482	9.88452
901.375	66.4111
904.267	31.3423
907.16	31.4773
910.053	23.5832
912.945	4.66943
915.838	38.7295
918.731	82.5938
921.623	58.7754
924.516	23.1621
927.409	87.6118
930.302	37.5688
933.194	7.93994
936.087	14.1938
938.98	71.0483
941.872	44.6982
944.765	40.6914
947.658	64.5444
950.55	18.2236
953.443	34.3555
956.336	43.7119
959.229	44.416
962.121	53.398
965.014	0.359375
967.907	28.354
970.799	31.8169
973.692	106.409
976.585	40.8862
979.477	75.0884
982.37	71.1948
985.263	33.5703
988.155	72.291
991.048	47.8203
993.941	51.4424
996.833	61.3174
999.726	33.4204
1002.62	4.35059
1005.51	3.61328
1008.4	25.146
1011.3	59.4898
1014.19	61.52
1017.08	85.4404
1019.98	76.6157
1022.87	30.353
1025.76	92.4316
1028.65	98.3989
1031.55	58.0601
1034.44	34.3501
1037.33	54.8809
1040.22	49.6641
1043.12	46.7002
1046.01	65.0444
1048.9	60.1675
1051.8	13.7822
1054.69	103.524
1057.58	45.7832
1060.47	62.4688
1063.37	14.1128
1066.26	46.9331
1069.15	6.00439
1072.04	49.3794
1074.94	9.59229
1077.83	81.4771
1080.72	71.7163
1083.62	111.147
1086.51	154.027
1089.4	150.118
1092.29	169.186
1095.18	102.637
1098.08	181.233
1100.97	134.921
1103.86	136.222
1106.76	167.038
1109.65	139.996
1112.54	108.706
1115.43	83.3472
1118.33	78.3203
1121.22	53.8931
1124.11	98.1274
1127.01	29.6675
1129.9	93.1465
1132.79	97.061
1135.68	95.501
1138.58	130.398
1141.47	154.31
1144.36	143.918
1147.25	150.195
1150.15	114.08
1153.04	64.2998
1155.93	79.0884
1158.83	46.771
1161.72	108.043
1164.61	110.04
1167.5	114.165
1170.39	49.4639
1173.29	96.2017
1176.18	41.5669
1179.07	80.2266
1181.97	43.813
1184.86	3.78125
1187.75	80.6924
1190.64	98.7559
1193.54	111.516
1196.43	87.6562
1199.32	88.3994
1202.21	12.6504
1205.11	60.5977
1208	41.499
1210.89	15.2871
1213.79	20.5762
