Measurement: Raman, 532 nm, unoriented, Raman Data Processed
Mineral: Brewsterite-Ba
Rruff sample: R070120
Ideal chemistry: Ba(Al_2_Si_6_)O_16_5H_2_O
Locality: Strontian, North West Highlands (Argyllshire), Scotland, UK
Source: Michael Scott
Description: Colorless crystal fragment
Raman shift (cm-1)	intensity
152.11	0
155.003	104.276
157.895	49.6982
160.788	152.238
163.681	303.705
166.574	517.608
169.466	645.602
172.359	881.693
175.252	821.51
178.144	849.916
181.037	614.301
183.93	464.046
186.822	324.635
189.715	141.312
192.608	21.9238
195.501	28.4365
198.393	18.6484
201.286	16.5342
204.179	38.6582
207.071	204.334
209.964	298.458
212.857	458.361
215.75	658.338
218.642	1054.22
221.535	1357.71
224.428	1801.29
227.32	2206.51
230.213	2665.27
233.106	2865.22
235.999	3378.18
238.891	3154.75
241.784	2992.78
244.677	2847.79
247.569	2460.68
250.462	2120.77
253.355	1940.1
256.247	1712.64
259.14	1610.46
262.033	1450.73
264.925	1372.49
267.818	1232.23
270.711	1142.73
273.604	1001.02
276.496	904.844
279.389	831.91
282.282	687.054
285.174	606.769
288.067	494.198
290.96	431.204
293.853	395.531
296.745	308.596
299.638	221.773
302.531	116.927
305.423	108.436
308.316	3.93945
311.209	51.6416
314.101	102.649
316.994	9.87598
319.887	53.9873
322.779	52.9336
325.672	18.0664
328.565	14.2832
331.458	28.9648
334.35	3.64062
337.243	9.03711
340.136	5.13672
343.028	91.0586
345.921	185.64
348.814	256.644
351.707	403.683
354.599	564.107
357.492	728.339
360.385	945.636
363.277	1343.24
366.17	1736.65
369.063	2259.49
371.955	2894.4
374.848	3455.91
377.741	3867.75
380.634	4023.64
383.526	3956.99
386.419	3630.48
389.312	3188.02
392.204	2828.69
395.097	2593.3
397.99	2383.8
400.882	2176.02
403.775	2222.74
406.668	2180.86
409.56	2430.21
412.453	2336.75
415.346	2408.77
418.239	2432.98
421.131	2251.6
424.024	2034.79
426.917	1793.7
429.81	1660.11
432.702	1330.83
435.595	1027.46
438.488	670.043
441.38	410.388
444.273	183.505
447.166	55.5742
450.058	50.623
452.951	0.178711
455.844	199.014
458.736	500.727
461.629	848.891
464.522	1348.4
467.415	2055.7
470.307	2841.99
473.2	3684.08
476.093	4534.93
478.985	5077.77
481.878	5456.97
484.771	6177.69
487.663	7074.23
490.556	7947.92
493.449	8212.91
496.342	7412.8
499.234	5672.77
502.127	3915.99
505.02	2369.02
507.912	1430.48
510.805	839.654
513.698	519.652
516.591	314.323
519.483	56.5703
522.376	10.3935
525.269	58.7822
528.161	148.161
531.054	40.1543
533.947	58.8262
536.839	57.79
539.732	28.3691
542.625	39.582
545.518	110.046
548.41	173.185
551.303	294.178
554.196	276.326
557.088	364.288
559.981	446.826
562.874	489.91
565.766	485.523
568.659	431.025
571.552	507.489
574.444	443.743
577.337	401.312
580.23	485.129
583.123	377.842
586.015	394.144
588.908	254.499
591.801	180.958
594.693	272.433
597.586	119.081
600.479	122.003
603.372	79.4062
606.264	51.581
609.157	89.707
612.05	125.137
614.942	198.072
617.835	179.43
620.728	267.84
623.62	262.903
626.513	296.151
629.406	347.089
632.299	347.01
635.191	411.002
638.084	448.733
640.977	435.499
643.869	494.173
646.762	499.258
649.655	398.604
652.548	382.163
655.44	280.46
658.333	257.22
661.226	239.081
664.118	151.559
667.011	212.261
669.904	174.863
672.796	55.8662
675.689	87.6123
678.582	60.8779
681.475	40.0908
684.367	18.2773
687.26	7.20703
690.153	53.9727
693.045	15.4815
695.938	3.0791
698.831	17.1631
701.723	2.36523
704.616	92.2734
707.509	29.6426
710.402	4.01953
713.294	45.9815
716.187	157.108
719.08	178.311
721.972	88.1143
724.865	112.548
727.758	96.9697
730.65	282.681
733.543	244.095
736.436	298.858
739.329	359.83
742.221	347.843
745.114	381.217
748.007	415.733
750.899	487.651
753.792	432.079
756.685	506.472
759.577	558.551
762.47	649.111
765.363	699.126
768.256	817.831
771.148	822.423
774.041	842.946
776.934	793.063
779.826	840.075
782.719	863.106
785.612	894.965
788.505	968.487
791.397	1011.19
794.29	1010.02
797.183	1124.45
800.075	947.029
802.968	920.41
805.861	670.722
808.753	603.854
811.646	492.477
814.539	431.171
817.432	341.144
820.324	287.698
823.217	183.997
826.11	218.135
829.002	128.606
831.895	64.1572
834.788	43.126
837.68	71.3144
840.573	14.5742
843.466	43.8008
846.359	64.0635
849.251	27.748
852.144	10.4824
855.037	1.54981
857.929	61.1562
860.822	27.8447
863.715	20.4336
866.607	119.65
869.5	9.2041
872.393	25.6074
875.285	102.019
878.178	148.25
881.071	95.5039
883.964	197.614
886.856	111.444
889.749	76.8096
892.642	149.804
895.534	121.264
898.427	129.298
901.32	111.212
904.212	55.8906
907.105	153.345
909.998	88.9453
912.891	17.915
915.783	27.4717
918.676	124.158
921.569	59.9453
924.461	63.8652
927.354	92.2881
930.247	96.7061
933.139	113.167
936.032	116.349
938.925	97.21
941.818	95.083
944.71	96.7803
947.603	84.7529
950.496	53.4199
953.388	57.0859
956.281	74.9551
959.174	28.2959
962.067	116.197
964.959	31.0469
967.852	58.834
970.745	63.6748
973.637	73.0576
976.53	38.043
979.423	11.0068
982.315	22.4307
985.208	101.368
988.101	34.5264
990.994	20.7432
993.886	81.9141
996.779	25.5078
999.672	15.1299
1002.56	48.3935
1005.46	36.4951
1008.35	31.9131
1011.24	89.4287
1014.13	72.1201
1017.03	157.941
1019.92	77.7627
1022.81	214.586
1025.71	192.856
1028.6	239.695
1031.49	211.715
1034.38	213.434
1037.28	229.129
1040.17	220.615
1043.06	228.795
1045.95	258.534
1048.85	144.06
1051.74	99.6045
1054.63	132.48
1057.53	98.3184
1060.42	83.6934
1063.31	85.6924
1066.2	40.5674
1069.1	188.501
1071.99	134.304
1074.88	197.039
1077.78	317.368
1080.67	415.787
1083.56	513.898
1086.45	523.695
1089.35	658.422
1092.24	779.515
1095.13	828.209
1098.02	905.072
1100.92	829.032
1103.81	772.437
1106.7	820.948
1109.59	923.017
1112.49	854.32
1115.38	858.875
1118.27	669.519
1121.16	673.21
1124.06	686.208
1126.95	716.908
1129.84	716.203
1132.74	642.863
1135.63	516.652
1138.52	468.324
1141.41	512.012
1144.31	501.491
1147.2	420.464
1150.09	332.55
1152.98	326.474
1155.88	276.711
1158.77	99.4932
1161.66	134.665
1164.56	324.271
1167.45	90.2422
1170.34	122.121
1173.23	84.4699
1176.13	105.762
1179.02	38.5322
1181.91	77.3125
1184.81	21.8184
1187.7	48.0569
1190.59	35.7737
1193.48	17.5342
1196.38	13.333
1199.27	43.8477
1202.16	16.7832
1205.05	84.9873
1207.95	32.8623
1210.84	113.236
1213.73	65.2803
1216.62	70.1689
1219.52	124.035
1222.41	42.6914
1225.3	10.5918
1228.19	1.58984
1231.09	3.01856
1233.98	252.363
1236.87	161.159
1239.77	91.6621
1242.66	136.109
1245.55	151.198
1248.44	199.525
1251.34	182.881
1254.23	317.254
1257.12	307.555
1260.02	279.996
1262.91	187.619
1265.8	165.998
1268.69	185.456
1271.59	100.24
1274.48	59.8633
1277.37	125.224
1280.26	147.426
1283.16	127.409
1286.05	48.999
1288.94	35.7393
1291.83	0
