Measurement: Raman, 532 nm, unoriented, Raman Data Processed
Mineral: Brewsterite-Sr
Rruff sample: R070227
Ideal chemistry: Sr(Al_2_Si_6_)O_16_5H_2_O
Locality: Strontian, North West Highlands (Argyllshire), Scotland, UK
Source: Michael Scott
Description: Colorless to off-white striated prismatic crystals associated with calcite and pyrite on gneissic matrix
Raman shift (cm-1)	intensity
140.502	0
143.876	13.6106
147.251	53.9468
150.626	198.867
154.001	470.191
157.376	634.401
160.75	872.023
164.125	1071.21
167.5	1220.1
170.875	1232.16
174.25	1017.27
177.625	784.335
180.999	520.493
184.374	325.957
187.749	210.846
191.124	80.1809
194.499	56.3347
197.874	14.4319
201.248	16.1594
204.623	7.70898
207.998	47.4665
211.373	92.2776
214.748	171.526
218.122	298.899
221.497	459.024
224.872	700.284
228.247	922.493
231.622	1250.62
234.996	1506.44
238.371	1776.74
241.746	1895.7
245.121	1863.23
248.496	1635.83
251.871	1416.97
255.245	1145.32
258.62	958.218
261.995	737.561
265.37	596.98
268.745	444.337
272.12	359.222
275.494	238.869
278.869	192.256
282.244	120.698
285.619	90.5769
288.994	59.8704
292.368	20.9014
295.743	26.3196
299.118	8.55713
302.493	5.04541
305.868	16.2258
309.243	11.054
312.617	46.6372
315.992	11.4072
319.367	11.2092
322.742	21.6043
326.117	40.2293
329.491	132.986
332.866	94.3831
336.241	141.67
339.616	177.646
342.991	264.103
346.365	280.519
349.74	358.599
353.115	447.03
356.49	584.621
359.865	818.112
363.24	1138.02
366.614	1528.85
369.989	2060.64
373.364	2702.08
376.739	3279.41
380.114	3522.89
383.488	3442.1
386.863	3036.15
390.238	2602.81
393.613	2228.58
396.988	1962.19
400.363	1844.56
403.737	1769.48
407.112	1731.52
410.487	1697.69
413.862	1695.34
417.237	1643.58
420.611	1541.55
423.986	1381.36
427.361	1234.8
430.736	963.173
434.111	670.315
437.486	395.718
440.86	158.895
444.235	17.344
447.61	41.7105
450.985	48.8701
454.36	18.0391
457.735	128.555
461.109	387.777
464.484	717.815
467.859	1266.98
471.234	1935.13
474.609	2743.61
477.983	3522.42
481.358	4402.9
484.733	5502.58
488.108	7091.99
491.483	8403.7
494.858	8510.85
498.232	6965.04
501.607	4730.32
504.982	2904.38
508.357	1707.96
511.732	996.447
515.106	585.609
518.481	351.355
521.856	211.96
525.231	109.357
528.606	46.1655
531.981	22.0591
535.355	4.29248
538.73	28.7262
542.105	23.3356
545.48	19.3704
548.855	10.3837
552.229	39.7452
555.604	11.4436
558.979	77.8373
562.354	76.6624
565.729	101.536
569.104	131.595
572.478	124.419
575.853	131.434
579.228	172.345
582.603	202.367
585.978	175.447
589.352	229.531
592.727	198.068
596.102	185.266
599.477	180.382
602.852	181.918
606.227	220.164
609.601	222.145
612.976	288.302
616.351	328.619
619.726	361.086
623.101	370.27
626.476	317.407
629.85	306.652
633.225	299.226
636.6	309.97
639.975	308.824
643.35	307.977
646.724	265.359
650.099	228.691
653.474	190.698
656.849	139.746
660.224	104.121
663.598	68.4352
666.973	40.9712
670.348	32.9952
673.723	16.2607
677.098	17.9004
680.472	12.3649
683.847	2.25818
687.222	9.50696
690.597	3.93042
693.972	20.2579
697.347	2.96326
700.721	3.65576
704.096	7.33228
707.471	19.9081
710.846	22.0333
714.221	20.6469
717.596	51.7726
720.97	77.1834
724.345	91.3629
727.72	90.1355
731.095	110.217
734.47	119.641
737.844	121.08
741.219	164.002
744.594	158.927
747.969	161.22
751.344	203.108
754.719	229.903
758.093	244.603
761.468	318.741
764.843	360.24
768.218	390.339
771.593	384.685
774.967	424.518
778.342	439.597
781.717	410.29
785.092	416.985
788.467	393.986
791.842	380.69
795.216	342.731
798.591	322.334
801.966	271.007
805.341	188.991
808.716	144.968
812.091	101.686
815.465	65.3724
818.84	25.8478
822.215	28.7272
825.59	3.75427
828.965	0.137024
832.339	7.25592
835.714	0.380005
839.089	1.16083
842.464	7.65979
845.839	17.2398
849.213	9.43829
852.588	32.7333
855.963	21.5567
859.338	8.15521
862.713	7.91077
866.087	43.0516
869.462	33.2565
872.837	0.409363
876.212	42.9049
879.587	51.4948
882.962	33.3288
886.337	52.6645
889.711	37.2579
893.086	50.3698
896.461	49.0726
899.836	43.0456
903.211	48.2602
906.585	59.5543
909.96	38.3913
913.335	23.0176
916.71	45.0383
920.085	30.7598
923.46	28.9918
926.834	18.4575
930.209	19.9463
933.584	9.78809
936.959	18.4007
940.334	3.66388
943.708	1.70612
947.083	16.0377
950.458	22.0795
953.833	59.3236
957.208	100.099
960.582	159.126
963.957	242.809
967.332	306.018
970.707	343.955
974.082	357.768
977.457	317.816
980.831	303.019
984.206	265.098
987.581	225.913
990.956	178.696
994.331	177.862
997.705	116.75
1001.08	113.641
1004.46	41.2405
1007.83	40.405
1011.21	63.6223
1014.58	63.8983
1017.95	59.0851
1021.33	34.078
1024.7	50.5042
1028.08	104.945
1031.45	68.0985
1034.83	51.1644
1038.2	58.9605
1041.58	37.8176
1044.95	23.355
1048.33	13.0909
1051.7	0.166382
1055.08	19.5035
1058.45	11.8503
1061.83	4.1936
1065.2	50.1411
1068.58	50.3875
1071.95	62.5494
1075.33	128.149
1078.7	144.188
1082.08	213.28
1085.45	254.014
1088.83	273.529
1092.2	357.633
1095.58	352.51
1098.95	443.794
1102.33	442.397
1105.7	444.589
1109.07	487.99
1112.45	504.805
1115.82	497.893
1119.2	547.136
1122.57	541.088
1125.95	561.173
1129.32	562.561
1132.7	560.915
1136.07	514.859
1139.45	475.778
1142.82	485.015
1146.2	445.937
1149.57	348.544
1152.95	261.036
1156.32	221.388
1159.7	171.106
1163.07	133.514
1166.45	92.3622
1169.82	69.0362
1173.2	25.3992
1176.57	24.4315
1179.95	25.1427
1183.32	47.5136
1186.69	16.1725
1190.07	15.3001
1193.44	19.967
1196.82	12.2277
1200.19	0.526794
1203.57	22.0325
1206.94	8.63123
1210.32	11.4006
1213.69	9.22345
1217.07	5.3443
1220.44	6.36127
1223.82	3.74664
1227.19	5.59082
1230.57	22.6517
1233.94	11.1218
1237.32	34.0129
1240.69	34.9844
1244.07	39.1259
1247.44	32.9064
1250.82	43.991
1254.19	57.3606
1257.57	59.1016
1260.94	47.0964
1264.32	70.8035
1267.69	53.8123
1271.07	34.0762
1274.44	61.2335
1277.82	41.8845
1281.19	36.7563
1284.57	46.2157
1287.94	18.502
1291.32	9.81049
1294.69	19.2632
1298.06	18.7266
1301.44	26.0112
1304.81	29.1237
