Measurement: Raman, 532 nm, unoriented, Raman Data Processed
Mineral: Brianyoungite
Rruff sample: R060431
Ideal chemistry: Zn_3_CO_3_(OH)_4_
Locality: Brownley Hill mine, Nenthead, Cumbria, England
Source: Michael Scott
Description: Sprays of white bladed crystals
Raman shift (cm-1)	intensity
159.917	0
162.81	2.89273
165.702	3.18729
168.595	6.90466
171.488	10.5062
174.381	7.47568
177.273	0.734833
180.166	1.90497
183.059	2.30383
185.951	9.15204
188.844	12.8295
191.737	22.9084
194.629	35.8458
197.522	55.4521
200.415	75.9043
203.308	102.401
206.2	116.015
209.093	136.178
211.986	161.36
214.878	169.407
217.771	160.585
220.664	143.097
223.556	123.869
226.449	97.7272
229.342	69.4076
232.234	51.8644
235.127	38.0288
238.02	28.8843
240.913	22.7348
243.805	17.441
246.698	15.0587
249.591	13.4154
252.483	17.6986
255.376	20.0879
258.269	18.6831
261.161	19.0818
264.054	23.2764
266.947	25.3789
269.84	26.9688
272.732	24.7345
275.625	21.0957
278.518	14.4953
281.41	9.33646
284.303	3.61334
287.196	4.54752
290.089	6.50821
292.981	6.33871
295.874	3.89768
298.767	5.00363
301.659	6.34598
304.552	5.93436
307.445	2.52939
310.337	1.67584
313.23	3.73785
316.123	0.035278
319.015	6.03683
321.908	0.438995
324.801	7.07373
327.694	10.1244
330.586	24.7368
333.479	40.091
336.372	57.7697
339.264	72.4451
342.157	88.7837
345.05	96.4332
347.942	93.3377
350.835	88.0635
353.728	77.1342
356.621	78.9384
359.513	80.096
362.406	89.2148
365.299	102.209
368.191	121.359
371.084	136.315
373.977	150.79
376.87	156.056
379.762	146.11
382.655	109.187
385.548	75.8673
388.44	41.887
391.333	23.7169
394.226	12.4939
397.118	2.84027
400.011	1.48889
402.904	1.08301
405.796	1.8501
408.689	5.85944
411.582	15.7614
414.475	24.9124
417.367	33.6463
420.26	43.895
423.153	48.1232
426.045	47.6848
428.938	44.0397
431.831	38.3506
434.724	30.7718
437.616	28.2875
440.509	22.0924
443.402	22.4035
446.294	16.2445
449.187	14.5073
452.08	13.5919
454.972	10.1561
457.865	9.77991
460.758	8.96472
463.651	7.1189
466.543	10.3312
469.436	7.43076
472.329	6.25967
475.221	1.11591
478.114	1.51654
481.007	4.74356
483.899	2.56094
486.792	3.74347
489.685	0.53183
492.577	0.663696
495.47	2.06546
498.363	7.58228
501.256	12.1508
504.148	11.0129
507.041	12.9463
509.934	16.9146
512.826	18.9166
515.719	21.5056
518.612	24.3031
521.505	27.0664
524.397	32.5894
527.29	33.3783
530.183	28.5951
533.075	25.4417
535.968	16.5825
538.861	10.7209
541.753	8.47433
544.646	2.59781
547.539	0.357391
550.432	1.52182
553.324	1.02081
556.217	0.215942
559.11	0.723633
562.002	1.05624
564.895	0.32782
567.788	3.72607
570.68	3.43826
573.573	4.35989
576.466	6.38077
579.359	8.93909
582.251	13.1864
585.144	15.8207
588.037	22.3359
590.929	27.2985
593.822	31.842
596.715	36.332
599.607	42.9646
602.5	42.7766
605.393	45.1578
608.285	46.2138
611.178	46.0296
614.071	43.2901
616.964	36.5131
619.856	31.5144
622.749	25.4903
625.642	27.7023
628.534	22.5721
631.427	23.19
634.32	25.8104
637.212	22.7234
640.105	22.9399
642.998	14.1976
645.891	13.2741
648.783	10.0365
651.676	6.63232
654.569	4.79233
657.461	0.675446
660.354	0.654175
663.247	1.6879
666.139	2.177
669.032	0.381592
671.925	3.68878
674.818	0.814056
677.71	4.54669
680.603	0.993286
683.496	0.969177
686.388	3.86981
689.281	8.01077
692.174	9.6618
695.067	22.2439
697.959	30.8303
700.852	50.4538
703.745	59.3682
706.637	41.5077
709.53	30.5789
712.423	24.3844
715.315	25.0586
718.208	27.8907
721.101	38.0462
723.994	54.4842
726.886	68.5032
729.779	89.0992
732.672	104.813
735.564	111.162
738.457	90.3062
741.35	65.9013
744.242	46.1287
747.135	30.2431
750.028	23.9014
752.92	14.977
755.813	10.2849
758.706	7.4729
761.599	6.14069
764.491	6.14862
767.384	3.21686
770.277	4.2818
773.169	3.4075
776.062	0.643341
778.955	2.30701
781.847	1.04855
784.74	3.284
787.633	0.214172
790.526	3.20728
793.418	2.49042
796.311	1.34247
799.204	1.97296
802.096	3.41495
804.989	1.24734
807.882	0.049744
810.774	0.147675
813.667	0.312988
816.56	2.07278
819.453	1.44833
822.345	2.87909
825.238	2.18042
828.131	1.75513
831.023	6.4046
833.916	6.1965
836.809	5.25198
839.702	2.04471
842.594	6.12396
845.487	6.69635
848.38	11.0989
851.272	7.25336
854.165	8.88788
857.058	10.4124
859.95	7.98755
862.843	9.90222
865.736	10.0842
868.629	8.1149
871.521	9.3551
874.414	7.20667
877.307	10.3464
880.199	12.5383
883.092	7.836
885.985	10.1188
888.877	12.5194
891.77	8.88992
894.663	5.9924
897.556	7.42923
900.448	8.29767
903.341	4.46695
906.234	2.07608
909.126	1.45737
912.019	3.0459
914.912	1.04233
917.804	0.697235
920.697	1.61215
923.59	0.10321
926.482	1.68137
929.375	2.29993
932.268	0.964874
935.161	0.317261
938.053	0.606415
940.946	3.30219
943.839	3.9201
946.731	8.09994
949.624	8.97195
952.517	23.3117
955.409	33.8205
958.302	53.2629
961.195	87.6013
964.088	133.416
966.98	194.616
969.873	278.458
972.766	351.943
975.658	355.576
978.551	326.463
981.444	307.912
984.337	265.417
987.229	194.764
990.122	115.515
993.015	65.5566
995.907	37.0823
998.8	17.6742
1001.69	12.4785
1004.59	6.4628
1007.48	4.63513
1010.37	0.69455
1013.26	2.51648
1016.16	2.36533
1019.05	2.99307
1021.94	3.12521
1024.83	6.31049
1027.73	11.3379
1030.62	21.915
1033.51	30.5433
1036.4	40.5247
1039.3	54.6953
1042.19	69.9902
1045.08	107.794
1047.98	159.299
1050.87	219.769
1053.76	302.597
1056.65	343.332
1059.55	262.788
1062.44	145.454
1065.33	80.0891
1068.22	48.4719
1071.12	32.0784
1074.01	20.9129
1076.9	15.3255
1079.8	8.83075
1082.69	10.0822
1085.58	11.7743
1088.47	14.6352
1091.37	18.9814
1094.26	27.9866
1097.15	20.1154
1100.04	8.00427
1102.94	0.394958
1105.83	1.9368
1108.72	1.84958
1111.62	2.98618
1114.51	0.556671
1117.4	3.03586
1120.29	6.79416
1123.19	3.63074
1126.08	4.86551
1128.97	3.8447
1131.86	5.12622
1134.76	4.16196
1137.65	4.24316
1140.54	3.84192
1143.43	4.0408
1146.33	5.25775
1149.22	6.5798
1152.11	5.25055
1155.01	9.40787
1157.9	9.79761
1160.79	12.3657
1163.68	11.0803
1166.58	9.29303
1169.47	6.71121
1172.36	6.35208
1175.26	3.14209
1178.15	4.04959
1181.04	2.00116
1183.93	2.69583
1186.83	0.822357
1189.72	0.161133
1192.61	0.289948
1195.5	0.579834
1198.4	3.88944
1201.29	0.431702
1204.18	0.814484
1207.07	3.16934
1209.97	2.04944
1212.86	1.02573
1215.75	4.20056
1218.64	3.4548
1221.54	0.93158
1224.43	3.55618
1227.32	6.7533
1230.22	3.76767
1233.11	4.31632
1236	4.60529
1238.89	4.67481
1241.79	1.40057
1244.68	2.66934
1247.57	5.21332
1250.46	4.70132
1253.36	5.56378
1256.25	4.7142
1259.14	4.72412
1262.04	6.39752
1264.93	2.48752
1267.82	5.7497
1270.71	5.89767
1273.61	4.42026
1276.5	3.75046
1279.39	4.06238
1282.29	2.94888
1285.18	0.817993
1288.07	0.831299
1290.96	3.02921
1293.86	2.00452
1296.75	3.54745
1299.64	3.49283
1302.53	0.146515
