Measurement: Raman, 780 nm, unoriented, Raman Data Processed
Mineral: Britvinite
Rruff sample: R070639
Ideal chemistry: Pb_14_Mg_9_Si_10_O_28_(BO_3_)_4_(CO_3_)_2_F_2_(OH)_12_
Locality: Kombat mine, Kombat, Grootfontein District, Otjozondjupa Region, Namibia
Source: William W. Pinch
Description: Colorless tabular crystals, associated with barite and red hematophanite R070638
Raman shift (cm-1)	intensity
154.718	0
157.611	158.639
160.503	0.970703
163.396	129.818
166.289	196.955
169.181	243.213
172.074	227.087
174.967	195.995
177.859	130.967
180.752	75.6211
183.645	185.217
186.538	145.075
189.43	161.157
192.323	258.68
195.216	326.353
198.108	351.952
201.001	413.317
203.894	139.296
206.786	3.51269
209.679	80.6064
212.572	79.7324
215.465	124.639
218.357	240.202
221.25	287.056
224.143	227.73
227.035	244.761
229.928	272.168
232.821	328.824
235.714	295.159
238.606	408.07
241.499	456.885
244.392	516.418
247.284	624.429
250.177	709.71
253.07	783.248
255.962	816.352
258.855	832.502
261.748	733.215
264.64	638.367
267.533	631.938
270.426	502.196
273.319	569.773
276.211	497.023
279.104	557.221
281.997	488.236
284.889	674.742
287.782	777.949
290.675	947.29
293.567	1121.91
296.46	1294.83
299.353	1433.74
302.246	1617.92
305.138	1515.17
308.031	1424.03
310.924	1277.22
313.816	1071.06
316.709	921.625
319.602	694.551
322.495	607.601
325.387	491.854
328.28	377.331
331.173	321.368
334.065	274.691
336.958	193.048
339.851	130.826
342.743	62.0596
345.636	24.2124
348.529	78.688
351.421	134.777
354.314	135.963
357.207	99.7969
360.1	0.803711
362.992	27.8355
365.885	14.9307
368.778	21.5684
371.67	50.8023
374.563	6.23242
377.456	72.8032
380.349	55.2705
383.241	73.1909
386.134	37.7803
389.027	97.8691
391.919	190.113
394.812	294.476
397.705	441.384
400.597	619.752
403.49	748.819
406.383	806.774
409.276	867.395
412.168	919.122
415.061	877.139
417.954	831.81
420.846	822.678
423.739	700.144
426.632	605.573
429.524	596.551
432.417	574.772
435.31	580.447
438.202	635.886
441.095	806.745
443.988	897.907
446.881	847.27
449.773	828.084
452.666	874.296
455.559	910.027
458.451	859.116
461.344	998.63
464.237	692.827
467.13	360.578
470.022	162.262
472.915	75.8804
475.808	70.7515
478.7	59.4082
481.593	71.4841
484.486	89.0452
487.378	7.38769
490.271	48.023
493.164	43.8591
496.057	48.7935
498.949	19.7239
501.842	59.4768
504.735	39.3115
507.627	54.2852
510.52	0.976563
513.413	60.0747
516.305	54.0207
519.198	70.4675
522.091	61.981
524.984	73.291
527.876	44.9124
530.769	22.6348
533.662	51.2405
536.554	67.8206
539.447	37.5388
542.34	67.0557
545.232	42.637
548.125	2.68994
551.018	1.62476
553.91	2.14795
556.803	25.7837
559.696	12.5481
562.589	8.06543
565.481	45.2244
568.374	36.3477
571.267	25.8147
574.159	105.856
577.052	75.2429
579.945	76.1011
582.837	105.056
585.73	113.394
588.623	137.45
591.516	156.544
594.408	178.133
597.301	148.226
600.194	103.573
603.086	113.677
605.979	180.318
608.872	151.325
611.764	137.123
614.657	193.742
617.55	230.413
620.443	223.758
623.335	139.326
626.228	107.841
629.121	135.659
632.013	116.37
634.906	96.5864
637.799	63.1472
640.692	49.998
643.584	63.2659
646.477	83.6118
649.37	129.269
652.262	75.7837
655.155	166.266
658.048	264.226
660.94	486.645
663.833	630.152
666.726	873.531
669.619	868.424
672.511	678.32
675.404	464.51
678.297	335.242
681.189	240.179
684.082	191.416
686.975	174.927
689.867	190.622
692.76	166.401
695.653	175.83
698.545	178.102
701.438	82.9329
704.331	50.9741
707.224	47.3789
710.116	61.3186
713.009	27.0781
715.902	37.8062
718.794	17.5049
721.687	13.8347
724.58	36.7119
727.472	7.83179
730.365	9.26489
733.258	44.1538
736.151	36.1475
739.043	35.7627
741.936	37.0242
744.829	2.80884
747.721	25.4229
750.614	34.7488
753.507	35.585
756.399	11.9114
759.292	34.3086
762.185	34.5342
765.078	24.7002
767.97	46.8462
770.863	57.4705
773.756	89.8919
776.648	92.3379
779.541	91.9939
782.434	89.3679
785.327	114.651
788.219	27.8423
791.112	45.2878
794.005	5.84644
796.897	36.1648
799.79	34.5837
802.683	60.8806
805.575	11.2979
808.468	78.2529
811.361	75.9043
814.254	85.9995
817.146	55.7085
820.039	77.865
822.932	42.397
825.824	19.6689
828.717	35.8357
831.61	4.25561
834.502	8.29932
837.395	63.4705
840.288	41.4993
843.181	90.8721
846.073	163.72
848.966	149.323
851.859	150.082
854.751	151.807
857.644	56.0964
860.537	15.981
863.429	3.36035
866.322	17.7891
869.215	16.8274
872.107	4.43091
875	7.10889
877.893	30.8145
880.786	82.6294
883.678	86.3469
886.571	140.478
889.464	205.048
892.356	293.017
895.249	333.874
898.142	415.245
901.034	493.257
903.927	558.316
906.82	643.585
909.713	666.216
912.605	397.999
915.498	238.923
918.391	188.386
921.283	149.227
924.176	130.157
927.069	67.4595
929.962	80.0217
932.854	95.1538
935.747	7.7356
938.64	61.8069
941.532	36.8752
944.425	18.8503
947.318	16.1787
950.21	11.21
953.103	0.673096
955.996	66.3015
958.889	62.063
961.781	124.838
964.674	100.79
967.567	184.631
970.459	264.245
973.352	438.436
976.245	850.192
979.137	1534.25
982.03	2173.12
984.923	2408.2
987.816	2883.38
990.708	2179.22
993.601	1243
996.494	842.057
999.386	518.131
1002.28	327.712
1005.17	159.039
1008.06	68.8352
1010.96	50.8469
1013.85	11.8904
1016.74	21.4255
1019.63	7.03686
1022.53	43.626
1025.42	174.875
1028.31	370.315
1031.21	768.911
1034.1	1359.78
1036.99	1856.76
1039.88	2448.31
1042.78	2643.34
1045.67	2811.08
1048.56	2752.74
1051.45	1759.49
1054.35	1160.35
1057.24	609.584
1060.13	246.565
1063.03	133.063
1065.92	101.403
1068.81	53.291
1071.7	69.9014
1074.6	27.0557
1077.49	129.011
1080.38	83.0823
1083.28	101.839
1086.17	109.158
1089.06	159.991
1091.95	192.581
1094.85	242.88
1097.74	221.541
1100.63	249.578
1103.52	138.172
1106.42	142.416
1109.31	51.2095
1112.2	17.3735
1115.09	4.61523
1117.99	22.8555
1120.88	19.5832
1123.77	12.8811
1126.66	16.8718
1129.56	17.6677
1132.45	41.8369
1135.34	74.2017
1138.24	107.128
1141.13	129.352
1144.02	161.557
1146.91	122.516
1149.81	86.5005
1152.7	58.9214
1155.59	46.1748
1158.48	77.6055
1161.38	59.3687
1164.27	42.6457
1167.16	9.34521
1170.06	87.6809
1172.95	28.6243
1175.84	63.4961
1178.73	103.582
1181.63	48.2417
1184.52	27.8105
1187.41	44.1562
1190.3	24.0689
1193.2	33.9844
1196.09	77.1636
1198.98	0.682129
