Measurement: Raman, 532 nm, unoriented, Raman Data Processed
Mineral: Britvinite
Rruff sample: R060785
Ideal chemistry: Pb_14_Mg_9_Si_10_O_28_(BO_3_)_4_(CO_3_)_2_F_2_(OH)_12_
Locality: Langban, Filipstad, Varmland, Sweden
Source: Michael Scott
Description: Pale green platy crystals, associated with colorless barytocalcite R120099 and black hausmannite
Raman shift (cm-1)	intensity
180.648	0
183.541	14.3421
186.433	45.907
189.326	77.7288
192.219	130.699
195.112	177.682
198.004	237.503
200.897	252.441
203.79	199.802
206.682	129.528
209.575	81.3857
212.468	64.063
215.36	54.8004
218.253	59.4564
221.146	66.8956
224.038	39.5083
226.931	21.2536
229.824	5.6102
232.717	0.018677
235.609	1.36957
238.502	0.901367
241.395	4.37289
244.287	6.10251
247.18	1.31445
250.073	3.21527
252.965	1.67285
255.858	0.742004
258.751	5.97003
261.644	12.2674
264.536	19.6104
267.429	26.2464
270.322	36.0803
273.214	49.0179
276.107	55.9449
279	63.3721
281.892	63.9586
284.785	60.9744
287.678	44.3678
290.571	26.5817
293.463	16.7789
296.356	8.40118
299.249	0.874695
302.141	0.954926
305.034	0.901764
307.927	1.21069
310.82	3.80521
313.712	13.4842
316.605	16.2927
319.498	24.5787
322.39	28.0399
325.283	27.1303
328.176	32.8297
331.068	33.2281
333.961	37.2204
336.854	45.4392
339.747	61.1912
342.639	81.1853
345.532	105.886
348.425	131.642
351.317	164.318
354.21	187.535
357.103	182.686
359.995	142.763
362.888	96.1461
365.781	64.1835
368.673	49.7561
371.566	36.2866
374.459	29.4542
377.352	16.7139
380.244	12.0743
383.137	5.92804
386.03	0.197174
388.922	0.793915
391.815	0.663544
394.708	3.39945
397.601	0.829376
400.493	5.75302
403.386	7.63159
406.279	9.9295
409.171	14.8496
412.064	13.3816
414.957	14.7009
417.849	23.1212
420.742	20.1883
423.635	22.9877
426.527	28.0532
429.42	22.3978
432.313	22.851
435.206	25.8979
438.098	25.8284
440.991	23.3713
443.884	21.301
446.776	18.7231
449.669	12.2528
452.562	13.2877
455.454	10.9501
458.347	9.66925
461.24	3.77121
464.133	3.94006
467.025	0.668976
469.918	2.40445
472.811	0.91156
475.703	4.0397
478.596	3.75357
481.489	2.19196
484.382	1.81964
487.274	6.74576
490.167	3.40854
493.06	2.77005
495.952	2.51825
498.845	6.47687
501.738	1.15152
504.63	6.60092
507.523	7.32165
510.416	3.90616
513.308	11.224
516.201	7.75382
519.094	9.71143
521.987	12.3802
524.879	10.1605
527.772	6.51126
530.665	8.7522
533.557	5.21213
536.45	6.10431
539.343	6.9997
542.236	8.99225
545.128	9.37747
548.021	12.8727
550.914	18.5562
553.806	16.1445
556.699	17.9473
559.592	17.2619
562.484	17.7161
565.377	24.8074
568.27	23.5579
571.163	24.8132
574.055	26.3099
576.948	33.7422
579.841	31.8388
582.733	32.5312
585.626	29.3532
588.519	27.1594
591.411	26.5779
594.304	20.4434
597.197	12.7008
600.09	11.1751
602.982	4.49081
605.875	0.455231
608.768	4.8212
611.66	0.72467
614.553	1.40655
617.446	1.6033
620.338	1.21567
623.231	4.20532
626.124	14.1027
629.016	23.6419
631.909	35.5498
634.802	55.7253
637.695	80.0104
640.587	100.489
643.48	132.054
646.373	160.423
649.265	186.645
652.158	205.737
655.051	226.024
657.943	226.715
660.836	217.483
663.729	199.18
666.622	181.853
669.514	167.535
672.407	166.674
675.3	170.564
678.192	175.014
681.085	178.68
683.978	175.439
686.87	161.768
689.763	140.77
692.656	115.181
695.549	85.8646
698.441	63.4948
701.334	49.199
704.227	29.049
707.119	23.7891
710.012	17.8379
712.905	10.0795
715.798	5.02383
718.69	2.07669
721.583	4.02582
724.476	0.278046
727.368	0.699402
730.261	1.07983
733.154	2.73984
736.046	0.316925
738.939	1.3848
741.832	1.8829
744.725	1.24365
747.617	0.237
750.51	1.2225
753.403	0.344452
756.295	0.817657
759.188	1.45474
762.081	4.38959
764.973	5.45312
767.866	4.19489
770.759	3.80881
773.652	4.14157
776.544	7.33096
779.437	5.91708
782.33	6.58756
785.222	5.38489
788.115	6.98923
791.008	4.69629
793.9	7.01709
796.793	1.90256
799.686	2.92697
802.578	6.17566
805.471	3.05475
808.364	5.77936
811.257	2.0329
814.149	2.18091
817.042	2.67776
819.935	6.40561
822.827	6.3569
825.72	5.51535
828.613	5.48953
831.505	5.35233
834.398	3.83252
837.291	5.4765
840.184	1.24558
843.076	2.08356
845.969	8.76169
848.862	3.55228
851.754	2.57202
854.647	4.21677
857.54	5.31552
860.433	2.76425
863.325	4.67078
866.218	2.69046
869.111	1.08285
872.003	3.77039
874.896	0.763763
877.789	3.00842
880.681	1.49942
883.574	0.406616
886.467	0.064301
889.36	2.28708
892.252	0.618835
895.145	0.310608
898.038	1.54877
900.93	1.37543
903.823	2.9827
906.716	8.51373
909.608	12.1426
912.501	8.65097
915.394	8.76987
918.287	9.7402
921.179	10.7651
924.072	10.3576
926.965	8.97412
929.857	15.0327
932.75	10.8884
935.643	14.0593
938.535	12.0932
941.428	10.761
944.321	6.7843
947.213	6.23227
950.106	3.1608
952.999	2.57629
955.892	1.95633
958.784	2.27121
961.677	2.28189
964.57	3.69638
967.462	2.60892
970.355	3.27298
973.248	2.41586
976.14	5.30356
979.033	4.29831
981.926	7.36761
984.819	6.91836
987.711	7.85651
990.604	13.7351
993.497	11.4525
996.389	10.6799
999.282	15.733
1002.17	16.31
1005.07	20.4751
1007.96	20.8939
1010.85	19.6221
1013.75	18.5608
1016.64	18.6215
1019.53	18.0221
1022.42	18.6976
1025.32	15.5065
1028.21	17.2564
1031.1	19.3805
1033.99	19.3574
1036.89	18.1764
1039.78	18.4775
1042.67	16.8395
1045.57	15.5428
1048.46	18.7399
1051.35	16.9056
1054.24	19.5282
1057.14	23.9574
1060.03	22.5132
1062.92	18.486
1065.81	18.833
1068.71	13.0615
1071.6	6.13007
1074.49	6.70007
1077.38	5.57519
1080.28	0.166321
1083.17	1.58588
1086.06	5.27405
1088.96	2.68329
1091.85	2.57257
1094.74	2.0578
1097.63	1.90356
1100.53	4.32642
1103.42	2.70569
1106.31	1.58051
1109.2	0.48114
1112.1	6.22156
1114.99	0.989014
1117.88	1.66663
1120.78	0.396851
1123.67	2.2912
1126.56	1.77673
1129.45	3.03607
1132.35	4.32294
1135.24	4.64343
1138.13	7.42932
1141.02	5.04669
1143.92	8.7655
1146.81	4.58411
1149.7	4.15125
1152.6	5.39581
1155.49	2.50653
1158.38	2.45429
1161.27	9.43109
1164.17	4.41052
1167.06	7.09405
1169.95	6.38214
1172.84	7.52924
1175.74	4.60095
1178.63	2.50958
1181.52	5.32928
1184.41	7.30377
1187.31	3.49713
1190.2	4.35864
1193.09	3.61523
1195.99	0.781433
1198.88	5.84387
1201.77	1.56586
1204.66	3.17444
1207.56	7.80133
1210.45	4.18304
1213.34	6.94208
1216.23	4.94409
1219.13	0.561096
1222.02	0.911255
1224.91	5.02228
1227.81	3.27228
1230.7	5.9126
1233.59	5.47113
1236.48	0.709534
1239.38	0.117981
1242.27	0.979614
1245.16	1.91071
1248.05	4.42377
1250.95	4.43823
1253.84	2.01685
1256.73	3.55249
1259.62	4.01263
1262.52	3.78583
1265.41	4.4693
1268.3	7.06909
1271.2	5.54767
1274.09	2.9483
1276.98	5.65424
1279.87	1.89191
1282.77	0.956909
1285.66	4.40576
1288.55	7.8244
1291.44	3.64673
1294.34	0.873657
1297.23	3.33551
1300.12	6.7525
1303.02	0
