Measurement: Raman, 532 nm, unoriented, Raman Data Processed
Mineral: Britvinite
Rruff sample: R070639
Ideal chemistry: Pb_14_Mg_9_Si_10_O_28_(BO_3_)_4_(CO_3_)_2_F_2_(OH)_12_
Locality: Kombat mine, Kombat, Grootfontein District, Otjozondjupa Region, Namibia
Source: William W. Pinch
Description: Colorless tabular crystals, associated with barite and red hematophanite R070638
Raman shift (cm-1)	intensity
156.286	0
159.179	36.7441
162.071	14.752
164.964	74.8711
167.857	98.209
170.75	116.323
173.642	346.089
176.535	370.247
179.428	419.152
182.32	229.797
185.213	106.637
188.106	5.67383
190.998	20.5908
193.891	147.38
196.784	240.31
199.677	210.381
202.569	105.523
205.462	45.0586
208.355	85.8652
211.247	7.7832
214.14	38.5322
217.033	208.376
219.925	194.629
222.818	150.651
225.711	203.454
228.603	261.275
231.496	372.426
234.389	486.478
237.282	672.501
240.174	934.477
243.067	1253.24
245.96	1450.14
248.852	1756.08
251.745	2091.83
254.638	2260.31
257.531	2001.72
260.423	1737.79
263.316	1568.48
266.209	1371.18
269.101	1477.79
271.994	1249.31
274.887	1091.35
277.779	976.542
280.672	1109.95
283.565	1280.74
286.457	1539.25
289.35	1909.23
292.243	2289.7
295.136	2742.66
298.028	3350.47
300.921	3765.3
303.814	4154.11
306.706	4335.91
309.599	4157.64
312.492	3650.18
315.385	3145.98
318.277	2646.43
321.17	2353.45
324.063	2047.05
326.955	1644.88
329.848	1510.38
332.741	1327.63
335.633	1086.54
338.526	812.35
341.419	560.29
344.312	436.797
347.204	415.617
350.097	505.936
352.99	569.312
355.882	317.517
358.775	139.975
361.668	34.5652
364.56	37.4868
367.453	2.72339
370.346	103.024
373.238	62.0007
376.131	73.7556
379.024	18.477
381.917	20.2744
384.809	94.2161
387.702	242.376
390.595	540.016
393.487	754.574
396.38	988.729
399.273	1199.9
402.166	1539.2
405.058	1741.19
407.951	1994.62
410.844	2145.45
413.736	2273.15
416.629	2447.05
419.522	2373.92
422.414	2255.02
425.307	2146.89
428.2	2016.39
431.092	1872.86
433.985	1775.55
436.878	1676.24
439.771	1619.27
442.663	1622.36
445.556	1586.39
448.449	1460.7
451.341	1299.39
454.234	1172.05
457.127	995.078
460.019	880.817
462.912	695.376
465.805	497.873
468.697	282.319
471.59	202.143
474.483	182.491
477.376	201.034
480.268	226.981
483.161	194.542
486.054	187.985
488.946	87.7349
491.839	141.583
494.732	83.7623
497.625	76
500.517	21.8783
503.41	65.8252
506.303	75.2991
509.195	75.4176
512.088	81.276
514.981	100.505
517.873	174.659
520.766	135.351
523.659	121.439
526.552	74.7341
529.444	65.1576
532.337	6.8313
535.23	39.5663
538.122	8.8794
541.015	24.5553
543.908	65.254
546.8	56.9021
549.693	33.5411
552.586	16.828
555.479	77.9351
558.371	113.694
561.264	137.19
564.157	178.689
567.049	190.457
569.942	219.017
572.835	278.977
575.727	320.813
578.62	394.501
581.513	482.753
584.405	570.182
587.298	667.406
590.191	727.242
593.084	753.467
595.976	704.223
598.869	626.187
601.762	441.704
604.654	349.832
607.547	240.988
610.44	215.916
613.332	220.806
616.225	254.949
619.118	195.326
622.011	153.909
624.903	83.8248
627.796	99.4668
630.689	58.9919
633.581	64.5151
636.474	1.16162
639.367	14.9117
642.26	0.921997
645.152	38.5192
648.045	94.1134
650.938	171.672
653.83	344.147
656.723	580.572
659.616	934.315
662.508	1443.46
665.401	2124.38
668.294	2390.04
671.187	1942.63
674.079	1299.93
676.972	801.037
679.865	608.04
682.757	532.323
685.65	534.688
688.543	537.793
691.435	624.103
694.328	608.236
697.221	441.193
700.114	273.546
703.006	183.646
705.899	98.635
708.792	108.647
711.684	70.2722
714.577	103.43
717.47	115.509
720.362	56.9546
723.255	29.748
726.148	12.6677
729.04	30.2162
731.933	5.64978
734.826	4.55481
737.719	38.2137
740.611	19.9692
743.504	41.333
746.397	24.762
749.289	21.816
752.182	5.34607
755.075	5.35242
757.967	20.0734
760.86	37.9088
763.753	43.2406
766.646	85.8241
769.538	93.1553
772.431	178.689
775.324	179.189
778.216	186.168
781.109	147.37
784.002	128.617
786.894	93.8608
789.787	25.9189
792.68	10.6506
795.573	31.517
798.465	74.5308
801.358	131.805
804.251	142.565
807.143	148.556
810.036	123.602
812.929	163.657
815.822	210.3
818.714	201.45
821.607	156.227
824.5	109.379
827.392	113.388
830.285	66.836
833.178	37.0228
836.07	51.4571
838.963	116.884
841.856	208.04
844.748	352.231
847.641	392.596
850.534	283.335
853.427	132.326
856.319	62.0383
859.212	8.79102
862.105	5.97217
864.997	10.1373
867.89	15.7231
870.783	11.452
873.675	60.1324
876.568	105.704
879.461	185.221
882.354	310.416
885.246	439.498
888.139	617.143
891.032	757.015
893.924	845.337
896.817	971.224
899.71	1182.58
902.602	1337.17
905.495	1355.78
908.388	1250.06
911.28	909.94
914.173	693.104
917.066	585.264
919.959	465.558
922.851	378.218
925.744	313.481
928.637	218.461
931.529	204.839
934.422	215.684
937.315	123.113
940.207	60.4977
943.1	12.2329
945.993	12.7131
948.886	68.8502
951.778	31.3352
954.671	73.6183
957.564	141.48
960.456	200.3
963.349	294.141
966.242	343.13
969.135	432.594
972.027	654.323
974.92	1014.2
977.813	1561.58
980.705	2313.03
983.598	2545.43
986.491	3067.48
989.383	3579.55
992.276	3398.91
995.169	2895.99
998.062	2023.29
1000.95	1242.35
1003.85	677.965
1006.74	306.794
1009.63	94.2484
1012.52	17.6121
1015.42	65.9335
1018.31	0.951172
1021.2	138.452
1024.1	482.09
1026.99	1146.15
1029.88	2344.41
1032.77	4194.6
1035.67	6510.14
1038.56	8349.08
1041.45	9102.68
1044.35	8645.08
1047.24	7933.36
1050.13	5529
1053.02	3030.22
1055.92	1627.82
1058.81	677.004
1061.7	390.084
1064.59	242.008
1067.49	184.302
1070.38	149.386
1073.27	119.026
1076.16	175.178
1079.06	198.12
1081.95	265.316
1084.84	316.575
1087.73	380.848
1090.63	446.122
1093.52	536.714
1096.41	551.292
1099.31	534.017
1102.2	425.134
1105.09	302.089
1107.98	184.744
1110.88	116.603
1113.77	11.7723
1116.66	11.449
1119.56	22.0781
1122.45	12.5817
1125.34	30.0088
1128.23	23.6353
1131.13	16.0415
1134.02	26.8848
1136.91	53.5751
1139.8	81.0745
1142.7	43.7552
1145.59	120.376
1148.48	143.074
1151.38	148.753
1154.27	169.449
1157.16	217.345
1160.05	280.12
1162.94	369.927
1165.84	382.624
1168.73	433.051
1171.62	488.087
1174.52	559.602
1177.41	682.138
1180.3	641.486
1183.19	655.247
1186.09	666.161
1188.98	665.73
1191.87	645.655
1194.77	646.452
1197.66	601.01
1200.55	564.151
1203.44	628.956
1206.34	553.001
1209.23	509.645
1212.12	497.966
1215.01	495.306
1217.91	545.908
1220.8	579.675
1223.69	563.982
1226.59	494.703
1229.48	482.734
1232.37	441.258
1235.26	371.335
1238.16	345.973
1241.05	307.082
1243.94	217.691
1246.83	131.986
1249.73	140.363
1252.62	84.6128
1255.51	63.4305
1258.4	49.2914
1261.3	28.2317
1264.19	6.75476
1267.08	10.2541
1269.97	20.0846
1272.87	25.7752
1275.76	40.0306
1278.65	2.24219
1281.55	20.798
1284.44	20.5394
1287.33	61.5402
1290.22	29.9235
1293.12	33.8234
1296.01	48.5176
