Measurement: Raman, 780 nm, unoriented, Raman Data Processed
Mineral: Britvinite
Rruff sample: R060785
Ideal chemistry: Pb_14_Mg_9_Si_10_O_28_(BO_3_)_4_(CO_3_)_2_F_2_(OH)_12_
Locality: Langban, Filipstad, Varmland, Sweden
Source: Michael Scott
Description: Pale green platy crystals, associated with colorless barytocalcite R120099 and black hausmannite
Raman shift (cm-1)	intensity
148.975	0
151.868	0.305908
154.761	1.40405
157.654	0.254272
160.546	4.64148
163.439	13.4603
166.332	22.3939
169.224	31.6611
172.117	44.6605
175.01	70.4319
177.902	100.06
180.795	142.484
183.688	199.696
186.581	274.479
189.473	360.194
192.366	503.306
195.259	679.132
198.151	869.563
201.044	914.833
203.937	721.058
206.829	457.582
209.722	273.776
212.615	176.258
215.507	133.195
218.4	126.06
221.293	125.651
224.186	78.5614
227.078	47.5725
229.971	26.2141
232.864	15.8779
235.756	5.17822
238.649	22.7411
241.542	2.95679
244.435	7.54724
247.327	0.834595
250.22	1.89868
253.113	10.6897
256.005	4.07483
258.898	3.08569
261.791	11.0666
264.683	23.6342
267.576	27.418
270.469	41.889
273.361	50.7581
276.254	63.6918
279.147	88.8267
282.04	113.818
284.932	99.1643
287.825	93.3431
290.718	88.7688
293.61	66.5729
296.503	38.837
299.396	30.8009
302.288	22.5319
305.181	24.6679
308.074	40.6397
310.967	47.2671
313.859	50.7256
316.752	74.3719
319.645	69.9515
322.537	59.1837
325.43	41.8038
328.323	54.4678
331.216	39.7602
334.108	42.002
337.001	64.3214
339.894	75.8112
342.786	100.834
345.679	136.481
348.572	190.971
351.464	250.046
354.357	312.351
357.25	333.394
360.142	287.774
363.035	237.888
365.928	209.299
368.821	205
371.713	208.049
374.606	180.916
377.499	135.037
380.391	80.5234
383.284	45.2308
386.177	22.6897
389.07	16.2219
391.962	9.15234
394.855	1.24487
397.748	2.61096
400.64	0.368652
403.533	3.42188
406.426	2.41809
409.318	2.06824
412.211	1.77869
415.104	8.05041
417.997	9.74829
420.889	20.3308
423.782	10.7438
426.675	15.7567
429.567	8.04163
432.46	12.2798
435.353	20.3831
438.245	18.6513
441.138	12.5306
444.031	17.9866
446.923	20.002
449.816	11.7543
452.709	21.9801
455.602	18.271
458.494	13.3164
461.387	3.87292
464.28	4.68933
467.172	4.88623
470.065	15.1213
472.958	19.597
475.851	28.7407
478.743	24.4935
481.636	24.3119
484.529	19.1392
487.421	15.1562
490.314	6.75317
493.207	3.20642
496.099	13.7024
498.992	3.72046
501.885	0.741943
504.777	9.66162
507.67	3.12476
510.563	0.905396
513.456	5.26099
516.348	9.552
519.241	1.76692
522.134	1.07349
525.026	3.62585
527.919	4.30273
530.812	6.31519
533.705	0.348877
536.597	4.45837
539.49	7.42102
542.383	1.61572
545.275	0.964844
548.168	4.05396
551.061	5.87
553.953	14.3475
556.846	11.932
559.739	19.0696
562.631	12.4663
565.524	20.798
568.417	20.2235
571.31	17.0701
574.202	19.262
577.095	21.3315
579.988	16.5973
582.88	23.2602
585.773	28.1952
588.666	22.1668
591.558	8.19446
594.451	12.4573
597.344	9.37097
600.237	5.01306
603.129	7.56091
606.022	5.16736
608.915	1.79883
611.807	1.21753
614.7	3.37268
617.593	6.44885
620.486	7.26746
623.378	20.4943
626.271	26.4335
629.164	51.1992
632.056	71.9349
634.949	115.285
637.842	152.425
640.734	208.255
643.627	273.653
646.52	359.137
649.413	451.048
652.305	537.118
655.198	602.885
658.091	640.702
660.983	589.094
663.876	471.033
666.769	362.491
669.661	302.76
672.554	259.382
675.447	233.624
678.34	237.125
681.232	230.738
684.125	223.607
687.018	202.731
689.91	167.406
692.803	134.545
695.696	95.2825
698.588	68.5652
701.481	49.8624
704.374	33.1376
707.266	20.7642
710.159	20.3862
713.052	5.00793
715.945	3.85352
718.837	7.59998
721.73	5.81384
724.623	1.47693
727.515	1.3418
730.408	3.35498
733.301	4.64608
736.193	0.972168
739.086	2.26355
741.979	2.97632
744.872	3.0647
747.764	4.65649
750.657	3.51788
753.55	1.61853
756.442	3.05176
759.335	1.87463
762.228	1.35559
765.12	4.3678
768.013	8.13904
770.906	3.21387
773.799	7.63965
776.691	8.10413
779.584	12.5164
782.477	8.36096
785.369	3.14136
788.262	6.72107
791.155	18.5362
794.048	23.1268
796.94	9.42261
799.833	10.6705
802.726	10.3037
805.618	10.3696
808.511	9.99548
811.404	18.3344
814.296	12.4819
817.189	15.9677
820.082	17.1209
822.975	23.953
825.867	9.37183
828.76	17.7235
831.653	13.7219
834.545	7.82532
837.438	12.118
840.331	13.1768
843.223	10.8511
846.116	9.05579
849.009	10.3712
851.902	9.53424
854.794	8.41596
857.687	9.63226
860.58	3.40509
863.472	12.2142
866.365	4.3208
869.258	6.16888
872.15	5.74854
875.043	7.2066
877.936	5.18634
880.829	1.32404
883.721	4.36761
886.614	7.55926
889.507	1.53058
892.399	3.67902
895.292	2.78137
898.185	0.38269
901.077	4.67529
903.97	6.63782
906.863	9.46973
909.756	13.9349
912.648	10.7938
915.541	7.55237
918.434	16.3264
921.326	20.5182
924.219	7.60565
927.112	12.9284
930.005	10.55
932.897	21.0905
935.79	13.7264
938.683	13.8068
941.575	12.029
944.468	6.99182
947.361	7.42188
950.253	10.8649
953.146	0.57196
956.039	5.65491
958.932	1.98871
961.824	1.09814
964.717	4.3808
967.61	5.68573
970.502	9.53009
973.395	7.46576
976.288	4.8493
979.18	6.52478
982.073	17.3269
984.966	13.9766
987.859	12.0577
990.751	18.0567
993.644	18.6334
996.537	20.5917
999.429	29.0312
1002.32	27.6133
1005.22	25.0024
1008.11	30.3077
1011	32.6325
1013.89	30.9064
1016.78	37.0652
1019.68	31.4741
1022.57	34.4917
1025.46	30.3799
1028.36	30.8644
1031.25	40.5488
1034.14	37.2056
1037.03	49.6799
1039.93	44.9427
1042.82	45.7794
1045.71	40.7396
1048.61	48.0469
1051.5	43.0277
1054.39	45.0913
1057.28	42.5884
1060.18	46.0429
1063.07	42.236
1065.96	44.648
1068.85	33.3924
1071.75	24.3419
1074.64	16.8068
1077.53	8.04163
1080.42	4.62897
1083.32	13.0804
1086.21	9.04578
1089.1	11.908
1092	1.88403
1094.89	2.86035
1097.78	2.31311
1100.67	3.22809
1103.57	1.88702
1106.46	3.24261
1109.35	11.07
1112.24	5.00175
1115.14	0.94281
1118.03	2.87378
1120.92	3.98761
1123.82	9.73297
1126.71	3.63995
1129.6	9.97229
1132.49	9.17706
1135.39	5.13562
1138.28	7.50439
1141.17	8.07745
1144.06	10.2051
1146.96	18.4863
1149.85	6.62988
1152.74	7.89893
1155.63	16.5205
1158.53	7.77582
1161.42	5.52454
1164.31	4.46759
1167.21	4.7262
1170.1	7.64593
1172.99	3.68188
1175.88	6.6499
1178.78	5.88586
1181.67	13.1794
1184.56	1.35291
1187.45	2.91663
1190.35	7.16687
1193.24	11.7404
1196.13	3.41595
1199.03	7.86096
1201.92	4.04956
1204.81	4.09174
1207.7	1.85883
1210.6	4.59723
1213.49	3.66949
1216.38	0.365112
1219.27	9.05554
1222.17	1.63428
1225.06	11.1514
1227.95	8.06049
1230.85	1.28656
1233.74	1.01959
1236.63	4.89697
1239.52	6.39227
1242.42	0.758728
1245.31	4.11493
1248.2	5.9372
1251.09	3.78241
1253.99	0.778503
1256.88	2.42706
1259.77	7.89648
1262.66	8.0705
1265.56	3.78833
1268.45	4.15888
1271.34	4.26147
1274.24	3.56604
1277.13	1.85071
1280.02	5.51117
1282.91	0.953186
