Measurement: Raman, 780 nm, unoriented, Raman Data Processed
Mineral: Brizziite
Rruff sample: R060611
Ideal chemistry: NaSbO_3_
Locality: Le Cetine di Cotorniano, Chiusdino, Siena Province, Tuscany, Italy
Source: Michael Scott
Description: Colorless thin hexagonal plates associated with romeite, R060736
Measured chemistry: Na_1.00_Sb_1.00_O_3_; = gray phase with trace amounts of Fe; bright phase: stibiconite
Raman shift (cm-1)	intensity
93.9705	0
97.3453	13.5405
100.72	10.9648
104.095	106.945
107.47	220.339
110.845	315.864
114.219	359.978
117.594	365.816
120.969	339.249
124.344	351.684
127.719	260.847
131.094	192.813
134.468	133.837
137.843	83.3276
141.218	51.094
144.593	7.85864
147.968	14.147
151.342	32.981
154.717	17.2627
158.092	26.24
161.467	32.7815
164.842	50.9829
168.216	68.9085
171.591	86.7944
174.966	108.249
178.341	138.608
181.716	162.361
185.09	180.847
188.465	187.858
191.84	179.417
195.215	182.708
198.59	194.046
201.965	191.192
205.339	179.131
208.714	150.618
212.089	114.737
215.464	103.024
218.839	86.9033
222.214	72.7068
225.588	67.7285
228.963	54.2661
232.338	57.4085
235.713	39.6406
239.088	31.3938
242.462	34.1089
245.837	52.3935
249.212	70.3049
252.587	71.6653
255.962	76.9221
259.336	87.3289
262.711	97.6252
266.086	107.045
269.461	110.718
272.836	120.177
276.211	122.939
279.585	131.067
282.96	149.495
286.335	155.818
289.71	156.332
293.085	176.26
296.459	197.259
299.834	221.083
303.209	262.584
306.584	296.7
309.959	334.212
313.334	351.902
316.708	350.29
320.083	334.413
323.458	334.709
326.833	334.316
330.207	304.704
333.582	237.727
336.957	169.908
340.332	116.289
343.707	69.1851
347.082	41.3374
350.456	8.61206
353.831	5.09766
357.206	11.3782
360.581	13.0552
363.956	19.2993
367.33	11.5185
370.705	32.8682
374.08	48.0725
377.455	26.8762
380.83	16.2351
384.205	19.769
387.579	10.6502
390.954	26.5422
394.329	43.3342
397.704	48.1819
401.079	53.5388
404.453	66.4082
407.828	75.5127
411.203	84.9946
414.578	79.0635
417.953	66.2415
421.327	56.563
424.702	47.3115
428.077	36.8086
431.452	28.8826
434.827	26.2498
438.202	23.9778
441.576	27.5632
444.951	43.3396
448.326	63.354
451.701	118.017
455.076	183.085
458.45	250.554
461.825	335.873
465.2	466.211
468.575	600.418
471.95	756.677
475.325	1012.83
478.699	1406.9
482.074	1668.86
485.449	1403.4
488.824	1067.53
492.199	1024.72
495.573	1178.01
498.948	1430.87
502.323	1735.59
505.698	1961.4
509.073	1995.75
512.447	1779.73
515.822	1392.78
519.197	1051.03
522.572	821.562
525.947	685.249
529.322	583.081
532.696	497.673
536.071	427.327
539.446	378.912
542.821	314.805
546.196	259.529
549.57	207.8
552.945	153.322
556.32	94.1445
559.695	45.2761
563.07	12.071
566.444	1.51587
569.819	17.0554
573.194	24.6067
576.569	22.6113
579.944	21.2537
583.319	16.0894
586.693	8.20874
590.068	9.03174
593.443	21.2424
596.818	34.3267
600.193	43.5591
603.567	54.3445
606.942	79.4424
610.317	133.831
613.692	210.55
617.067	336.658
620.442	493.368
623.816	693.188
627.191	958.235
630.566	1272.2
633.941	1511.36
637.316	1358.74
640.69	901.975
644.065	578.744
647.44	427.006
650.815	371.585
654.19	381.421
657.564	469.724
660.939	606.293
664.314	513.847
667.689	400.977
671.064	377.681
674.439	367.462
677.813	358.938
681.188	360.542
684.563	350.011
687.938	350.377
691.313	344.594
694.688	331.076
698.062	302.514
701.437	280.283
704.812	249.712
708.187	215.53
711.562	186.115
714.936	164.714
718.311	119.554
721.686	100.801
725.061	79.593
728.436	62.8694
731.81	50.6377
735.185	39.8745
738.56	28.0759
741.935	17.9993
745.31	9.87769
748.684	3.87158
752.059	2.34619
755.434	1.01196
758.809	16.3264
762.184	18.8474
765.559	18.0442
768.933	8.42725
772.308	6.21753
775.683	24.2339
779.058	42.177
782.433	50.8926
785.808	72.8477
789.182	92.1685
792.557	96.9443
795.932	101.399
799.307	93.8984
802.682	90.6904
806.056	104.204
809.431	109.931
812.806	120.994
816.181	138.415
819.556	158.788
822.93	160.894
826.305	175.559
829.68	185.145
833.055	174.371
836.43	156.5
839.804	126.523
843.179	97.3436
846.554	86.3563
849.929	62.9333
853.304	41.2489
856.679	29.8768
860.053	20.2301
863.428	15.4062
866.803	10.4087
870.178	5.81067
873.553	1.74402
876.927	0.664307
880.302	1.34534
883.677	2.71631
887.052	0.329468
890.427	5.0426
893.802	6.96606
897.176	4.05664
900.551	10.1249
903.926	12.8029
907.301	20.8311
910.676	24.7505
914.05	27.6774
917.425	31.2719
920.8	41.7884
924.175	45.965
927.55	53.9091
930.924	51.0013
934.299	49.6815
937.674	65.0736
941.049	63.5287
944.424	62.1017
947.799	66.6335
951.173	76.6844
954.548	90.6981
957.923	96.889
961.298	100.917
964.673	109.975
968.047	108.675
971.422	111.557
974.797	106.322
978.172	96.3928
981.547	90.1245
984.922	81.2235
988.296	71.5643
991.671	61.7748
995.046	59.5011
998.421	46.5662
1001.8	26.4265
1005.17	12.3383
1008.54	6.80273
1011.92	0.517212
1015.29	0.80835
1018.67	2.33203
1022.04	0.055908
1025.42	7.05505
1028.79	1.36682
1032.17	12.5726
1035.54	36.5802
1038.92	39.4453
1042.29	46.8602
1045.67	47.0885
1049.04	51.9965
1052.42	53.15
1055.79	43.4434
1059.17	42.3335
1062.54	41.5544
1065.92	38.0488
1069.29	25.6064
1072.67	20.5933
1076.04	15.0957
1079.42	14.8223
1082.79	5.90747
1086.17	9.02637
1089.54	4.09424
1092.92	5.50952
1096.29	2.62769
1099.66	1.2644
1103.04	1.55762
1106.41	10.9414
1109.79	15.3618
1113.16	29.655
1116.54	37.3101
1119.91	56.6233
1123.29	70.0054
1126.66	84.761
1130.04	95.3665
1133.41	117.968
1136.79	138.44
1140.16	145.892
1143.54	162.846
1146.91	163.565
1150.29	171.215
1153.66	161.717
1157.04	165.873
1160.41	164.926
1163.79	152.298
1167.16	148.487
1170.54	143.184
1173.91	125.379
1177.29	111.31
1180.66	107.24
1184.04	90.772
1187.41	77.6641
1190.79	63.5781
1194.16	54.3225
1197.54	39.2031
1200.91	36.3066
1204.28	22.0771
1207.66	11.3394
1211.03	13.4946
1214.41	4.47192
1217.78	5.70288
1221.16	4.01099
1224.53	1.51465
1227.91	28.3884
1231.28	29.1304
1234.66	53.7812
1238.03	60.5178
1241.41	75.7998
1244.78	81.9106
1248.16	84.3684
1251.53	70.6157
1254.91	56.2056
1258.28	36.5222
1261.66	33.0168
1265.03	22.0286
1268.41	23.3728
1271.78	3.96558
1275.16	15.5957
1278.53	1.65649
1281.9	2.87402
