Measurement: Raman, 532 nm, unoriented, Raman Data Processed
Mineral: Brizziite
Rruff sample: R060611
Ideal chemistry: NaSbO_3_
Locality: Le Cetine di Cotorniano, Chiusdino, Siena Province, Tuscany, Italy
Source: Michael Scott
Description: Colorless thin hexagonal plates associated with romeite, R060736
Measured chemistry: Na_1.00_Sb_1.00_O_3_; = gray phase with trace amounts of Fe; bright phase: stibiconite
Raman shift (cm-1)	intensity
121.041	0
124.416	184.04
127.79	64.355
131.165	110.501
134.54	251.712
137.915	442.32
141.29	523.98
144.665	522.296
148.039	1077.77
151.414	2393.73
154.789	4483.6
158.164	7597.78
161.539	1352.52
164.913	649.755
168.288	462.771
171.663	340.727
175.038	339.057
178.413	389.648
181.788	442.784
185.162	458.992
188.537	451.94
191.912	521.401
195.287	675.999
198.662	993.556
202.036	1508.73
205.411	1417.12
208.786	730.966
212.161	633.236
215.536	690.588
218.911	1015.96
222.285	1558.26
225.66	2574.38
229.035	4516.01
232.41	4302.87
235.785	1041.18
239.159	559.136
242.534	518.357
245.909	576.573
249.284	615.834
252.659	566.062
256.033	652.064
259.408	667.087
262.783	808.801
266.158	815.518
269.533	872.75
272.908	891.669
276.282	966.786
279.657	1128.93
283.032	1248.29
286.407	1354.49
289.782	1601.53
293.156	2019.75
296.531	2641.17
299.906	3538.24
303.281	4556.61
306.656	4041.73
310.03	4261.69
313.405	6223.52
316.78	2992.13
320.155	1396.04
323.53	1092.96
326.905	912.774
330.279	789.598
333.654	625.558
337.029	437.047
340.404	376.662
343.779	223.244
347.153	117.907
350.528	67.74
353.903	13.074
357.278	75.92
360.653	145.549
364.027	204.545
367.402	237.452
370.777	203.135
374.152	152.341
377.527	81.475
380.902	15.97
384.276	101.007
387.651	221.691
391.026	421.751
394.401	500.371
397.776	608.599
401.151	785.261
404.525	907.858
407.9	1088.67
411.275	1223.42
414.65	1288.43
418.025	1321.46
421.399	1377.2
424.774	1252.89
428.149	1231.99
431.524	1211.93
434.899	1176.22
438.273	1103.79
441.648	1133.51
445.023	1160.31
448.398	1228.06
451.773	1360.93
455.147	1489.98
458.522	1592.87
461.897	1502.32
465.272	1426.96
468.647	1331.48
472.022	1465.51
475.396	1647.15
478.771	2049.85
482.146	2566.21
485.521	3340.51
488.896	4646.8
492.27	6300.42
495.645	8335.05
499.02	10183.6
502.395	11775
505.77	12578.3
509.145	11632.1
512.519	10082.1
515.894	8547.31
519.269	7392.34
522.644	6668.59
526.019	5885.98
529.393	5248.73
532.768	4660.16
536.143	4226.82
539.518	3782.15
542.893	3468.16
546.268	3087.9
549.642	2668.57
553.017	2168.46
556.392	1546.09
559.767	1008.36
563.141	671.757
566.516	287.318
569.891	145.829
573.266	64.949
576.641	142.462
580.016	196.375
583.39	284.046
586.765	274.475
590.14	228.651
593.515	226.015
596.89	57.372
600.265	280.019
603.639	625.068
607.014	1428.23
610.389	2594.57
613.764	4816.31
617.138	3548.19
620.513	1317.93
623.888	1065.89
627.263	1189.49
630.638	1517.41
634.013	1992.75
637.387	2902.91
640.762	4460.03
644.137	8326.96
647.512	15289.6
650.887	25529.6
654.261	42757.8
657.636	76869.5
661.011	92514.5
664.386	31812.8
667.761	15877.3
671.135	10767.5
674.51	7492.13
677.885	5144.93
681.26	3904.62
684.635	3271.82
688.01	2792.54
691.384	2525.02
694.759	2371.67
698.134	2126.86
701.509	1907.5
704.884	1750.66
708.258	1575.36
711.633	1251.23
715.008	1185.86
718.383	1063.42
721.758	1002.39
725.133	960.656
728.507	866.98
731.882	823.835
735.257	818.317
738.632	737.994
742.007	796.454
745.381	907.212
748.756	952.76
752.131	842.92
755.506	822.897
758.881	739.316
762.255	509.537
765.63	425.152
769.005	416.158
772.38	442.92
775.755	373.809
779.13	480.134
782.504	521.665
785.879	522.721
789.254	585.128
792.629	560.334
796.004	497.236
799.378	503.465
802.753	460.753
806.128	482.877
809.503	569.644
812.878	599.982
816.253	698.132
819.627	741.529
823.002	819.418
826.377	839.312
829.752	826.085
833.127	679.24
836.501	508.711
839.876	496.846
843.251	369.43
846.626	275.826
850.001	83.596
853.375	75.24
856.75	74.854
860.125	83.415
863.5	122.736
866.875	145.74
870.25	220.61
873.624	238.192
876.999	198.878
880.374	155.195
883.749	183.172
887.124	152.838
890.498	117.853
893.873	159.657
897.248	254.131
900.623	86.595
903.998	136.34
907.372	23.811
910.747	66.15
914.122	92.705
917.497	76.26
920.872	75.85
924.247	33.279
927.621	79.239
930.996	11.618
934.371	11.378
937.746	26.773
941.121	22.016
944.495	67.544
947.87	60.327
951.245	24.27
954.62	52.83
957.995	55.064
961.37	50.012
964.744	54.951
968.119	26.274
971.494	126.386
974.869	138.476
978.244	140.044
981.618	219.819
984.993	198.441
988.368	149.58
991.743	108.051
995.118	165.719
998.492	139.776
1001.87	42.428
1005.24	4.741
1008.62	6.412
1011.99	31.718
1015.37	32.938
1018.74	31.13
1022.12	72.531
1025.49	11.207
1028.87	8.863
1032.24	0.21
1035.62	30.761
1038.99	15.109
1042.37	23.053
1045.74	19.698
1049.12	7.594
1052.49	6.805
1055.86	56.922
1059.24	39.399
1062.61	44.859
1065.99	54.693
1069.36	27.807
1072.74	82.592
1076.11	69.323
1079.49	13.338
1082.86	9.176
1086.24	73.718
1089.61	76.69
1092.99	76.92
1096.36	23.777
1099.74	92.679
1103.11	67.788
1106.49	110.459
1109.86	107.944
1113.24	61.407
1116.61	21.275
1119.99	6.61
1123.36	8.589
1126.73	19.805
1130.11	120.09
1133.48	86.818
1136.86	58.253
1140.23	32.195
1143.61	4.34
1146.98	110.642
1150.36	95.783
1153.73	4.895
1157.11	28.181
1160.48	21.504
1163.86	0.051
1167.23	83.924
1170.61	14.987
1173.98	80.823
1177.36	41.833
1180.73	12.332
1184.11	90.66
1187.48	22.227
1190.86	17.54
1194.23	26.382
1197.61	25.536
1200.98	38.14
1204.36	38.182
1207.73	31.034
1211.11	56.123
1214.48	23.883
1217.86	35.863
1221.23	11.491
1224.61	37.762
1227.98	1.6
1231.36	19.926
1234.73	102.058
1238.1	61.282
1241.48	74.659
1244.85	89.849
1248.23	123.01
1251.6	87.117
1254.98	45.037
1258.35	74.298
1261.73	49.207
1265.1	13.097
1268.48	18.456
1271.85	74.911
1275.23	150.814
1278.6	10.843
1281.98	0.065
1285.35	10.51
1288.73	107.295
1292.1	17.179
1295.48	8.779
1298.85	44.201
