Measurement: Raman, 532 nm, unoriented, Raman Data Processed
Mineral: Brochantite
Rruff sample: R060133
Ideal chemistry: Cu_4_SO_4_(OH)_6_
Locality: Shattuck mine, Bisbee, Cochise County, Arizona, USA
Source: University of Arizona Mineral Museum
Description: Deep green thick prismatic crystals
Measured chemistry: Cu_4.00_S_1.00_O_4_(OH)_6_
Raman shift (cm-1)	intensity
146.671	0
149.564	5.65402
152.457	23.9727
155.35	42.6627
158.242	44.4945
161.135	49.5929
164.028	72.7496
166.92	92.0619
169.813	102.441
172.706	58.5232
175.598	73.9999
178.491	47.2126
181.384	15.9558
184.277	9.35392
187.169	10.3677
190.062	13.6087
192.955	23.9923
195.847	39.6027
198.74	34.4688
201.633	5.47295
204.525	2.9913
207.418	1.70071
210.311	2.42675
213.204	1.43396
216.096	1.49127
218.989	6.55221
221.882	17.1103
224.774	34.2526
227.667	42.8262
230.56	46.6271
233.452	57.9614
236.345	76.8442
239.238	102.332
242.131	107.838
245.023	64.1463
247.916	35.3613
250.809	25.3691
253.701	24.2522
256.594	24.4061
259.487	23.8728
262.38	20.994
265.272	11.8068
268.165	3.86468
271.058	0.688119
273.95	0.676851
276.843	0.195148
279.736	1.37877
282.628	1.93493
285.521	1.12329
288.414	1.42581
291.307	2.71984
294.199	5.28986
297.092	9.70103
299.985	20.6334
302.877	33.8123
305.77	44.1126
308.663	53.521
311.555	71.1957
314.448	94.152
317.341	107.833
320.234	72.734
323.126	27.5753
326.019	7.67363
328.912	1.34983
331.804	0.481114
334.697	1.20385
337.59	0.006121
340.483	4.31417
343.375	8.30376
346.268	16.5387
349.161	24.0279
352.053	27.0995
354.946	28.4511
357.839	35.7366
360.731	49.0176
363.624	62.2476
366.517	76.2813
369.41	90.3701
372.302	110.719
375.195	138.154
378.088	171.925
380.98	208.15
383.873	229.213
386.766	202.786
389.659	136.333
392.551	83.8645
395.444	48.9413
398.337	24.4906
401.229	8.75716
404.122	1.43297
407.015	1.25292
409.908	2.69649
412.8	6.69442
415.693	11.6002
418.586	18.0783
421.478	23.4035
424.371	20.316
427.264	8.26514
430.156	3.10398
433.049	0.808484
435.942	0.071974
438.834	1.56198
441.727	8.15387
444.62	17.3448
447.513	17.8203
450.405	12.2843
453.298	8.50624
456.191	9.52793
459.083	14.0233
461.976	21.6198
464.869	33.8368
467.762	53.4982
470.654	73.1763
473.547	88.128
476.44	108.459
479.332	130.883
482.225	136.784
485.118	108.754
488.01	80.0956
490.903	71.4058
493.796	75.2803
496.689	85.4053
499.581	99.057
502.474	104.799
505.367	99.8124
508.259	87.3853
511.152	70.6578
514.045	54.2499
516.938	43.4395
519.83	33.4279
522.723	25.1415
525.616	17.3088
528.508	10.41
531.401	5.36168
534.294	2.4535
537.187	0.008111
540.079	0.678956
542.972	0.513386
545.865	0.081819
548.757	0.021801
551.65	0.242193
554.543	0.061954
557.435	0.471666
560.328	0.09015
563.221	0.711615
566.114	1.27971
569.006	2.13417
571.899	2.68414
574.792	4.18989
577.684	5.75275
580.577	10.0434
583.47	14.0851
586.362	18.2145
589.255	26.2122
592.148	39.0243
595.04	56.9483
597.933	57.9785
600.826	67.1563
603.719	91.8747
606.611	124.409
609.504	138.462
612.397	91.4321
615.289	77.624
618.182	71.3489
621.075	54.4413
623.967	32.0254
626.86	16.5922
629.753	8.73356
632.646	5.85015
635.538	4.35055
638.431	4.09686
641.324	4.10293
644.216	3.65633
647.109	3.32109
650.002	3.01998
652.895	2.65824
655.787	1.66675
658.68	1.35817
661.573	0.945999
664.465	0.490754
667.358	0.293115
670.251	0.132881
673.144	0.126442
676.036	0.13278
678.929	0.161668
681.822	0.2161
684.714	0.04265
687.607	0.207404
690.5	0.213416
693.393	0.197958
696.285	3.8e-05
699.178	0.152192
702.071	0.639434
704.963	0.708382
707.856	1.30152
710.749	2.40716
713.641	4.16076
716.534	6.17944
719.427	8.07474
722.319	10.9433
725.212	13.5544
728.105	14.9551
730.998	13.6742
733.89	11.1139
736.783	8.72344
739.676	6.16656
742.568	5.13769
745.461	3.89865
748.354	3.99785
751.246	4.13076
754.139	4.51373
757.032	6.14973
759.925	7.38427
762.817	8.73794
765.71	10.1299
768.603	11.4526
771.495	12.0341
774.388	10.4435
777.281	9.9492
780.174	8.4931
783.066	6.6846
785.959	5.3821
788.852	3.77231
791.744	2.86152
794.637	2.30476
797.53	1.59934
800.423	0.893175
803.315	0.381301
806.208	0.128671
809.101	0.051309
811.993	0.015503
814.886	0.142257
817.779	0.136508
820.671	0.128758
823.564	0.10811
826.457	0.422621
829.35	0.120511
832.242	0.084174
835.135	0.002278
838.028	0.243134
840.92	0.141883
843.813	0.324454
846.706	1.07295
849.598	1.91265
852.491	3.20405
855.384	4.44448
858.277	6.46173
861.169	8.64913
864.062	11.8358
866.955	14.0238
869.847	13.2611
872.74	10.1882
875.633	4.5148
878.525	1.2572
881.418	0.37409
884.311	0.949221
887.204	3.09111
890.096	7.54418
892.989	12.5104
895.882	18.2884
898.774	25.7459
901.667	30.7546
904.56	35.1679
907.452	33.4623
910.345	27.6602
913.238	17.9689
916.131	10.5582
919.023	5.67048
921.916	2.86608
924.809	1.23761
927.702	1.04401
930.594	0.337127
933.487	0.33186
936.38	0.067186
939.272	0.080413
942.165	2.00771
945.058	5.03921
947.95	10.5944
950.843	18.9147
953.736	33.5959
956.629	62.943
959.521	124.41
962.414	200.625
965.307	289.277
968.199	419.682
971.092	520.869
973.985	394.395
976.877	238.144
979.77	165.834
982.663	128.05
985.556	100.173
988.448	75.623
991.341	52.5901
994.234	34.4135
997.126	20.3304
1000.02	12.1432
1002.91	5.81097
1005.8	2.46418
1008.7	0.627676
1011.59	0.286965
1014.48	0.276353
1017.38	0.157818
1020.27	0.250903
1023.16	0.556063
1026.05	0.070853
1028.95	0.126504
1031.84	0.094437
1034.73	0.174927
1037.62	0.062873
1040.52	0.426442
1043.41	0.632554
1046.3	1.29515
1049.19	1.07402
1052.09	1.8478
1054.98	2.42881
1057.87	3.78675
1060.77	5.68313
1063.66	9.07018
1066.55	13.7472
1069.44	19.0976
1072.34	23.4863
1075.23	25.4421
1078.12	21.2135
1081.02	13.9032
1083.91	10.0927
1086.8	8.89322
1089.69	9.37678
1092.59	12.2412
1095.48	15.7611
1098.37	19.4978
1101.26	24.4002
1104.16	29.5948
1107.05	23.1347
1109.94	15.1951
1112.83	13.1136
1115.73	14.9856
1118.62	18.5937
1121.51	18.9407
1124.4	15.1263
1127.3	12.6349
1130.19	11.7368
1133.08	12.1964
1135.98	14.2191
1138.87	10.3725
1141.76	4.43494
1144.65	1.54122
1147.55	0.939366
1150.44	0.438354
1153.33	0.237722
1156.22	0.153151
1159.12	0.037107
1162.01	0.072042
1164.9	0.150435
1167.8	0.108702
1170.69	0.059265
1173.58	0.034879
1176.47	0.040716
1179.37	0.079581
1182.26	0.283696
1185.15	0.136925
1188.05	0.437863
1190.94	0.611273
1193.83	0.995619
1196.72	0.792557
1199.62	0.950366
1202.51	1.21969
1205.4	1.0421
1208.29	0.906311
1211.19	1.19593
1214.08	1.98788
1216.97	1.0879
1219.87	1.06704
1222.76	0.728251
1225.65	0.315596
1228.54	0.372936
1231.43	0.417824
1234.33	0.195992
1237.22	0.77026
1240.11	1.13043
1243.01	0.632236
1245.9	0.87671
1248.79	0.774197
1251.68	0.665029
1254.58	0.580856
1257.47	0.243302
1260.36	0.099669
1263.26	0.082794
1266.15	0.12983
1269.04	0.282012
1271.93	0.329875
1274.83	0.076408
1277.72	0.031516
1280.61	0.215315
1283.5	0.665927
1286.4	0.001357
1289.29	0.615976
1292.18	0.744243
1295.08	0.244343
1297.97	0.368238
1300.86	0.51833
