Measurement: Raman, 532 nm, unoriented, Raman Data Processed
Mineral: Brochantite
Rruff sample: R060117
Ideal chemistry: Cu_4_SO_4_(OH)_6_
Locality: M'sesa mine, Likasi, Katanga Province, Democratic Republic of the Congo
Source: University of Arizona Mineral Museum
Description: Emerald-green thick acicular crystals
Measured chemistry: Cu_4.00_S_1.00_O_4_(OH)_6_
Raman shift (cm-1)	intensity
144.261	0
147.636	66.0813
151.011	165.64
154.385	291.048
157.76	166.202
161.135	8.49016
164.51	4.63281
167.885	3.93485
171.259	28.4963
174.634	55.7411
178.009	135.156
181.384	214.554
184.759	293.373
188.133	338.973
191.508	325.43
194.883	382.654
198.258	333.368
201.633	92.724
205.008	15.6578
208.382	1.04916
211.757	1.8697
215.132	1.36354
218.507	4.61627
221.882	8.61133
225.256	17.1503
228.631	24.0458
232.006	27.3142
235.381	35.0739
238.756	43.6416
242.131	48.2912
245.505	44.5569
248.88	45.018
252.255	54.0298
255.63	64.5647
259.005	68.7682
262.38	64.2277
265.754	63.1967
269.129	62.2884
272.504	61.6293
275.879	56.2319
279.254	50.0669
282.628	45.714
286.003	38.3887
289.378	30.0795
292.753	25.2632
296.128	25.5849
299.503	33.5631
302.877	44.1543
306.252	55.3956
309.627	69.7685
313.002	90.4737
316.377	105.966
319.752	86.3048
323.126	40.6515
326.501	14.6107
329.876	3.50516
333.251	1.4507
336.626	4.04411
340	4.85323
343.375	7.57647
346.75	5.03011
350.125	2.31448
353.5	1.81722
356.875	4.69038
360.249	22.3887
363.624	48.8104
366.999	88.8367
370.374	140.648
373.749	201.92
377.123	267.331
380.498	337.666
383.873	378.876
387.248	327.972
390.623	217.625
393.998	128.226
397.372	77.7296
400.747	56.1171
404.122	58.7371
407.497	69.8411
410.872	98.5589
414.247	134.27
417.621	177.629
420.996	219.521
424.371	210.73
427.746	136.595
431.121	67.1896
434.495	34.1235
437.87	36.9434
441.245	61.0119
444.62	88.1907
447.995	104.944
451.37	88.8914
454.744	62.5747
458.119	47.1624
461.494	56.0228
464.869	90.3705
468.244	136.348
471.618	169.322
474.993	188.134
478.368	207.143
481.743	217.317
485.118	158.221
488.493	98.1739
491.867	73.6034
495.242	75.3686
498.617	90.1939
501.992	102.653
505.367	100.309
508.741	84.2727
512.116	61.6044
515.491	43.1904
518.866	31.3759
522.241	19.4572
525.616	10.6172
528.99	1.6447
532.365	2.14178
535.74	5.1775
539.115	6.01993
542.49	6.2212
545.865	3.72418
549.239	2.02891
552.614	0.214695
555.989	3.54316
559.364	5.80491
562.739	7.70373
566.114	10.0447
569.488	13.9446
572.863	17.9987
576.238	27.3987
579.613	48.5889
582.987	75.9033
586.362	99.0777
589.737	140.776
593.112	196.645
596.487	181.443
599.862	84.6585
603.236	64.9791
606.611	65.536
609.986	71.8531
613.361	73.4499
616.736	83.2386
620.111	93.4497
623.485	91.3682
626.86	74.1884
630.235	56.0009
633.61	43.9151
636.985	35.65
640.36	28.9813
643.734	21.9601
647.109	16.6574
650.484	16.2129
653.859	9.28755
657.234	7.18171
660.609	4.41081
663.983	3.25085
667.358	1.99534
670.733	1.50887
674.108	0.129028
677.482	0.965534
680.857	1.08658
684.232	0.761183
687.607	0.656059
690.982	0.363245
694.357	0.022404
697.731	0.557343
701.106	3.56592
704.481	4.92247
707.856	6.65446
711.231	10.6653
714.606	17.3182
717.98	23.4301
721.355	29.3929
724.73	33.3948
728.105	32.8319
731.48	25.6194
734.855	19.7972
738.229	12.1013
741.604	8.1632
744.979	4.59247
748.354	4.48536
751.729	4.63689
755.103	5.29518
758.478	6.24691
761.853	9.10218
765.228	10.5663
768.603	10.7322
771.977	11.087
775.352	10.9175
778.727	10.6554
782.102	8.69545
785.477	7.70947
788.852	6.20073
792.226	5.8421
795.601	4.51889
798.976	2.44659
802.351	0.808052
805.726	2.53208
809.101	0.200523
812.475	1.07607
815.85	0.464872
819.225	0.564962
822.6	0.302139
825.975	1.02115
829.35	1.12307
832.724	2.46355
836.099	1.90396
839.474	2.87841
842.849	3.2713
846.224	3.40347
849.598	4.82201
852.973	4.64315
856.348	6.32239
859.723	7.60936
863.098	8.8533
866.472	11.0789
869.847	9.68075
873.222	7.05886
876.597	2.73436
879.972	0.618397
883.347	0.926086
886.721	0.96521
890.096	1.66457
893.471	3.68192
896.846	9.34316
900.221	15.4793
903.596	20.0286
906.97	21.2073
910.345	18.6414
913.72	12.9767
917.095	6.90365
920.47	3.92752
923.845	0.60239
927.219	0.877689
930.594	0.851112
933.969	2.17981
937.344	4.19855
940.719	7.20002
944.093	14.5712
947.468	24.9252
950.843	47.3097
954.218	92.8929
957.593	196.769
960.967	377.281
964.342	595.652
967.717	892.012
971.092	1120.74
974.467	870.729
977.842	560.712
981.216	392.901
984.591	286.421
987.966	211.082
991.341	149.281
994.716	100.933
998.091	64.1339
1001.47	39.949
1004.84	24.0579
1008.22	15.1011
1011.59	9.4203
1014.97	6.96913
1018.34	4.43407
1021.71	1.53958
1025.09	0.593185
1028.46	0.480106
1031.84	1.35876
1035.21	1.09681
1038.59	1.60061
1041.96	0.098932
1045.34	1.14516
1048.71	3.97631
1052.09	5.91548
1055.46	9.32084
1058.84	15.8313
1062.21	24.2904
1065.59	35.9674
1068.96	47.8285
1072.34	55.4601
1075.71	54.5149
1079.09	45.8723
1082.46	42.2176
1085.84	54.3648
1089.21	69.8129
1092.59	95.3093
1095.96	99.9014
1099.34	68.457
1102.71	49.7162
1106.09	37.0336
1109.46	28.9253
1112.83	29.7003
1116.21	34.3
1119.58	44.9546
1122.96	45.6658
1126.33	46.083
1129.71	50.4719
1133.08	41.1361
1136.46	28.7685
1139.83	16.8093
1143.21	8.93252
1146.58	4.72414
1149.96	4.12129
1153.33	1.91666
1156.71	0.471834
1160.08	0.82138
1163.46	1.14951
1166.83	0.265024
1170.21	0.741145
1173.58	0.429168
1176.96	0.253929
1180.33	0.359113
1183.71	0.539158
1187.08	1.3325
1190.45	1.75187
1193.83	2.65881
1197.2	3.15269
1200.58	4.25185
1203.95	4.82252
1207.33	5.40639
1210.7	6.7246
1214.08	6.15891
1217.45	6.55932
1220.83	4.6307
1224.2	3.25335
1227.58	2.49092
1230.95	2.72083
1234.33	2.70997
1237.7	2.93376
1241.08	2.26613
1244.45	2.66725
1247.83	2.3574
1251.2	2.44387
1254.58	2.6931
1257.95	1.52679
1261.33	1.21835
1264.7	0.831861
1268.08	0.768206
1271.45	1.43861
1274.83	0.691701
1278.2	0.980624
1281.58	2.39148
1284.95	0.53302
1288.33	0.984591
1291.7	0.315171
1295.08	0.080968
1298.45	0.952444
1301.82	0
