Measurement: Raman, 532 nm, unoriented, Raman Data Processed
Mineral: Brochantite
Rruff sample: R100199
Ideal chemistry: Cu_4_SO_4_(OH)_6_
Locality: Milpillas mine, Municipio de Santa Cruz, Sonora, Mexico
Source: Donald K Olson
Description: Loose green acicular crystals, MDO1 polytype
Raman shift (cm-1)	intensity
164.799	0
167.692	2.38155
170.584	6.92023
173.477	8.02029
176.37	10.3376
179.263	12.0451
182.155	11.769
185.048	13.2295
187.941	17.9636
190.833	15.9422
193.726	15.303
196.619	18.9384
199.512	17.2042
202.404	8.10588
205.297	2.77089
208.19	1.22726
211.082	1.63713
213.975	0.925636
216.868	0.937309
219.761	0.344612
222.653	1.5084
225.546	3.39732
228.439	5.3924
231.331	2.87862
234.224	4.88674
237.117	6.59143
240.009	12.3433
242.902	14.2561
245.795	10.6152
248.688	4.08025
251.58	3.0349
254.473	1.56844
257.366	2.69788
260.258	2.53552
263.151	1.91634
266.044	0.62468
268.936	1.00972
271.829	0.669266
274.722	0.482643
277.615	1.50225
280.507	0.64093
283.4	2.11137
286.293	0.339767
289.185	1.75904
292.078	1.73358
294.971	0.558647
297.863	2.32675
300.756	0.394058
303.649	0.484947
306.541	1.96558
309.434	2.0152
312.327	4.29951
315.22	5.82625
318.112	6.01539
321.005	5.65197
323.898	2.39028
326.791	0.90123
329.683	0.749588
332.576	1.05984
335.469	1.5987
338.361	0.390976
341.254	1.68795
344.147	1.12379
347.039	4.80321
349.932	5.49323
352.825	6.79549
355.717	8.48663
358.61	12.4426
361.503	14.4815
364.396	21.0902
367.288	22.1059
370.181	24.1656
373.074	26.397
375.966	32.6809
378.859	39.8954
381.752	53.3175
384.644	60.6613
387.537	75.9142
390.43	46.6311
393.323	34.7876
396.215	25.3602
399.108	18.2873
402.001	12.0447
404.894	8.73992
407.786	7.87689
410.679	6.23933
413.572	3.19414
416.464	4.12215
419.357	7.44565
422.25	6.95908
425.142	6.23498
428.035	3.43166
430.928	0.425461
433.82	0.694962
436.713	0.85881
439.606	3.27103
442.499	7.487
445.391	12.5901
448.284	16.7255
451.177	15.2059
454.069	12.0475
456.962	6.4465
459.855	4.13893
462.748	4.74406
465.64	9.03177
468.533	13.2263
471.426	21.2034
474.318	29.3527
477.211	42.2549
480.104	54.3456
482.996	57.8165
485.889	46.014
488.782	28.9359
491.675	20.3436
494.567	17.315
497.46	16.7792
500.353	19.9321
503.245	21.239
506.138	23.6497
509.031	23.1735
511.923	21.2722
514.816	16.698
517.709	13.1632
520.602	12.8303
523.494	10.3545
526.387	7.07491
529.28	4.66778
532.172	2.90606
535.065	2.17957
537.958	0.490822
540.851	0.100075
543.743	1.53116
546.636	0.287636
549.529	0.361366
552.421	0.336281
555.314	0.118706
558.207	0.662674
561.099	0.704285
563.992	0.352798
566.885	0.87011
569.778	0.540932
572.67	1.4684
575.563	1.49431
578.456	2.50931
581.348	5.62643
584.241	7.97614
587.134	11.0591
590.027	16.6147
592.919	24.7582
595.812	31.6666
598.705	23.9088
601.597	14.495
604.49	14.8805
607.383	18.1832
610.275	20.6667
613.168	15.9527
616.061	13.4048
618.953	14.2122
621.846	11.7761
624.739	9.75957
627.632	5.50384
630.524	4.99269
633.417	3.38093
636.31	4.55014
639.202	4.29488
642.095	5.20208
644.988	4.10792
647.881	4.33845
650.773	2.62898
653.666	3.42927
656.559	2.00302
659.451	2.53155
662.344	1.95508
665.237	2.1027
668.13	1.85395
671.022	1.0636
673.915	0.883453
676.808	0.988899
679.7	0.722382
682.593	0.351913
685.486	0.260681
688.378	1.3509
691.271	0.534546
694.164	0.162987
697.057	0.715828
699.949	0.045166
702.842	1.06203
705.735	1.21117
708.627	1.79131
711.52	2.38206
714.413	2.3654
717.305	3.77929
720.198	5.00508
723.091	5.81689
725.984	7.16844
728.876	6.86746
731.769	5.54835
734.662	5.42291
737.554	3.92253
740.447	2.20911
743.34	2.36752
746.232	3.22369
749.125	3.87418
752.018	3.58171
754.91	4.48249
757.803	6.49958
760.696	7.1684
763.589	8.28903
766.481	10.5724
769.374	12.3741
772.267	12.3521
775.159	11.25
778.052	11.558
780.945	10.2892
783.838	8.65647
786.73	7.04206
789.623	6.3883
792.516	3.60581
795.408	3.7638
798.301	2.14457
801.194	3.43099
804.087	1.558
806.979	1.06716
809.872	0.199692
812.765	0.145172
815.657	2.45984
818.55	0.727425
821.443	1.01152
824.335	0.162193
827.228	0.727394
830.121	0.125717
833.014	1.17726
835.906	0.600418
838.799	0.852539
841.692	0.940018
844.584	0.183624
847.477	0.793297
850.37	3.05605
853.263	0.790504
856.155	1.27629
859.048	1.55237
861.941	1.28158
864.833	3.11133
867.726	1.36948
870.619	3.97753
873.511	1.5661
876.404	1.79477
879.297	1.85053
882.189	0.996017
885.082	1.19168
887.975	0.941132
890.868	1.60838
893.76	3.23621
896.653	8.61732
899.546	12.7186
902.438	17.1205
905.331	25.4526
908.224	28.726
911.116	28.2589
914.009	24.4128
916.902	17.066
919.795	12.1222
922.687	8.56087
925.58	4.48729
928.473	2.91893
931.365	3.02072
934.258	3.91353
937.151	2.32062
940.044	2.04251
942.936	0.985016
945.829	1.98631
948.722	2.24928
951.614	4.5424
954.507	6.43301
957.4	13.5041
960.293	26.3925
963.185	45.8447
966.078	77.8816
968.971	128.676
971.863	179.108
974.756	162.919
977.649	108.929
980.541	77.7139
983.434	62.8708
986.327	53.4836
989.22	45.6592
992.112	37.2685
995.005	29.5346
997.898	21.7912
1000.79	13.875
1003.68	10.3822
1006.58	6.98067
1009.47	3.3356
1012.36	4.05364
1015.25	2.79858
1018.15	0.621613
1021.04	1.45035
1023.93	0.049644
1026.83	0.566452
1029.72	0.989304
1032.61	0.09623
1035.5	0.036186
1038.4	1.51103
1041.29	0.128769
1044.18	1.2207
1047.07	0.675163
1049.97	0.234993
1052.86	1.44392
1055.75	1.09428
1058.64	0.577507
1061.54	1.83332
1064.43	2.07119
1067.32	3.75765
1070.21	6.41334
1073.11	7.88042
1076	9.01424
1078.89	7.22606
1081.79	6.35461
1084.68	5.73163
1087.57	4.9604
1090.46	6.24993
1093.36	8.01881
1096.25	8.27721
1099.14	10.3187
1102.04	10.966
1104.93	10.5273
1107.82	9.31832
1110.71	6.24903
1113.61	5.13111
1116.5	5.72067
1119.39	6.33537
1122.28	18.2622
1125.18	18.2312
1128.07	8.89728
1130.96	8.33044
1133.86	7.99483
1136.75	4.59171
1139.64	5.16898
1142.53	2.15235
1145.43	2.7235
1148.32	1.94345
1151.21	1.87676
1154.1	0.335373
1157	0.313332
1159.89	0.646896
1162.78	0.515747
1165.67	1.59831
1168.57	0.679352
1171.46	0.859055
1174.35	1.44016
1177.24	0.070183
1180.14	0.565765
1183.03	1.99034
1185.92	1.06625
1188.82	0.232124
1191.71	2.00013
1194.6	1.12959
1197.49	1.81311
1200.39	0.98513
1203.28	2.96859
1206.17	1.65133
1209.07	1.10819
1211.96	1.37067
1214.85	0.692276
1217.74	2.16366
1220.64	2.10429
1223.53	1.97833
1226.42	1.95689
1229.31	1.69723
1232.21	1.45958
1235.1	0.241493
1237.99	1.26289
1240.88	2.27672
1243.78	2.29181
1246.67	3.11573
1249.56	0.873924
1252.45	2.21503
1255.35	1.53082
1258.24	1.61383
1261.13	1.55515
1264.03	1.01498
1266.92	1.4946
1269.81	1.57295
1272.7	0.288734
1275.6	0.937256
1278.49	0.070641
1281.38	0.739288
1284.28	1.06672
1287.17	1.03814
1290.06	1.59122
1292.95	1.65597
1295.85	1.29781
1298.74	2.0472
1301.63	0.35305
