Measurement: Raman, 514 nm, unoriented, Raman Data Processed
Mineral: Bromellite
Rruff sample: X050194
Ideal chemistry: BeO
Locality: synthetic
Source: Marcus Origlieri
Description: Colorless hexagonal tablet
Raman shift (cm-1)	intensity
53.218	0
57.42	10.153
61.62	17.837
65.819	23.388
70.015	21.375
74.209	19.222
78.401	4.598
82.592	0.482
86.78	1.526
90.966	23.947
95.15	40.431
99.332	43.951
103.512	42.495
107.69	95.528
111.866	65.23
116.04	109.555
120.212	74.957
124.382	56.312
128.55	68.478
132.716	59.2
136.88	42.898
141.042	38.556
145.202	24.196
149.36	13.84
153.516	10.524
157.67	4.166
161.822	8.242
165.972	8.56
170.121	2.304
174.267	0.726
178.411	0.157
182.553	1.33
186.693	9.794
190.831	17.228
194.967	17.659
199.101	30.07
203.233	45.453
207.363	56.001
211.492	29.772
215.618	27.085
219.742	54.318
223.864	53.606
227.985	48.015
232.103	56.482
236.219	51.985
240.334	22.53
244.446	10.093
248.556	2.726
252.665	3.479
256.771	20.204
260.876	10.074
264.978	0.016
269.079	10.115
273.178	9.603
277.275	23.109
281.369	15.502
285.462	15.044
289.553	3.518
293.642	14.662
297.729	2.854
301.814	5.183
305.897	10.474
309.978	10.366
314.057	18.018
318.134	24.27
322.21	26.466
326.283	21.454
330.354	37.235
334.424	249.409
338.491	3024.39
342.557	220.21
346.621	40.703
350.682	19.94
354.742	22.258
358.8	2.251
362.856	13.11
366.91	11.348
370.962	32.176
375.012	27.953
379.061	20.731
383.107	40.482
387.151	52.268
391.194	37.313
395.235	17.995
399.273	20.676
403.31	13.305
407.345	20.903
411.378	20.47
415.409	19.004
419.438	10.529
423.465	2.022
427.49	2.615
431.514	17.971
435.535	12.891
439.555	23.235
443.573	2.556
447.588	20.768
451.602	2.702
455.614	0.775
459.624	3.172
463.633	9.591
467.639	7.642
471.643	6.709
475.646	1.821
479.647	5.924
483.645	21.006
487.642	9.071
491.637	0.108
495.63	9.12
499.622	8.115
503.611	10.095
507.598	5.065
511.584	4.005
515.568	0.786
519.549	10.672
523.529	5.75
527.508	6.053
531.484	12.932
535.458	2.803
539.431	4.66
543.401	0.506
547.37	4.662
551.337	12.147
555.302	11.945
559.265	7.734
563.226	34.432
567.186	39.221
571.143	23.881
575.099	20.975
579.053	15.924
583.005	3.166
586.955	11.227
590.903	13.984
594.85	18.436
598.794	10.105
602.737	14.712
606.678	2.374
610.617	18.574
614.554	27.942
618.49	22.573
622.423	45.28
626.355	33.932
630.285	51.52
634.213	51.161
638.139	55.834
642.063	77.524
645.986	90.313
649.907	115.342
653.825	118.017
657.743	165.715
661.658	224.498
665.571	331.071
669.483	534.844
673.392	824.223
677.3	1893.45
681.206	8178.29
685.111	33508.7
689.013	6892.13
692.914	1553.8
696.812	661.773
700.709	422.422
704.604	282.779
708.498	207.471
712.389	180.553
716.279	204.788
720.167	477.493
724.053	1710.81
727.937	265.881
731.82	125.207
735.701	77.559
739.579	75.279
743.456	70.004
747.332	80.747
751.205	69.495
755.077	63.246
758.947	64.998
762.815	58.754
766.681	50.514
770.546	40.283
774.408	38.057
778.269	23.833
782.128	19.612
785.986	17.396
789.841	2.183
793.695	12.974
797.547	3.768
801.397	17.565
805.246	9.372
809.092	10.311
812.937	2.995
816.78	8.812
820.621	0.366
824.461	11.461
828.299	9.289
832.134	10.116
835.969	12.05
839.801	0.792
843.632	2.588
847.461	2.385
851.288	19.187
855.113	16.991
858.937	8.805
862.758	3.371
866.578	3.548
870.397	2.269
874.213	1.773
878.028	0.917
881.841	9.265
885.652	11.458
889.462	14.341
893.269	71.149
897.075	50.967
900.88	26.795
904.682	46.633
908.483	98.481
912.282	190.339
916.079	112.208
919.875	50.089
923.668	15.98
927.46	55.883
931.251	65.797
935.039	71.724
938.826	60.662
942.611	56.613
946.394	78.577
950.176	129.555
953.955	414.436
957.734	844.324
961.51	232.358
965.285	84.42
969.057	57.434
972.829	35.453
976.598	11.204
980.366	14.201
984.132	4.798
987.896	2.033
991.658	21.868
995.419	2.383
999.178	27.622
1002.94	20.6
1006.69	10.874
1010.45	20.165
1014.2	43.248
1017.95	23.182
1021.7	46.182
1025.44	40.545
1029.19	51.318
1032.93	72.834
1036.67	100.521
1040.41	111.962
1044.15	116.423
1047.89	155.905
1051.62	211.407
1055.36	275.93
1059.09	384.473
1062.82	539.038
1066.55	816.623
1070.28	1165.23
1074	1997.86
1077.72	3429.5
1081.44	5044.17
1085.16	4547.86
1088.88	2795.57
1092.6	1673.31
1096.31	1028.06
1100.03	695.214
1103.74	465.426
1107.45	359.268
1111.16	285.297
1114.86	227.284
1118.57	187.965
1122.27	149.917
1125.97	119.776
1129.67	93.827
1133.37	88.046
1137.06	74.992
1140.76	73.164
1144.45	78.208
1148.14	51.269
1151.83	46.35
1155.52	43.449
1159.21	26.482
1162.89	31.698
1166.57	26.857
1170.25	19.043
1173.93	18.246
1177.61	17.472
1181.29	9.725
1184.96	3.002
1188.63	8.301
1192.31	2.615
1195.98	6.945
1199.64	1.487
1203.31	9.086
1206.97	15.04
1210.64	14.438
1214.3	14.85
1217.96	16.276
1221.62	21.558
1225.27	17.164
1228.93	17.625
1232.58	23.097
1236.23	23.578
1239.88	6.068
1243.53	5.569
1247.17	9.07
1250.82	9.555
1254.46	7.972
1258.1	7.082
1261.74	5.067
1265.38	17.374
1269.02	15.823
1272.65	6.273
1276.29	2.272
1279.92	11.188
1283.55	11.656
1287.17	21.132
1290.8	33.614
1294.43	20.104
1298.05	29.601
1301.67	30.103
1305.29	34.612
1308.91	25.142
1312.53	18.237
1316.14	144.807
1319.76	823.521
1323.37	52.099
1326.98	44.644
1330.59	30.194
1334.19	47.812
1337.8	35.381
1341.4	52.973
1345.01	74.968
1348.61	76.369
1352.21	76.534
1355.8	61.107
1359.4	60.676
1362.99	53.421
1366.59	54.744
1370.18	46.201
1373.77	57.628
1377.36	68.358
1380.94	63.389
1384.53	63.862
1388.11	69.779
1391.69	80.611
1395.27	85.81
1398.85	92.345
1402.42	85.551
1406	70.978
1409.57	79.599
1413.14	95.222
1416.71	72.848
1420.28	70.464
1423.85	45.066
1427.42	31.66
1430.98	33.45
1434.54	39.831
1438.1	37.381
1441.66	22.91
1445.22	32.426
1448.78	2.934
1452.33	11.44
1455.88	1.947
1459.43	9.493
1462.98	5.21
1466.53	7.338
1470.08	15.838
1473.62	6.677
1477.16	12.537
1480.71	7.424
1484.25	8.351
1487.79	1.273
1491.32	1.279
1494.86	6.682
1498.39	14.188
1501.92	20.425
1505.45	30.715
1508.98	34.665
1512.51	28.984
1516.04	5.391
1519.56	16.379
1523.08	1.608
