Measurement: Raman, 532 nm, unoriented, Raman Data Processed
Mineral: Brookite
Rruff sample: R050591
Ideal chemistry: TiO_2_
Locality: Taftan, near Dalbandi, Baluchistan, Pakistan
Source: Wayne Thompson
Description: Yellowish-brown to reddish-brown thin tabular crystal
Measured chemistry: Ti_1.00_O_2_
Raman shift (cm-1)	intensity
121.007	0
124.381	879.826
127.756	3783.21
131.131	4984.61
134.506	10238.8
137.881	14411.8
141.255	20370.8
144.63	29905.8
148.005	47590.9
151.38	67437.2
154.755	61273.4
158.13	30434.9
161.504	13375.4
164.879	5982.72
168.254	2424.8
171.629	882.23
175.004	142.299
178.379	172.673
181.753	383.416
185.128	337.646
188.503	64.5757
191.878	1372.71
195.253	2468.74
198.627	380.669
202.002	102.483
205.377	378.585
208.752	1005.15
212.127	2204.88
215.501	2019.2
218.876	1.38379
222.251	248.408
225.626	76.2852
229.001	1319.76
232.376	3189.8
235.75	4897.07
239.125	7469.81
242.5	12865
245.875	20302.3
249.25	14549.5
252.625	6224.81
255.999	3552
259.374	2459.46
262.749	1911.39
266.124	1646.97
269.499	1469.35
272.873	1381.97
276.248	1391.26
279.623	1232.1
282.998	1125.54
286.373	1211.58
289.748	1393.69
293.122	1749.64
296.497	2594.11
299.872	4058.19
303.247	6136.44
306.622	8741.72
309.997	11751.9
313.371	15038.8
316.746	17955.5
320.121	17969.5
323.496	13804
326.871	8909.72
330.245	5385.85
333.62	3204.82
336.995	1885.26
340.37	1060.06
343.745	554.588
347.12	235.969
350.494	54.2007
353.869	54.2576
357.244	64.3906
360.619	39.4451
363.994	11.5491
367.368	23.8855
370.743	78.3124
374.118	73.9008
377.493	8.9209
380.868	146.918
384.243	351.26
387.617	709.728
390.992	1192.84
394.367	1985.7
397.742	3050.62
401.117	4393.84
404.491	6085.7
407.866	7701.79
411.241	8465.44
414.616	7471.15
417.991	5450.45
421.366	3553.53
424.74	2172.33
428.115	1263.63
431.49	668.888
434.865	275.782
438.24	100.421
441.615	9.52979
444.989	8.56836
448.364	111.156
451.739	181.71
455.114	186.38
458.489	90.0071
461.863	10.8582
465.238	17.1064
468.613	41.1321
471.988	6.56104
475.363	128.608
478.738	354.683
482.112	736.05
485.487	1311.53
488.862	2117.51
492.237	3068.76
495.612	4117.26
498.986	5083.58
502.361	5166.52
505.736	4053.45
509.111	2644.29
512.486	1691.63
515.861	1251.06
519.235	1125.43
522.61	1251.75
525.985	1555.74
529.36	2017.34
532.735	2580.13
536.11	3153.88
539.484	3605.68
542.859	3757.96
546.234	3513.69
549.609	2853.64
552.984	2089.88
556.358	1398.9
559.733	879.39
563.108	497.852
566.483	216.17
569.858	82.9683
573.232	19.5784
576.607	76.7402
579.982	65.6445
583.357	43.2251
586.732	6.69897
590.107	83.8733
593.481	215.186
596.856	400.235
600.231	667.414
603.606	1006.25
606.981	1449.66
610.356	2035.03
613.73	2761.22
617.105	3668.02
620.48	4766.03
623.855	6092.83
627.23	7505.76
630.605	8776.58
633.979	9687.67
637.354	10008.9
640.729	9648.72
644.104	8696.09
647.479	7435.17
650.853	6086.29
654.228	4869.37
657.603	3842.68
660.978	3026.1
664.353	2344.51
667.727	1843.2
671.102	1455.83
674.477	1157.93
677.852	904.107
681.227	708.468
684.602	577.645
687.976	471.495
691.351	372.815
694.726	277.582
698.101	190.243
701.476	158.188
704.851	105.239
708.225	60.4823
711.6	36.493
714.975	13.4822
718.35	1.92078
721.725	17.7463
725.1	7.3313
728.474	16.567
731.849	29.1656
735.224	12.8121
738.599	14.7129
741.974	22.4804
745.348	2.18127
748.723	8.87512
752.098	10.7634
755.473	15.1534
758.848	17.4424
762.222	38.2848
765.597	34.7227
768.972	37.4791
772.347	44.3237
775.722	41.2195
779.097	41.1162
782.471	36.4902
785.846	40.1449
789.221	36.2064
792.596	48.3129
795.971	45.9284
799.346	45.0089
802.72	47.7891
806.095	59.1362
809.47	56.5844
812.845	49.7977
816.22	47.3822
819.595	31.7479
822.969	31.3744
826.344	21.9689
829.719	33.0716
833.094	27.1218
836.469	29.8096
839.843	28.8211
843.218	26.8466
846.593	29.0845
849.968	17.5009
853.343	18.8939
856.717	21.5369
860.092	21.7048
863.467	19.6608
866.842	15.3956
870.217	14.8883
873.592	4.45352
876.966	10.9109
880.341	11.4342
883.716	2.72693
887.091	3.8967
890.466	9.89423
893.841	2.48645
897.215	7.08603
900.59	3.93106
903.965	0.659912
907.34	10.1506
910.715	15.295
914.09	13.5047
917.464	24.3683
920.839	22.4174
924.214	24.6992
927.589	29.5072
930.964	26.897
934.338	22.8497
937.713	26.8253
941.088	17.7071
944.463	28.8387
947.838	14.8233
951.212	14.3235
954.587	12.5289
957.962	1.64301
961.337	4.15637
964.712	4.09985
968.087	5.78015
971.461	1.00906
974.836	4.09482
978.211	1.80533
981.586	1.89432
984.961	2.25311
988.336	1.65945
991.71	0.151917
995.085	3.14299
998.46	0.173386
1001.84	2.23908
1005.21	1.38232
1008.58	0.219269
1011.96	2.00615
1015.33	5.23698
1018.71	3.22464
1022.08	4.46306
1025.46	4.67131
1028.83	2.48238
1032.21	2.86978
1035.58	4.1828
1038.96	4.32112
1042.33	1.81139
1045.71	4.63864
1049.08	2.1637
1052.46	4.49852
1055.83	10.2418
1059.21	4.40292
1062.58	5.66737
1065.96	6.85239
1069.33	7.59889
1072.71	8.48235
1076.08	14.9977
1079.46	14.3546
1082.83	6.55908
1086.2	6.05743
1089.58	4.89648
1092.95	2.34163
1096.33	6.99629
1099.7	1.56366
1103.08	6.82286
1106.45	0.399765
1109.83	0.158325
1113.2	9.66742
1116.58	3.90007
1119.95	10.2066
1123.33	5.19313
1126.7	4.60281
1130.08	8.55798
1133.45	5.6044
1136.83	8.34713
1140.2	3.8634
1143.58	9.00533
1146.95	7.77285
1150.33	4.15579
1153.7	6.07798
1157.08	6.40811
1160.45	7.45956
1163.83	3.3259
1167.2	7.80058
1170.58	4.13323
1173.95	8.85814
1177.33	6.10558
1180.7	1.81398
1184.08	4.02705
1187.45	1.26504
1190.83	4.60313
1194.2	4.22547
1197.57	4.48289
1200.95	6.93846
1204.32	0.650116
1207.7	5.62643
1211.07	0.720879
1214.45	3.47606
1217.82	5.174
1221.2	5.09848
1224.57	9.03822
1227.95	10.1865
1231.32	4.68656
1234.7	4.89245
1238.07	8.99815
1241.45	7.42718
1244.82	3.98468
1248.2	6.32065
1251.57	7.58422
1254.95	1.88242
1258.32	6.7384
1261.7	3.23392
1265.07	1.79365
1268.45	3.59562
1271.82	2.68961
1275.19	0.545029
1278.57	6.20007
1281.94	3.77609
1285.32	1.94749
1288.69	0.166389
1292.07	4.25306
1295.44	1.73916
1298.82	3.6515
1302.19	1.15963
