Measurement: Raman, 780 nm, unoriented, Raman Data Processed
Mineral: Brookite
Rruff sample: R130225
Ideal chemistry: TiO_2_
Locality: Mont St-Hilaire, Quebec, Canada
Source: Don Doell
Description: Black tabular crystals
Raman shift (cm-1)	intensity
110.484	0
113.859	0.408875
117.234	10.3561
120.609	21.6458
123.984	39.5874
127.358	50.9874
130.733	67.4665
134.108	87.4595
137.483	108.182
140.858	132.93
144.232	163.323
147.607	192.744
150.982	193.216
154.357	161.909
157.732	124.719
161.107	97.4842
164.481	68.9044
167.856	49.0927
171.231	25.0693
174.606	5.36533
177.981	1.72647
181.355	4.63724
184.73	1.39075
188.105	0.54538
191.48	2.35748
194.855	5.33957
198.229	6.14374
201.604	11.0708
204.979	15.6608
208.354	22.1608
211.729	21.6253
215.103	17.8342
218.478	11.6866
221.853	10.1578
225.228	14.9631
228.603	18.1809
231.978	23.9522
235.352	29.6084
238.727	34.1963
242.102	37.776
245.477	37.3784
248.852	21.4765
252.226	12.1705
255.601	8.51758
258.976	5.55225
262.351	10.6761
265.726	13.1463
269.101	17.0889
272.475	18.9041
275.85	19.929
279.225	21.7024
282.6	15.5691
285.975	11.1508
289.349	7.95746
292.724	6.60266
296.099	10.1597
299.474	13.1003
302.849	19.282
306.224	28.1932
309.598	31.9488
312.973	38.9538
316.348	37.0243
319.723	35.7466
323.098	26.9778
326.472	19.4859
329.847	10.1415
333.222	3.93912
336.597	1.14688
339.972	1.49374
343.346	1.90442
346.721	0.177429
350.096	4.28885
353.471	9.4635
356.846	16.5345
360.221	21.5197
363.595	19.8043
366.97	13.3813
370.345	7.34979
373.72	2.63515
377.095	2.18874
380.469	1.29585
383.844	1.99049
387.219	1.14464
390.594	2.06787
393.969	0.426834
397.344	2.16037
400.718	0.713776
404.093	1.09848
407.468	0.444382
410.843	0.705185
414.217	0.648621
417.592	0.113602
420.967	1.90424
424.342	1.4176
427.717	3.13211
431.092	5.57185
434.466	7.60507
437.841	10.2114
441.216	11.6681
444.591	12.0506
447.966	14.694
451.341	13.258
454.715	13.026
458.09	9.85899
461.465	8.894
464.84	6.30165
468.215	4.55659
471.589	3.61034
474.964	3.46536
478.339	0.695374
481.714	2.11928
485.089	3.77077
488.463	2.81624
491.838	2.3392
495.213	2.16875
498.588	2.11542
501.963	0.040436
505.337	1.34728
508.712	0.416504
512.087	0.362305
515.462	0.804108
518.837	1.66533
522.212	2.03291
525.586	4.7301
528.961	6.15199
532.336	3.55971
535.711	7.27461
539.086	7.35138
542.46	6.98277
545.835	6.16669
549.21	6.10585
552.585	7.47659
555.96	5.14078
559.335	4.7933
562.709	5.11864
566.084	5.10428
569.459	6.56306
572.834	5.30399
576.209	5.27951
579.583	6.44524
582.958	4.96718
586.333	5.44263
589.708	4.3607
593.083	2.39301
596.457	2.01417
599.832	0.419922
603.207	1.87656
606.582	2.34817
609.957	2.02306
613.332	1.87462
616.706	2.71054
620.081	3.28934
623.456	4.51263
626.831	4.38864
630.206	4.5645
633.58	6.05507
636.955	5.37096
640.33	5.32048
643.705	4.83023
647.08	3.55034
650.455	4.2285
653.829	2.77251
657.204	2.3271
660.579	2.20706
663.954	0.749008
667.329	1.53743
670.703	1.27226
674.078	1.15639
677.453	0.918854
680.828	0.124863
684.203	0.751404
687.577	0.022675
690.952	3.54854
694.327	1.88541
697.702	1.13963
701.077	0.179688
704.452	0.406418
707.826	1.1729
711.201	0.283646
714.576	0.669647
717.951	1.20094
721.326	0.623947
724.7	0.750122
728.075	0.248062
731.45	0.350555
734.825	1.23103
738.2	0.893448
741.574	1.62247
744.949	0.863632
748.324	0.618179
751.699	2.12215
755.074	0.948334
758.449	1.1525
761.823	1.1461
765.198	1.34642
768.573	0.710281
771.948	0.380356
775.323	0.110275
778.697	1.0898
782.072	0.579758
785.447	0.921997
788.822	0.697998
792.197	0.577271
795.572	1.84833
798.946	1.87237
802.321	1.2021
805.696	1.59366
809.071	2.24568
812.446	1.48601
815.82	2.33681
819.195	1.0732
822.57	1.82899
825.945	1.69546
829.32	2.64134
832.694	1.9035
836.069	2.22232
839.444	2.41754
842.819	2.35809
846.194	2.7448
849.569	2.55764
852.943	3.10578
856.318	1.61799
859.693	1.80332
863.068	1.49288
866.443	2.69002
869.817	2.26588
873.192	1.54688
876.567	0.67701
879.942	1.73216
883.317	1.58987
886.692	0.651413
890.066	1.09454
893.441	0.635391
896.816	1.06221
900.191	1.03452
903.566	1.22498
906.94	0.786964
910.315	1.62928
913.69	0.707283
917.065	1.31131
920.44	0.172569
923.814	0.120705
927.189	1.45577
930.564	1.34844
933.939	0.638176
937.314	0.858376
940.689	1.40386
944.063	0.416374
947.438	1.84285
950.813	1.22622
954.188	1.67068
957.563	1.21117
960.937	0.430916
964.312	0.300308
967.687	1.5686
971.062	1.67197
974.437	1.19096
977.812	0.896141
981.186	0.33046
984.561	1.26861
987.936	0.332222
991.311	1.42721
994.686	0.889908
998.06	0.92997
1001.43	1.30621
1004.81	0.481155
1008.18	1.25324
1011.56	0.032433
1014.93	1.07604
1018.31	1.38043
1021.68	0.002815
1025.06	1.06142
1028.43	0.656815
1031.81	0.315163
1035.18	0.720551
1038.56	1.03809
1041.93	0.596977
1045.31	0.879669
1048.68	1.87989
1052.06	0.55867
1055.43	1.23681
1058.81	0.855438
1062.18	0.703125
1065.56	0.91909
1068.93	1.52326
1072.31	0.902603
1075.68	2.05384
1079.06	0.877174
1082.43	1.09489
1085.81	0.234505
1089.18	1.24911
1092.56	1.40292
1095.93	0.568588
1099.31	0.375641
1102.68	1.64024
1106.05	0.832184
1109.43	1.5312
1112.8	0.41449
1116.18	0.093475
1119.55	0.867279
1122.93	1.02236
1126.3	1.42263
1129.68	0.036079
1133.05	0.974358
1136.43	0.307304
1139.8	1.40072
1143.18	0.002693
1146.55	0.789963
1149.93	0.140358
1153.3	0.217781
1156.68	1.87498
1160.05	0.894669
1163.43	1.262
1166.8	0.759117
1170.18	0.014809
1173.55	1.4739
1176.93	0.289711
1180.3	1.56004
1183.67	1.64868
1187.05	1.77103
1190.42	2.70078
1193.8	2.53304
1197.17	3.53144
1200.55	4.47749
1203.92	5.03367
1207.3	4.87647
1210.67	6.51365
1214.05	5.65269
1217.42	6.02679
1220.8	5.69463
1224.17	5.41355
1227.55	4.32042
1230.92	3.85971
1234.3	4.20719
1237.67	3.89014
1241.05	3.04414
1244.42	1.98802
1247.8	3.12277
1251.17	2.58182
1254.55	3.64072
1257.92	2.73339
1261.3	1.98163
1264.67	2.41827
1268.05	1.33039
1271.42	2.20193
1274.8	0.736465
1278.17	1.60956
1281.55	1.06297
