Measurement: Raman, 514 nm, unoriented, Raman Data Processed
Mineral: Brookite
Rruff sample: R050363
Ideal chemistry: TiO_2_
Locality: Magnet Cove, Arkansas, USA
Source: University of Arizona Mineral Museum
Description: Black fragment of a prismatic crystal associated with quartz
Measured chemistry: (Ti_0.94_Nb^5+^_0.03_Fe^3+^_0.03_)_Î£=1_O_2_
Raman shift (cm-1)	intensity
54.266	0
58.464	274.374
62.661	12.592
66.856	43.647
71.048	552.071
75.239	1586.66
79.427	3537.73
83.614	3970.69
87.798	3722.66
91.981	5037.8
96.161	4885
100.34	5488.23
104.516	6111.14
108.691	7211.86
112.864	8129.73
117.034	10995.3
121.203	13704.2
125.369	14921.3
129.534	16793.4
133.696	19455.4
137.857	25063.1
142.016	34418.4
146.172	46694.9
150.327	53030.6
154.48	45541.6
158.63	31449.2
162.779	21300.7
166.926	15215
171.07	9875.21
175.213	5339.26
179.354	3007.12
183.493	2074.72
187.63	1685.79
191.765	1545.77
195.898	1263.36
200.029	1247.26
204.158	1860.26
208.285	3539.32
212.41	3519.48
216.533	1677.76
220.654	198.326
224.773	412.483
228.891	559.214
233.006	100.791
237.119	1609.8
241.231	4226.29
245.34	5540.59
249.448	4040.18
253.553	2548.68
257.657	2176.79
261.758	2329.26
265.858	3197.8
269.956	4595.21
274.052	6340.37
278.146	7742.17
282.237	7332.54
286.327	5641.37
290.416	4106.98
294.502	3212.1
298.586	3113.84
302.668	3709.72
306.749	4778.06
310.827	6282.96
314.903	7438.48
318.978	8255.28
323.051	8335.32
327.121	6662.52
331.19	4377.64
335.257	2383.7
339.322	1394.65
343.385	832.689
347.446	606.538
351.505	991.164
355.563	1641.91
359.618	2278.7
363.672	2469.68
367.723	1924.1
371.773	1288.31
375.821	953.903
379.866	951.015
383.91	1084.16
387.952	983.256
391.992	1140.71
396.031	1311.88
400.067	1611.23
404.101	1888.43
408.134	1914.42
412.165	1744.17
416.193	1355.65
420.22	772.792
424.245	435.587
428.268	487.968
432.289	658.914
436.309	1115.35
440.326	1496.39
444.342	1836.65
448.355	1935.45
452.367	1600.62
456.377	1180.13
460.385	766.948
464.391	486.047
468.395	129.911
472.398	29.917
476.398	201.66
480.397	108.754
484.394	38.309
488.389	102.899
492.382	232.184
496.373	402.553
500.362	295.976
504.349	92.422
508.335	165.373
512.319	300.218
516.3	290.6
520.28	172.64
524.259	52.427
528.235	174.91
532.209	637.091
536.182	880.144
540.152	1109.06
544.121	1259.84
548.088	1263.55
552.053	1273.22
556.017	1277.7
559.978	1206.8
563.938	1400.62
567.895	1655.52
571.851	1829.76
575.805	2062.6
579.758	2233.19
583.708	2412.99
587.657	2535.06
591.603	2792.38
595.548	2965.03
599.491	3280
603.432	3829.68
607.372	4255
611.309	5065.95
615.245	5678.97
619.179	6513.75
623.111	7226.83
627.041	8405.71
630.97	8723.57
634.896	8865.82
638.821	8948.83
642.744	8593.97
646.665	7493.61
650.584	6295.91
654.502	5603.74
658.418	4384.72
662.331	3612.84
666.244	2879.64
670.154	2086.59
674.062	1674.72
677.969	1195.45
681.874	982.667
685.777	775.801
689.678	511.814
693.577	435.582
697.475	267.51
701.371	253.578
705.265	65.062
709.157	204.269
713.047	30.143
716.936	165.978
720.823	41.272
724.708	26.382
728.591	144.931
732.472	21.477
736.352	11.216
740.23	48.738
744.106	5.784
747.98	125.293
751.853	14.585
755.723	126.703
759.592	85.977
763.459	103.085
767.325	105.662
771.188	163.069
775.05	161.053
778.91	198.102
782.768	145.02
786.625	181.174
790.479	76.719
794.332	151.583
798.183	225.075
802.033	176.576
805.88	272.996
809.726	149.147
813.57	187.598
817.413	249.393
821.253	155.972
825.092	227.961
828.929	103.29
832.764	198.12
836.598	178.605
840.429	205.854
844.259	108.806
848.088	141.021
851.914	105.734
855.739	62.722
859.562	62.336
863.383	32.879
867.203	15.37
871.02	32.59
874.836	9.894
878.65	7.288
882.463	57.989
886.274	32.988
890.083	11.548
893.89	9.032
897.695	84.17
901.499	9.57
905.301	17.98
909.102	33.442
912.9	85.43
916.697	107.39
920.492	68.509
924.285	85.178
928.077	102.271
931.867	82.869
935.655	109.806
939.442	182.321
943.226	162.66
947.009	131.784
950.791	161.873
954.57	167.775
958.348	175.007
962.124	218.142
965.899	213.141
969.671	212.419
973.442	249.291
977.211	254.261
980.979	288.561
984.745	343.793
988.509	366.019
992.271	349.863
996.032	358.234
999.791	328.484
1003.55	340.452
1007.3	327.026
1011.06	328.485
1014.81	345.065
1018.56	328.298
1022.31	363.746
1026.06	314.188
1029.8	296.702
1033.55	341.941
1037.29	316.854
1041.03	277.494
1044.77	227.595
1048.5	247.932
1052.24	251.861
1055.97	281.487
1059.7	290.217
1063.43	219.243
1067.16	203.082
1070.89	210.653
1074.61	254.309
1078.34	177.759
1082.06	201.243
1085.78	171.196
1089.5	206.115
1093.21	148.594
1096.93	90.96
1100.64	154.362
1104.35	179.18
1108.06	114.481
1111.77	107.119
1115.48	127.083
1119.18	118.974
1122.89	456.952
1126.59	219.273
1130.29	117.272
1133.99	75.202
1137.68	88.267
1141.38	74.465
1145.07	35.267
1148.76	18.672
1152.45	37.98
1156.14	36.053
1159.83	23.673
1163.51	20.48
1167.19	5.02
1170.88	12.984
1174.56	33
1178.23	8.923
1181.91	14.363
1185.59	49.221
1189.26	40.349
1192.93	25.248
1196.6	2.441
1200.27	31.377
1203.94	44.732
1207.6	5.985
1211.27	30.973
1214.93	19.785
1218.59	24.637
1222.25	52.442
1225.9	3.993
1229.56	8.729
1233.21	39.101
1236.86	14.451
1240.51	17.517
1244.16	48.931
1247.81	5.679
1251.45	18.977
1255.1	32.787
1258.74	54.649
1262.38	62.867
1266.02	51.821
1269.66	14.808
1273.29	12.477
1276.93	37.24
1280.56	12.116
1284.19	35.715
1287.82	30.446
1291.45	26.831
1295.07	34.636
1298.7	50.536
1302.32	31.063
1305.94	20.105
1309.56	8.018
1313.18	1.961
1316.8	27.089
1320.41	10.041
1324.02	3.214
1327.63	73.41
1331.24	20.237
1334.85	36.893
1338.46	28.119
1342.06	33.477
1345.67	29.208
1349.27	3.07
1352.87	45.784
1356.47	59.724
1360.07	51.786
1363.66	41.337
1367.25	21.213
1370.85	13.139
1374.44	31.454
1378.03	25.11
1381.61	16.395
1385.2	19.625
1388.78	11.924
1392.37	33.857
1395.95	22.376
1399.53	11.389
1403.1	51.07
1406.68	23.983
1410.26	32.065
1413.83	14.806
1417.4	56.614
1420.97	84.978
1424.54	21.425
1428.1	472.882
1431.67	411.942
1435.23	82.018
1438.8	74.157
1442.36	44.379
1445.91	62.839
1449.47	59.94
1453.03	91.931
1456.58	101.47
1460.13	95.204
1463.68	83.189
1467.23	68.032
1470.78	77.159
1474.33	16.777
1477.87	39.675
1481.42	25.551
1484.96	48.896
1488.5	45.157
1492.04	47.208
1495.57	58.125
1499.11	22.546
1502.64	68.69
1506.17	33.885
1509.71	79.571
1513.23	58.747
1516.76	5.596
1520.29	42.74
1523.81	8.482
1527.34	0
