Measurement: Raman, 532 nm, unoriented, Raman Data Processed
Mineral: Brookite
Rruff sample: R130225
Ideal chemistry: TiO_2_
Locality: Mont St-Hilaire, Quebec, Canada
Source: Don Doell
Description: Black tabular crystals
Raman shift (cm-1)	intensity
195.427	0
198.32	0.080765
201.213	1.69833
204.105	5.4585
206.998	10.0422
209.891	18.7474
212.784	23.8717
215.676	13.3993
218.569	3.03644
221.462	2.00178
224.354	0.428635
227.247	6.24333
230.14	18.6241
233.032	28.1878
235.925	42.7244
238.818	64.529
241.71	101.677
244.603	154.583
247.496	161.438
250.389	109.405
253.281	63.8528
256.174	40.8629
259.067	27.3846
261.959	18.8784
264.852	14.4787
267.745	14.7683
270.637	15.3067
273.53	16.0387
276.423	19.832
279.316	21.4158
282.208	21.3129
285.101	22.7083
287.994	19.3631
290.886	17.7748
293.779	23.7097
296.672	32.9154
299.565	51.1571
302.457	69.366
305.35	93.0404
308.243	119.802
311.135	149.587
314.028	172.163
316.921	184.455
319.813	175.305
322.706	150.527
325.599	115.511
328.491	79.0872
331.384	48.4185
334.277	22.4307
337.17	7.98036
340.062	0.512238
342.955	3.27415
345.848	2.64728
348.74	3.76643
351.633	13.4846
354.526	30.1479
357.418	49.183
360.311	76.9673
363.204	95.5888
366.097	85.9029
368.989	48.4488
371.882	21.3927
374.775	8.51825
377.667	2.82893
380.56	2.34062
383.453	3.59572
386.346	8.21925
389.238	11.0741
392.131	13.9168
395.024	13.4051
397.916	15.4232
400.809	17.2401
403.702	20.8553
406.594	25.1532
409.487	29.2658
412.38	28.4491
415.272	22.7047
418.165	16.9487
421.058	9.258
423.951	3.72006
426.843	0.852341
429.736	1.61084
432.629	1.07501
435.521	1.20734
438.414	7.02985
441.307	13.521
444.2	19.393
447.092	28.8507
449.985	37.8462
452.878	44.9826
455.77	50.7942
458.663	53.5318
461.556	48.4762
464.448	40.6026
467.341	32.403
470.234	25.8232
473.127	19.7904
476.019	16.7576
478.912	16.8783
481.805	17.4575
484.697	19.4602
487.59	22.2171
490.483	24.6588
493.375	29.0124
496.268	28.9433
499.161	25.7925
502.053	21.1223
504.946	12.8272
507.839	3.85272
510.732	0.962158
513.624	2.2798
516.517	1.26999
519.41	2.66179
522.302	1.24721
525.195	5.81364
528.088	12.3783
530.981	18.8693
533.873	26.0865
536.766	33.2511
539.659	36.0442
542.551	36.0954
545.444	35.3676
548.337	33.0969
551.229	27.3922
554.122	22.5892
557.015	18.1654
559.908	15.0122
562.8	13.2227
565.693	13.2513
568.586	14.3023
571.478	17.1436
574.371	18.4667
577.264	19.8609
580.156	20.1634
583.049	17.4179
585.942	13.3973
588.835	9.45561
591.727	4.70227
594.62	1.06537
597.513	0.475143
600.405	0.929703
603.298	2.23332
606.191	5.00786
609.083	11.005
611.976	16.2341
614.869	23.0028
617.761	35.2461
620.654	43.7551
623.547	51.6599
626.44	61.1949
629.332	68.506
632.225	74.5104
635.118	76.7307
638.01	74.6232
640.903	72.2038
643.796	66.8945
646.688	56.7151
649.581	48.2374
652.474	41.0829
655.367	32.4756
658.259	27.307
661.152	21.6453
664.045	15.9307
666.937	13.3508
669.83	10.2915
672.723	6.68123
675.615	3.87738
678.508	3.72642
681.401	1.36757
684.294	2.33974
687.186	1.64781
690.079	1.01147
692.972	1.39716
695.864	0.160599
698.757	0.449448
701.65	1.43854
704.543	0.226364
707.435	0.001892
710.328	0.85585
713.221	0.639984
716.113	0.174438
719.006	0.686142
721.899	1.31067
724.791	1.36713
727.684	0.923996
730.577	2.42189
733.47	2.71301
736.362	1.69939
739.255	1.7937
742.148	2.72701
745.04	2.11772
747.933	3.10945
750.826	4.40291
753.718	2.57185
756.611	3.3474
759.504	5.74268
762.396	2.45062
765.289	3.11444
768.182	3.01633
771.075	2.59758
773.967	2.101
776.86	1.80313
779.753	0.973709
782.645	3.019
785.538	1.83101
788.431	0.420319
791.323	1.55399
794.216	2.12712
797.109	0.882111
800.002	2.20547
802.894	1.59999
805.787	2.31662
808.68	2.31783
811.572	1.14508
814.465	1.5468
817.358	1.22653
820.25	2.48726
823.143	3.008
826.036	1.31895
828.929	1.40387
831.821	2.22174
834.714	1.96178
837.607	1.86075
840.5	2.34085
843.392	2.55589
846.285	3.15509
849.178	2.57265
852.07	1.43492
854.963	2.57138
857.856	1.48003
860.748	0.915894
863.641	3.25411
866.534	2.20216
869.427	1.53731
872.319	1.20071
875.212	1.57592
878.105	1.36609
880.997	0.729332
883.89	0.149467
886.783	0.460823
889.675	0.8069
892.568	0.095299
895.461	0.656631
898.354	0.473373
901.246	0.403328
904.139	0.808365
907.032	0.177879
909.924	0.309349
912.817	1.13621
915.71	1.36695
918.602	0.651161
921.495	0.568863
924.388	1.08522
927.28	0.694153
930.173	0.253807
933.066	1.00998
935.959	1.06664
938.851	0.86039
941.744	1.23904
944.637	1.21658
947.529	2.16677
950.422	1.27138
953.315	1.5537
956.207	1.25378
959.1	1.65029
961.993	3.03734
964.886	2.25713
967.778	1.10945
970.671	0.697945
973.564	1.43308
976.456	0.800217
979.349	1.85371
982.242	0.100388
985.135	1.0345
988.027	1.06654
990.92	0.801262
993.813	0.004456
996.705	0.188118
999.598	1.52584
1002.49	0.895775
1005.38	0.633743
1008.28	1.04657
1011.17	0.943413
1014.06	0.1996
1016.95	0.773651
1019.85	1.27919
1022.74	1.41228
1025.63	1.93787
1028.53	2.18235
1031.42	1.59053
1034.31	0.940536
1037.2	0.810532
1040.1	1.19927
1042.99	0.44355
1045.88	1.45656
1048.77	1.87032
1051.67	1.49825
1054.56	1.41081
1057.45	0.282814
1060.35	0.734383
1063.24	0.724236
1066.13	2.19382
1069.02	2.64315
1071.92	0.211304
1074.81	0.622902
1077.7	0.656548
1080.59	1.38374
1083.49	0.843269
1086.38	1.77013
1089.27	0.244614
1092.16	1.29188
1095.06	0.830963
1097.95	0.877708
1100.84	1.36887
1103.73	1.44994
1106.63	2.30096
1109.52	1.22443
1112.41	0.658516
1115.31	1.65522
1118.2	0.853386
1121.09	1.27487
1123.98	0.493484
1126.88	0.293205
1129.77	0.765144
1132.66	0.798096
1135.56	2.32737
1138.45	1.81171
1141.34	1.36873
1144.23	0.300926
1147.13	0.932137
1150.02	1.29851
1152.91	0.489265
1155.8	1.25211
1158.7	1.11783
1161.59	0.101486
1164.48	0.513153
1167.38	0.292221
1170.27	0.712578
1173.16	0.467636
1176.05	0.552734
1178.94	0.645576
1181.84	1.03402
1184.73	0.070732
1187.62	0.654289
1190.52	1.6618
1193.41	0.969673
1196.3	0.733261
1199.19	1.52354
1202.09	1.16666
1204.98	1.64977
1207.87	0.803154
1210.77	1.42969
1213.66	0.95385
1216.55	1.38061
1219.44	1.38602
1222.34	0.735359
1225.23	1.67323
1228.12	1.30091
1231.01	0.023598
1233.91	1.51427
1236.8	0.947037
1239.69	1.30774
1242.59	1.15968
1245.48	0.93264
1248.37	3.83454
1251.26	0.841492
1254.16	0.80687
1257.05	1.45747
1259.94	1.45312
1262.83	1.65308
1265.73	1.14374
1268.62	1.77239
1271.51	1.46249
1274.4	1.08395
1277.3	0.139847
1280.19	1.2666
1283.08	2.3092
1285.97	0.137878
1288.87	0.857819
1291.76	0.666031
1294.65	0.737885
1297.55	0.746674
1300.44	1.00623
