Measurement: Raman, 532 nm, unoriented, Raman Data Processed
Mineral: Brookite
Rruff sample: R050363
Ideal chemistry: TiO_2_
Locality: Magnet Cove, Arkansas, USA
Source: University of Arizona Mineral Museum
Description: Black fragment of a prismatic crystal associated with quartz
Measured chemistry: (Ti_0.94_Nb^5+^_0.03_Fe^3+^_0.03_)_Î£=1_O_2_
Raman shift (cm-1)	intensity
113.567	0
116.942	4.46953
120.316	42.0346
123.691	112.4
127.066	169.526
130.441	196.065
133.816	250.94
137.19	281.949
140.565	327.374
143.94	394.647
147.315	492.093
150.69	585.695
154.065	580.225
157.439	436.991
160.814	281.36
164.189	169.293
167.564	103.403
170.939	65.3556
174.313	28.0521
177.688	10.0678
181.063	3.09749
184.438	3.15748
187.813	3.21649
191.187	16.0283
194.562	26.4896
197.937	8.08364
201.312	0.977036
204.687	2.43964
208.061	13.8102
211.436	28.9268
214.811	18.6726
218.186	4.71694
221.561	11.952
224.936	5.40028
228.31	13.2187
231.685	35.6984
235.06	58.4504
238.435	94.4156
241.81	150.216
245.185	220.137
248.559	210.617
251.934	133.118
255.309	82.5125
258.684	57.5382
262.059	43.7913
265.433	40.2691
268.808	39.4026
272.183	41.7097
275.558	45.5461
278.933	44.9356
282.308	40.9034
285.682	35.4104
289.057	36.8832
292.432	43.142
295.807	57.9914
299.182	85.361
302.556	119.755
305.931	158.382
309.306	198.168
312.681	232.681
316.056	255.329
319.43	244.453
322.805	206.79
326.18	152.478
329.555	97.5211
332.93	55.1346
336.305	25.2792
339.679	7.91418
343.054	0.749191
346.429	1.41919
349.804	2.08829
353.179	12.6092
356.553	23.7089
359.928	42.3147
363.303	55.2869
366.678	41.1557
370.053	19.0702
373.428	2.28909
376.802	3.78113
380.177	2.8987
383.552	1.13142
386.927	11.0535
390.302	12.6815
393.676	18.6151
397.051	25.935
400.426	34.3706
403.801	43.3494
407.176	49.3575
410.55	49.5143
413.925	44.7628
417.3	33.3255
420.675	23.3987
424.05	11.9848
427.425	3.64981
430.799	0.660965
434.174	1.52171
437.549	0.668427
440.924	2.69312
444.299	10.147
447.673	17.0861
451.048	24.026
454.423	29.3949
457.798	32.4796
461.173	32.3638
464.548	28.4937
467.922	22.9414
471.297	18.8949
474.672	16.5315
478.047	15.6935
481.422	18.2775
484.796	23.8185
488.171	32.3138
491.546	39.4735
494.921	45.638
498.296	44.779
501.671	39.0299
505.045	26.2859
508.42	14.2404
511.795	6.30843
515.17	1.03969
518.545	1.36462
521.919	0.312363
525.294	3.78628
528.669	8.11079
532.044	11.9027
535.419	19.0405
538.794	22.0351
542.168	22.726
545.543	21.2328
548.918	17.5289
552.293	11.7157
555.668	6.83592
559.043	1.77597
562.417	1.29422
565.792	2.13121
569.167	1.14714
572.542	1.33556
575.917	4.61475
579.291	8.00548
582.666	8.81422
586.041	9.33186
589.416	7.93175
592.791	5.18242
596.165	4.58199
599.54	6.67978
602.915	10.0246
606.29	16.7943
609.665	23.1888
613.039	30.993
616.414	40.6573
619.789	52.4999
623.164	63.1067
626.539	76.6973
629.914	86.6661
633.288	94.7377
636.663	100.499
640.038	102.437
643.413	97.6972
646.788	90.488
650.163	79.7846
653.537	66.6144
656.912	55.26
660.287	45.0365
663.662	34.9365
667.037	27.1449
670.411	20.3233
673.786	16.1305
677.161	11.8285
680.536	7.60574
683.911	6.12379
687.285	3.8293
690.66	2.32163
694.035	1.69978
697.41	0.830971
700.785	0.354347
704.159	0.024788
707.534	0.14933
710.909	0.402061
714.284	1.42595
717.659	0.663231
721.034	0.355408
724.408	0.097305
727.783	1.06855
731.158	1.31731
734.533	0.710213
737.908	0.883026
741.283	1.99792
744.657	2.36983
748.032	2.7525
751.407	2.30566
754.782	3.59753
758.157	3.98956
761.531	3.31996
764.906	4.43691
768.281	5.40668
771.656	3.76524
775.031	4.09679
778.405	2.64527
781.78	3.35606
785.155	4.38161
788.53	3.97047
791.905	5.06068
795.28	4.93076
798.654	5.24155
802.029	5.83637
805.404	6.48463
808.779	6.86266
812.154	7.1361
815.529	7.36416
818.903	7.46534
822.278	8.36652
825.653	7.46045
829.028	7.59522
832.403	7.21024
835.777	7.03941
839.152	6.88076
842.527	7.13998
845.902	5.73496
849.277	5.97853
852.652	6.50639
856.026	5.78707
859.401	5.01599
862.776	4.35133
866.151	3.79462
869.526	2.65269
872.9	2.86922
876.275	1.27362
879.65	1.03683
883.025	1.1983
886.4	0.558083
889.774	0.52626
893.149	0.045036
896.524	0.063591
899.899	0.286949
903.274	0.178642
906.649	0.032303
910.023	0.487015
913.398	0.006195
916.773	0.468109
920.148	0.218498
923.523	0.90564
926.898	0.164536
930.272	1.46261
933.647	1.88028
937.022	1.23849
940.397	1.8829
943.771	0.887154
947.146	0.467323
950.521	0.533871
953.896	1.79067
957.271	1.59355
960.646	1.41927
964.02	1.31424
967.395	0.817154
970.77	0.426315
974.145	1.16632
977.52	1.25365
980.894	1.30709
984.269	1.15561
987.644	1.07353
991.019	0.689705
994.394	1.11552
997.769	1.49527
1001.14	1.19125
1004.52	1.59816
1007.89	1.00224
1011.27	0.659237
1014.64	0.21682
1018.02	1.42085
1021.39	0.622898
1024.77	1.85633
1028.14	0.788128
1031.52	0.622871
1034.89	1.0654
1038.27	1.27052
1041.64	1.04728
1045.02	0.55069
1048.39	1.13434
1051.77	1.45916
1055.14	1.22966
1058.52	1.09693
1061.89	0.833836
1065.27	1.52142
1068.64	0.723862
1072.02	0.691441
1075.39	0.987232
1078.76	0.728664
1082.14	0.912819
1085.51	0.760227
1088.89	0.459068
1092.26	0.519619
1095.64	0.428028
1099.01	0.886272
1102.39	0.375381
1105.76	0.857029
1109.14	0.546536
1112.51	0.598543
1115.89	0.091805
1119.26	0.82008
1122.64	0.134251
1126.01	0.612804
1129.39	0.780582
1132.76	0.821922
1136.14	0.020508
1139.51	0.811058
1142.89	0.652241
1146.26	0.267845
1149.63	0.005783
1153.01	0.304111
1156.38	0.461105
1159.76	0.751263
1163.13	0.514771
1166.51	0.393997
1169.88	1.31016
1173.26	1.04141
1176.63	0.69136
1180.01	0.646484
1183.38	0.402782
1186.76	0.547146
1190.13	0.740299
1193.51	0.673309
1196.88	0.220673
1200.26	0.192448
1203.63	0.804276
1207.01	0.807678
1210.38	0.824142
1213.76	0.886299
1217.13	1.09492
1220.51	0.316772
1223.88	1.01824
1227.26	0.856667
1230.63	0.554817
1234.01	1.12275
1237.38	0.770172
1240.76	0.438118
1244.13	0.315536
1247.51	0.824913
1250.88	0.020966
1254.26	0.322586
1257.63	0.489647
1261	0.148926
1264.38	0.507378
1267.75	1.03642
1271.13	0.809204
1274.5	0.684135
1277.88	0.681435
1281.25	1.20337
1284.63	1.17886
1288	0.474113
1291.38	0.845238
1294.75	0.846497
1298.13	0.786072
1301.5	0.123886
1304.88	0
