Measurement: Raman, 780 nm, unoriented, Raman Data Processed
Mineral: Brookite
Rruff sample: R050363
Ideal chemistry: TiO_2_
Locality: Magnet Cove, Arkansas, USA
Source: University of Arizona Mineral Museum
Description: Black fragment of a prismatic crystal associated with quartz
Measured chemistry: (Ti_0.94_Nb^5+^_0.03_Fe^3+^_0.03_)_Î£=1_O_2_
Raman shift (cm-1)	intensity
113.254	0
116.629	1.28686
120.004	6.36668
123.379	13.7446
126.754	17.5415
130.129	19.6456
133.503	24.4908
136.878	30.5267
140.253	38.874
143.628	47.6323
147.003	60.6887
150.377	68.9853
153.752	66.9905
157.127	56.978
160.502	44.7163
163.877	32.7251
167.251	19.8452
170.626	9.49618
174.001	1.4818
177.376	2.26263
180.751	2.74791
184.126	1.87537
187.5	0.720242
190.875	3.98858
194.25	7.5715
197.625	8.96631
201	11.377
204.375	12.9479
207.749	14.3709
211.124	11.9526
214.499	8.90842
217.874	3.93675
221.249	2.03368
224.623	3.53942
227.998	5.51868
231.373	8.76106
234.748	10.9438
238.123	11.4448
241.498	13.4135
244.872	14.1373
248.247	11.5525
251.622	7.6387
254.997	6.24693
258.372	6.45906
261.746	7.23993
265.121	8.78216
268.496	11.6626
271.871	12.1661
275.246	13.8251
278.62	12.3941
281.995	11.3601
285.37	10.0358
288.745	10.0039
292.12	12.4248
295.495	17.5203
298.869	24.8589
302.244	31.7575
305.619	39.2445
308.994	45.7662
312.369	46.1128
315.743	45.6223
319.118	40.2085
322.493	31.3391
325.868	20.6842
329.243	11.287
332.618	4.39419
335.992	0.142548
339.367	1.47066
342.742	0.010391
346.117	2.8042
349.492	6.4521
352.866	10.4139
356.241	15.3901
359.616	15.7967
362.991	14.9845
366.366	9.06602
369.74	5.04457
373.115	0.558109
376.49	0.152962
379.865	0.870827
383.24	0.243401
386.615	0.09626
389.989	1.67793
393.364	1.97864
396.739	2.72536
400.114	3.00225
403.489	3.53317
406.863	3.28643
410.238	2.38129
413.613	1.77605
416.988	1.01669
420.363	0.469456
423.738	0.131882
427.112	0.261494
430.487	1.99925
433.862	3.81754
437.237	6.06674
440.612	8.41442
443.986	10.4754
447.361	12.1331
450.736	13.0256
454.111	13.787
457.486	13.0325
460.861	13.2683
464.235	10.5551
467.61	9.10667
470.985	7.92526
474.36	6.96021
477.735	5.9349
481.109	5.74124
484.484	5.8574
487.859	6.15086
491.234	6.68942
494.609	5.09258
497.983	4.30756
501.358	2.65741
504.733	1.11098
508.108	0.312229
511.483	0.513401
514.858	0.25177
518.232	0.017109
521.607	0.921139
524.982	1.14495
528.357	2.04588
531.732	4.24058
535.106	4.0233
538.481	5.10018
541.856	4.9359
545.231	4.78482
548.606	4.1533
551.981	4.22461
555.355	3.76471
558.73	3.44726
562.105	3.62477
565.48	4.73508
568.855	5.38077
572.23	5.30191
575.604	5.50607
578.979	5.5144
582.354	5.3469
585.729	3.81776
589.104	2.70564
592.478	1.86301
595.853	1.06062
599.228	0.420166
602.603	0.256599
605.978	0.44009
609.352	0.610825
612.727	1.24498
616.102	1.73582
619.477	2.27798
622.852	2.19674
626.226	3.58129
629.601	4.14179
632.976	4.59349
636.351	5.10025
639.726	5.34795
643.101	5.07942
646.475	5.22278
649.85	4.06026
653.225	3.98903
656.6	2.61701
659.975	2.28203
663.35	0.84314
666.724	0.73423
670.099	0.575844
673.474	0.212566
676.849	0.348684
680.224	0.236551
683.598	0.179144
686.973	0.292374
690.348	0.323015
693.723	0.375172
697.098	0.311304
700.472	0.016869
703.847	0.245979
707.222	0.503487
710.597	0.528318
713.972	0.719618
717.347	0.23279
720.721	1.67511
724.096	1.24815
727.471	1.72663
730.846	1.81035
734.221	1.78453
737.596	2.05557
740.97	2.08714
744.345	2.13045
747.72	2.70979
751.095	1.96458
754.47	1.81412
757.844	2.37437
761.219	2.41824
764.594	2.09289
767.969	2.46897
771.344	1.97642
774.718	2.25352
778.093	2.44642
781.468	2.6438
784.843	2.68412
788.218	2.69986
791.592	2.73496
794.967	2.70761
798.342	3.51801
801.717	3.68693
805.092	3.45621
808.467	4.05892
811.841	3.92321
815.216	4.39841
818.591	3.83638
821.966	4.19106
825.341	4.65452
828.716	4.07964
832.09	4.00085
835.465	3.52429
838.84	3.21588
842.215	3.385
845.59	2.43155
848.964	2.30617
852.339	2.19062
855.714	1.89148
859.089	1.65356
862.464	1.00975
865.838	2.01905
869.213	1.55621
872.588	0.385498
875.963	0.458324
879.338	0.592278
882.713	0.339977
886.087	0.206615
889.462	0.033045
892.837	0.63195
896.212	0.071898
899.587	0.283799
902.962	0.008765
906.336	0.340578
909.711	0.027017
913.086	0.024776
916.461	0.287694
919.836	0.272964
923.21	0.383514
926.585	0.760175
929.96	0.106137
933.335	0.338017
936.71	0.200663
940.084	0.718502
943.459	0.577965
946.834	0.859601
950.209	0.95974
953.584	0.91596
956.958	1.03544
960.333	1.21209
963.708	0.688596
967.083	0.85325
970.458	0.908699
973.833	1.07538
977.207	0.534303
980.582	0.769006
983.957	0.955719
987.332	0.794403
990.707	0.455273
994.082	0.667159
997.456	0.599562
1000.83	0.720309
1004.21	0.491629
1007.58	0.386517
1010.96	0.79355
1014.33	0.748769
1017.71	0.784383
1021.08	0.62074
1024.45	0.555283
1027.83	0.432188
1031.2	0.406528
1034.58	0.802184
1037.95	0.86217
1041.33	0.921085
1044.7	0.864718
1048.08	0.746782
1051.45	0.780633
1054.83	0.506433
1058.2	0.581095
1061.58	0.712536
1064.95	0.532305
1068.33	0.766918
1071.7	0.340345
1075.08	0.979277
1078.45	0.228357
1081.83	0.754731
1085.2	0.078301
1088.58	0.318608
1091.95	0.576536
1095.33	0.208478
1098.7	0.516702
1102.08	0.202292
1105.45	0.17777
1108.83	0.469925
1112.2	0.667759
1115.58	0.29085
1118.95	0.546825
1122.32	0.13891
1125.7	0.780875
1129.07	0.570344
1132.45	0.579093
1135.82	0.335682
1139.2	0.267113
1142.57	0.584684
1145.95	0.261001
1149.32	0.059853
1152.7	0.336529
1156.07	0.057336
1159.45	0.201637
1162.82	0.489921
1166.2	0.40179
1169.57	0.353928
1172.95	0.16733
1176.32	0.369635
1179.7	0.398164
1183.07	0.422635
1186.45	0.298203
1189.82	0.113492
1193.2	0.823219
1196.57	0.492277
1199.94	0.541381
1203.32	0.276611
1206.69	0.238828
1210.07	0.60533
1213.44	0.467749
1216.82	0.476112
1220.19	0.437301
1223.57	0.156422
1226.94	0.253136
1230.32	0.462946
1233.69	0.42486
1237.07	0.189329
1240.44	0.118623
1243.82	0.376662
1247.19	0.512653
1250.57	0.325859
1253.94	0.320744
1257.32	0.175236
1260.69	0.374473
1264.07	0.847108
1267.44	0.394657
1270.82	0.219641
1274.19	0.087175
1277.57	0.212876
1280.94	0.112554
1284.32	0.796683
