Measurement: Raman, 780 nm, unoriented, Raman Data Processed
Mineral: Brookite
Rruff sample: R050591
Ideal chemistry: TiO_2_
Locality: Taftan, near Dalbandi, Baluchistan, Pakistan
Source: Wayne Thompson
Description: Yellowish-brown to reddish-brown thin tabular crystal
Measured chemistry: Ti_1.00_O_2_
Raman shift (cm-1)	intensity
120.992	0
124.367	6209.61
127.742	13071.2
131.117	8985.13
134.492	7566.42
137.867	4860.72
141.241	8280.43
144.616	16405.5
147.991	30913.1
151.366	47975.2
154.741	40332.2
158.115	19718.7
161.49	8719.7
164.865	3627.31
168.24	1210.03
171.615	144.792
174.989	445.712
178.364	810.331
181.739	680.256
185.114	256.472
188.489	497.386
191.863	2346.79
195.238	2851.54
198.613	1386.24
201.988	1565.02
205.363	2241.89
208.738	3610.98
212.112	6446.38
215.487	4813.05
218.862	2019.76
222.237	1620.82
225.612	2034.21
228.987	2885.24
232.361	3309.09
235.736	4176.4
239.111	6153.06
242.486	11284.3
245.861	18014
249.235	10730.4
252.61	4577.8
255.985	2550.29
259.36	1615.4
262.735	1171.66
266.109	866.38
269.484	690.508
272.859	602.571
276.234	602.052
279.609	621.99
282.983	711.695
286.358	780.69
289.733	882.737
293.108	1224.16
296.483	2195.57
299.858	3711.49
303.232	5676.32
306.607	8228.74
309.982	11791.3
313.357	16442.3
316.732	20912.8
320.106	21072.4
323.481	15932
326.856	10033.1
330.231	5975.93
333.606	3444.05
336.981	1922.55
340.355	998.158
343.73	422.96
347.105	89.2488
350.48	76.5408
353.855	120.349
357.229	106.539
360.604	29.1665
363.979	242.13
367.354	253.715
370.729	4.33044
374.103	132.548
377.478	139.196
380.853	40.0919
384.228	162.24
387.603	431.125
390.978	819.855
394.352	1356.2
397.727	2090.03
401.102	3042.1
404.477	4375.11
407.852	5862.54
411.226	6739.28
414.601	6179.97
417.976	4726.81
421.351	3181.08
424.726	1976.38
428.101	1205.62
431.475	663.801
434.85	269.405
438.225	51.3059
441.6	2.4375
444.975	86.0195
448.349	317.263
451.724	520.184
455.099	477.244
458.474	355.822
461.849	251.291
465.224	132.648
468.598	19.6587
471.973	22.3452
475.348	13.6086
478.723	159.512
482.098	448.908
485.472	897.97
488.847	1574.35
492.222	2494.26
495.597	3712.74
498.972	4966.34
502.346	5167.56
505.721	3984.43
509.096	2550.82
512.471	1603.82
515.846	1135.18
519.221	953.653
522.595	1037.15
525.97	1287.18
529.345	1697.05
532.72	2189.84
536.095	2742.98
539.469	3167.72
542.844	3381.41
546.219	3173.26
549.594	2631.11
552.969	1966.87
556.343	1314.39
559.718	829.735
563.093	478.714
566.468	235.198
569.843	98.434
573.217	1.24439
576.592	17.7847
579.967	1.70874
583.342	14.7527
586.717	27.1953
590.092	53.3417
593.466	17.5902
596.841	55.4228
600.216	182.897
603.591	384.455
606.966	627.334
610.341	946.959
613.715	1361.36
617.09	1874.67
620.465	2528.86
623.84	3276.02
627.215	4078.12
630.589	4855.99
633.964	5436.74
637.339	5684.66
640.714	5527.19
644.089	5038.14
647.463	4337.61
650.838	3554.06
654.213	2854.9
657.588	2263.05
660.963	1798.31
664.337	1392.88
667.712	1112.35
671.087	877.231
674.462	703.09
677.837	549.192
681.212	453.396
684.586	361.71
687.961	295.38
691.336	238.63
694.711	187.867
698.086	144.395
701.461	115.778
704.835	76.6411
708.21	52.1687
711.585	30.5456
714.96	23.4348
718.335	3.37512
721.709	7.63306
725.084	4.66516
728.459	8.4895
731.834	7.71063
735.209	3.21143
738.583	7.74829
741.958	3.06055
745.333	10.3865
748.708	2.44861
752.083	4.07159
755.457	7.2511
758.832	1.42133
762.207	12.0958
765.582	14.2412
768.957	18.9443
772.332	16.8881
775.706	14.0219
779.081	21.5679
782.456	27.7175
785.831	29.054
789.206	29.9835
792.58	48.621
795.955	59.7961
799.33	66.3534
802.705	83.4443
806.08	94.6473
809.455	115.249
812.829	117.523
816.204	94.2999
819.579	73.2318
822.954	55.6538
826.329	39.6234
829.703	20.1039
833.078	14.846
836.453	7.32465
839.828	5.80161
843.203	8.58874
846.577	3.96881
849.952	0.589783
853.327	4.91528
856.702	9.98273
860.077	9.52249
863.452	4.08118
866.826	1.99716
870.201	6.18271
873.576	5.52237
876.951	8.1911
880.326	8.11014
883.7	6.85742
887.075	13.5381
890.45	13.3338
893.825	10.8344
897.2	6.94858
900.574	6.5296
903.949	9.65688
907.324	3.37785
910.699	15.8229
914.074	10.0528
917.449	15.5681
920.823	11.7913
924.198	18.7046
927.573	17.5236
930.948	20.7606
934.323	16.7705
937.697	19.4003
941.072	17.3576
944.447	21.2319
947.822	15.5791
951.197	7.10731
954.572	6.25757
957.946	7.45544
961.321	13.5043
964.696	8.8208
968.071	2.86591
971.446	9.89519
974.82	7.23041
978.195	2.8609
981.57	5.10346
984.945	5.86688
988.32	1.58542
991.694	1.91707
995.069	6.46202
998.444	0.788483
1001.82	1.73633
1005.19	5.19208
1008.57	6.98195
1011.94	1.36462
1015.32	8.28075
1018.69	7.62068
1022.07	4.61877
1025.44	6.44243
1028.82	4.86244
1032.19	2.9077
1035.57	10.8915
1038.94	8.10971
1042.32	9.08397
1045.69	7.05275
1049.07	8.59979
1052.44	2.74322
1055.82	1.9026
1059.19	10.8352
1062.57	3.63704
1065.94	7.22487
1069.32	9.93956
1072.69	8.92747
1076.07	10.4387
1079.44	4.56528
1082.81	6.54112
1086.19	7.2553
1089.56	5.34262
1092.94	5.82214
1096.31	4.75317
1099.69	1.37657
1103.06	5.32973
1106.44	2.15733
1109.81	6.48231
1113.19	1.5325
1116.56	3.60991
1119.94	4.03075
1123.31	9.16708
1126.69	2.83882
1130.06	2.12254
1133.44	8.29475
1136.81	3.39045
1140.19	8.06504
1143.56	6.05115
1146.94	2.15432
1150.31	4.29111
1153.69	11.2236
1157.06	5.44163
1160.43	8.85029
1163.81	8.18771
1167.18	6.62723
1170.56	2.78041
1173.93	1.75535
1177.31	8.20368
1180.68	2.25496
1184.06	0.423424
1187.43	5.50337
1190.81	1.74169
1194.18	4.97169
1197.56	3.85993
1200.93	3.00211
1204.31	8.92297
1207.68	4.70375
1211.06	7.0069
1214.43	4.52239
1217.81	6.79089
1221.18	2.53386
1224.56	8.59467
1227.93	8.79887
1231.31	3.39468
1234.68	9.79734
1238.06	3.92954
1241.43	9.95836
1244.81	1.70583
1248.18	3.1016
1251.56	1.52396
1254.93	6.85353
1258.31	3.56596
1261.68	9.36729
1265.05	7.87872
1268.43	4.01942
1271.8	0.068848
1275.18	7.99104
1278.55	5.8881
1281.93	2.59806
1285.3	6.66505
