Measurement: Raman, 780 nm, unoriented, Raman Data Processed
Mineral: Brownmillerite
Rruff sample: R130105
Ideal chemistry: Ca_2_Fe^3+^AlO_5_
Locality: Ettringer Feld, Bellerberg volcano, Ettringen, Mayen, Eifel, Rhineland-Palatinate, Germany
Source: Donald Doell
Description: Brownish-red platy crystals. Diffraction indicates an I-centered lattice
Raman shift (cm-1)	intensity
102.288	0
105.663	4.96521
109.038	0.373657
112.413	4.37476
115.787	21.2474
119.162	28.0695
122.537	22.308
125.912	17.0425
129.287	17.8572
132.662	21.6232
136.036	19.2814
139.411	18.5807
142.786	18.7787
146.161	18.9601
149.536	13.548
152.911	7.02466
156.285	0.309814
159.66	6.75049
163.035	1.32556
166.41	5.46021
169.785	3.29968
173.159	4.2229
176.534	7.00696
179.909	5.87732
183.284	10.3944
186.659	10.5642
190.033	13.4238
193.408	10.9707
196.783	14.0879
200.158	13.4655
203.533	15.8118
206.907	17.051
210.282	16.0004
213.657	11.7421
217.032	11.0046
220.407	1.78003
223.782	0.020752
227.156	2.62256
230.531	1.56262
233.906	1.26672
237.281	13.3415
240.656	19.8068
244.03	36.1777
247.405	53.7594
250.78	71.2892
254.155	89.8673
257.53	111.087
260.904	125.713
264.279	113.339
267.654	95.7867
271.029	72.4477
274.404	63.2347
277.779	54.3645
281.153	50.3965
284.528	46.1002
287.903	47.6523
291.278	51.2291
294.653	52.1659
298.027	59.363
301.402	61.0944
304.777	59.6539
308.152	54.3546
311.527	45.8954
314.902	43.0342
318.276	39.0378
321.651	30.3178
325.026	24.6293
328.401	22.5395
331.776	24.3375
335.151	24.9062
338.525	25.6693
341.9	21.9369
345.275	20.2125
348.65	21.5983
352.024	14.3354
355.399	17.6289
358.774	15.0524
362.149	11.6665
365.524	10.8448
368.899	9.21014
372.273	2.52795
375.648	1.9082
379.023	0.607117
382.398	3.15753
385.773	0.594849
389.147	0.756165
392.522	1.68012
395.897	0.903809
399.272	4.60547
402.647	3.99988
406.022	7.66766
409.396	8.87842
412.771	7.55035
416.146	8.89935
419.521	8.38123
422.896	8.08398
426.27	4.22681
429.645	7.74634
433.02	7.23956
436.395	5.39154
439.77	1.27637
443.144	6.573
446.519	4.07605
449.894	2.53186
453.269	4.11725
456.644	4.99383
460.019	7.55554
463.393	7.38232
466.768	7.90143
470.143	11.9749
473.518	16.0104
476.893	14.5834
480.267	18.2984
483.642	22.5564
487.017	25.5549
490.392	29.2862
493.767	26.2236
497.142	27.7209
500.516	19.3928
503.891	24.2628
507.266	21.4083
510.641	18.0277
514.016	17.5635
517.39	14.333
520.765	12.676
524.14	10.6533
527.515	11.4623
530.89	5.53479
534.264	8.16718
537.639	4.13904
541.014	1.54852
544.389	6.41571
547.764	7.89142
551.139	2.61591
554.513	3.20813
557.888	3.4884
561.263	3.36578
564.638	1.91589
568.013	0.231812
571.388	0.268799
574.762	1.98676
578.137	0.887085
581.512	0.920532
584.887	0.648499
588.261	1.03571
591.636	4.53088
595.011	0.901123
598.386	0.356995
601.761	0.957947
605.136	0.183105
608.51	0.383789
611.885	1.43365
615.26	4.76068
618.635	4.96698
622.01	10.1942
625.385	10.8866
628.759	10.5427
632.134	10.73
635.509	9.93744
638.884	11.6979
642.259	13.0867
645.633	9.88245
649.008	7.67957
652.383	4.60663
655.758	5.21924
659.133	4.77686
662.507	3.08044
665.882	5.09582
669.257	3.02277
672.632	2.04266
676.007	0.063477
679.381	0.457336
682.756	1.33661
686.131	1.98541
689.506	2.81506
692.881	5.06213
696.256	10.6387
699.63	14.0804
703.005	20.5488
706.38	29.0235
709.755	43.0931
713.13	50.2238
716.505	52.2467
719.879	59.5323
723.254	64.2508
726.629	69.9228
730.004	78.4571
733.379	85.3012
736.753	89.1506
740.128	90.1394
743.503	87.078
746.878	82.9374
750.253	79.4207
753.627	64.7308
757.002	49.3661
760.377	42.7527
763.752	31.4348
767.127	27.0069
770.501	13.9695
773.876	8.13422
777.251	3.70819
780.626	2.45196
784.001	0.238586
787.376	1.31042
790.75	2.15637
794.125	2.24109
797.5	1.01074
800.875	1.62237
804.25	3.06201
807.625	1.38806
810.999	2.22253
814.374	6.30878
817.749	5.69543
821.124	8.70917
824.499	6.69476
827.873	6.90472
831.248	6.83887
834.623	10.8969
837.998	8.43274
841.373	13.8601
844.747	12.157
848.122	10.8014
851.497	11.4951
854.872	11.5977
858.247	13.8285
861.621	8.32953
864.996	8.10602
868.371	7.61908
871.746	5.68536
875.121	5.31995
878.495	0.762878
881.87	3.45941
885.245	1.93243
888.62	1.74292
891.995	0.219849
895.37	0.383484
898.744	1.47034
902.119	1.41821
905.494	0.463928
908.869	1.99286
912.244	2.8631
915.619	4.11585
918.993	5.01794
922.368	7.95288
925.743	8.33087
929.118	8.44818
932.493	11.0828
935.867	12.1078
939.242	10.6862
942.617	9.86383
945.992	7.33679
949.367	4.4953
952.741	3.93054
956.116	0.778625
959.491	2.60175
962.866	1.31665
966.241	0.788818
969.615	2.09869
972.99	1.59949
976.365	0.624695
979.74	2.35553
983.115	4.17615
986.49	3.41638
989.864	8.83887
993.239	10.7533
996.614	10.3577
999.989	18.4695
1003.36	23.9787
1006.74	30.9681
1010.11	28.1008
1013.49	21.5814
1016.86	21.8336
1020.24	13.7043
1023.61	14.4958
1026.99	13.0254
1030.36	7.91037
1033.74	0.548218
1037.11	0.452515
1040.49	3.28555
1043.86	3.23767
1047.24	1.04456
1050.61	1.04532
1053.99	7.47803
1057.36	9.06314
1060.74	12.7756
1064.11	18.9982
1067.48	34.6409
1070.86	58.6159
1074.23	93.8763
1077.61	101.529
1080.98	94.3471
1084.36	110.964
1087.73	143.589
1091.11	150.584
1094.48	77.653
1097.86	28.5297
1101.23	15.127
1104.61	4.00617
1107.98	5.89261
1111.36	2.85449
1114.73	0.338715
1118.11	0.297333
1121.48	1.03244
1124.86	1.51477
1128.23	2.94376
1131.61	1.67453
1134.98	0.764252
1138.36	1.36807
1141.73	2.62006
1145.11	2.33807
1148.48	0.736328
1151.86	0.99588
1155.23	3.07629
1158.61	0.510193
1161.98	1.73257
1165.36	2.82623
1168.73	3.92682
1172.1	5.35529
1175.48	2.46768
1178.85	2.39957
1182.23	1.34476
1185.6	3.16388
1188.98	2.08371
1192.35	4.01797
1195.73	3.39123
1199.1	5.6264
1202.48	3.57483
1205.85	4.49069
1209.23	3.03223
1212.6	1.23987
1215.98	1.0426
1219.35	5.29086
1222.73	1.71707
1226.1	3.30926
1229.48	9.53265
1232.85	7.62347
1236.23	11.6873
1239.6	9.15295
1242.97	10.9131
1246.35	12.8253
1249.72	16.8915
1253.1	17.4451
1256.47	16.9067
1259.85	18.431
1263.22	14.7777
1266.6	12.2636
1269.97	8.92413
1273.35	5.71838
1276.72	1.85321
1280.1	1.34503
1283.47	0.423645
