Measurement: Raman, 785 nm, unoriented, Raman Data Processed
Mineral: Brucite
Rruff sample: R040077
Ideal chemistry: Mg(OH)_2_
Locality: Gabbs, Nye County, Nevada, USA
Source: University of Arizona Mineral Museum
Description: White fine-grained massive
Measured chemistry: Mg_1.00_(OH)_2_
Raman shift (cm-1)	intensity
157.788	8.45447
160.681	4.9292
163.573	32.7257
166.466	27.5707
169.359	53.9827
172.252	41.2075
175.144	47.3727
178.037	44.0853
180.93	36.0364
183.822	27.1742
186.715	18.5569
189.608	6.74133
192.5	15.9477
195.393	11.7637
198.286	20.4056
201.179	33.6519
204.071	14.7303
206.964	19.9126
209.857	20.8596
212.749	50.6755
215.642	2.8905
218.535	35.1254
221.428	34.5364
224.32	37.4086
227.213	53.2274
230.106	15.6284
232.998	27.9249
235.891	36.2001
238.784	61.3018
241.676	31.4638
244.569	46.2013
247.462	54.5027
250.355	42.7889
253.247	59.8867
256.14	58.2968
259.033	65.0881
261.925	81.0187
264.818	147.939
267.711	219.598
270.603	299.64
273.496	438.36
276.389	520.659
279.281	533.496
282.174	380.059
285.067	240.16
287.96	145.777
290.852	74.7618
293.745	65.9501
296.638	28.4979
299.53	27.3324
302.423	32.4836
305.316	6.96655
308.209	46.8715
311.101	1.54553
313.994	21.4736
316.887	16.3377
319.779	24.2189
322.672	11.266
325.565	3.45532
328.457	40.5185
331.35	23.548
334.243	12.2693
337.135	11.5071
340.028	11.9076
342.921	22.6498
345.814	19.8774
348.706	8.65027
351.599	25.9098
354.492	36.4009
357.384	20.8652
360.277	10.5437
363.17	33.8955
366.062	17.7389
368.955	16.667
371.848	6.08411
374.741	1.26111
377.633	29.9865
380.526	3.66675
383.419	4.26269
386.311	17.2701
389.204	20.5785
392.097	9.58484
394.99	11.5432
397.882	18.2336
400.775	6.49597
403.668	28.9016
406.56	7.92273
409.453	8.80347
412.346	30.8555
415.238	31.2457
418.131	33.9905
421.024	37.3737
423.916	86.6499
426.809	125.339
429.702	183.981
432.595	296.057
435.487	549.862
438.38	825.702
441.273	1121.67
444.165	1106.39
447.058	722.605
449.951	393.261
452.844	223.276
455.736	140.377
458.629	105.927
461.522	66.1295
464.414	37.7841
467.307	49.4191
470.2	45.2119
473.092	22.7094
475.985	20.2858
478.878	23.7297
481.771	21.2943
484.663	6.16589
487.556	10.3267
490.449	29.8
493.341	21.2324
496.234	5.46814
499.127	1.87073
502.019	5.44458
504.912	4.36853
507.805	3.9198
510.697	2.81836
513.59	19.2301
516.483	29.9879
519.376	0.969849
522.268	15.9581
525.161	13.228
528.054	8.58032
530.946	7.48096
533.839	3.46741
536.732	26.0281
539.625	4.22913
542.517	16.5077
545.41	27.7164
548.303	6.91943
551.195	25.4051
554.088	8.46851
556.981	13.6842
559.873	12.123
562.766	30.1645
565.659	18.0597
568.552	9.39661
571.444	26.3744
574.337	7.88757
577.23	18.7383
580.122	0.040405
583.015	13.4037
585.908	29.1401
588.8	49.8037
591.693	40.6759
594.586	1.66931
597.479	18.5381
600.371	27.5104
603.264	9.89819
606.157	35.1854
609.049	27.9564
611.942	32.7496
614.835	20.6838
617.727	35.1611
620.62	18.3561
623.513	34.5532
626.405	22.3795
629.298	15.6112
632.191	5.85077
635.084	17.0904
637.976	28.1935
640.869	16.7592
643.762	14.475
646.654	27.1495
649.547	3.95685
652.44	5.40771
655.332	13.4606
658.225	7.2721
661.118	10.0238
664.011	12.8201
666.903	3.93738
669.796	43.102
672.689	28.3475
675.581	7.17004
678.474	12.9046
681.367	27.4518
684.26	24.7693
687.152	25.6902
690.045	41.6653
692.938	34.6134
695.83	48.3874
698.723	50.8685
701.616	37.4582
704.508	23.2879
707.401	63.8038
710.294	91.3141
713.187	75.3345
716.079	51.1554
718.972	79.4159
721.865	60.0092
724.757	59.6933
727.65	69.262
730.543	60.5724
733.435	49.5277
736.328	59.6765
739.221	22.0361
742.114	37.6418
745.006	17.0905
747.899	29.2072
750.792	28.1314
753.684	41.454
756.577	39.9674
759.47	33.5418
762.362	3.33008
765.255	22.2145
768.148	2.89002
771.04	3.00617
773.933	23.8098
776.826	4.28101
779.719	9.87097
782.611	28.0731
785.504	6.25354
788.397	18.2984
791.289	18.3149
794.182	2.32605
797.075	4.31677
799.967	1.7616
802.86	19.2615
805.753	12.0352
808.646	30.4321
811.538	29.5314
814.431	15.9597
817.324	25.528
820.216	31.2496
823.109	17.2838
826.002	17.9681
828.894	22.4243
831.787	4.66589
834.68	9.05646
837.573	17.3935
840.465	7.1983
843.358	17.2136
846.251	18.5759
849.143	5.11768
852.036	12.1649
854.929	0.943298
857.822	12.6399
860.714	12.1682
863.607	13.4647
866.5	11.3723
869.392	24.1748
872.285	3.97559
875.178	20.2469
878.07	23.5082
880.963	17.7009
883.856	1.54773
886.749	12.2633
889.641	4.00079
892.534	25.0206
895.427	22.545
898.319	26.4452
901.212	32.2584
904.105	12.3533
906.997	32.2728
909.89	14.5418
912.783	15.7394
915.675	28.9533
918.568	34.538
921.461	0.009949
924.354	7.86615
927.246	34.8145
930.139	24.0645
933.032	32.1781
935.924	12.2429
938.817	1.94598
941.71	33.7161
944.602	19.9257
947.495	27.4235
950.388	9.37018
953.28	21.7787
956.173	24.4501
959.066	36.2028
961.959	2.63531
964.851	21.1583
967.744	22.7723
970.637	8.77246
973.529	16.5071
976.422	14.7906
979.315	30.6993
982.207	8.18457
985.1	26.3192
987.993	25.9368
990.886	15.0329
993.778	7.24689
996.671	20.5504
999.564	1.72321
1002.46	36.1403
1005.35	8.71661
1008.24	7.48383
1011.13	17.0559
1014.03	23.2175
1016.92	25.4802
1019.81	3.34119
1022.71	16.6687
1025.6	14.1257
1028.49	3.86371
1031.38	0.254883
1034.28	13.4832
1037.17	35.6221
1040.06	14.3578
1042.95	12.5427
1045.85	33.2929
1048.74	15.8436
1051.63	42.7327
1054.53	31.8217
1057.42	23.0959
1060.31	18.5211
1063.2	18.5666
1066.1	19.3479
1068.99	27.4618
1071.88	11.7283
1074.77	18.8491
1077.67	31.9301
1080.56	46.2679
1083.45	95.4971
1086.35	173.187
1089.24	58.7645
1092.13	8.34839
1095.02	14.0279
1097.92	19.3658
1100.81	7.4541
1103.7	13.1268
1106.59	5.47992
1109.49	24.7452
1112.38	19.712
1115.27	16.2141
1118.16	7.84723
1121.06	2.41968
1123.95	3.97858
1126.84	0.438049
1129.73	17.9062
1132.63	19.475
1135.52	6.29584
1138.41	12.8428
1141.31	14.9006
1144.2	7.38989
1147.09	23.3011
1149.98	10.1508
1152.88	32.7428
1155.77	14.7871
1158.66	3.6192
1161.56	2.41595
1164.45	7.81781
1167.34	16.0392
1170.23	17.4149
1173.13	32.4184
1176.02	25.0903
1178.91	8.92554
1181.8	19.3931
1184.7	8.31848
1187.59	5.8869
1190.48	24.3217
1193.38	16.1847
1196.27	19.0139
1199.16	4.18036
1202.05	10.3439
1204.94	12.5518
1207.84	24.0814
1210.73	21.6042
1213.62	31.6341
1216.52	15.6555
1219.41	24.2018
1222.3	12.1589
1225.19	28.779
1228.09	13.5966
1230.98	32.6016
1233.87	13.268
1236.77	1.71588
1239.66	3.677
1242.55	33.3096
1245.44	38.6896
1248.34	1.6709
1251.23	35.1252
1254.12	21.3976
1257.01	21.2077
1259.91	25.962
1262.8	16.7358
