Measurement: Raman, 780 nm, unoriented, Raman Data RAW
Mineral: Brucite
Rruff sample: R050455
Ideal chemistry: Mg(OH)_2_
Locality: Texas, Lancaster County, Pennsylvania, USA
Source: University of Arizona Mineral Museum
Description: Group of green tabular crystals
Measured chemistry: (Mg_0.99_Mn_0.01_)(OH)_2_
Raman shift (cm-1)	intensity
159.351	0
162.244	0.814747
165.137	0.949507
168.029	0.965969
170.922	1.07696
173.815	0.082603
176.707	1.05018
179.6	0.908577
182.493	0.705151
185.385	0.727083
188.278	0.356228
191.171	0.016489
194.064	0.087677
196.956	0.301464
199.849	0.229404
202.742	0.226328
205.634	0.199787
208.527	0.445663
211.42	0.92988
214.312	1.05622
217.205	1.77356
220.098	1.55635
222.991	1.66506
225.883	1.68758
228.776	2.12384
231.669	2.43319
234.561	2.77502
237.454	3.51605
240.347	5.00841
243.239	3.97492
246.132	6.92061
249.025	7.65963
251.918	10.3891
254.81	13.179
257.703	18.0405
260.596	25.1097
263.488	31.0909
266.381	39.0734
269.274	49.2201
272.166	63.7546
275.059	82.5994
277.952	95.1168
280.845	82.4371
283.737	51.2209
286.63	28.7041
289.523	16.6441
292.415	10.2686
295.308	6.85714
298.201	5.27291
301.094	4.28889
303.986	3.99703
306.879	2.75711
309.772	1.84721
312.664	1.64988
315.557	1.24332
318.45	1.29498
321.342	0.480864
324.235	1.3044
327.128	0.734987
330.021	0.401424
332.913	0.00246
335.806	0.597677
338.699	0.072237
341.591	0.569733
344.484	0.135721
347.377	0.286366
350.269	0.205935
353.162	0.247414
356.055	0.133036
358.947	0.064323
361.84	0.110497
364.733	0.126163
367.626	0.107132
370.518	0.021875
373.411	0.506151
376.304	0.059185
379.197	0.583628
382.089	1.02125
384.982	1.23661
387.875	1.63759
390.767	1.20232
393.66	1.37858
396.553	2.04203
399.445	2.49122
402.338	2.67237
405.231	2.94265
408.123	5.53998
411.016	5.35856
413.909	8.87505
416.802	10.4309
419.694	16.2566
422.587	25.9049
425.48	41.3487
428.372	61.0601
431.265	80.4523
434.158	108.229
437.05	150.425
439.943	211.018
442.836	260.236
445.729	214.091
448.621	120.043
451.514	65.5411
454.407	37.9304
457.299	24.9346
460.192	17.6518
463.085	13.2401
465.978	9.71848
468.87	7.69421
471.763	6.66204
474.656	4.68474
477.548	4.12014
480.441	3.02859
483.334	2.08075
486.226	1.8882
489.119	1.52918
492.012	0.25322
494.904	0.767857
497.797	0.158827
500.69	0.060612
503.583	0.072893
506.475	0.170391
509.368	0.438412
512.261	0.412682
515.153	0.244305
518.046	0.125532
520.939	0.544548
523.832	0.210511
526.724	0.050088
529.617	0.223969
532.51	0.118816
535.402	0.596448
538.295	0.414448
541.188	0.776962
544.081	1.18936
546.973	1.72546
549.866	0.893783
552.759	0.863601
555.651	0.547931
558.544	0.250566
561.437	0.92545
564.329	0.614462
567.222	0.910659
570.115	0.938267
573.008	0.487024
575.9	0.270976
578.793	0.406177
581.686	0.383471
584.578	0.890787
587.471	0.967687
590.364	0.751338
593.256	0.586496
596.149	1.76292
599.042	1.02534
601.934	0.900243
604.827	0.724648
607.72	0.796981
610.613	0.895808
613.505	0.344405
616.398	0.61237
619.291	0.324865
622.183	0.724829
625.076	0.006291
627.969	0.429155
630.861	0.147692
633.754	0.624894
636.647	0.503338
639.54	0.167518
642.432	0.311108
645.325	0.123969
648.218	0.187662
651.111	0.263311
654.003	0.300135
656.896	0.110342
659.789	0.121962
662.681	0.192228
665.574	0.737103
668.467	0.03203
671.359	0.43721
674.252	1.07835
677.145	1.1394
680.038	1.47637
682.93	2.27628
685.823	2.46834
688.716	2.42063
691.608	3.00213
694.501	3.39468
697.394	3.62029
700.286	4.09784
703.179	4.50139
706.072	5.07435
708.965	6.11601
711.857	6.05681
714.75	6.44363
717.643	7.31379
720.535	7.05332
723.428	7.49489
726.321	7.15705
729.213	7.46649
732.106	7.10913
734.999	6.78348
737.891	6.01774
740.784	5.09938
743.677	4.94713
746.57	3.33796
749.462	3.46841
752.355	3.16743
755.248	2.67344
758.14	2.13718
761.033	1.2913
763.926	1.17525
766.818	0.397354
769.711	0.129253
772.604	0.250486
775.497	0.218887
778.389	0.311182
781.282	0.878489
784.175	0.618105
787.067	0.13595
789.96	0.770876
792.853	0.631086
795.745	0.220259
798.638	0.719681
801.531	1.37352
804.424	0.909632
807.316	1.46549
810.209	1.52924
813.102	1.23202
815.994	1.12544
818.887	1.29926
821.78	0.946293
824.673	1.08854
827.565	1.55964
830.458	0.804665
833.351	0.721373
836.243	0.680706
839.136	0.292761
842.029	0.120888
844.922	0.59553
847.814	0.289862
850.707	0.033213
853.6	0.362049
856.492	0.665344
859.385	0.67849
862.278	0.366236
865.17	0.613662
868.063	0.046116
870.956	0.589524
873.848	0.433663
876.741	0.451805
879.634	0.365945
882.527	0.15922
885.419	0.305867
888.312	0.483377
891.205	0.000708
894.097	0.322322
896.99	0.095178
899.883	0.227695
902.775	0.901584
905.668	0.400778
908.561	0.479259
911.454	0.514312
914.346	0.246955
917.239	0.508973
920.132	0.831054
923.024	0.618131
925.917	0.420576
928.81	0.729021
931.702	0.203809
934.595	0.104654
937.488	0.276771
940.381	0.467496
943.273	0.358773
946.166	0.53618
949.059	0.011911
951.952	0.922962
954.844	0.764949
957.737	1.2626
960.63	0.703831
963.522	0.644798
966.415	0.978586
969.308	0.688
972.2	0.909745
975.093	0.686553
977.986	0.869411
980.879	0.801935
983.771	1.0361
986.664	1.19457
989.557	0.742944
992.449	1.00638
995.342	0.298736
998.235	0.945962
1001.13	0.682921
1004.02	0.551126
1006.91	0.981928
1009.8	0.48237
1012.7	0.571547
1015.59	0.477847
1018.48	0.40938
1021.38	0.364189
1024.27	0.189299
1027.16	0.613825
1030.05	0.802438
1032.95	0.772511
1035.84	0.844605
1038.73	0.887005
1041.62	0.812372
1044.52	1.07744
1047.41	1.22386
1050.3	0.57949
1053.2	0.312222
1056.09	0.775045
1058.98	0.089037
1061.87	0.217029
1064.77	0.146154
1067.66	0.129482
1070.55	0.242341
1073.44	0.418365
1076.34	0.685075
1079.23	0.580424
1082.12	0.168052
1085.02	0.331516
1087.91	0.302137
1090.8	0.248125
1093.69	0.206912
1096.59	0.021064
1099.48	0.405005
1102.37	0.424909
1105.27	0.583476
1108.16	0.132612
1111.05	0.028329
1113.94	0.465079
1116.84	0.624971
1119.73	0.223777
1122.62	0.067363
1125.51	0.578159
1128.41	0.279955
1131.3	0.498483
1134.19	0.133626
1137.08	0.224069
1139.98	0.004926
1142.87	0.072973
1145.76	0.033641
1148.65	0.429462
1151.55	0.29977
1154.44	0.234395
1157.33	0.569318
1160.23	0.148462
1163.12	0.356536
1166.01	0.536384
1168.9	0.65451
1171.8	1.13521
1174.69	0.437381
1177.58	0.617053
1180.47	0.28487
1183.37	0.742591
1186.26	0.956151
1189.15	0.480898
1192.05	0.463105
1194.94	0.181327
1197.83	0.724659
1200.72	0.419772
1203.62	0.368655
1206.51	0.519604
1209.4	0.526566
1212.3	0.049593
1215.19	0.847961
1218.08	0.226348
1220.97	0.818664
1223.87	0.429233
1226.76	0.559053
1229.65	0.557658
1232.54	0.348265
1235.44	0.014677
1238.33	0.289285
1241.22	0.433006
1244.11	0.694308
1247.01	0.36804
1249.9	0.020267
1252.79	0.687441
1255.68	0.137055
1258.58	0.369633
1261.47	0.371006
1264.36	0.384305
1267.26	0.308013
1270.15	0.277852
1273.04	0.27489
1275.93	0.369755
1278.83	0.414778
1281.72	0.462158
1284.61	0.221138
1287.51	0
