Measurement: Raman, 532 nm, unoriented, Raman Data Processed
Mineral: Brucite
Rruff sample: R040077
Ideal chemistry: Mg(OH)_2_
Locality: Gabbs, Nye County, Nevada, USA
Source: University of Arizona Mineral Museum
Description: White fine-grained massive
Measured chemistry: Mg_1.00_(OH)_2_
Raman shift (cm-1)	intensity
129.761	0
133.135	1.48987
136.51	8.11755
139.885	30.7891
143.26	29.3149
146.635	26.7129
150.009	53.0392
153.384	49.0087
156.759	15.5562
160.134	42.999
163.509	32.7015
166.883	45.62
170.258	45.5583
173.633	21.9812
177.008	14.8418
180.383	17.9221
183.757	3.95996
187.132	1.1405
190.507	12.3401
193.882	8.46692
197.257	11.9065
200.632	6.70984
204.006	6.13135
207.381	3.13831
210.756	10.5199
214.131	20.6191
217.506	0.300903
220.881	6.2168
224.255	20.1411
227.63	68.2996
231.005	24.0312
234.38	27.7241
237.755	45.921
241.129	49.684
244.504	42.4665
247.879	71.4075
251.254	119.323
254.629	132.98
258.003	224.715
261.378	330.333
264.753	431.999
268.128	744.984
271.503	1100.98
274.877	1367.81
278.252	1414.68
281.627	1094.16
285.002	574.124
288.377	321.29
291.752	172.93
295.126	95.7295
298.501	52.1738
301.876	75.0872
305.251	12.0112
308.626	13.5342
312	10.0173
315.375	19.6941
318.75	20.3594
322.125	12.7305
325.5	11.1592
328.875	5.41431
332.249	23.8469
335.624	30.6186
338.999	24.1436
342.374	5.2666
345.749	9.9353
349.123	11.864
352.498	14.6892
355.873	54.9724
359.248	21.856
362.623	5.30737
365.998	42.7068
369.372	25.5308
372.747	11.8816
376.122	26.6541
379.497	20.8203
382.872	36.9021
386.246	28.7803
389.621	53.926
392.996	32.082
396.371	20.5664
399.746	1.62085
403.12	34.8892
406.495	55.4067
409.87	53.5845
413.245	58.0632
416.62	101.427
419.995	139.89
423.369	186.868
426.744	322.135
430.119	566.818
433.494	991.369
436.869	1498.08
440.243	2031.05
443.618	2156.26
446.993	1311.12
450.368	654.401
453.743	383.346
457.118	221.082
460.492	157.141
463.867	128.163
467.242	111.935
470.617	90.967
473.992	50.3164
477.366	36.3308
480.741	66.1042
484.116	65.9426
487.491	48.5049
490.866	14.0557
494.24	5.47095
497.615	7.29834
500.99	13.9495
504.365	3.15772
507.74	13.8655
511.115	48.2231
514.489	16.7612
517.864	10.8193
521.239	46.251
524.614	27.2974
527.989	11.6194
531.364	11.592
534.738	20.3132
538.113	9.26465
541.488	2.8728
544.863	0.637695
548.237	31.0654
551.612	0.679688
554.987	27.6484
558.362	40.1602
561.737	22.8774
565.112	14.5662
568.486	4.16479
571.861	26.4126
575.236	14.9692
578.611	38.0393
581.986	48.7678
585.361	57.4351
588.735	69.6619
592.11	23.9829
595.485	76.3691
598.86	71.7861
602.235	72.0974
605.609	91.3152
608.984	60.0823
612.359	60.6506
615.734	64.1667
619.109	81.6797
622.484	72.4612
625.858	72.7224
629.233	92.9434
632.608	95.5776
635.983	31.0757
639.357	18.0903
642.732	13.2991
646.107	10.7844
649.482	20.3037
652.857	15.5039
656.232	22.9138
659.606	12.7837
662.981	50.029
666.356	40.2041
669.731	8.45825
673.106	78.3154
676.481	65.219
679.855	69.0081
683.23	87.0776
686.605	59.1545
689.98	124.149
693.355	103.247
696.729	127.973
700.104	170.365
703.479	202.581
706.854	211.899
710.229	168.921
713.604	216.28
716.978	220.222
720.353	244.902
723.728	246.212
727.103	254.913
730.478	233.629
733.852	168.591
737.227	209.595
740.602	158.843
743.977	157.223
747.352	170.93
750.726	114.029
754.101	171.898
757.476	126.777
760.851	81.6665
764.226	99.0588
767.601	76.1021
770.975	37.9385
774.35	49.4487
777.725	80.6372
781.1	30.7937
784.475	31.9009
787.849	1.51172
791.224	39.1977
794.599	5.98584
797.974	2.98608
801.349	15.6443
804.723	13.8674
808.098	21.7236
811.473	3.60083
814.848	5.2522
818.223	15.1435
821.598	100.385
824.972	129.728
828.347	132.573
831.722	132.834
835.097	157.54
838.472	90.8811
841.846	116.138
845.221	105.227
848.596	77.0378
851.971	79.9214
855.346	79.8489
858.721	79.6055
862.095	64.0369
865.47	34.9875
868.845	39.3425
872.22	36.9863
875.595	30.5127
878.97	54.4148
882.344	43.831
885.719	44.1382
889.094	14.0774
892.469	3.75928
895.843	7.78076
899.218	5.55591
902.593	46.3623
905.968	48.0032
909.343	23.9639
912.718	17.156
916.092	17.7778
919.467	21.5879
922.842	7.38037
926.217	34.3711
929.592	29.2849
932.966	18.0532
936.341	49.2161
939.716	31.7666
943.091	38.1123
946.466	8.96631
949.841	43.0591
953.215	5.22656
956.59	2.83496
959.965	4.98682
963.34	72.0264
966.715	48.7178
970.09	29.4458
973.464	63.8076
976.839	65.5562
980.214	58.6128
983.589	48.4595
986.964	56.9385
990.338	71.4858
993.713	80.7729
997.088	31.5513
1000.46	51.063
1003.84	68.1743
1007.21	10.3003
1010.59	84.1455
1013.96	49.2222
1017.34	26.8569
1020.71	8.14941
1024.09	17.5356
1027.46	76.0776
1030.84	39.1499
1034.21	19.3096
1037.59	19.5781
1040.96	63.0029
1044.34	56.9248
1047.71	67.0225
1051.09	45.7549
1054.46	17.6675
1057.84	4.67432
1061.21	90.895
1064.58	29.5532
1067.96	1.80273
1071.33	59.6118
1074.71	41.1641
1078.08	84.7334
1081.46	143.112
1084.83	328.053
1088.21	167.404
1091.58	70.2407
1094.96	5.21289
1098.33	22.3193
1101.71	35.5444
1105.08	14.6826
1108.46	28.6885
1111.83	48.5386
1115.21	52.3794
1118.58	3.34668
1121.96	22.1045
1125.33	47.2236
1128.71	2.92725
1132.08	64.8091
1135.45	71.1606
1138.83	46.9258
1142.2	21.3428
1145.58	36.9121
1148.95	46.3857
1152.33	52.0161
1155.7	35.3149
1159.08	39.6938
1162.45	39.0425
1165.83	51.3403
1169.2	35.2769
1172.58	77.0029
1175.95	43.4346
1179.33	50.7368
1182.7	28.623
1186.08	62.6958
1189.45	59.9414
1192.83	19.0747
1196.2	28.4341
1199.58	34.1069
1202.95	35.4507
1206.33	13.5732
1209.7	48.9878
1213.08	57.5996
1216.45	10.2183
1219.83	74.564
1223.2	51.8599
1226.58	79.6738
1229.95	82.4731
1233.33	45.8892
1236.7	54.7329
1240.08	75.4385
1243.45	103.249
1246.82	75.8193
1250.2	77.2744
1253.57	60.081
1256.95	92.7002
1260.32	86.2578
1263.7	51.4878
1267.07	18.2515
1270.45	52.5757
1273.82	107.168
1277.2	63.2632
1280.57	33.4668
1283.95	27.0928
1287.32	19.1792
