Measurement: Raman, 532 nm, unoriented, Raman Data Processed
Mineral: Brucite
Rruff sample: R050455
Ideal chemistry: Mg(OH)_2_
Locality: Texas, Lancaster County, Pennsylvania, USA
Source: University of Arizona Mineral Museum
Description: Group of green tabular crystals
Measured chemistry: (Mg_0.99_Mn_0.01_)(OH)_2_
Raman shift (cm-1)	intensity
159.951	0
162.843	2.15362
165.736	3.04614
168.629	0.278625
171.521	3.23517
174.414	0.044861
177.307	2.44665
180.199	0.102783
183.092	2.65576
185.985	2.90399
188.877	3.77679
191.77	3.18005
194.663	5.91046
197.556	7.22974
200.448	12.2058
203.341	18.8338
206.234	12.3523
209.126	9.97046
212.019	9.14966
214.912	4.42993
217.804	6.96631
220.697	8.49707
223.59	4.11353
226.483	1.07507
229.375	1.18054
232.268	3.60779
235.161	5.1488
238.053	9.00793
240.946	10.298
243.839	11.8578
246.732	13.8644
249.624	21.4646
252.517	25.9451
255.41	40.5007
258.302	53.5792
261.195	72.3666
264.088	104.83
266.98	136.192
269.873	177.471
272.766	231.235
275.659	287.395
278.551	312.712
281.444	252.293
284.337	156.492
287.229	100.374
290.122	64.7515
293.015	48.724
295.907	32.0696
298.8	21.9932
301.693	10.4694
304.586	9.64123
307.478	5.50366
310.371	2.50964
313.264	0.895142
316.156	3.07227
319.049	5.22595
321.942	13.2548
324.834	9.98377
327.727	11.4166
330.62	12.7804
333.512	7.33374
336.405	12.6982
339.298	12.3575
342.191	13.4237
345.083	9.85547
347.976	5.83569
350.869	2.04394
353.761	3.74744
356.654	6.20459
359.547	3.40588
362.44	6.41492
365.332	4.2146
368.225	2.57031
371.118	4.17651
374.01	5.22766
376.903	1.60559
379.796	4.27417
382.688	4.97107
385.581	2.20947
388.474	0.833252
391.366	2.41992
394.259	3.03125
397.152	1.93323
400.045	10.1914
402.937	9.80286
405.83	25.3506
408.723	32.2418
411.615	43.4398
414.508	54.9683
417.401	62.01
420.293	80.0204
423.186	121.868
426.079	174.634
428.972	262.676
431.864	359.566
434.757	471.936
437.65	635.832
440.542	835.718
443.435	925.092
446.328	674.007
449.221	366.4
452.113	199.519
455.006	120.915
457.899	81.1182
460.791	51.455
463.684	42.1895
466.577	29.5169
469.469	15.3483
472.362	12.0409
475.255	1.31665
478.147	1.50281
481.04	1.75537
483.933	2.6344
486.826	3.28882
489.718	10.5736
492.611	17.8383
495.504	21.6425
498.396	18.6504
501.289	22.6665
504.182	21.074
507.075	14.7864
509.967	5.72473
512.86	8.48389
515.753	4.16406
518.645	2.58264
521.538	2.37122
524.431	6.98193
527.323	8.65552
530.216	3.11609
533.109	7.65942
536.001	7.66467
538.894	11.9766
541.787	12.0537
544.68	8.22302
547.572	0.64624
550.465	1.63818
553.358	2.70544
556.25	0.063354
559.143	1.80115
562.036	6.93323
564.928	4.91272
567.821	9.74292
570.714	12.3009
573.607	9.39038
576.499	17.6299
579.392	15.8274
582.285	20.4396
585.177	18.2942
588.07	29.3227
590.963	22.5066
593.856	20.9947
596.748	21.9464
599.641	15.7858
602.534	13.6453
605.426	14.3171
608.319	17.0929
611.212	13.1049
614.104	16.4015
616.997	9.41431
619.89	6.58777
622.783	4.0221
625.675	9.79663
628.568	7.66357
631.461	2.15613
634.353	0.142334
637.246	1.71252
640.139	4.81958
643.031	0.157715
645.924	4.96387
648.817	2.11426
651.71	0.259399
654.602	3.14917
657.495	3.46851
660.388	6.06506
663.28	10.507
666.173	10.2898
669.066	1.62671
671.958	5.35962
674.851	6.53101
677.744	5.19507
680.636	10.6113
683.529	10.6958
686.422	11.8102
689.315	5.74536
692.207	6.17371
695.1	4.21533
697.993	11.6621
700.885	16.8445
703.778	20.2418
706.671	26.8063
709.563	32.0394
712.456	33.0509
715.349	31.6584
718.242	30.059
721.134	27.9238
724.027	23.1373
726.92	25.7217
729.812	28.0638
732.705	31.9936
735.598	29.0403
738.49	29.953
741.383	30.3676
744.276	31.2441
747.169	20.9467
750.061	12.8185
752.954	9.98767
755.847	9.37366
758.739	7.82092
761.632	5.78686
764.525	6.10193
767.418	4.90686
770.31	5.89587
773.203	11.3517
776.096	13.0753
778.988	19.1614
781.881	18.0601
784.774	15.7119
787.666	15.8682
790.559	9.75415
793.452	8.58313
796.345	10.8171
799.237	17.4594
802.13	21.5684
805.023	18.167
807.915	20.281
810.808	20.5444
813.701	22.588
816.593	25.8179
819.486	20.2447
822.379	23.162
825.271	13.7091
828.164	9.7207
831.057	12.6925
833.95	9.34351
836.842	4.62659
839.735	4.96265
842.628	3.28015
845.52	2.14441
848.413	0.779175
851.306	4.15442
854.198	0.438843
857.091	1.3562
859.984	5.01477
862.877	0.431641
865.769	4.57617
868.662	3.78406
871.555	9.6958
874.447	10.4424
877.34	5.00513
880.233	9.7843
883.125	8.69922
886.018	12.5372
888.911	9.16187
891.804	13.3087
894.696	12.0264
897.589	12.6182
900.482	14.2974
903.374	20.2585
906.267	20.7237
909.16	18.9401
912.053	11.7947
914.945	12.7308
917.838	13.5784
920.731	12.0914
923.623	11.2256
926.516	3.65076
929.409	6.98083
932.301	0.23877
935.194	0.228394
938.087	2.37012
940.98	5.72668
943.872	12.2112
946.765	16.4718
949.658	16.0022
952.55	19.2967
955.443	23.218
958.336	17.8072
961.228	15.6776
964.121	10.4885
967.014	6.65601
969.907	9.36914
972.799	7.37231
975.692	14.8439
978.585	14.1355
981.477	19.1291
984.37	18.7418
987.263	13.1516
990.155	14.7103
993.048	12.9894
995.941	6.96399
998.833	8.16028
1001.73	1.48364
1004.62	2.3573
1007.51	1.68286
1010.4	8.36218
1013.3	1.87012
1016.19	5.46985
1019.08	13.7976
1021.98	25.1661
1024.87	29.179
1027.76	26.0037
1030.65	25.8686
1033.55	27.5193
1036.44	32.3929
1039.33	28.4565
1042.22	31.0177
1045.12	30.9934
1048.01	27.9951
1050.9	21.5576
1053.8	22.7432
1056.69	24.4888
1059.58	17.5942
1062.47	21.2185
1065.37	22.8457
1068.26	19.9658
1071.15	16.8722
1074.04	14.318
1076.94	11.7781
1079.83	9.0835
1082.72	7.70483
1085.62	5.60767
1088.51	2.1394
1091.4	5.59351
1094.29	5.99609
1097.18	8.62122
1100.08	18.2633
1102.97	22.9155
1105.86	28.4667
1108.76	25.79
1111.65	31.3602
1114.54	25.8166
1117.43	26.4214
1120.33	23.2107
1123.22	18.9534
1126.11	14.1977
1129.01	21.6381
1131.9	19.1738
1134.79	18.0939
1137.68	16.9004
1140.58	9.77673
1143.47	14.8514
1146.36	12.7307
1149.25	10.8634
1152.15	10.6003
1155.04	6.81226
1157.93	3.06018
1160.83	1.91638
1163.72	4.63538
1166.61	3.63269
1169.5	6.36096
1172.4	6.31543
1175.29	0.955566
1178.18	5.81836
1181.07	0.452026
1183.97	3.70093
1186.86	4.19165
1189.75	11.781
1192.64	12.4004
1195.54	15.1415
1198.43	13.9093
1201.32	14.7361
1204.21	15.5363
1207.11	16.399
1210	16.0865
1212.89	13.9929
1215.79	12.3475
1218.68	8.07739
1221.57	9.74683
1224.46	7.54565
1227.36	9.3169
1230.25	6.13513
1233.14	9.34412
1236.04	9.90942
1238.93	17.6738
1241.82	13.2412
1244.71	14.9122
1247.61	12.0977
1250.5	11.7607
1253.39	3.797
1256.28	0.829346
1259.18	0.36438
1262.07	0.145264
1264.96	4.85461
1267.86	0.144897
1270.75	15.0154
1273.64	10.9203
1276.53	19.0322
1279.42	13.2248
1282.32	3.24023
