Measurement: Raman, 514 nm, unoriented, Raman Data Processed
Mineral: Brucite
Rruff sample: R040077
Ideal chemistry: Mg(OH)_2_
Locality: Gabbs, Nye County, Nevada, USA
Source: University of Arizona Mineral Museum
Description: White fine-grained massive
Measured chemistry: Mg_1.00_(OH)_2_
Raman shift (cm-1)	intensity
139.243	0
143.401	3.84
147.557	57.256
151.711	94.38
155.863	283.041
160.013	227.663
164.161	197.997
168.308	253.923
172.452	4.169
176.594	238.808
180.734	359.267
184.872	198.548
189.008	279.978
193.143	459.989
197.275	294.672
201.405	509.37
205.534	510.116
209.66	459.098
213.784	68.32
217.907	60.854
222.027	23.404
226.146	224.012
230.263	155.877
234.377	150.216
238.49	152.131
242.601	185.938
246.709	381.635
250.816	407.291
254.921	378.252
259.024	769.633
263.125	1272.29
267.224	1874.81
271.321	3022.46
275.416	4725.13
279.51	4259.56
283.601	2669.11
287.69	1161.48
291.778	682.41
295.863	649.893
299.947	421.877
304.029	155.123
308.108	151.891
312.186	50.689
316.262	63.83
320.336	99.775
324.408	2.199
328.478	265.139
332.546	135.525
336.612	223.352
340.677	223.395
344.739	122.051
348.799	91.723
352.858	222.727
356.915	140.945
360.969	245.607
365.022	130.154
369.073	210.867
373.122	219.443
377.169	446.496
381.215	170.66
385.258	637.572
389.299	694.529
393.339	461.902
397.376	257.105
401.412	461.352
405.446	568.754
409.478	486.523
413.508	506.334
417.536	677.752
421.562	781.654
425.586	1252.77
429.609	1948.96
433.629	3354.11
437.648	7053.53
441.665	10238.5
445.68	8232.26
449.693	4307.08
453.704	2114.42
457.713	1376.2
461.721	782.898
465.726	579.666
469.73	461.416
473.731	408.311
477.731	342.006
481.729	313.1
485.725	158.795
489.72	204.26
493.712	233.297
497.703	342.332
501.691	207.273
505.678	92.166
509.663	91.695
513.646	272.52
517.627	124.715
521.607	132.379
525.584	185.537
529.56	206.543
533.534	338.426
537.506	162.545
541.476	43.352
545.444	105.375
549.41	119.691
553.375	87.342
557.337	32.141
561.298	48.223
565.257	9.285
569.214	17.713
573.17	174.244
577.123	12.746
581.075	46.344
585.024	290.486
588.972	414.879
592.918	192.898
596.863	80.598
600.805	129.996
604.746	237.08
608.685	319.844
612.621	174.344
616.557	272.582
620.49	241.537
624.421	430.227
628.351	150.318
632.279	91.695
636.205	292.809
640.129	109.17
644.051	314.756
647.972	391.15
651.89	50.973
655.807	92.826
659.722	350.244
663.636	256.324
667.547	149.188
671.457	423.004
675.365	467.586
679.271	262.74
683.175	246.992
687.077	578.348
690.978	369.572
694.877	612
698.774	887.227
702.669	595.396
706.562	687.209
710.454	665.777
714.344	1175.66
718.232	704.027
722.118	1153.32
726.002	1202.93
729.885	1345.35
733.766	1037.66
737.645	1049.73
741.522	1446.13
745.397	1120.09
749.271	506.467
753.143	1055.06
757.013	1297.18
760.881	467.709
764.748	794.398
768.613	930.736
772.476	597.076
776.337	143.967
780.196	605.059
784.054	407.637
787.91	674.031
791.764	520.967
795.616	591.42
799.467	754.85
803.316	542.424
807.163	78.174
811.008	466.123
814.851	268.258
818.693	455.367
822.533	1018.81
826.371	626.637
830.208	803.652
834.042	360.801
837.875	424.617
841.706	478.246
845.536	247.113
849.363	343.277
853.189	585.137
857.013	581.883
860.836	92.883
864.656	17.895
868.475	311.637
872.292	433.422
876.108	169.133
879.922	112.449
883.733	155.25
887.544	224.691
891.352	642.258
895.159	174.977
898.964	134.82
902.767	164.742
906.568	87.262
910.368	427.734
914.166	302.797
917.962	233.457
921.757	308.684
925.55	345.863
929.341	219.535
933.13	390.746
936.918	410.926
940.703	123.148
944.488	295.57
948.27	443.613
952.051	138.48
955.83	257.531
959.607	382.5
963.383	159.441
967.156	195.766
970.928	34.781
974.699	399.547
978.468	400.453
982.234	262.559
986	16.355
989.763	171.145
993.525	362.488
997.285	620.773
1001.04	102.703
1004.8	237.875
1008.55	423.988
1012.31	526.32
1016.06	481.5
1019.81	645.297
1023.56	853.508
1027.31	448.449
1031.05	779.629
1034.79	322.863
1038.53	612.773
1042.27	847.52
1046.01	1468.91
1049.75	660.727
1053.48	1085.01
1057.22	473.223
1060.95	586.32
1064.68	406.492
1068.4	312.297
1072.13	844.145
1075.86	439.387
1079.58	209.449
1083.3	643.695
1087.02	1071.5
1090.74	709.133
1094.45	257.441
1098.17	321.406
1101.88	564.781
1105.59	126.121
1109.3	607
1113.01	125.051
1116.71	145.5
1120.42	372.922
1124.12	339.145
1127.82	36.625
1131.52	320.797
1135.22	95.98
1138.91	171.777
1142.61	119.84
1146.3	328.25
1149.99	248.449
1153.68	518.309
1157.37	671.031
1161.06	458.281
1164.74	516.566
1168.42	503.922
1172.1	452.637
1175.78	323.484
1179.46	116.113
1183.14	567.004
1186.81	1020.52
1190.48	647.605
1194.15	725.109
1197.83	711.754
1201.49	850.629
1205.16	281.941
1208.82	773.387
1212.49	707.574
1216.15	517.258
1219.81	531.73
1223.46	530.805
1227.12	833.18
1230.78	725.664
1234.43	274.875
1238.08	482.406
1241.73	639.664
1245.38	594.801
1249.03	793.801
1252.67	461.617
1256.31	449.766
1259.95	582.031
1263.6	449.418
1267.23	409.379
1270.87	417.789
1274.51	39.348
1278.14	388.629
1281.77	981.266
1285.4	91.848
1289.03	113.707
1292.66	268.836
1296.28	145.551
1299.91	36.793
1303.53	105.297
1307.15	187.285
1310.77	252.66
1314.38	287.734
1318	225.016
1321.61	507.828
1325.23	380.145
1328.84	241.883
1332.45	166.891
1336.06	262.254
1339.66	156.059
1343.27	410.004
1346.87	705.133
1350.47	617.891
1354.07	556.121
1357.67	496.172
1361.26	492.785
1364.86	449.91
1368.45	683.793
1372.04	460.062
1375.63	645.133
1379.22	461.668
1382.81	691.211
1386.39	798.68
1389.98	791.707
1393.56	401.941
1397.14	429.727
1400.72	797.52
1404.3	507.914
1407.87	574.258
1411.45	897.652
1415.02	123.684
1418.59	622.031
1422.16	649.973
1425.73	546.594
1429.29	463.094
1432.86	564.34
1436.42	463.543
1439.98	669.984
1443.54	627.457
1447.1	378.562
1450.66	841.223
1454.21	421.586
1457.77	263.227
1461.32	211.359
1464.87	279.844
1468.42	932.992
1471.96	707.703
1475.51	558.148
1479.06	396.781
1482.6	885.414
1486.14	320.676
1489.68	19.711
1493.22	3.746
