Measurement: Raman, 532 nm, unoriented, Raman Data Processed
Mineral: Brunogeierite
Rruff sample: R090012
Ideal chemistry: Fe^2+^_2_Ge^4+^O_4_
Locality: Tsumeb, Namibia
Source: William W. Pinch
Description: Sharp black octahedra with hematite plates and elongated Zn-rich siderite. Sample originally from John Innes, also the source of single crystal studied by Welch et al (2001)
Raman shift (cm-1)	intensity
146.369	0
149.744	3.03619
153.119	6.47044
156.494	2.61668
159.869	5.38106
163.244	11.0302
166.618	13.618
169.993	12.6938
173.368	10.9743
176.743	9.8985
180.118	4.74214
183.493	4.08458
186.867	2.29717
190.242	0.377987
193.617	0.789268
196.992	0.836899
200.367	2.6391
203.741	1.80984
207.116	2.21275
210.491	3.30513
213.866	1.4363
217.241	4.27795
220.615	1.15031
223.99	0.968582
227.365	0.913971
230.74	3.77549
234.115	4.18355
237.489	6.95152
240.864	6.93471
244.239	8.66303
247.614	8.0805
250.989	8.06455
254.364	7.24461
257.738	8.28878
261.113	7.76173
264.488	10.7709
267.863	7.33025
271.238	11.8997
274.613	11.1295
277.987	12.4798
281.362	13.8108
284.737	16.294
288.112	17.2399
291.487	16.3555
294.861	17.5293
298.236	15.8159
301.611	13.281
304.986	10.5747
308.361	7.27998
311.736	6.07162
315.11	6.16283
318.485	4.37914
321.86	1.70493
325.235	2.27794
328.61	0.055702
331.984	1.15852
335.359	0.087906
338.734	0.686646
342.109	0.72628
345.484	1.57363
348.858	0.178726
352.233	0.014359
355.608	0.263748
358.983	2.46078
362.358	0.009399
365.733	0.020691
369.107	0.052605
372.482	1.18507
375.857	2.85391
379.232	1.67439
382.607	1.16995
385.981	1.5033
389.356	0.474861
392.731	0.075287
396.106	2.63874
399.481	1.15326
402.856	2.79623
406.23	2.07249
409.605	2.8278
412.98	4.22797
416.355	4.63148
419.73	4.39735
423.104	6.75642
426.479	8.13268
429.854	7.5387
433.229	8.35046
436.604	8.86082
439.978	10.6444
443.353	9.24544
446.728	13.5161
450.103	13.195
453.478	14.0527
456.853	13.2523
460.227	14.7826
463.602	15.9519
466.977	13.5523
470.352	12.9587
473.727	10.9828
477.101	9.91642
480.476	6.85683
483.851	5.08695
487.226	3.81493
490.601	3.90042
493.976	2.58154
497.35	1.6068
500.725	1.79004
504.1	1.61294
507.475	0.085678
510.85	0.804733
514.224	1.10242
517.599	0.471054
520.974	1.27287
524.349	3.00095
527.724	4.05183
531.098	1.46687
534.473	5.23531
537.848	2.48986
541.223	4.58801
544.598	1.89801
547.973	3.53035
551.347	4.32581
554.722	1.15458
558.097	2.15099
561.472	2.49518
564.847	2.89404
568.221	1.80719
571.596	1.35054
574.971	1.62972
578.346	0.094933
581.721	0.646454
585.096	3.08172
588.47	1.16711
591.845	1.90945
595.22	2.89729
598.595	4.38519
601.97	4.65519
605.344	8.58946
608.719	11.2837
612.094	15.6291
615.469	20.6508
618.844	27.5568
622.218	36.0415
625.593	41.7338
628.968	49.2966
632.343	52.7342
635.718	58.7595
639.093	58.8708
642.467	60.3405
645.842	54.118
649.217	51.4461
652.592	42.4194
655.967	35.4356
659.341	26.7436
662.716	22.355
666.091	16.2609
669.466	12.2247
672.841	9.52412
676.216	7.2253
679.59	3.36085
682.965	0.8918
686.34	3.44784
689.715	0.055809
693.09	1.06106
696.465	1.32673
699.839	0.720367
703.214	0.560135
706.589	1.72211
709.964	3.98653
713.339	4.15097
716.713	8.50405
720.088	14.1034
723.463	17.5045
726.838	26.4111
730.213	32.3873
733.587	44.2266
736.962	57.2651
740.337	75.9885
743.712	103.342
747.087	134.451
750.462	174.839
753.836	206.582
757.211	204.183
760.586	158.585
763.961	102.042
767.336	69.1568
770.71	46.4843
774.085	34.3544
777.46	24.9588
780.835	19.6557
784.21	15.3976
787.585	13.902
790.959	11.1233
794.334	8.06389
797.709	6.67565
801.084	3.09782
804.459	3.01276
807.833	1.24545
811.208	1.22903
814.583	0.405315
817.958	1.43505
821.333	0.73639
824.707	0.155792
828.082	1.87141
831.457	0.425293
834.832	0.541012
838.207	0.266972
841.582	0.874969
844.956	1.50429
848.331	1.23626
851.706	2.53394
855.081	2.64082
858.456	2.52303
861.83	1.26862
865.205	3.01957
868.58	3.02461
871.955	3.77674
875.33	3.30065
878.705	2.4463
882.079	1.88508
885.454	1.4381
888.829	1.07274
892.204	2.70817
895.579	1.18562
898.953	1.25952
902.328	0.778931
905.703	1.27974
909.078	1.48125
912.453	0.652687
915.827	2.19166
919.202	0.673119
922.577	1.46796
925.952	2.87532
929.327	0.948895
932.702	2.03722
936.076	3.07555
939.451	2.91074
942.826	2.40595
946.201	2.65816
949.576	1.68659
952.951	0.983353
956.325	1.57898
959.7	0.199059
963.075	1.91545
966.45	1.52098
969.825	1.92361
973.199	1.13407
976.574	0.607372
979.949	1.23965
983.324	0.131379
986.699	0.177101
990.073	2.11311
993.448	0.084454
996.823	0.126343
1000.2	0.166111
1003.57	1.71639
1006.95	0.421413
1010.32	1.41667
1013.7	1.20243
1017.07	0.451683
1020.45	1.97673
1023.82	1.56888
1027.2	0.855591
1030.57	0.21843
1033.95	2.06359
1037.32	0.382015
1040.7	0.435997
1044.07	0.160309
1047.44	0.153988
1050.82	2.50296
1054.19	2.51138
1057.57	1.76374
1060.94	1.55307
1064.32	2.06014
1067.69	2.26831
1071.07	0.636635
1074.44	0.077423
1077.82	2.70016
1081.19	1.30402
1084.57	1.79509
1087.94	2.51717
1091.32	0.019096
1094.69	0.863461
1098.07	2.50048
1101.44	0.60553
1104.82	1.37016
1108.19	0.430592
1111.57	2.02107
1114.94	1.29757
1118.32	3.24849
1121.69	1.11823
1125.07	1.06926
1128.44	2.21969
1131.82	0.493816
1135.19	1.06556
1138.57	1.93301
1141.94	2.50777
1145.32	0.460503
1148.69	0.741638
1152.07	2.05731
1155.44	0.323048
1158.81	0.696209
1162.19	0.787769
1165.56	0.93272
1168.94	0.755051
1172.31	1.28733
1175.69	1.84479
1179.06	0.499428
1182.44	1.00854
1185.81	2.02558
1189.19	1.47503
1192.56	1.75088
1195.94	0.601269
1199.31	1.59058
1202.69	1.49384
1206.06	1.46393
1209.44	1.08478
1212.81	1.23737
1216.19	0.369122
1219.56	0.073185
1222.94	1.45914
1226.31	2.27385
1229.68	2.0665
1233.06	2.35262
1236.43	2.30895
1239.81	1.55419
1243.18	0.446007
1246.56	1.05637
1249.93	1.23043
1253.31	0.734394
1256.68	0.892288
1260.06	2.39401
1263.43	0.714928
1266.81	2.45031
1270.18	1.2656
1273.56	0.551235
1276.93	2.42627
1280.31	2.40284
1283.68	2.0573
1287.06	1.78438
1290.43	1.76602
1293.81	2.58667
1297.18	0.248875
1300.56	0.018921
