Measurement: Raman, 785 nm, unoriented, Raman Data Processed
Mineral: Brushite
Rruff sample: R070554
Ideal chemistry: Ca(PO_3_OH)2H_2_O
Locality: Biogenic
Source: Henry J. Sun
Description: Colorless platy crystals
Raman shift (cm-1)	intensity
162.994	0
165.886	279.56
168.779	628.318
171.672	994.546
174.564	1179.51
177.457	763.137
180.35	217.644
183.243	14.8057
186.135	154.49
189.028	6.80469
191.921	338.576
194.813	747.945
197.706	1071.82
200.599	1685.23
203.491	2309.82
206.384	2634.55
209.277	2071.98
212.169	1056.27
215.062	784.4
217.955	333.025
220.848	238.198
223.74	259.809
226.633	80.6719
229.526	101.911
232.418	20.5586
235.311	190.261
238.204	218.392
241.096	170.152
243.989	404.953
246.882	318.127
249.775	175.819
252.667	103.451
255.56	156.96
258.453	163.747
261.345	118.237
264.238	39.0156
267.131	8.0459
270.024	144.265
272.916	134.553
275.809	92.751
278.702	196.437
281.594	249.682
284.487	266.971
287.38	60.9956
290.272	65.6479
293.165	39.4048
296.058	6.70459
298.95	136.636
301.843	139.671
304.736	160.483
307.629	231.876
310.521	402.473
313.414	562.314
316.307	439.681
319.199	267.015
322.092	240.022
324.985	272.141
327.877	2.01318
330.77	10.4741
333.663	114.079
336.556	119.628
339.448	261.494
342.341	398.891
345.234	303.929
348.127	402.939
351.019	624.181
353.912	792.414
356.805	849.121
359.697	950.126
362.59	974.508
365.483	1170.31
368.375	1326.68
371.268	1596.71
374.161	1827.8
377.053	2043.32
379.946	2099.43
382.839	1745.18
385.732	1369.62
388.624	1005.62
391.517	1041.33
394.41	1018.12
397.302	1159.37
400.195	1252.92
403.088	1445.06
405.981	1720.98
408.873	1879.78
411.766	1931.82
414.659	1691.29
417.551	1546.61
420.444	1347.78
423.337	1097.11
426.229	775.23
429.122	671.988
432.015	366.633
434.908	480.35
437.8	165.773
440.693	61.1763
443.586	132.407
446.478	175.838
449.371	9.70215
452.264	41.6826
455.156	65.0591
458.049	35.6162
460.942	21.73
463.834	13.9834
466.727	58.2925
469.62	113.327
472.513	80.0132
475.405	3.60156
478.298	24.273
481.191	15.3457
484.083	337.45
486.976	194.311
489.869	396.096
492.762	480.528
495.654	520.027
498.547	644.215
501.44	689.74
504.332	754.68
507.225	854.831
510.118	792.304
513.01	915.747
515.903	911.368
518.796	1010.82
521.688	965.892
524.581	1137.58
527.474	814.948
530.367	705.003
533.259	786.93
536.152	847.421
539.045	778.161
541.937	610.958
544.83	748.918
547.723	451.915
550.615	331.968
553.508	252.455
556.401	126.443
559.294	7.67481
562.186	122.95
565.079	40.3081
567.972	193.693
570.864	77.2647
573.757	237.573
576.65	526.37
579.543	655.891
582.435	1160.37
585.328	1502.5
588.221	1094.05
591.113	684.585
594.006	364.812
596.899	169.219
599.791	266.227
602.684	272.51
605.577	314.885
608.47	166.375
611.362	158.995
614.255	168.568
617.148	147.684
620.04	114.111
622.933	16.6294
625.826	54.9775
628.718	15.4521
631.611	56.3916
634.504	87.2812
637.396	23.9292
640.289	31.46
643.182	32.0952
646.075	145.831
648.967	174.785
651.86	65.8062
654.753	199.52
657.645	163.938
660.538	49.1392
663.431	196.731
666.323	43.6338
669.216	134.554
672.109	195.757
675.002	87.8823
677.894	124.086
680.787	120.105
683.68	180.761
686.572	193.453
689.465	29.6724
692.358	229.283
695.25	71.8794
698.143	21.2686
701.036	53.5215
703.929	119.036
706.821	172.434
709.714	2.10205
712.607	110.856
715.5	59.2432
718.392	12.7275
721.285	18.5845
724.178	17.0308
727.07	28.062
729.963	77.4683
732.856	93.4111
735.748	176.885
738.641	126.165
741.534	98.8315
744.427	30.0894
747.319	78.9189
750.212	38.0156
753.105	73.7041
755.997	22.6724
758.89	1.74316
761.783	101.981
764.675	27.4985
767.568	95.8784
770.461	105.943
773.354	68.2188
776.246	63.4473
779.139	31.1108
782.032	60.4629
784.924	131.881
787.817	118.073
790.71	133.737
793.602	206.412
796.495	256.976
799.388	310.931
802.28	184.416
805.173	462.887
808.066	577.933
810.959	741.217
813.851	505.05
816.744	443.926
819.637	398.857
822.529	319.257
825.422	174.954
828.315	156.264
831.207	78.8809
834.1	194.972
836.993	226.916
839.886	144.678
842.778	220.999
845.671	325.873
848.564	726.609
851.456	887.273
854.349	1092.83
857.242	1401.09
860.135	1377.23
863.027	1554.44
865.92	1417.34
868.813	1792.3
871.705	2161.21
874.598	2778.95
877.491	3028.7
880.383	3148.12
883.276	2774.12
886.169	2177.91
889.062	1405.79
891.954	873.239
894.847	682.52
897.74	369.365
900.632	270.147
903.525	136.447
906.418	166.661
909.31	7.68018
912.203	95.3691
915.096	39.1328
917.989	17.936
920.881	32.0977
923.774	64.6328
926.667	65.1709
929.559	24.5942
932.452	6.56641
935.345	29.6626
938.237	49.9536
941.13	71.8813
944.023	101.386
946.915	59.7246
949.808	100.721
952.701	118.899
955.594	327.67
958.486	349.341
961.379	470.97
964.272	624.074
967.164	716.289
970.057	1006.19
972.95	1427.94
975.842	2081.22
978.735	3336.25
981.628	5002.9
984.521	7092.33
987.413	8109.75
990.306	7223.73
993.199	5272.57
996.091	3575.42
998.984	2603.9
1001.88	2178.42
1004.77	1876.72
1007.66	1501.1
1010.55	892.469
1013.45	519.092
1016.34	391.6
1019.23	201.686
1022.13	123.903
1025.02	27.7837
1027.91	7.79688
1030.8	55.6655
1033.7	26.9072
1036.59	34.126
1039.48	181.571
1042.38	176.992
1045.27	247.387
1048.16	371.571
1051.05	713.155
1053.94	1057.7
1056.84	1362.84
1059.73	1203.16
1062.62	1038.18
1065.52	573.52
1068.41	346.089
1071.3	504.709
1074.19	631.215
1077.09	1070.45
1079.98	1285
1082.87	1210.88
1085.77	795.756
1088.66	487.022
1091.55	249.984
1094.44	3.35303
1097.34	75.1352
1100.23	68.6392
1103.12	71.0068
1106.01	40.6792
1108.91	197.467
1111.8	342.458
1114.69	640.911
1117.59	497.737
1120.48	485.147
1123.37	563.605
1126.26	477.726
1129.16	531.095
1132.05	820.362
1134.94	773.986
1137.83	582.249
1140.73	372.752
1143.62	49.377
1146.51	89.3608
1149.4	112.331
1152.3	62.1714
1155.19	7.75195
1158.08	116.273
1160.97	108.003
1163.87	69.0488
1166.76	94.2163
1169.65	133.904
1172.55	4.81396
1175.44	29.8645
1178.33	212.582
1181.22	57.3376
1184.12	22.2698
1187.01	147.953
1189.9	153.777
1192.8	21.6186
1195.69	148.322
1198.58	153.085
1201.47	121.452
1204.37	99.0371
1207.26	196.841
1210.15	306.282
1213.04	177.387
1215.94	261.894
1218.83	120.731
1221.72	78.4973
1224.62	82.823
1227.51	72.8691
1230.4	95.3193
1233.29	234.478
1236.19	81.5947
1239.08	9.81543
1241.97	49.3765
1244.86	53.4605
1247.76	39.6069
1250.65	41.9314
1253.54	69.5806
1256.43	125.714
1259.33	184.592
1262.22	33.8462
1265.11	270.668
1268.01	95.1445
1270.9	47.8757
1273.79	3.16577
1276.68	54.3325
1279.58	99.2439
1282.47	0
