Measurement: Raman, 532 nm, unoriented, Raman Data Processed
Mineral: Brushite
Rruff sample: R070554
Ideal chemistry: Ca(PO_3_OH)2H_2_O
Locality: Biogenic
Source: Henry J. Sun
Description: Colorless platy crystals
Raman shift (cm-1)	intensity
135.155	0
138.53	710.307
141.905	2357.33
145.28	2800.78
148.655	1548.11
152.03	1070.86
155.404	490.655
158.779	4.18066
162.154	43.6065
165.529	227.177
168.904	718.278
172.279	1340.87
175.653	1680.15
179.028	1071.21
182.403	617.011
185.778	267.34
189.153	15.7402
192.527	144.55
195.902	174.508
199.277	565.609
202.652	1257.82
206.027	2085.68
209.401	2239.88
212.776	1358.03
216.151	563.433
219.526	264.358
222.901	63.9111
226.276	3.28613
229.65	36.6045
233.025	62.9795
236.4	155.977
239.775	145.946
243.15	212.067
246.524	402.694
249.899	282.731
253.274	164.237
256.649	14.835
260.024	131.704
263.399	77.8144
266.773	245.486
270.148	225.724
273.523	327.985
276.898	395.651
280.273	443.951
283.647	463.733
287.022	284.535
290.397	225.92
293.772	60.7139
297.147	37.6455
300.522	66.0537
303.896	107.394
307.271	53.2119
310.646	291.132
314.021	291.483
317.396	254.428
320.771	225.711
324.145	146.716
327.52	81.5254
330.895	22.6426
334.27	49.2959
337.645	167.453
341.019	274.736
344.394	334.477
347.769	690.562
351.144	1094.47
354.519	1838.38
357.894	1912.48
361.268	1951.7
364.643	1946.82
368.018	2101.71
371.393	2252.99
374.768	2493.02
378.142	2743.76
381.517	2878.03
384.892	2524.73
388.267	1931.95
391.642	1437.73
395.017	1571.86
398.391	1748.9
401.766	2163.7
405.141	2455.55
408.516	2713.9
411.891	2910.34
415.265	2780.39
418.64	2543.57
422.015	2165.1
425.39	1589.67
428.765	1306.27
432.139	849.267
435.514	607.273
438.889	470.824
442.264	283.048
445.639	161.111
449.014	177.503
452.388	20.6475
455.763	175.48
459.138	81.001
462.513	50.9414
465.888	46.0752
469.262	109.899
472.637	69.71
476.012	182.016
479.387	199.606
482.762	381.06
486.137	646.324
489.511	737.922
492.886	870.499
496.261	1271.85
499.636	1609.63
503.011	1985.85
506.385	1938.51
509.76	1993.6
513.135	2200.79
516.51	1997.19
519.885	1814.17
523.26	1911.47
526.634	2072.71
530.009	1577.46
533.384	1199.89
536.759	1215.4
540.134	1289.59
543.509	1213.63
546.883	950.371
550.258	747.758
553.633	638.659
557.008	379.316
560.383	81.6602
563.757	6.97363
567.132	68.2285
570.507	118.499
573.882	352.106
577.257	580.636
580.631	968.231
584.006	1397.27
587.381	1966.45
590.756	1666.64
594.131	987.023
597.506	746.091
600.88	789.588
604.255	839.584
607.63	706.849
611.005	660.45
614.38	550.573
617.755	391.46
621.129	303.516
624.504	230.861
627.879	127.332
631.254	5.68457
634.629	84.3594
638.003	61.6934
641.378	90.335
644.753	203.824
648.128	252.578
651.503	254.693
654.877	410.346
658.252	426.292
661.627	339.881
665.002	347.615
668.377	361.516
671.752	421.056
675.126	292.406
678.501	126.961
681.876	136.085
685.251	57.457
688.626	156.6
692	159.356
695.375	33.6826
698.75	67.9111
702.125	108.118
705.5	29.1787
708.875	70.1445
712.249	51.9443
715.624	27.623
718.999	10.6328
722.374	53.4463
725.749	45.0518
729.124	101.19
732.498	134.738
735.873	116.129
739.248	63.5752
742.623	149.94
745.998	137.955
749.372	94.2617
752.747	3.87988
756.122	70.3779
759.497	36.7754
762.872	11.1465
766.246	61.4482
769.621	26.1982
772.996	19.3145
776.371	42.498
779.746	134.525
783.12	260.644
786.495	146.312
789.87	105.424
793.245	223.938
796.62	348.469
799.995	343.088
803.369	493.647
806.744	842.111
810.119	1352.65
813.494	1774.79
816.869	1530.33
820.244	947.046
823.618	664.68
826.993	452.381
830.368	397.731
833.743	305.457
837.118	283.562
840.492	335.222
843.867	577.474
847.242	934.679
850.617	1701.99
853.992	2606.9
857.367	3354.66
860.741	3796
864.116	3514.24
867.491	3419.26
870.866	3430.13
874.241	4056.6
877.615	4809.39
880.99	5459.21
884.365	5355.86
887.74	4656.95
891.115	3182.71
894.49	1885.75
897.864	1109.32
901.239	621.074
904.614	387.098
907.989	330.781
911.364	309.676
914.739	243.426
918.113	12.4619
921.488	18.3018
924.863	57.0508
928.238	7.64356
931.612	56.0488
934.987	129.436
938.362	54.6338
941.737	132.485
945.112	170.791
948.487	176.526
951.861	232.744
955.236	455.42
958.611	628.302
961.986	896.054
965.361	1142.48
968.736	1633.86
972.11	2246.13
975.485	3451.55
978.86	5586.9
982.235	9139.11
985.61	13618.4
988.984	17451.2
992.359	17894.8
995.734	13090.7
999.109	8308.66
1002.48	5320.64
1005.86	4065.97
1009.23	3032.93
1012.61	2075.07
1015.98	1241.15
1019.36	708.539
1022.73	406.023
1026.11	228.203
1029.48	81.0332
1032.86	201.889
1036.23	113.758
1039.61	213.551
1042.98	146.029
1046.36	144.588
1049.73	669.394
1053.11	1287.56
1056.48	1868.91
1059.86	2572.81
1063.23	2393.82
1066.61	1532.33
1069.98	833.887
1073.36	950.553
1076.73	1525.38
1080.11	2214.69
1083.48	2518.24
1086.85	1710.54
1090.23	806.307
1093.6	145.797
1096.98	8.71484
1100.35	106.428
1103.73	139.84
1107.1	58.0723
1110.48	433.08
1113.85	912.014
1117.23	1429.67
1120.6	1311.01
1123.98	957.508
1127.35	659.684
1130.73	515.606
1134.1	708.477
1137.48	861.613
1140.85	603.43
1144.23	255.639
1147.6	122.09
1150.98	89.8965
1154.35	196.533
1157.72	193.59
1161.1	256.109
1164.47	223.195
1167.85	171.42
1171.22	28.1426
1174.6	62.8262
1177.97	170.775
1181.35	45.8652
1184.72	19.1797
1188.1	18.041
1191.47	147.631
1194.85	11.3652
1198.22	2.31445
1201.6	6.06445
1204.97	120.547
1208.35	68.9668
1211.72	143.496
1215.1	18.6602
1218.47	88.4004
1221.85	50.5508
1225.22	145.982
1228.6	316.002
1231.97	369.357
1235.35	250.435
1238.72	370.389
1242.1	381.191
1245.47	369.705
1248.85	403.783
1252.22	280.42
1255.6	368.315
1258.97	267.9
1262.35	376.889
1265.72	469.16
1269.09	342.481
1272.47	445.967
1275.84	514.769
1279.22	328.051
1282.59	332.342
1285.97	254.531
1289.34	118.25
1292.72	23.2148
1296.09	104.908
1299.47	116.205
1302.84	253.863
