Measurement: Raman, 532 nm, unoriented, Raman Data Processed
Mineral: Bultfonteinite
Rruff sample: R050088
Ideal chemistry: Ca_2_[SiO_3_(OH)]FH_2_O
Locality: N'Chwaning II mine, Kuruman, South Africa
Source: Rock Currier
Description: Sprays of acicular white crystals associated with olmiite, R050144
Measured chemistry: Ca_1.96_[Si_0.97_O_3_(OH)_1.00_]F_1.00_0.61H_2_O; OH estimated by charge balance; H_2_O by difference
Raman shift (cm-1)	intensity
139.798	0
143.173	9.79797
146.548	106.396
149.923	179.538
153.298	181.65
156.672	258.422
160.047	237.929
163.422	90.5441
166.797	44.58
170.172	66.262
173.547	92.7914
176.921	180.041
180.296	253.403
183.671	294.804
187.046	331.873
190.421	364.662
193.796	364.015
197.17	392.207
200.545	306.952
203.92	220.274
207.295	194.377
210.669	184.883
214.044	155.615
217.419	83.727
220.794	29.347
224.169	10.5897
227.544	16.9462
230.918	12.6708
234.293	10.9739
237.668	40.8577
241.043	98.2794
244.418	48.3699
247.792	9.34918
251.167	25.9617
254.542	56.2627
257.917	81.5717
261.292	99.4625
264.667	154.578
268.041	235.414
271.416	287.584
274.791	285.877
278.166	236.317
281.541	211.176
284.916	153.756
288.29	129.696
291.665	115.439
295.04	30.2816
298.415	5.66223
301.79	10.9561
305.164	1.79523
308.539	49.1409
311.914	114.166
315.289	171.591
318.664	246.874
322.038	257.928
325.413	235.487
328.788	198.318
332.163	168.396
335.538	175.145
338.913	194.179
342.287	227.553
345.662	250.39
349.037	253.847
352.412	310.826
355.787	339.238
359.162	392.078
362.536	490.491
365.911	521.914
369.286	508.961
372.661	440.428
376.036	344.157
379.411	321.914
382.785	287.742
386.16	257.215
389.535	224.029
392.91	170.13
396.284	130.967
399.659	125.758
403.034	111.903
406.409	52.7829
409.784	32.1873
413.159	7.93817
416.533	0.855225
419.908	10.4511
423.283	10.3044
426.658	19.6389
430.033	17.8752
433.408	3.93378
436.782	4.28253
440.157	34.5566
443.532	10.4741
446.907	15.9859
450.282	39.6681
453.656	46.648
457.031	38.4039
460.406	42.1956
463.781	54.5684
467.156	57.2906
470.531	58.4579
473.905	59.772
477.28	65.4716
480.655	123.326
484.03	171.483
487.405	228.817
490.779	341.597
494.154	427.314
497.529	482.649
500.904	446.713
504.279	362.865
507.654	260.654
511.028	198.51
514.403	172.17
517.778	147.714
521.153	161.431
524.528	199.111
527.903	245.998
531.277	297.731
534.652	342.836
538.027	391.295
541.402	345.348
544.777	243.295
548.151	139.548
551.526	99.0908
554.901	55.3356
558.276	30.0817
561.651	9.86328
565.025	29.1323
568.4	12.5806
571.775	1.61847
575.15	16.5817
578.525	12.3302
581.899	7.48334
585.274	11.2784
588.649	17.0561
592.024	2.14099
595.399	7.99951
598.774	7.79504
602.149	11.5003
605.523	7.41058
608.898	7.80017
612.273	18.0049
615.648	21.7457
619.023	28.0663
622.397	15.6976
625.772	14.7016
629.147	8.88684
632.522	25.0408
635.897	7.24029
639.271	31.1942
642.646	26.053
646.021	32.75
649.396	20.3384
652.771	28.2046
656.146	42.2365
659.52	38.0834
662.895	46.8138
666.27	60.8845
669.645	75.0925
673.02	71.8492
676.394	79.8077
679.769	99.7096
683.144	114.545
686.519	94.2964
689.894	87.8598
693.269	79.1981
696.643	79.0741
700.018	83.9572
703.393	55.9659
706.768	73.5747
710.143	53.7363
713.518	46.823
716.892	36.3122
720.267	54.3751
723.642	36.5284
727.017	48.356
730.391	23.1862
733.766	28.0153
737.141	19.4132
740.516	23.7142
743.891	22.6163
747.266	2.44092
750.64	16.6902
754.015	7.8125
757.39	7.79218
760.765	0.762207
764.14	19.2925
767.515	2.74573
770.889	0.627441
774.264	13.1964
777.639	38.3234
781.014	29.3605
784.389	58.4672
787.764	145.297
791.138	153.537
794.513	227.911
797.888	373.98
801.263	503.936
804.638	767.683
808.012	1102.23
811.387	1565.91
814.762	2105.76
818.137	2702.84
821.512	3059.73
824.886	3130.56
828.261	2805.41
831.636	2286.59
835.011	1710.2
838.386	1304.44
841.761	945.838
845.135	762.351
848.51	557.797
851.885	429.237
855.26	325.891
858.635	252.015
862.01	185.179
865.384	162.757
868.759	124.403
872.134	103.061
875.509	57.1039
878.884	91.714
882.258	47.6351
885.633	36.3221
889.008	3.46655
892.383	56.9585
895.758	14.1489
899.133	19.7379
902.507	16.2173
905.882	14.7285
909.257	32.8611
912.632	85.0288
916.007	144.996
919.381	184.5
922.756	251.102
926.131	346.393
929.506	405.56
932.881	480.423
936.255	636.29
939.63	829.871
943.005	1037.51
946.38	1310.32
949.755	1572.61
953.13	1885.79
956.504	2107.74
959.879	2053.16
963.254	1586.88
966.629	987.631
970.004	549.205
973.379	292.842
976.753	153.594
980.128	89.845
983.503	70.7393
986.878	7.23035
990.253	15.5161
993.627	9.50769
997.002	36.8524
1000.38	48.8705
1003.75	55.5627
1007.13	61.7174
1010.5	6.34735
1013.88	1.3938
1017.25	5.8797
1020.63	10.1688
1024	23.6986
1027.38	21.3026
1030.75	40.39
1034.12	8.08026
1037.5	27.2318
1040.88	45.4613
1044.25	23.6807
1047.62	29.5459
1051	36.0951
1054.37	28.5216
1057.75	49.0651
1061.12	36.5231
1064.5	47.9543
1067.87	38.4395
1071.25	39.6036
1074.62	42.1941
1078	44.3619
1081.37	54.3312
1084.75	17.2562
1088.12	24.6613
1091.5	31.7899
1094.87	42.1975
1098.25	26.0472
1101.62	40.2955
1105	36.8242
1108.37	23.4028
1111.75	49.8911
1115.12	10.3255
1118.5	2.89453
1121.87	13.4548
1125.24	26.1436
1128.62	0.389709
1131.99	37.3042
1135.37	29.5372
1138.74	14.3438
1142.12	5.7926
1145.49	42.1924
1148.87	26.3118
1152.24	26.2451
1155.62	5.68451
1158.99	47.1031
1162.37	21.0125
1165.74	35.8603
1169.12	34.5979
1172.49	12.6278
1175.87	11.6735
1179.24	23.2673
1182.62	31.1663
1185.99	4.76862
1189.37	38.9613
1192.74	36.2094
1196.12	9.66363
1199.49	37.1356
1202.87	22.7093
1206.24	24.8912
1209.62	29.0057
1212.99	7.32165
1216.37	1.63867
1219.74	5.02936
1223.12	6.91547
1226.49	19.5117
1229.87	23.8541
1233.24	26.8758
1236.61	20.5983
1239.99	28.9668
1243.36	17.9383
1246.74	15.4435
1250.11	5.52112
1253.49	26.9004
1256.86	3.1756
1260.24	17.8522
1263.61	4.38647
1266.99	17.2571
1270.36	7.50519
1273.74	35.3164
1277.11	23.9609
1280.49	2.84186
1283.86	36.4359
1287.24	29.2497
1290.61	22.1331
1293.99	31.1226
1297.36	2.99207
1300.74	20.0791
