Measurement: Raman, 514 nm, unoriented, Raman Data Processed
Mineral: Bultfonteinite
Rruff sample: R050088
Ideal chemistry: Ca_2_[SiO_3_(OH)]FH_2_O
Locality: N'Chwaning II mine, Kuruman, South Africa
Source: Rock Currier
Description: Sprays of acicular white crystals associated with olmiite, R050144
Measured chemistry: Ca_1.96_[Si_0.97_O_3_(OH)_1.00_]F_1.00_0.61H_2_O; OH estimated by charge balance; H_2_O by difference
Raman shift (cm-1)	intensity
134.163	0
136.672	424.869
139.179	858.387
141.686	445.458
144.191	1487.02
146.696	4238.73
149.2	7278.21
151.703	10122.3
154.205	12058.8
156.707	11129.1
159.207	8358.27
161.707	3740.67
164.206	1357.24
166.704	222.13
169.201	155.497
171.698	122.765
174.193	110.986
176.688	526.763
179.181	1369.5
181.674	2056.22
184.166	2266.08
186.658	2599.75
189.148	2187.82
191.638	2098.04
194.126	2219.98
196.614	2333.14
199.101	1637.21
201.587	1021.97
204.073	336.582
206.557	360.831
209.041	545.289
211.523	929.607
214.005	753.793
216.486	497.88
218.967	201.882
221.446	105.68
223.925	40.585
226.402	326.874
228.879	383.688
231.355	242.919
233.83	101.923
236.305	493.755
238.778	1198.32
241.251	1573.33
243.723	1158.01
246.194	951.757
248.664	944.492
251.133	1436.25
253.602	2085.74
256.069	2533.12
258.536	2760.25
261.002	2985.98
263.467	4097.71
265.931	5924.82
268.395	8158.06
270.858	10908
273.319	13974.9
275.78	18496
278.24	22606.7
280.7	23694
283.158	19547.3
285.616	13740
288.073	10022.8
290.529	7715.87
292.984	6079.02
295.438	4662.3
297.891	3675.68
300.344	3109.17
302.796	2790.12
305.247	2820.54
307.697	2812.53
310.146	3366.46
312.595	3950.52
315.043	4624.32
317.489	4934.43
319.935	5229.43
322.381	4965.34
324.825	4628.3
327.268	3916.12
329.711	3650.18
332.153	3658.31
334.594	3723.97
337.034	3491.71
339.474	3267.98
341.912	3737.09
344.35	3642.06
346.787	3636.97
349.223	3671.81
351.659	3796.63
354.093	3681.45
356.527	3416.28
358.96	3991.15
361.392	4146.05
363.823	4931.01
366.253	5326.03
368.683	4911.2
371.112	4356.77
373.539	3722.58
375.967	3188.52
378.393	2614.64
380.818	2521.04
383.243	2447.76
385.667	2547.44
388.09	2392.11
390.512	2289.86
392.933	1978.02
395.354	1566.47
397.774	1245.24
400.193	964.323
402.611	713.743
405.028	663.474
407.445	433.507
409.861	213.777
412.275	244.324
414.69	15.178
417.103	23.632
419.515	91.97
421.927	49.585
424.338	206.213
426.748	32.003
429.157	57.344
431.565	72.718
433.973	81.948
436.38	33.252
438.786	31.574
441.191	96.494
443.595	171.546
445.999	216.735
448.402	312.054
450.804	327.504
453.205	223.079
455.605	348.769
458.005	334.578
460.403	290.492
462.801	306.506
465.199	372.62
467.595	309.706
469.99	377.798
472.385	376.088
474.779	477.651
477.172	513.339
479.565	697.195
481.956	753.929
484.347	994.385
486.737	1360.74
489.126	1832.09
491.514	2250.79
493.902	2944.92
496.288	3347.61
498.674	3480.66
501.059	3067.62
503.444	2597.59
505.827	2221.4
508.21	1784.37
510.592	1567.39
512.973	1325.1
515.353	1338.04
517.733	1351.08
520.112	1363.68
522.49	1187.25
524.867	1136.35
527.243	1477.65
529.619	1514.09
531.994	1817.25
534.368	2119.27
536.741	2703.61
539.113	2918.24
541.485	2462.7
543.856	1897.15
546.226	1251.48
548.595	904.788
550.964	618.641
553.331	481.31
555.698	393.479
558.064	256.456
560.429	248.136
562.794	158.643
565.158	38.444
567.521	41.526
569.883	12.456
572.244	54.308
574.605	24.026
576.965	61.058
579.324	138.036
581.682	4.203
584.039	10.538
586.396	34.262
588.752	58.262
591.107	1.646
593.461	15.646
595.815	126.387
598.167	17.787
600.519	38.559
602.871	28.655
605.221	78.057
607.571	86.881
609.919	45.195
612.268	83.028
614.615	100.444
616.961	117.532
619.307	124.298
621.652	80.605
623.996	126.391
626.34	161.66
628.682	226.455
631.024	210.729
633.365	84.469
635.705	107.657
638.045	110.304
640.383	242.529
642.721	154.352
645.059	196.103
647.395	117.236
649.731	107.867
652.065	108.499
654.4	218.445
656.733	310.873
659.065	241.069
661.397	279.551
663.728	345.279
666.058	410.62
668.388	431.318
670.716	288.411
673.044	301.989
675.371	349.144
677.698	418.004
680.023	466.796
682.348	472.382
684.672	497.652
686.996	551.493
689.318	445.276
691.64	560.74
693.961	453.877
696.281	436.438
698.6	439.594
700.919	546.035
703.237	731.06
705.554	1026.78
707.87	2150.33
710.186	5995.8
712.501	6409.38
714.815	2553.72
717.128	1128.16
719.441	802.891
721.753	487.42
724.064	351.775
726.374	264.555
728.683	257.896
730.992	310.416
733.3	213.054
735.607	77.432
737.914	197.331
740.22	127.878
742.524	89.438
744.829	89.636
747.132	111.05
749.435	52.762
751.737	66.348
754.038	35.982
756.338	45.436
758.638	14.962
760.937	75.265
763.235	56.451
765.532	37.538
767.829	11.428
770.124	49.774
772.42	28.679
774.714	2.798
777.007	95.629
779.3	294.02
781.592	262.377
783.884	528.468
786.174	438.946
788.464	517.201
790.753	765.451
793.041	849.386
795.329	1241.77
797.616	1599.86
799.902	1858.23
802.187	2415.96
804.472	3013.97
806.755	3892.66
809.038	4959.98
811.321	6160.22
813.602	7903.35
815.883	9943.29
818.163	11961.8
820.442	13969.8
822.721	15229.7
824.999	14807.6
827.276	14324.9
829.552	12662.9
831.828	10930.1
834.102	9137.58
836.376	7554.71
838.65	6292.15
840.922	5325.16
843.194	4433.03
845.465	3856.83
847.736	3101.47
850.005	2754.59
852.274	2240.37
854.542	2099.39
856.81	1782.42
859.076	1595.71
861.342	1290.76
863.607	1228.78
865.872	967.631
868.135	887.76
870.398	988.044
872.66	938.487
874.922	609.099
877.182	849.87
879.442	1000.71
881.702	541.662
883.96	402.77
886.218	374.074
888.475	185.584
890.731	157.323
892.987	189.27
895.241	231.568
897.495	165.726
899.749	58.348
902.001	21.193
904.253	34.252
906.504	47.52
908.755	161.049
911.004	85.131
913.253	218.98
915.501	463.436
917.749	648.254
919.996	813.393
922.242	848.912
924.487	989.324
926.731	1021.32
928.975	1108.3
931.218	1235.91
933.46	1374.37
935.702	1463.72
937.943	1825.46
940.183	2097.31
942.422	2426.25
944.661	2992
946.899	3558.43
949.136	4055.4
951.373	4552.8
953.608	5250.61
955.843	6149.5
958.078	6807.56
960.311	6476.73
962.544	5196.38
964.776	4096.49
967.007	2661.85
969.238	1713.87
971.468	1062.16
973.697	683.717
975.926	375.789
978.153	1.633
980.38	1.432
982.607	24.918
984.832	81.342
987.057	232.559
989.281	217.16
991.505	302.559
993.727	498.785
995.949	585.863
998.171	843.824
1000.39	933.531
1002.61	944.967
1004.83	777.775
1007.05	731.699
1009.27	570.631
1011.48	408.451
1013.7	588.854
1015.91	692.348
1018.13	569.338
1020.34	181.863
1022.56	171.471
1024.77	19.465
1026.98	293.848
1029.19	199.273
