Measurement: Raman, 785 nm, unoriented, Raman Data Processed
Mineral: Bultfonteinite
Rruff sample: R050088
Ideal chemistry: Ca_2_[SiO_3_(OH)]FH_2_O
Locality: N'Chwaning II mine, Kuruman, South Africa
Source: Rock Currier
Description: Sprays of acicular white crystals associated with olmiite, R050144
Measured chemistry: Ca_1.96_[Si_0.97_O_3_(OH)_1.00_]F_1.00_0.61H_2_O; OH estimated by charge balance; H_2_O by difference
Raman shift (cm-1)	intensity
125.85	0
128.743	105.411
131.636	290.703
134.528	291.345
137.421	131.018
140.314	78.7717
143.207	207.126
146.099	571.164
148.992	857.439
151.885	873.126
154.777	559.822
157.67	433.254
160.563	435.647
163.455	352.097
166.348	254.542
169.241	121.501
172.133	115.247
175.026	149.14
177.919	199.891
180.812	298.012
183.704	306.099
186.597	334.722
189.49	305.705
192.382	269.296
195.275	282.223
198.168	244.602
201.06	165.951
203.953	137.441
206.846	115.808
209.739	99.5292
212.631	73.9053
215.524	65.0909
218.417	36.8497
221.309	11.5884
224.202	16.1527
227.095	55.7981
229.988	31.3558
232.88	9.4162
235.773	20.0687
238.666	78.4644
241.558	82.7862
244.451	37.8117
247.344	8.15674
250.236	11.9815
253.129	27.9793
256.022	62.9153
258.915	82.5596
261.807	48.8634
264.7	109.293
267.593	205.848
270.485	272.996
273.378	278.289
276.271	304.918
279.163	268.659
282.056	235.169
284.949	194.736
287.842	176.719
290.734	178.32
293.627	135.168
296.52	61.2042
299.412	77.0663
302.305	64.8036
305.198	110.119
308.09	162.642
310.983	253.729
313.876	305.94
316.769	333.145
319.661	336.916
322.554	278.948
325.447	226.182
328.339	199.104
331.232	184.599
334.125	176.396
337.017	188.628
339.91	168.327
342.803	207.294
345.695	206.985
348.588	207.715
351.481	217.626
354.374	239
357.266	240.438
360.159	272.013
363.052	349.606
365.944	405.172
368.837	388.915
371.73	400.389
374.623	311.877
377.515	275.033
380.408	293.421
383.301	266.829
386.193	244.858
389.086	236.803
391.979	207.025
394.871	137.047
397.764	121.085
400.657	98.0457
403.55	51.43
406.442	46.1113
409.335	28.9532
412.228	24.7171
415.12	8.03305
418.013	7.7196
420.906	9.68442
423.798	20.9005
426.691	11.3928
429.584	2.48242
432.476	0.707397
435.369	2.73648
438.262	0.681213
441.155	21.0097
444.047	5.47199
446.94	19.0269
449.833	9.19034
452.725	28.0042
455.618	32.2788
458.511	37.3777
461.404	41.169
464.296	46.825
467.189	59.4731
470.082	61.3056
472.974	86.0889
475.867	87.7555
478.76	119.545
481.652	99.3441
484.545	157.79
487.438	173.966
490.33	246.611
493.223	272.178
496.116	309.179
499.009	319.408
501.901	262.997
504.794	250.931
507.687	194.24
510.579	146.228
513.472	134.591
516.365	144.113
519.258	139.402
522.15	129.43
525.043	137.291
527.936	162.268
530.828	215.103
533.721	259.226
536.614	281.071
539.506	288.451
542.399	250.224
545.292	190.053
548.185	128.491
551.077	56.8823
553.97	51.9841
556.863	54.0164
559.755	18.9536
562.648	18.8583
565.541	6.90979
568.433	5.83923
571.326	11.106
574.219	14.9965
577.111	13.3227
580.004	10.3782
582.897	13.2943
585.79	16.8855
588.682	5.04272
591.575	2.18643
594.468	3.79077
597.36	11.6536
600.253	7.36566
603.146	8.37891
606.038	5.09232
608.931	21.4147
611.824	8.78565
614.717	16.2988
617.609	3.44724
620.502	25.2831
623.395	21.5677
626.287	18.4698
629.18	2.07544
632.073	13.7781
634.966	31.9037
637.858	1.57227
640.751	25.8979
643.644	17.3991
646.536	25.6819
649.429	21.9665
652.322	7.02921
655.214	16.7236
658.107	16.0706
661	34.2214
663.893	8.80609
666.785	25.5117
669.678	55.7788
672.571	24.4163
675.463	28.0971
678.356	37.3725
681.249	45.088
684.141	42.3911
687.034	61.7652
689.927	49.1248
692.819	28.363
695.712	35.484
698.605	29.1584
701.498	22.448
704.39	21.1649
707.283	25.142
710.176	28.382
713.068	26.6323
715.961	26.0087
718.854	29.5487
721.746	29.9231
724.639	33.2942
727.532	15.5571
730.425	17.2797
733.317	13.421
736.21	11.1665
739.103	7.09592
741.995	0.850708
744.888	8.62692
747.781	12.9222
750.673	4.76398
753.566	6.65128
756.459	6.97562
759.352	5.09122
762.244	3.12317
765.137	2.67331
768.03	11.3641
770.922	6.86597
773.815	38.3038
776.708	13.9087
779.601	31.9511
782.493	47.2506
785.386	99.1352
788.279	91.6439
791.171	114.062
794.064	220.705
796.957	208.319
799.849	257.311
802.742	344.673
805.635	510.134
808.528	717.427
811.42	915.726
814.313	1168.39
817.206	1517.93
820.098	1717.64
822.991	1846.3
825.884	1767.41
828.776	1604.61
831.669	1291.28
834.562	1023.72
837.455	795.514
840.347	586.702
843.24	460.445
846.133	355.421
849.025	321.195
851.918	236.17
854.811	185.599
857.703	140.308
860.596	107.162
863.489	103.888
866.381	74.0461
869.274	68.6417
872.167	46.9194
875.06	32.4912
877.952	35.4645
880.845	31.0693
883.738	29.0399
886.63	19.9858
889.523	16.9063
892.416	16.0809
895.308	8.82333
898.201	0.336365
901.094	1.12387
903.987	6.1601
906.879	21.3226
909.772	12.6534
912.665	47.5093
915.557	24.6323
918.45	61.9463
921.343	72.8983
924.236	82.6218
927.128	132.491
930.021	140.91
932.914	172.299
935.806	220.773
938.699	252.317
941.592	294.316
944.484	396.014
947.377	496.811
950.27	571.158
953.163	655.375
956.055	754.675
958.948	755.512
961.841	629.86
964.733	485.356
967.626	268.745
970.519	180.799
973.411	83.7997
976.304	47.0922
979.197	36.2712
982.09	2.43738
984.982	15.3564
987.875	9.55179
990.768	14.1577
993.66	9.23123
996.553	26.9846
999.446	25.4856
1002.34	28.2098
1005.23	15.4
1008.12	21.0464
1011.02	12.9196
1013.91	34.0592
1016.8	0.596146
1019.7	6.94696
1022.59	11.3503
1025.48	7.33333
1028.37	4.05145
1031.27	11.232
1034.16	33.6334
1037.05	9.78168
1039.94	14.5319
1042.84	35.785
1045.73	15.8438
1048.62	39.6061
1051.51	7.91956
1054.41	16.6772
1057.3	28.8369
1060.19	23.6329
1063.09	32.2881
1065.98	49.8682
1068.87	18.2306
1071.76	35.2501
1074.66	22.6468
1077.55	19.7916
1080.44	14.0828
1083.33	28.0199
1086.23	15.9066
1089.12	16.0325
1092.01	18.0697
1094.9	16.2223
1097.8	22.1619
1100.69	15.3922
1103.58	27.0292
1106.48	18.6185
1109.37	7.64217
1112.26	19.2718
1115.15	0.444153
1118.05	3.02635
1120.94	8.16266
1123.83	4.86231
1126.72	11.0709
1129.62	17.6162
1132.51	18.1436
1135.4	38.5897
1138.3	12.143
1141.19	15.4756
1144.08	2.75854
1146.97	13.018
1149.87	12.826
1152.76	12.1508
1155.65	37.8409
1158.54	3.1794
1161.44	9.12953
1164.33	17.9518
1167.22	17.8325
1170.12	7.96408
1173.01	11.7888
1175.9	23.5004
1178.79	36.9222
1181.69	0.172424
1184.58	25.2378
1187.47	7.86296
1190.36	16.2197
1193.26	14.7223
1196.15	9.53719
1199.04	20.677
1201.93	28.3804
1204.83	24.84
1207.72	24.3596
1210.61	15.054
1213.51	13.2863
1216.4	24.2255
1219.29	2.11493
1222.18	25.263
1225.08	0.882523
1227.97	12.1842
1230.86	10.6847
