Measurement: Raman, 532 nm, unoriented, Raman Data Processed
Mineral: Burangaite
Rruff sample: R070408
Ideal chemistry: NaFe^2+^Al_5_(PO_4_)_4_(OH)_6_2H_2_O
Locality: Buranga pegmatite, Gatumba District, Gisenyi Province, Rwanda
Source: Michael Scott
Description: Blue to blue-green prismatic, co-type specimen. This is the piece used by Selway et al (1997) to determine structure.
Raman shift (cm-1)	intensity
141.948	0
145.323	12.2051
148.698	232.287
152.072	311.902
155.447	473.049
158.822	803.797
162.197	1337.51
165.572	2050.57
168.946	2828.8
172.321	2175.09
175.696	1829.65
179.071	1653.17
182.446	794.186
185.821	284.238
189.195	28.9165
192.57	48.6387
195.945	21.5713
199.32	14.0288
202.695	138.358
206.07	371.645
209.444	509.93
212.819	400.122
216.194	270.764
219.569	234.263
222.944	199.053
226.318	125.947
229.693	58.7114
233.068	42.9712
236.443	80.5425
239.818	132.66
243.192	185.861
246.567	301.872
249.942	330.173
253.317	625.889
256.692	1266.35
260.067	1848.72
263.441	964.269
266.816	345.979
270.191	58.5437
273.566	35.4719
276.941	11.2139
280.315	47.2978
283.69	79.9946
287.065	55.8867
290.44	32.6841
293.815	20.7669
297.19	54.4858
300.564	31.6858
303.939	36.2429
307.314	95.426
310.689	305.346
314.064	572.314
317.438	348.336
320.813	1.5249
324.188	38.5198
327.563	198.479
330.938	258.98
334.313	401.525
337.687	638.454
341.062	745.368
344.437	869.744
347.812	896.144
351.187	1203.39
354.562	1394.16
357.936	996.186
361.311	960.076
364.686	1252.67
368.061	1718.9
371.436	1875.05
374.81	1361.24
378.185	944.281
381.56	870.177
384.935	1004.23
388.31	1247.16
391.685	1271.27
395.059	1008.92
398.434	934.775
401.809	890.898
405.184	389.395
408.559	99.7208
411.933	27.3056
415.308	7.09403
418.683	33.7591
422.058	97.1766
425.433	261.765
428.808	569.486
432.182	971.31
435.557	1310.71
438.932	1365.21
442.307	1032.06
445.682	604.715
449.056	398.231
452.431	442.818
455.806	656.51
459.181	1092.18
462.556	1408.44
465.93	1318.27
469.305	1126.55
472.68	1353.48
476.055	1716.54
479.43	2077.75
482.805	2294.2
486.179	2193.33
489.554	1688.49
492.929	1303.66
496.304	1206.3
499.679	1106.47
503.053	1219.8
506.428	1327.98
509.803	1652.68
513.178	1915.29
516.553	2310.42
519.928	2602.61
523.302	2607.44
526.677	1833.18
530.052	1151.91
533.427	870.091
536.802	769.403
540.177	795.729
543.551	823.564
546.926	780.787
550.301	585.724
553.676	336.675
557.051	144.614
560.425	83.9383
563.8	45.9466
567.175	31.3574
570.55	28.2027
573.925	57.5592
577.299	106.32
580.674	238.089
584.049	520.568
587.424	797.033
590.799	873.369
594.174	1006.11
597.548	1480.94
600.923	2137.15
604.298	2544.05
607.673	2416.11
611.048	1699.01
614.423	1394.13
617.797	1268.96
621.172	1009.33
624.547	623.706
627.922	505.49
631.297	539.402
634.671	594.601
638.046	650.66
641.421	639.997
644.796	424.444
648.171	216.311
651.545	95.1865
654.92	86.029
658.295	56.8018
661.67	76.2312
665.045	140.723
668.42	217.206
671.794	290.896
675.169	158.276
678.544	111.997
681.919	34.456
685.294	69.7288
688.668	85.7634
692.043	121.01
695.418	137.756
698.793	120.57
702.168	69.8396
705.543	45.9582
708.917	8.71143
712.292	24.8298
715.667	4.78198
719.042	23.8264
722.417	41.8306
725.792	16.7544
729.166	7.68628
732.541	3.93457
735.916	19.2654
739.291	20.864
742.666	3.25708
746.04	54.396
749.415	33.6904
752.79	48.0049
756.165	32.188
759.54	82.2703
762.915	81.4492
766.289	86.9961
769.664	92.3499
773.039	67.2607
776.414	138.857
779.789	120.595
783.163	145.327
786.538	177.638
789.913	215.654
793.288	234.523
796.663	288.064
800.038	357.915
803.412	391.737
806.787	319.328
810.162	304.836
813.537	195.864
816.912	215.492
820.286	138.776
823.661	98.4189
827.036	117.673
830.411	125.921
833.786	124.315
837.16	125.334
840.535	146.497
843.91	165.541
847.285	182.641
850.66	103.553
854.035	99.1689
857.409	107.273
860.784	134.133
864.159	155.95
867.534	276.626
870.909	380.374
874.284	526.109
877.658	648.766
881.033	712.8
884.408	773.8
887.783	707.145
891.158	536.464
894.533	418.217
897.907	309.531
901.282	208.49
904.657	144.917
908.032	73.5957
911.407	61.977
914.781	33.9443
918.156	22.3212
921.531	14.3661
924.906	-2.37524
928.281	-3.18339
931.655	-2.93925
935.03	-4.35564
938.405	8.1843
941.78	12.6087
945.155	29.8071
948.529	78.2334
951.904	165.227
955.279	227.465
958.654	204.366
962.029	127.926
965.404	106.352
968.778	117.664
972.153	204.522
975.528	424.64
978.903	806.677
982.278	1104.61
985.653	1021.71
989.027	724.315
992.402	440.446
995.777	392.744
999.152	503.92
1002.53	751.439
1005.9	908.872
1009.28	1346.28
1012.65	2245.86
1016.03	3800.72
1019.4	5327.81
1022.78	5888.7
1026.15	4808.04
1029.53	3402.74
1032.9	2870.99
1036.28	3351.2
1039.65	4536.88
1043.02	5902.68
1046.4	5605.73
1049.77	3077.58
1053.15	1431.77
1056.52	1076.34
1059.9	1184.47
1063.27	1332.79
1066.65	1144.74
1070.02	696.525
1073.4	377.889
1076.77	257.252
1080.15	133.274
1083.52	97.1997
1086.9	257.7
1090.27	411.726
1093.65	726.392
1097.02	1056.89
1100.4	1247.71
1103.77	1129.8
1107.15	894.757
1110.52	688.877
1113.9	412.598
1117.27	96.7353
1120.64	53.146
1124.02	25.6488
1127.39	14.9783
1130.77	9.16536
1134.14	29.2874
1137.52	62.2258
1140.89	147.909
1144.27	90.7639
1147.64	62.0732
1151.02	108.522
1154.39	141.157
1157.77	227.074
1161.14	257.094
1164.52	275.844
1167.89	266.545
1171.27	355.981
1174.64	465.986
1178.02	537.786
1181.39	496.49
1184.77	355.182
1188.14	166.548
1191.52	72.6204
1194.89	129.02
1198.27	220.364
1201.64	355.777
1205.02	498.796
1208.39	515.09
1211.77	348.281
1215.14	296.95
1218.52	197.696
1221.89	287.249
1225.27	338.99
1228.64	422.852
1232.01	256.266
1235.39	130.708
1238.76	67.7532
1242.14	42.9277
1245.51	33.8562
1248.89	32.9297
1252.26	32.6045
1255.64	5.50195
1259.01	10.3154
1262.39	7.35083
1265.76	41.4143
1269.14	18.8081
1272.51	16.9006
1275.89	18.1489
1279.26	91.855
1282.64	56.634
1286.01	60.7161
1289.39	55.1113
1292.76	66.0779
1296.14	64.251
1299.51	69.563
1302.88	70.5881
1306.26	41.6804
