Measurement: Raman, 532 nm, unoriented, Raman Data Processed
Mineral: Burbankite
Rruff sample: R050646
Ideal chemistry: (Na,Ca)_3_(Sr,Ba,Ce)_3_(CO_3_)_5_
Locality: Cerro Sapo, Cochabamba Department, Bolivia
Source: Marcus Origlieri
Description: Brown prismatic crystals associated with blue sodalite, R060405, and dolomite
Measured chemistry: gray: (Na_2.03_Ca_0.97_)_Σ=3_(Sr_3.14_Ba_0.18_Ce_0.17_[box]_0.15_Th_0.10_Nd_0.08_La_0.08_)_Σ=3_(CO_3_)_5_ ; light-gray: (Na_1.97_Ca_1.03_)_Σ=3_(Sr_1.87_[box]_0.40_Ba_0.37_Ce_0.14_Th_0.11_Nd_0.06_La_0.05_)_Σ=3_(CO_3_)_5_ ; C estimated by stoichiometry
Raman shift (cm-1)	intensity
153.903	0
156.796	0.679443
159.689	4.33765
162.581	12.9518
165.474	13.6481
168.367	25.0642
171.259	36.5001
174.152	35.0902
177.045	40.9161
179.938	35.5592
182.83	23.6781
185.723	14.913
188.616	7.17432
191.508	5.32019
194.401	5.78967
197.294	16.76
200.186	32.0994
203.079	52.9639
205.972	80.4902
208.864	99.4136
211.757	120.024
214.65	148.188
217.543	160.402
220.435	180.872
223.328	197.207
226.221	200.618
229.113	170.166
232.006	148.005
234.899	128.487
237.792	111.998
240.684	102.435
243.577	96.0105
246.47	86.0149
249.362	65.9553
252.255	64.4195
255.148	62.693
258.041	60.2233
260.933	62.1565
263.826	65.0306
266.719	67.0375
269.611	64.129
272.504	65.8171
275.397	60.5275
278.289	54.1471
281.182	48.6044
284.075	39.5336
286.967	32.8002
289.86	32.3198
292.753	33.6962
295.646	16.2614
298.538	6.38055
301.431	1.18121
304.324	4.6333
307.216	2.70392
310.109	3.40399
313.002	2.61475
315.895	0.524719
318.787	1.55194
321.68	2.02753
324.573	0.566528
327.465	3.65497
330.358	10.891
333.251	12.4827
336.144	14.5801
339.036	22.4453
341.929	25.3805
344.822	26.9411
347.714	37.3381
350.607	34.3341
353.5	32.1445
356.392	32.3824
359.285	32.6644
362.178	26.6378
365.07	23.7637
367.963	20.9808
370.856	17.4315
373.749	21.8989
376.641	6.65832
379.534	15.3239
382.427	13.9076
385.32	12.9134
388.212	13.222
391.105	12.449
393.998	14.8325
396.89	17.9382
399.783	19.2814
402.676	23.2752
405.568	25.5746
408.461	32.2318
411.354	28.3203
414.247	24.6964
417.139	19.1243
420.032	9.88049
422.925	8.29413
425.817	10.5773
428.71	6.67548
431.603	6.10736
434.495	3.75073
437.388	2.17731
440.281	4.93689
443.173	0.913574
446.066	0.796387
448.959	2.08832
451.852	3.42615
454.744	3.10785
457.637	1.95398
460.53	5.70343
463.423	5.47314
466.315	3.81958
469.208	3.09051
472.101	4.32733
474.993	3.78973
477.886	3.70288
480.779	5.77899
483.671	5.36975
486.564	5.49866
489.457	6.33533
492.349	5.01868
495.242	8.16742
498.135	13.7412
501.028	7.71497
503.92	9.86529
506.813	5.43451
509.706	8.68268
512.598	3.61523
515.491	15.2444
518.384	6.27582
521.277	6.01733
524.169	1.52075
527.062	2.99207
529.955	1.6911
532.847	8.16284
535.74	8.86865
538.633	0.155396
541.525	4.56982
544.418	5.58667
547.311	5.2547
550.204	7.849
553.096	4.54242
555.989	0.800171
558.882	4.47931
561.774	2.22455
564.667	3.96374
567.56	2.0719
570.452	3.16614
573.345	10.5824
576.238	5.20007
579.131	5.76032
582.023	4.85773
584.916	7.96802
587.809	3.50446
590.701	3.94263
593.594	16.8826
596.487	5.59546
599.38	3.50348
602.272	4.1521
605.165	7.44287
608.058	9.41736
610.95	3.48285
613.843	4.66894
616.736	2.20422
619.629	12.5413
622.521	1.61231
625.414	1.37769
628.307	2.7132
631.199	1.0318
634.092	5.12317
636.985	1.1192
639.877	3.10175
642.77	1.49683
645.663	2.4928
648.556	2.44092
651.448	4.62646
654.341	2.44763
657.234	0.86615
660.126	1.82391
663.019	1.38739
665.912	0.635071
668.804	1.68487
671.697	1.32294
674.59	8.42767
677.482	16.1198
680.375	30.3619
683.268	43.0616
686.161	59.083
689.053	77.2979
691.946	95.5996
694.839	111.779
697.731	117.659
700.624	117.008
703.517	109.717
706.409	111.358
709.302	115.436
712.195	118.759
715.088	122.667
717.98	123.071
720.873	114.48
723.766	107.598
726.659	94.792
729.551	94.5609
732.444	92.2666
735.337	90.8099
738.229	78.1183
741.122	78.4077
744.015	82.5685
746.907	85.814
749.8	87.9269
752.693	94.0682
755.586	98.9658
758.478	102.02
761.371	109.969
764.264	118.063
767.156	125.103
770.049	122.561
772.942	131.828
775.835	137.567
778.727	140.378
781.62	149.379
784.513	153.166
787.405	159.705
790.298	167.491
793.191	173.92
796.083	178.017
798.976	175.753
801.869	175.585
804.761	165.524
807.654	159.113
810.547	147.565
813.44	130.535
816.332	116.432
819.225	102.372
822.118	86.7302
825.01	72.5695
827.903	56.9537
830.796	49.543
833.688	32.5901
836.581	14.5789
839.474	9.56763
842.367	3.58667
845.259	12.4221
848.152	29.0857
851.045	31.0579
853.937	22.9292
856.83	20.8953
859.723	23.2358
862.616	22.5342
865.508	21.1543
868.401	3.84033
871.294	17.3059
874.186	47.7666
877.079	54.1648
879.972	71.6204
882.865	106.553
885.757	146.67
888.65	185.789
891.543	230.22
894.435	275.147
897.328	325.508
900.221	399.649
903.113	445.199
906.006	493.001
908.899	550.771
911.792	599.945
914.684	659.254
917.577	715.15
920.47	774.038
923.362	818.835
926.255	880.058
929.148	926.538
932.04	993.067
934.933	1048.61
937.826	1117.21
940.719	1187.91
943.611	1218.01
946.504	1259.45
949.397	1301.95
952.289	1331.07
955.182	1340.41
958.075	1347.42
960.967	1359.61
963.86	1323.42
966.753	1280.88
969.646	1258.3
972.538	1210.98
975.431	1154.67
978.324	1112.71
981.216	1024.71
984.109	943.069
987.002	881.919
989.894	791.253
992.787	700.706
995.68	631.161
998.573	565.117
1001.47	492.435
1004.36	427.304
1007.25	358.329
1010.14	311.424
1013.04	244.518
1015.93	205.264
1018.82	154.208
1021.71	117.884
1024.61	69.1304
1027.5	49.1162
1030.39	7.43262
1033.29	16.0845
1036.18	24.398
1039.07	47.5132
1041.96	53.8145
1044.86	30.3657
1047.75	16.8584
1050.64	67.8042
1053.53	142.829
1056.43	279.096
1059.32	441.594
1062.21	654.467
1065.11	911.653
1068	1238.36
1070.89	1595.4
1073.78	1862.11
1076.68	1879.67
1079.57	1612.63
1082.46	1108.11
1085.35	639.997
1088.25	333.024
1091.14	152.678
1094.03	55.5122
1096.92	0.36084
1099.82	16.7012
1102.71	22.9282
1105.6	7.49243
1108.49	0.060547
1111.39	15.1606
1114.28	27.6052
1117.17	40.6204
1120.07	44.1831
1122.96	52.6929
1125.85	65.0127
1128.74	83.2102
1131.64	94.0911
1134.53	109.539
1137.42	119.06
1140.32	120.832
1143.21	128.929
1146.1	149.347
1148.99	155.926
1151.89	165.388
1154.78	159.544
1157.67	156.968
1160.56	148.858
1163.46	139.381
1166.35	139.693
1169.24	133.553
1172.13	136.912
1175.03	136.005
1177.92	127.236
1180.81	133.468
1183.71	124.696
1186.6	132.294
1189.49	128.843
1192.38	132.072
1195.28	123.349
1198.17	123.952
1201.06	130.094
1203.95	125.688
1206.85	121.489
1209.74	116.035
1212.63	110.487
1215.53	107.779
1218.42	101.08
1221.31	98.4175
1224.2	92.596
1227.1	84.2361
1229.99	74.2031
1232.88	68.5652
1235.77	54.3661
1238.67	42.3608
1241.56	44.5094
1244.45	30.0426
1247.35	25.3957
1250.24	21.5293
1253.13	13.8635
1256.02	13.5872
1258.92	8.35107
1261.81	8.29944
1264.7	4.89661
1267.59	9.7406
1270.49	7.19519
1273.38	8.50293
1276.27	5.06677
1279.16	1.74182
1282.06	2.23865
1284.95	3.56946
1287.84	1.88806
1290.74	1.82153
1293.63	0.902222
1296.52	6.68384
1299.41	0.328735
