Measurement: Raman, 780 nm, unoriented, Raman Data Processed
Mineral: Burbankite
Rruff sample: R050646
Ideal chemistry: (Na,Ca)_3_(Sr,Ba,Ce)_3_(CO_3_)_5_
Locality: Cerro Sapo, Cochabamba Department, Bolivia
Source: Marcus Origlieri
Description: Brown prismatic crystals associated with blue sodalite, R060405, and dolomite
Measured chemistry: gray: (Na_2.03_Ca_0.97_)_Σ=3_(Sr_3.14_Ba_0.18_Ce_0.17_[box]_0.15_Th_0.10_Nd_0.08_La_0.08_)_Σ=3_(CO_3_)_5_ ; light-gray: (Na_1.97_Ca_1.03_)_Σ=3_(Sr_1.87_[box]_0.40_Ba_0.37_Ce_0.14_Th_0.11_Nd_0.06_La_0.05_)_Σ=3_(CO_3_)_5_ ; C estimated by stoichiometry
Raman shift (cm-1)	intensity
156.147	0
159.04	918.85
161.932	2380.4
164.825	3497.85
167.718	5096.74
170.61	5877.98
173.503	7199.52
176.396	7983.17
179.288	7365.02
182.181	4957.39
185.074	2872.31
187.966	1100.91
190.859	78.0391
193.752	963.219
196.645	1416.72
199.537	1367.41
202.43	806.023
205.323	36.7539
208.215	1278.3
211.108	2626.91
214.001	4437.04
216.893	6898.53
219.786	8810.49
222.679	10961.7
225.572	13010.1
228.464	14165.4
231.357	14906.3
234.25	15486.5
237.142	15741.1
240.035	16473.1
242.928	16637
245.821	17555.4
248.713	18944.5
251.606	20103.1
254.499	22263.4
257.391	25659
260.284	30347.6
263.177	35420.5
266.069	41373.3
268.962	45913.8
271.855	48645.1
274.748	48825.3
277.64	47382
280.533	44483.7
283.426	42503
286.318	38796.4
289.211	35320.3
292.104	31304
294.996	26323.9
297.889	21524.1
300.782	16707
303.675	12930.4
306.567	10055.8
309.46	9545.7
312.353	9963.45
315.245	12891
318.138	17352.4
321.031	23150
323.923	29359.4
326.816	35749
329.709	42628.3
332.601	48764.9
335.494	54395.7
338.387	58647.9
341.279	61028.6
344.172	61577.9
347.065	60228.8
349.958	56133.1
352.85	50421.9
355.743	43655
358.636	36425.7
361.528	29567.1
364.421	22544.5
367.314	16495.6
370.207	11673.2
373.099	7338.31
375.992	3630.08
378.885	833.594
381.777	671.555
384.67	2242.1
387.563	2270.45
390.455	1734.57
393.348	1075.7
396.241	558.078
399.134	2366.92
402.026	3389.13
404.919	4799.27
407.812	6024.96
410.704	6695.3
413.597	7286.01
416.49	6892.19
419.382	6523.12
422.275	6283.2
425.168	5651.23
428.06	4688.41
430.953	3894.5
433.846	3152.72
436.739	2603.7
439.631	1922.52
442.524	1180.56
445.417	562.281
448.309	229.859
451.202	117.617
454.095	138.258
456.988	724
459.88	1390.27
462.773	1577.66
465.666	1874.04
468.558	2725.06
471.451	3047.75
474.344	3320.7
477.236	3694.82
480.129	3573.09
483.022	3553.05
485.914	3607.25
488.807	3593.87
491.7	3432.61
494.592	3149.81
497.485	2977.48
500.378	2847.36
503.271	2042.72
506.163	1723.65
509.056	1092.9
511.949	902.574
514.841	306.984
517.734	169.906
520.627	101.238
523.519	137.543
526.412	312.004
529.305	629.289
532.198	356.062
535.09	329.176
537.983	167.949
540.876	125.758
543.768	88.375
546.661	252.441
549.554	330.098
552.447	845.539
555.339	1352.62
558.232	1772.96
561.125	2456.89
564.017	2958.45
566.91	3565.23
569.803	4366.4
572.695	5101.9
575.588	5784.53
578.481	6725.81
581.374	7017.89
584.266	7788.08
587.159	8339.19
590.052	8794.06
592.944	8749.4
595.837	8631.18
598.73	8708.48
601.622	8400.75
604.515	8021.85
607.408	7857.77
610.301	7348.68
613.193	7196.48
616.086	6697.11
618.979	6899.53
621.871	6785.42
624.764	7065.31
627.657	7487.15
630.549	7847.86
633.442	8496.67
636.335	9407.96
639.227	10236.4
642.12	10994.5
645.013	11681.4
647.905	12418.5
650.798	12597.5
653.691	12794.6
656.584	12903.4
659.476	12396.1
662.369	11732.5
665.262	10916.6
668.154	10297.6
671.047	9295.77
673.94	8542.92
676.832	7651.89
679.725	6927.41
682.618	5765.35
685.511	5022.48
688.403	4325.33
691.296	3510.61
694.189	3055.69
697.081	2755.04
699.974	2242.61
702.867	2063.68
705.76	1643.82
708.652	1158.76
711.545	1314.14
714.438	932.59
717.33	680.932
720.223	451.816
723.116	170.383
726.008	262.42
728.901	110.557
731.794	116.094
734.687	301.066
737.579	245.625
740.472	249.775
743.365	335.113
746.257	415.467
749.15	366.541
752.043	397.717
754.935	8.72266
757.828	189.416
760.721	78.707
763.614	155.486
766.506	40.3262
769.399	353.781
772.292	261.815
775.184	528.914
778.077	623.83
780.97	714.721
783.862	1051.4
786.755	1157.34
789.648	1473.69
792.54	1320.44
795.433	1617.99
798.326	1681.86
801.218	1574.6
804.111	1662.36
807.004	1811.86
809.897	1708.71
812.789	1906.83
815.682	1817.78
818.575	1606.53
821.467	1792.77
824.36	1582.42
827.253	1526.56
830.145	1609.87
833.038	1626.02
835.931	1710.3
838.824	1669.21
841.716	1493.99
844.609	1630.81
847.502	1530.67
850.394	1483.22
853.287	1540.7
856.18	1574.62
859.072	1560.97
861.965	1565.84
864.858	1571.48
867.751	1652.82
870.643	1640.55
873.536	1759.71
876.429	2029.26
879.321	1748.89
882.214	1820.36
885.107	1809.3
888	1953.99
890.892	2003.16
893.785	2106.94
896.678	2138.6
899.57	2286.92
902.463	2413.55
905.356	2546.76
908.248	2656.55
911.141	2890.51
914.034	3065.75
916.927	3137.27
919.819	3112.58
922.712	3442.22
925.605	3463.12
928.497	3688.4
931.39	3708.43
934.283	3652.89
937.175	3862.76
940.068	3896.65
942.961	4204.43
945.854	4044.63
948.746	3919.57
951.639	4057.02
954.532	4085.57
957.424	4115.38
960.317	3986.45
963.21	4114.61
966.102	4000.16
968.995	4257.17
971.888	4057.68
974.78	4250.62
977.673	4219.02
980.566	4128.81
983.458	4091.84
986.351	4022.03
989.244	3941.92
992.137	3627.98
995.029	3229.2
997.922	3175.97
1000.82	2848.42
1003.71	2604.01
1006.6	2032.23
1009.49	1446.75
1012.38	1071.86
1015.28	604.652
1018.17	136.519
1021.06	327.555
1023.96	471.773
1026.85	917.066
1029.74	1041.57
1032.63	1410.79
1035.53	1565.11
1038.42	1609.68
1041.31	1756.26
1044.2	1775.59
1047.1	1696.39
1049.99	1746.94
1052.88	1218.07
1055.78	856.758
1058.67	307.859
1061.56	24.2227
1064.45	869.164
1067.35	1874.56
1070.24	2701.23
1073.13	4058.77
1076.03	4902.3
1078.92	6085.64
1081.81	7090.91
1084.7	7744.38
1087.6	9367.86
1090.49	11102.6
1093.38	13233.8
1096.27	15331.7
1099.17	17922.4
1102.06	20827.1
1104.95	23963.9
1107.84	27315.4
1110.74	31301
1113.63	34956
1116.52	39258.8
1119.41	44698.3
1122.31	49102.7
1125.2	54175.1
1128.09	58807.1
1130.99	64200.8
1133.88	69081.2
1136.77	74264.8
1139.66	79352.4
1142.56	83986.1
1145.45	88772.3
1148.34	93616.8
1151.23	97639.6
1154.13	102477
1157.02	107559
1159.91	113431
1162.81	119584
1165.7	129174
1168.59	140832
1171.48	153929
1174.38	162640
1177.27	163868
1180.16	162724
1183.06	159314
1185.95	152655
1188.84	144707
1191.73	136258
1194.62	125154
1197.52	114516
1200.41	101687
1203.3	88669.2
1206.2	73190.4
1209.09	58359
1211.98	43292.3
1214.87	27182.4
1217.77	13523.8
1220.66	1148.81
1223.55	11530.8
1226.44	19615.9
1229.34	18654.5
1232.23	3417.5
1235.12	32493.4
1238.02	66177.1
1240.91	105351
1243.8	153887
1246.69	210983
1249.59	271873
1252.48	336061
1255.37	382470
1258.27	398415
1261.16	430619
1264.05	459722
1266.94	464915
1269.84	437835
1272.73	369076
1275.62	272828
1278.51	168737
1281.41	60807.5
1284.3	228
