Measurement: Raman, 532 nm, unoriented, Raman Data Processed
Mineral: Burbankite
Rruff sample: R110199
Ideal chemistry: (Na,Ca)_3_(Sr,Ba,Ce)_3_(CO_3_)_5_
Locality: Poudrette quarry, Mont Saint-Hilaire, Quebec, Canada
Source: Donald Doell
Description: Tufts of white lathlike crystals
Raman shift (cm-1)	intensity
188.362	0
191.255	1.47732
194.147	0.685211
197.04	11.5852
199.933	13.0809
202.825	17.6238
205.718	23.0792
208.611	23.5935
211.504	26.4878
214.396	26.1969
217.289	29.3246
220.182	32.4054
223.074	29.1867
225.967	37.3431
228.86	33.1223
231.752	32.1955
234.645	32.6271
237.538	24.4195
240.43	32.032
243.323	30.135
246.216	27.5378
249.109	25.374
252.001	26.948
254.894	23.4448
257.787	19.5173
260.679	23.1305
263.572	18.1956
266.465	18.9557
269.358	23.0612
272.25	19.2951
275.143	16.819
278.036	17.207
280.928	20.2883
283.821	18.4401
286.714	12.4308
289.606	8.07767
292.499	5.80142
295.392	12.3015
298.284	8.40601
301.177	10.5874
304.07	11.2394
306.963	9.97119
309.855	8.69748
312.748	6.94513
315.641	6.07312
318.533	4.05521
321.426	4.37503
324.319	0.908142
327.212	1.23779
330.104	0.199402
332.997	1.9697
335.89	0.523285
338.782	1.43518
341.675	0.370209
344.568	2.64856
347.46	2.11414
350.353	4.06201
353.246	5.16116
356.139	3.74905
359.031	7.71625
361.924	2.47513
364.817	0.185944
367.709	3.82458
370.602	3.64288
373.495	3.95783
376.387	6.33343
379.28	6.94351
382.173	8.32257
385.065	8.905
387.958	9.24606
390.851	8.80231
393.744	9.5755
396.636	6.63184
399.529	7.56873
402.422	5.35089
405.314	11.3161
408.207	7.61148
411.1	7.03934
413.993	7.65744
416.885	7.30518
419.778	5.66428
422.671	4.72128
425.563	2.27329
428.456	2.91583
431.349	5.57871
434.241	6.9028
437.134	5.53183
440.027	1.08096
442.92	0.846588
445.812	2.931
448.705	5.57123
451.598	3.76758
454.49	3.49442
457.383	1.09045
460.276	3.26196
463.168	3.56543
466.061	1.18378
468.954	4.99036
471.846	7.03934
474.739	6.60538
477.632	5.92401
480.525	2.74866
483.417	3.86218
486.31	8.8458
489.203	1.88864
492.095	4.14371
494.988	4.7388
497.881	5.42108
500.774	1.56516
503.666	0.179047
506.559	6.36969
509.452	5.03137
512.344	2.71524
515.237	2.05304
518.13	1.56064
521.022	3.65906
523.915	2.90997
526.808	5.22754
529.701	2.95065
532.593	2.73712
535.486	3.51169
538.379	1.48676
541.271	1.85843
544.164	3.79755
547.057	4.42425
549.949	4.26288
552.842	1.95822
555.735	1.42133
558.628	5.80753
561.52	2.56867
564.413	4.70584
567.306	2.19946
570.198	3.40323
573.091	3.97223
575.984	2.80579
578.876	6.16379
581.769	7.51846
584.662	1.09729
587.554	0.323273
590.447	6.09
593.34	4.44635
596.232	3.32114
599.125	4.63043
602.018	3.43652
604.911	1.22968
607.803	1.3374
610.696	2.26318
613.589	4.60242
616.481	4.17963
619.374	5.72559
622.267	5.75092
625.159	0.203979
628.052	1.95493
630.945	3.09811
633.838	0.308563
636.73	2.86172
639.623	5.04828
642.516	0.143738
645.408	1.39004
648.301	1.00952
651.194	1.84378
654.087	2.74878
656.979	2.69693
659.872	2.44607
662.765	1.87824
665.657	3.87653
668.55	3.57388
671.443	6.53278
674.335	5.73874
677.228	2.50296
680.121	3.6488
683.014	8.81848
685.906	9.97089
688.799	15.6763
691.692	18.442
694.584	17.8502
697.477	19.7359
700.37	19.8022
703.263	20.1045
706.155	18.049
709.048	19.8996
711.941	22.1637
714.833	21.1341
717.726	16.7747
720.619	14.7998
723.511	7.92032
726.404	13.5442
729.297	14.7087
732.189	3.72626
735.082	4.61533
737.975	3.664
740.868	5.33948
743.76	0.783783
746.653	1.13312
749.546	0.576782
752.438	5.60944
755.331	3.74463
758.224	2.34705
761.116	4.7945
764.009	5.35187
766.902	4.35968
769.795	6.79358
772.687	4.56079
775.58	6.85608
778.473	8.74692
781.365	7.34564
784.258	5.97119
787.151	9.78558
790.043	12.9505
792.936	10.8934
795.829	9.55371
798.722	6.40271
801.614	9.98932
804.507	11.129
807.4	11.3567
810.292	9.12308
813.185	4.90897
816.078	9.89075
818.971	8.55209
821.863	8.07578
824.756	8.22784
827.649	5.32135
830.541	1.40381
833.434	2.02426
836.327	0.309235
839.219	2.06314
842.112	1.06332
845.005	4.13049
847.898	1.23019
850.79	1.01523
853.683	0.879852
856.576	0.162872
859.468	0.864532
862.361	0.854492
865.254	1.41348
868.146	0.524689
871.039	0.45755
873.932	1.4007
876.824	2.65326
879.717	0.45163
882.61	2.07092
885.503	2.96625
888.395	5.92511
891.288	8.90616
894.181	12.3215
897.073	6.79962
899.966	12.6198
902.859	16.1966
905.751	19.5423
908.644	19.9786
911.537	25.7819
914.43	25.6122
917.322	28.6556
920.215	33.8349
923.108	38.5475
926	43.0652
928.893	49.2198
931.786	50.3494
934.678	55.2986
937.571	58.3178
940.464	63.123
943.357	68.3302
946.249	75.5925
949.142	80.8744
952.035	83.1899
954.927	87.5696
957.82	92.3489
960.713	101.275
963.606	104.308
966.498	101.149
969.391	91.6084
972.284	83.4576
975.176	77.5851
978.069	72.049
980.962	65.5977
983.854	61.4278
986.747	58.7695
989.64	55.553
992.533	49.5418
995.425	45.0225
998.318	40.1139
1001.21	36.6828
1004.1	30.2983
1007	27.1888
1009.89	28.7809
1012.78	21.0718
1015.67	16.0608
1018.57	13.4255
1021.46	13.4677
1024.35	9.00403
1027.24	6.71234
1030.14	4.58411
1033.03	5.03625
1035.92	1.53711
1038.82	2.78632
1041.71	0.115845
1044.6	5.39435
1047.49	4.05994
1050.39	2.83026
1053.28	7.5191
1056.17	13.612
1059.07	34.777
1061.96	57.5226
1064.85	81.1197
1067.74	118.162
1070.63	162.086
1073.53	189.173
1076.42	197.227
1079.31	187.1
1082.21	162.405
1085.1	121.352
1087.99	64.923
1090.88	23.1927
1093.78	5.84436
1096.67	2.72171
1099.56	2.20618
1102.45	1.38391
1105.35	1.14459
1108.24	1.0051
1111.13	1.0256
1114.03	1.34802
1116.92	3.00232
1119.81	0.959869
1122.7	5.90857
1125.6	7.80853
1128.49	5.3483
1131.38	3.88663
1134.28	4.58823
1137.17	5.43304
1140.06	10.2743
1142.95	8.35052
1145.85	12.2381
1148.74	7.11417
1151.63	12.135
1154.52	8.55801
1157.42	3.94537
1160.31	9.57922
1163.2	10.0997
1166.09	7.16153
1168.99	8.94019
1171.88	8.21884
1174.77	7.11392
1177.66	7.31482
1180.56	8.28134
1183.45	8.09933
1186.34	7.01849
1189.24	8.11847
1192.13	8.7399
1195.02	10.7921
1197.91	12.8056
1200.81	7.31418
1203.7	5.66815
1206.59	8.25644
1209.48	9.59045
1212.38	12.8382
1215.27	8.69382
1218.16	5.04025
1221.06	7.08981
1223.95	5.19266
1226.84	8.87439
1229.73	4.50098
1232.63	6.19717
1235.52	4.57282
1238.41	0.338959
1241.31	3.9776
1244.2	2.01169
1247.09	3.81763
1249.98	5.36905
1252.88	1.71195
1255.77	2.44458
1258.66	6.96835
1261.55	1.62369
1264.45	3.50531
1267.34	5.56827
1270.23	1.64273
1273.12	3.76477
1276.02	5.94083
1278.91	0.50177
1281.8	3.25235
1284.69	0.799561
1287.59	2.64349
1290.48	5.10806
1293.37	3.66232
1296.27	0.936218
1299.16	1.50513
1302.05	1.80313
