Measurement: Raman, 532 nm, unoriented, Raman Data Processed
Mineral: Burbankite
Rruff sample: R120073
Ideal chemistry: (Na,Ca)_3_(Sr,Ba,Ce)_3_(CO_3_)_5_
Locality: Mont Saint-Hilaire, Rouville RCM, Montérégie, Québec, Canada
Source: Donald Doell
Description: Prismatic yellow-orange crystals embedded in microcline. Color is dependent upon light source.
Raman shift (cm-1)	intensity
174.381	0
177.273	0.576843
180.166	4.20114
183.059	22.486
185.951	57.7264
188.844	102.481
191.737	152.466
194.629	193.47
197.522	224.319
200.415	241.003
203.308	261.145
206.2	279.876
209.093	303.942
211.986	326.244
214.878	338.168
217.771	345.472
220.664	350.744
223.556	353.614
226.449	349.633
229.342	347.182
232.234	342.978
235.127	330.467
238.02	315.235
240.913	297.859
243.805	284.653
246.698	272.171
249.591	266.341
252.483	250.977
255.376	233.031
258.269	214.992
261.161	196.713
264.054	173.088
266.947	151.815
269.84	130.111
272.732	105.024
275.625	88.8206
278.518	71.9543
281.41	52.319
284.303	37.6495
287.196	24.7569
290.089	18.6271
292.981	14.0783
295.874	8.89008
298.767	5.92206
301.659	7.38245
304.552	12.6448
307.445	14.478
310.337	12.979
313.23	11.4745
316.123	11.5703
319.015	8.68066
321.908	9.37738
324.801	0.938812
327.694	3.2616
330.586	6.43457
333.479	5.83591
336.372	4.51028
339.264	5.94263
342.157	3.24048
345.05	3.66571
347.942	2.61417
350.835	1.76248
353.728	5.63235
356.621	5.00793
359.513	7.82504
362.406	9.83121
365.299	10.9831
368.191	13.088
371.084	16.0975
373.977	16.5217
376.87	20.4105
379.762	21.5122
382.655	22.866
385.548	22.6879
388.44	24.2792
391.333	23.095
394.226	23.1749
397.118	23.1025
400.011	22.7481
402.904	19.7243
405.796	20.4674
408.689	18.7946
411.582	19.3422
414.475	18.7443
417.367	18.2923
420.26	23.7429
423.153	16.3933
426.045	16.8252
428.938	18.2685
431.831	21.4212
434.724	26.7392
437.616	26.8888
440.509	24.0249
443.402	25.8431
446.294	26.7056
449.187	27.4884
452.08	27.1248
454.972	26.4945
457.865	24.7905
460.758	23.9163
463.651	21.2311
466.543	20.1582
469.436	16.4416
472.329	16.1275
475.221	15.0673
478.114	13.5698
481.007	13.0508
483.899	15.7556
486.792	14.2776
489.685	13.0042
492.577	10.0709
495.47	10.8998
498.363	9.46634
501.256	7.03555
504.148	5.78668
507.041	3.17645
509.934	4.08237
512.826	3.38425
515.719	3.52264
518.612	0.680206
521.505	1.13516
524.397	1.2421
527.29	0.43158
530.183	1.46454
533.075	2.38031
535.968	0.539246
538.861	1.71039
541.753	0.094482
544.646	0.419281
547.539	0.106018
550.432	1.75891
553.324	3.41376
556.217	3.98434
559.11	3.86069
562.002	5.74426
564.895	3.50827
567.788	4.09558
570.68	4.07703
573.573	3.8306
576.466	4.19394
579.359	6.15753
582.251	2.92673
585.144	3.96838
588.037	3.25763
590.929	4.32873
593.822	4.2157
596.715	3.15283
599.607	5.38852
602.5	2.84839
605.393	3.78015
608.285	5.29294
611.178	3.79272
614.071	5.1611
616.964	3.39002
619.856	3.46237
622.749	3.13446
625.642	2.43256
628.534	1.21234
631.427	0.901764
634.32	0.436493
637.212	0.597656
640.105	0.147278
642.998	0.137329
645.891	2.14905
648.783	1.16449
651.676	2.21252
654.569	1.74124
657.461	0.542694
660.354	0.921082
663.247	0.390167
666.139	0.957489
669.032	0.053772
671.925	3.13647
674.818	5.95651
677.71	12.2647
680.603	20.1915
683.496	31.1634
686.388	43.764
689.281	58.1978
692.174	74.1965
695.067	84.9913
697.959	90.5121
700.852	89.2566
703.745	86.0454
706.637	92.6706
709.53	103.15
712.423	107.223
715.315	101.888
718.208	84.6624
721.101	70.9969
723.994	61.9804
726.886	56.6414
729.779	51.5247
732.672	45.471
735.564	40.1228
738.457	36.0337
741.35	33.8787
744.242	30.3908
747.135	29.6863
750.028	29.7355
752.92	31.0269
755.813	27.1328
758.706	29.6192
761.599	27.961
764.491	29.8787
767.384	28.1931
770.277	31.8022
773.169	31.496
776.062	33.2021
778.955	37.4935
781.847	38.7667
784.74	42.427
787.633	44.8327
790.526	48.1123
793.418	49.976
796.311	47.9657
799.204	46.0371
802.096	43.129
804.989	39.507
807.882	36.8787
810.774	35.0665
813.667	29.8768
816.56	28.0247
819.453	24.0435
822.345	20.0878
825.238	14.8892
828.131	12.2184
831.023	10.691
833.916	1.90637
836.809	0.427551
839.702	1.90247
842.594	5.52234
845.487	5.44818
848.38	5.49786
851.272	5.17566
854.165	5.0647
857.058	10.674
859.95	12.2667
862.843	3.44519
865.736	1.25446
868.629	2.81513
871.521	4.36493
874.414	7.91223
877.307	3.25287
880.199	3.77692
883.092	3.93469
885.985	4.05273
888.877	8.1471
891.77	13.5222
894.663	14.4453
897.556	16.3677
900.448	18.6602
903.341	21.4547
906.234	27.6255
909.126	34.0188
912.019	39.275
914.912	45.376
917.804	54.2208
920.697	62.5201
923.59	63.3953
926.482	72.1306
929.375	82.6008
932.268	85.818
935.161	93.5201
938.053	103.631
940.946	110.707
943.839	126.081
946.731	140.95
949.624	146.584
952.517	169.577
955.409	173.326
958.302	178.206
961.195	186.675
964.088	188.862
966.98	193.066
969.873	195.44
972.766	188.884
975.658	180.538
978.551	172.212
981.444	159.96
984.337	137.851
987.229	129.936
990.122	116.985
993.015	104.917
995.907	89.4949
998.8	71.4559
1001.69	60.338
1004.59	44.0915
1007.48	39.2443
1010.37	31.9676
1013.26	22.9996
1016.16	16.9891
1019.05	12.7274
1021.94	11.4381
1024.83	1.97217
1027.73	1.20093
1030.62	1.17688
1033.51	3.43152
1036.4	6.80737
1039.3	5.03467
1042.19	7.60449
1045.08	18.1266
1047.98	39.5376
1050.87	71.822
1053.76	131.315
1056.65	218.233
1059.55	336.408
1062.44	453.003
1065.33	549.256
1068.22	640.039
1071.12	715.366
1074.01	764.029
1076.9	793.394
1079.8	780.573
1082.69	697.958
1085.58	518.745
1088.47	314.9
1091.37	165.123
1094.26	82.8492
1097.15	39.0024
1100.04	11.2104
1102.94	2.89282
1105.83	4.46875
1108.72	11.2599
1111.62	5.23431
1114.51	6.1925
1117.4	0.811157
1120.29	3.02814
1123.19	2.05798
1126.08	4.71698
1128.97	6.57318
1131.86	9.10864
1134.76	15.7017
1137.65	20.9672
1140.54	24.0499
1143.43	27.5199
1146.33	31.0571
1149.22	36.7944
1152.11	40.9421
1155.01	41.56
1157.9	46.1167
1160.79	46.9263
1163.68	49.9958
1166.58	51.2706
1169.47	49.3885
1172.36	44.6925
1175.26	48.846
1178.15	45.712
1181.04	46.2711
1183.93	44.0085
1186.83	45.6953
1189.72	42.8833
1192.61	45.8781
1195.5	42.697
1198.4	43.3065
1201.29	43.4636
1204.18	43.9832
1207.07	45.0661
1209.97	44.6633
1212.86	43.9606
1215.75	40.6497
1218.64	37.2305
1221.54	37.1249
1224.43	35.8913
1227.32	32.791
1230.22	29.2611
1233.11	25.7909
1236	21.2121
1238.89	18.3082
1241.79	19.5779
1244.68	15.3862
1247.57	15.3157
1250.46	13.3285
1253.36	11.1995
1256.25	9.23846
1259.14	7.72174
1262.04	7.61841
1264.93	1.42804
1267.82	4.24347
1270.71	3.59448
1273.61	7.09851
1276.5	4.15955
1279.39	1.62708
1282.29	0.664551
1285.18	3.0708
1288.07	5.40564
1290.96	0.776794
1293.86	1.50903
1296.75	2.78784
1299.64	2.77246
1302.53	0.018188
