Measurement: Raman, 532 nm, unoriented, Raman Data Processed
Mineral: Burkeite
Rruff sample: R060112
Ideal chemistry: Na_4_(SO_4_)(CO_3_)
Locality: Searles Lake, near Trona, San Bernardino County, California, USA
Source: University of Arizona Mineral Museum
Description: Tan colored nodule covered with white thenardite powder
Measured chemistry: Na_4.00_S_1.00_O_4_CO_3_ ; C not measured but estimated by difference.
Raman shift (cm-1)	intensity
150.528	0
153.421	52.8737
156.314	43.0643
159.207	13.42
162.099	12.0953
164.992	39.0663
167.885	74.6674
170.777	103.688
173.67	131.378
176.563	139.415
179.455	135.368
182.348	146.781
185.241	140.912
188.133	118.264
191.026	91.902
193.919	72.6935
196.812	49.0809
199.704	44.6033
202.597	20.1051
205.49	7.32701
208.382	11.8924
211.275	16.3073
214.168	7.28694
217.06	4.21265
219.953	5.10844
222.846	6.08793
225.739	9.0273
228.631	18.0968
231.524	9.14187
234.417	19.8215
237.309	27.7096
240.202	21.383
243.095	24.1573
245.988	15.8575
248.88	23.1577
251.773	25.6376
254.666	33.8977
257.558	33.5047
260.451	42.3674
263.344	41.7825
266.236	40.2311
269.129	35.2126
272.022	40.1505
274.915	40.6379
277.807	38.9769
280.7	32.0709
283.593	37.4291
286.485	32.0378
289.378	25.9411
292.271	24.5859
295.163	24.6272
298.056	28.8631
300.949	27.7397
303.842	26.4922
306.734	26.7875
309.627	29.7952
312.52	31.699
315.412	33.9695
318.305	38.9594
321.198	34.9611
324.091	39.0694
326.983	45.1777
329.876	43.3245
332.769	47.406
335.661	44.3847
338.554	41.2413
341.447	31.4619
344.339	32.3545
347.232	39.779
350.125	45.6401
353.018	31.1305
355.91	25.3124
358.803	19.3709
361.696	16.0295
364.588	20.1437
367.481	23.2107
370.374	20.4777
373.267	15.9352
376.159	13.4135
379.052	2.97985
381.945	1.75199
384.837	2.24457
387.73	4.80807
390.623	0.413638
393.515	0.772525
396.408	0.083973
399.301	1.08283
402.194	1.78208
405.086	3.7348
407.979	1.40822
410.872	3.01046
413.764	2.32632
416.657	5.28085
419.55	2.05495
422.442	1.37031
425.335	2.0556
428.228	8.9605
431.121	10.4866
434.013	15.2814
436.906	28.9861
439.799	48.3134
442.691	79.0743
445.584	112.99
448.477	153.034
451.37	190.94
454.262	174.821
457.155	119.162
460.048	70.1108
462.94	45.8032
465.833	37.7567
468.726	32.5467
471.618	51.0647
474.511	56.0836
477.404	52.0516
480.297	51.8569
483.189	41.7609
486.082	23.0474
488.975	13.8317
491.867	8.80903
494.76	8.98629
497.653	9.84632
500.546	9.68994
503.438	13.1193
506.331	7.42753
509.224	3.76501
512.116	5.59998
515.009	2.72443
517.902	0.365431
520.794	0.749917
523.687	7.30274
526.58	0.883606
529.472	0.093449
532.365	0.941884
535.258	8.52859
538.151	1.89164
541.043	6.45701
543.936	9.5993
546.829	8.78001
549.721	18.3855
552.614	8.0265
555.507	1.8293
558.399	11.4893
561.292	2.71737
564.185	1.26346
567.078	1.44653
569.97	8.82337
572.863	1.48255
575.756	10.2068
578.649	8.81111
581.541	14.1593
584.434	12.0136
587.327	11.9511
590.219	9.52043
593.112	6.35907
596.005	10.0438
598.897	18.034
601.79	23.7042
604.683	48.2627
607.576	90.2242
610.468	122.647
613.361	168.563
616.254	243.963
619.146	289.384
622.039	248.945
624.932	167.488
627.824	150.692
630.717	155.424
633.61	146.231
636.503	116.754
639.395	103.243
642.288	103.795
645.181	99.6488
648.073	56.6553
650.966	17.5528
653.859	2.55984
656.751	1.14979
659.644	8.49629
662.537	8.23417
665.43	0.412765
668.322	2.15629
671.215	0.458869
674.108	3.19665
677	1.43431
679.893	1.40824
682.786	1.03968
685.678	0.28098
688.571	7.02565
691.464	8.80196
694.357	8.08868
697.249	35.3914
700.142	51.5554
703.035	39.936
705.927	36.5966
708.82	20.8039
711.713	9.59762
714.606	13.7183
717.498	18.529
720.391	19.7414
723.284	10.4835
726.176	8.67382
729.069	10.6583
731.962	0.002853
734.855	8.34715
737.747	13.6604
740.64	20.0482
743.533	11.6972
746.425	13.4927
749.318	2.79358
752.211	5.40063
755.103	0.786394
757.996	7.47889
760.889	13.0791
763.782	18.3943
766.674	6.91012
769.567	0.627661
772.46	4.66316
775.352	10.6931
778.245	6.50086
781.138	12.0027
784.03	17.5376
786.923	10.4481
789.816	5.22685
792.709	4.84879
795.601	3.16485
798.494	4.70614
801.387	7.479
804.279	7.51535
807.172	9.6071
810.065	5.25948
812.957	6.5722
815.85	0.578854
818.743	5.1658
821.636	8.69368
824.528	10.889
827.421	14.4335
830.314	21.2159
833.206	7.30368
836.099	2.25863
838.992	18.0796
841.885	26.4267
844.777	13.9517
847.67	5.83386
850.563	6.49596
853.455	6.63872
856.348	9.77301
859.241	7.13293
862.134	1.0716
865.026	0.95061
867.919	4.61422
870.812	9.5598
873.704	4.1375
876.597	2.46687
879.49	1.30967
882.382	1.12357
885.275	3.27301
888.168	4.49264
891.061	2.28787
893.953	4.44168
896.846	4.33296
899.739	18.2121
902.631	20.4972
905.524	13.4776
908.417	18.1525
911.309	16.2302
914.202	20.154
917.095	20.2395
919.987	19.1238
922.88	10.3667
925.773	9.0632
928.666	3.62007
931.558	0.44841
934.451	21.3007
937.344	20.7283
940.236	21.6762
943.129	17.0595
946.022	16.1162
948.915	0.796249
951.807	4.13022
954.7	0.075266
957.593	0.934203
960.485	0.749685
963.378	0.893043
966.271	1.29983
969.163	13.746
972.056	34.0893
974.949	78.0492
977.842	156.997
980.734	308.973
983.627	580.949
986.52	983.165
989.412	1567.82
992.305	2110.88
995.198	2000.77
998.091	1233.48
1000.98	680.342
1003.88	417.336
1006.77	354.677
1009.66	345.149
1012.55	237.886
1015.45	110.764
1018.34	35.1556
1021.23	19.423
1024.12	5.34938
1027.02	4.54127
1029.91	2.23195
1032.8	0.908647
1035.7	4.07682
1038.59	2.93455
1041.48	10.7904
1044.37	40.1065
1047.27	70.5143
1050.16	148.895
1053.05	249.77
1055.94	410.239
1058.84	685.424
1061.73	903.92
1064.62	897.093
1067.52	781.763
1070.41	323.084
1073.3	62.4179
1076.19	10.862
1079.09	4.406
1081.98	4.23996
1084.87	1.18417
1087.76	8.6894
1090.66	22.5971
1093.55	52.21
1096.44	85.0556
1099.34	122.026
1102.23	123.924
1105.12	91.8692
1108.01	62.8975
1110.91	64.094
1113.8	66.2184
1116.69	65.3575
1119.58	74.5303
1122.48	69.3081
1125.37	51.3689
1128.26	63.1433
1131.15	49.9569
1134.05	44.986
1136.94	28.8591
1139.83	18.2068
1142.73	20.2142
1145.62	26.1099
1148.51	32.7422
1151.4	14.7791
1154.3	2.73448
1157.19	1.99878
1160.08	4.58452
1162.97	0.653823
1165.87	13.4115
1168.76	5.73837
1171.65	12.4236
1174.55	14.2955
1177.44	4.6674
1180.33	0.271914
1183.22	0.136114
1186.12	12.1244
1189.01	11.1819
1191.9	18.7439
1194.79	9.77214
1197.69	15.3499
1200.58	10.2646
1203.47	6.31014
1206.37	9.33492
1209.26	1.93355
1212.15	1.55463
1215.04	4.46516
1217.94	1.35818
1220.83	13.1431
1223.72	14.043
1226.61	7.38352
1229.51	16.8024
1232.4	21.5623
1235.29	8.53877
1238.18	4.31148
1241.08	0.687788
1243.97	9.05172
1246.86	12.4685
1249.76	17.9641
1252.65	1.03998
1255.54	1.59642
1258.43	7.8257
1261.33	14.8175
1264.22	10.0362
1267.11	28.2596
1270.01	45.2176
1272.9	38.8428
1275.79	24.4119
1278.68	18.2431
1281.58	7.18799
1284.47	5.98619
1287.36	12.9475
1290.25	20.5749
1293.15	14.2889
1296.04	6.65735
1298.93	6.28755
1301.82	0
