Measurement: Raman, 780 nm, unoriented, Raman Data Processed
Mineral: Burkeite
Rruff sample: R060112
Ideal chemistry: Na_4_(SO_4_)(CO_3_)
Locality: Searles Lake, near Trona, San Bernardino County, California, USA
Source: University of Arizona Mineral Museum
Description: Tan colored nodule covered with white thenardite powder
Measured chemistry: Na_4.00_S_1.00_O_4_CO_3_ ; C not measured but estimated by difference.
Raman shift (cm-1)	intensity
145.058	0
147.951	0.097839
150.844	3.34405
153.736	11.2099
156.629	10.8594
159.522	6.67316
162.414	7.8718
165.307	14.0391
168.2	19.5659
171.093	22.1721
173.985	25.932
176.878	25.2224
179.771	24.2015
182.663	23.4264
185.556	22.0282
188.449	16.4985
191.341	12.3442
194.234	5.98819
197.127	3.76134
200.019	0.223221
202.912	0.360626
205.805	2.21196
208.697	1.16899
211.59	0.404907
214.483	1.14499
217.376	2.22241
220.268	5.55409
223.161	3.18582
226.054	3.96037
228.946	1.44157
231.839	1.13728
234.732	0.095901
237.625	1.68918
240.517	1.2188
243.41	3.24472
246.303	2.25539
249.195	3.61893
252.088	3.14925
254.981	2.28432
257.873	0.799316
260.766	0.058838
263.659	1.41342
266.551	0.058823
269.444	1.59895
272.337	0.177155
275.23	0.692291
278.122	0.410889
281.015	1.60159
283.908	2.3524
286.8	0.575424
289.693	1.93025
292.586	1.76808
295.478	1.39992
298.371	0.161469
301.264	2.30431
304.157	0.975143
307.049	1.24251
309.942	2.27405
312.835	0.597916
315.727	1.61163
318.62	1.0986
321.513	0.307388
324.406	2.45619
327.298	3.7721
330.191	1.48259
333.084	3.28699
335.976	2.41815
338.869	1.78416
341.762	4.39458
344.654	3.22067
347.547	1.9435
350.44	2.62544
353.332	2.9306
356.225	2.38725
359.118	2.60886
362.01	0.50441
364.903	0.666275
367.796	3.06201
370.689	3.11954
373.581	1.1617
376.474	3.77405
379.367	0.548325
382.259	0.673569
385.152	0.163422
388.045	0.719711
390.938	0.010803
393.83	0.016541
396.723	2.18034
399.616	1.09811
402.508	0.167664
405.401	1.69273
408.294	2.46452
411.186	0.431717
414.079	1.03069
416.972	1.90395
419.865	0.62738
422.757	2.71547
425.65	3.57654
428.543	2.5193
431.435	5.40741
434.328	7.71231
437.221	11.4051
440.113	21.7781
443.006	22.6371
445.899	28.0111
448.791	38.067
451.684	43.166
454.577	40.0897
457.47	30.3534
460.362	20.3544
463.255	15.1422
466.148	15.4221
469.04	17.7283
471.933	20.3501
474.826	20.4126
477.719	17.8666
480.611	13.688
483.504	11.2228
486.397	7.45486
489.289	4.21143
492.182	3.32056
495.075	2.96028
497.967	3.31964
500.86	1.49001
503.753	1.46185
506.645	0.980347
509.538	2.01137
512.431	1.29312
515.323	0.213501
518.216	1.62112
521.109	0.587708
524.002	0.430481
526.894	0.169998
529.787	0.824478
532.68	1.0347
535.572	1.37859
538.465	1.63103
541.358	0.674637
544.25	0.952042
547.143	3.41522
550.036	0.305603
552.929	0.686478
555.821	1.29033
558.714	0.47467
561.607	3.05171
564.499	1.29394
567.392	0.180557
570.285	2.30592
573.178	1.06697
576.07	4.55742
578.963	1.33635
581.856	0.544098
584.748	0.775681
587.641	1.85265
590.534	1.83787
593.426	1.93086
596.319	1.30528
599.212	3.57341
602.105	4.35657
604.997	9.7664
607.89	14.1057
610.783	20.4862
613.675	28.0748
616.568	40.5925
619.461	48.6264
622.353	44.839
625.246	34.7204
628.139	32.1611
631.031	33.1643
633.924	33.9414
636.817	30.4504
639.71	27.6235
642.602	32.9399
645.495	31.2971
648.388	19.8103
651.28	8.06772
654.173	4.52644
657.066	1.92418
659.958	1.74139
662.851	0.638733
665.744	0.121033
668.636	0.687195
671.529	1.01639
674.422	0.339737
677.315	1.82574
680.207	1.30954
683.1	2.80492
685.993	2.35355
688.885	3.99556
691.778	5.67282
694.671	5.17012
697.563	5.74666
700.456	7.1468
703.349	5.84634
706.242	6.53224
709.134	3.50374
712.027	1.76106
714.92	2.40118
717.812	2.1738
720.705	0.753937
723.598	2.04953
726.49	2.65567
729.383	0.095993
732.276	1.25392
735.169	0.28096
738.061	1.37155
740.954	0.670395
743.847	0.260956
746.739	0.081345
749.632	1.41937
752.525	1.5126
755.418	0.889603
758.31	0.217957
761.203	0.221054
764.096	1.00117
766.988	0.194916
769.881	0.632233
772.774	2.23648
775.666	1.4937
778.559	0.239471
781.452	1.408
784.345	1.94217
787.237	1.22734
790.13	0.631577
793.023	1.71278
795.915	1.78978
798.808	1.47333
801.701	1.71794
804.593	0.441605
807.486	2.75326
810.379	1.65575
813.271	2.15437
816.164	1.25574
819.057	0.078339
821.949	2.07155
824.842	0.967239
827.735	1.48413
830.628	1.66112
833.52	1.36272
836.413	0.970367
839.306	0.846649
842.198	1.36946
845.091	1.06363
847.984	1.49077
850.876	0.037979
853.769	1.7568
856.662	1.77069
859.555	1.20879
862.447	1.7735
865.34	0.915833
868.233	1.55492
871.125	1.8326
874.018	1.56615
876.911	1.51685
879.803	1.67581
882.696	2.45593
885.589	0.739212
888.482	2.5417
891.374	1.01924
894.267	1.92076
897.16	1.63213
900.052	1.44136
902.945	2.23549
905.838	0.669159
908.731	2.15292
911.623	0.199966
914.516	1.45493
917.409	1.04677
920.301	1.48492
923.194	0.900803
926.087	1.18312
928.979	0.028397
931.872	0.69632
934.765	0.515701
937.658	0.334671
940.55	0.067703
943.443	0.134964
946.336	0.732224
949.228	0.310669
952.121	0.364273
955.014	0.504501
957.906	0.707581
960.799	2.34599
963.692	1.82811
966.584	1.55263
969.477	4.06842
972.37	5.86618
975.263	13.2467
978.155	29.0045
981.048	58.0629
983.941	103.29
986.833	168.881
989.726	266.641
992.619	351.651
995.511	329.432
998.404	205.81
1001.3	112.375
1004.19	70.8649
1007.08	61.1654
1009.98	55.5159
1012.87	40.2283
1015.76	19.9788
1018.65	6.90331
1021.55	1.86493
1024.44	1.26984
1027.33	0.650078
1030.22	0.710693
1033.12	0.052856
1036.01	1.55857
1038.9	2.42972
1041.8	7.01338
1044.69	11.519
1047.58	13.978
1050.47	25.5291
1053.37	42.789
1056.26	67.0816
1059.15	100.436
1062.04	125.718
1064.94	120.185
1067.83	98.8865
1070.72	42.9575
1073.61	9.17755
1076.51	2.87964
1079.4	0.215805
1082.29	0.66346
1085.18	0.498749
1088.08	1.49242
1090.97	3.11685
1093.86	4.59156
1096.76	8.45163
1099.65	12.9334
1102.54	13.9038
1105.43	12.6718
1108.33	10.6827
1111.22	11.7025
1114.11	12.9749
1117.01	14.3026
1119.9	16.389
1122.79	14.8279
1125.68	14.3389
1128.58	12.03
1131.47	11.5037
1134.36	9.77669
1137.25	7.67924
1140.15	7.0368
1143.04	4.58125
1145.93	3.53635
1148.82	4.53205
1151.72	3.45094
1154.61	4.06152
1157.5	1.85256
1160.39	2.60677
1163.29	1.9905
1166.18	1.46802
1169.07	1.10463
1171.97	0.042206
1174.86	0.952507
1177.75	2.02555
1180.64	2.22855
1183.54	2.79138
1186.43	1.74438
1189.32	3.57456
1192.21	1.66097
1195.11	1.7508
1198	0.274994
1200.89	1.33355
1203.79	0.834549
1206.68	0.496567
1209.57	0.125824
1212.46	0.166801
1215.36	0.842514
1218.25	0.488823
1221.14	0.983841
1224.04	0.309906
1226.93	0.130569
1229.82	0.719955
1232.71	0.430435
1235.61	0.179138
1238.5	0.93541
1241.39	1.68101
1244.28	0.869125
1247.18	1.91394
1250.07	1.322
1252.96	1.84501
1255.85	0.427971
1258.75	1.33347
1261.64	0.68335
1264.53	0.565613
1267.42	1.68887
1270.32	0.648636
1273.21	0.458748
1276.1	1.16278
1279	1.36974
1281.89	0.04348
1284.78	1.85494
