Measurement: Raman, 785 nm, unoriented, Raman Data Processed
Mineral: Buserite
Rruff sample: R070067
Ideal chemistry: Na_4_Mn_14_O_27_21H_2_O
Locality: Oppu mine (Lower 7 level), Aomori-ken, Japan
Source: Michael Scott
Description: Smooth dark brown loose nodules stored in water
Raman shift (cm-1)	intensity
157.951	0
160.844	8.75745
163.736	86.9586
166.629	148.347
169.522	142.654
172.414	145.68
175.307	98.5476
178.2	90.4116
181.093	141.645
183.985	122.369
186.878	107.555
189.771	106.168
192.663	161.06
195.556	205.168
198.449	143.568
201.341	198.267
204.234	153.236
207.127	241.347
210.019	166.769
212.912	176.59
215.805	140.588
218.698	182.485
221.59	140.665
224.483	103.861
227.376	70.6946
230.268	81.085
233.161	126.863
236.054	102.312
238.946	72.6921
241.839	135.485
244.732	94.884
247.625	59.3677
250.517	22.2424
253.41	19.3906
256.303	11.1187
259.195	25.0127
262.088	11.8447
264.981	16.4585
267.873	3.12842
270.766	8.13989
273.659	23.3562
276.552	45.0393
279.444	43.9968
282.337	46.3132
285.23	39.311
288.122	107.355
291.015	108.633
293.908	98.1355
296.8	145.152
299.693	107.043
302.586	114.534
305.479	111.168
308.371	110.664
311.264	109.994
314.157	125.567
317.049	86.2249
319.942	94.1226
322.835	57.7976
325.728	95.4707
328.62	36.792
331.513	61.8828
334.406	84.0417
337.298	109.835
340.191	116.037
343.084	85.3464
345.976	114.836
348.869	181.036
351.762	139.799
354.654	151.265
357.547	211.153
360.44	203.555
363.333	218.211
366.225	169.723
369.118	236.429
372.011	200.443
374.903	165.706
377.796	160.498
380.689	96.7302
383.582	79.9331
386.474	109.064
389.367	67.6519
392.26	51.2761
395.152	47.9175
398.045	14.0803
400.938	38.3469
403.83	12.4263
406.723	66.1721
409.616	42.3682
412.509	9.80518
415.401	23.1975
418.294	23.7334
421.187	58.688
424.079	5.92993
426.972	1.32251
429.865	18.4773
432.757	57.7053
435.65	6.31372
438.543	62.1699
441.435	29.6003
444.328	6.72461
447.221	40.6152
450.114	54.9214
453.006	11.4871
455.899	1.40161
458.792	15.854
461.684	85.0071
464.577	75.8015
467.47	83.1934
470.363	146.427
473.255	176.949
476.148	169.435
479.041	175.084
481.933	251.528
484.826	283.229
487.719	296.46
490.611	394.291
493.504	461.436
496.397	576.056
499.29	594.491
502.182	570.512
505.075	494.471
507.968	340.28
510.86	250.818
513.753	132.312
516.646	115.973
519.538	121.416
522.431	87.0193
525.324	43.2156
528.217	31.2671
531.109	11.324
534.002	84.7441
536.895	63.5476
539.787	25.9912
542.68	22.0283
545.573	7.86646
548.466	23.2627
551.358	115.208
554.251	52.1982
557.144	111.001
560.036	93.9658
562.929	200.047
565.822	192.9
568.714	300.405
571.607	282.836
574.5	309.691
577.393	342.811
580.285	356.197
583.178	432.104
586.071	479.363
588.963	437.087
591.856	526.231
594.749	470.644
597.641	507.016
600.534	580.066
603.427	599.355
606.319	587.193
609.212	661.227
612.105	698.323
614.998	766.444
617.89	817.356
620.783	889.23
623.676	998.036
626.568	1188.15
629.461	1278.95
632.354	1455.3
635.246	1638.97
638.139	1731.97
641.032	2010.05
643.925	2220.34
646.817	2544.63
649.71	2758.88
652.603	2826.12
655.495	2933.05
658.388	2714.25
661.281	2425.12
664.173	2033.75
667.066	1697.07
669.959	1409.64
672.852	1088.64
675.744	829.837
678.637	681.63
681.53	488.414
684.422	426.975
687.315	276.582
690.208	163.546
693.101	135.258
695.993	96.9639
698.886	79.0337
701.779	40.4409
704.671	42.6707
707.564	47.9168
710.457	23.8076
713.349	20.5293
716.242	43.4998
719.135	19.6128
722.028	3.10864
724.92	29.1265
727.813	12.9114
730.706	29.9639
733.598	33.6895
736.491	29.0403
739.384	51.9951
742.276	11.8572
745.169	0.872559
748.062	10.8285
750.955	10.2964
753.847	18.0367
756.74	0.356934
759.633	36.53
762.525	40.7433
765.418	45.7434
768.311	38.1504
771.203	50.4912
774.096	46.3669
776.989	40.6265
779.881	59.8893
782.774	55.3929
785.667	43.7218
788.56	73.1511
791.452	67.7234
794.345	76.1598
797.238	110.596
800.13	58.271
803.023	68.7024
805.916	60.9635
808.808	113.458
811.701	124.322
814.594	75.6928
817.487	88.9394
820.379	77.3351
823.272	88.7119
826.165	72.3229
829.057	53.6439
831.95	75.9152
834.843	83.5293
837.736	43.2462
840.628	35.6761
843.521	36.6608
846.414	4.81885
849.306	32.6989
852.199	69.6009
855.092	40.7051
857.984	74.6497
860.877	24.3623
863.77	74.4985
866.663	39.366
869.555	44.1491
872.448	53.4939
875.341	55.7628
878.233	27.6903
881.126	67.0512
884.019	72.5392
886.911	138.177
889.804	202.045
892.697	271.092
895.59	276.273
898.482	122.653
901.375	95.7874
904.268	45.7283
907.16	15.4696
910.053	28.8649
912.946	53.4117
915.838	5.42822
918.731	18.2075
921.624	33.78
924.516	4.62585
927.409	21.8474
930.302	23.295
933.195	63.9645
936.087	59.3546
938.98	23.5306
941.873	46.3401
944.765	34.0511
947.658	22.0632
950.551	31.1742
953.443	27.8581
956.336	35.2725
959.229	46.15
962.122	3.78711
965.014	0.347412
967.907	47.0403
970.8	6.01294
973.692	38.4738
976.585	38.8417
979.478	27.2783
982.37	1.68567
985.263	27.3459
988.156	94.2822
991.049	67.0769
993.941	72.8303
996.834	95.827
999.727	103.222
1002.62	165.984
1005.51	203.816
1008.4	320.008
1011.3	300.706
1014.19	266.005
1017.08	211.71
1019.98	146.9
1022.87	48.0898
1025.76	44.5453
1028.65	7.57898
1031.55	52.8031
1034.44	38.2755
1037.33	7.25146
1040.22	9.86841
1043.12	52.6587
1046.01	38.7991
1048.9	29.7722
1051.8	30.8032
1054.69	4.16003
1057.58	59.348
1060.47	10.7131
1063.37	29.0963
1066.26	38.042
1069.15	54.3774
1072.04	59.589
1074.94	39.9957
1077.83	45.8846
1080.72	36.9644
1083.62	67.2001
1086.51	5.94104
1089.4	64.7689
1092.29	77.0468
1095.19	14.8055
1098.08	39.3755
1100.97	40.4943
1103.86	35.4492
1106.76	40.548
1109.65	98.1849
1112.54	48.8668
1115.43	23.5032
1118.33	46.3539
1121.22	27.9033
1124.11	91.5791
1127.01	30.4791
1129.9	43.7239
1132.79	74.0022
1135.68	25.5605
1138.58	70.0352
1141.47	31.1179
1144.36	34.42
1147.25	0.61499
1150.15	74.4038
1153.04	17.5156
1155.93	69.1312
1158.83	72.9336
1161.72	38.0995
1164.61	57.7958
1167.5	53.1967
1170.4	79.2314
1173.29	104.003
1176.18	14.4066
1179.07	28.1107
1181.97	67.2862
1184.86	34.5331
1187.75	59.0973
1190.64	45.6617
1193.54	16.7321
1196.43	20.4557
1199.32	58.0654
1202.22	47.3325
1205.11	44.331
1208	32.618
1210.89	36.6036
1213.79	7.69055
1216.68	53.1604
1219.57	47.647
1222.46	70.7599
1225.36	61.3533
1228.25	78.1796
1231.14	27.1929
1234.04	63.1088
1236.93	40.5967
1239.82	18.4305
