Measurement: Raman, 780 nm, unoriented, Raman Data Processed
Mineral: Bussyite-(Ce)
Rruff sample: R120059
Ideal chemistry: (Na,H_2_O)_6_Ce_3_Be_5_MnSi_9_(O,OH)_30_F_4_
Locality: Mont Saint-Hilaire, Rouville RCM, Montérégie, Québec, Canada
Source: Donald Doell
Description: Sprays of pale yellow, elongated crystals, associated with catapleiite, albite and aegirine
Raman shift (cm-1)	intensity
110.888	0
114.263	8.92224
117.638	17.1126
121.013	16.0706
124.388	19.2492
127.762	17.6445
131.137	19.2988
134.512	10.7607
137.887	12.8795
141.262	13.0261
144.636	12.1901
148.011	5.89078
151.386	2.91855
154.761	2.05777
158.136	2.73148
161.51	0.579742
164.885	0.860046
168.26	0.933167
171.635	2.37521
175.01	3.79648
178.385	10.1202
181.759	12.151
185.134	13.7953
188.509	9.04767
191.884	6.23975
195.259	1.27862
198.633	0.229584
202.008	0.373795
205.383	1.83339
208.758	1.42621
212.133	3.2671
215.507	6.01256
218.882	6.13628
222.257	6.95285
225.632	7.51114
229.007	7.37923
232.382	8.55185
235.756	6.78795
239.131	8.91951
242.506	11.1326
245.881	9.33731
249.256	8.21317
252.631	7.15657
256.005	5.28514
259.38	7.81769
262.755	5.98998
266.13	5.18126
269.505	5.03882
272.879	1.94974
276.254	5.61162
279.629	3.83047
283.004	3.76856
286.379	3.35055
289.753	3.43559
293.128	0.013855
296.503	4.17645
299.878	2.26929
303.253	3.65239
306.628	2.52637
310.002	3.25909
313.377	0.71701
316.752	1.55328
320.127	0.40744
323.502	1.82645
326.877	1.1716
330.251	1.61391
333.626	1.87559
337.001	6.81189
340.376	11.0084
343.75	18.7133
347.125	28.6663
350.5	49.357
353.875	74.474
357.25	79.1526
360.625	68.6207
364	59.964
367.374	49.2498
370.749	43.2009
374.124	31.331
377.499	22.8757
380.873	14.9955
384.248	7.57384
387.623	3.94792
390.998	2.46133
394.373	0.886032
397.748	0.755997
401.122	1.17784
404.497	0.265854
407.872	1.63847
411.247	3.94417
414.622	3.04105
417.997	9.28058
421.371	12.6326
424.746	15.5265
428.121	18.5134
431.496	18.3724
434.871	16.8721
438.245	17.692
441.62	14.6363
444.995	15.8412
448.37	14.6232
451.745	16.4255
455.12	17.306
458.494	19.5749
461.869	18.9392
465.244	20.6461
468.619	23.9269
471.994	22.9432
475.368	27.3932
478.743	30.3938
482.118	40.3755
485.493	50.9361
488.868	59.6099
492.243	66.3742
495.617	77.1419
498.992	83.4562
502.367	83.8097
505.742	75.3533
509.117	58.1225
512.491	39.5743
515.866	23.3202
519.241	13.9116
522.616	6.04813
525.991	2.51076
529.365	1.55754
532.74	1.33559
536.115	1.89218
539.49	1.96436
542.865	1.06012
546.24	2.25159
549.614	3.48752
552.989	1.59671
556.364	0.182251
559.739	0.303513
563.114	1.09119
566.489	1.30333
569.863	1.69864
573.238	0.982834
576.613	1.13628
579.988	1.83106
583.362	4.72519
586.737	9.81281
590.112	13.3364
593.487	21.0853
596.862	28.8793
600.237	36.0641
603.611	38.2302
606.986	40.5741
610.361	34.9297
613.736	31.5946
617.111	28.3811
620.486	23.1007
623.86	16.2552
627.235	12.9924
630.61	12.6329
633.985	10.5366
637.36	8.92052
640.734	9.77867
644.109	7.79178
647.484	9.16817
650.859	10.3318
654.234	10.1032
657.609	11.468
660.983	10.991
664.358	10.945
667.733	11.368
671.108	9.71025
674.483	9.43465
677.857	7.5966
681.232	7.60463
684.607	9.04779
687.982	8.42807
691.357	5.8627
694.731	6.62523
698.106	4.71962
701.481	6.66869
704.856	12.5482
708.231	16.568
711.606	12.5452
714.98	3.0757
718.355	0.066818
721.73	1.34933
725.105	1.69507
728.48	0.034012
731.855	3.64125
735.229	2.01974
738.604	0.1931
741.979	0.381638
745.354	1.46309
748.729	0.536713
752.103	2.07625
755.478	1.01317
758.853	5.26447
762.228	4.39737
765.603	5.59674
768.977	7.01364
772.352	11.9632
775.727	9.14693
779.102	7.61551
782.477	10.7882
785.852	8.72844
789.226	7.32362
792.601	8.48744
795.976	7.32295
799.351	9.85165
802.726	16.3411
806.101	21.741
809.475	41.0791
812.85	56.3063
816.225	38.7377
819.6	19.4167
822.975	11.7219
826.349	8.50729
829.724	5.32518
833.099	3.72371
836.474	6.21373
839.849	8.53461
843.223	16.6686
846.598	29.4942
849.973	61.2527
853.348	101.114
856.723	131.969
860.097	139.712
863.472	109.377
866.847	66.9288
870.222	39.0065
873.597	33.3981
876.972	18.7353
880.346	8.87892
883.721	8.71951
887.096	6.19163
890.471	0.664001
893.846	1.39874
897.221	0.934082
900.595	0.53421
903.97	3.39899
907.345	0.111832
910.72	1.52058
914.095	0.034042
917.469	0.968002
920.844	0.381866
924.219	0.430878
927.594	1.32463
930.969	1.41461
934.343	0.570358
937.718	1.91289
941.093	3.41067
944.468	0.512253
947.843	1.61298
951.218	4.09381
954.592	6.39885
957.967	10.0649
961.342	13.8335
964.717	17.3162
968.092	23.414
971.466	17.1755
974.841	19.6304
978.216	20.7421
981.591	22.2258
984.966	25.0736
988.341	24.2441
991.715	27.2367
995.09	33.1902
998.465	28.1022
1001.84	32.921
1005.22	29.8104
1008.59	35.9997
1011.96	36.1759
1015.34	36.3765
1018.71	35.4514
1022.09	32.2441
1025.46	32.6012
1028.84	34.8345
1032.21	36.7195
1035.59	41.1931
1038.96	36.6143
1042.34	36.0532
1045.71	28.2637
1049.09	20.8933
1052.46	14.0113
1055.84	13.0506
1059.21	8.52274
1062.59	5.72189
1065.96	1.78931
1069.34	0.409637
1072.71	0.314484
1076.09	0.523788
1079.46	1.98235
1082.84	1.80626
1086.21	2.4596
1089.59	8.92558
1092.96	17.7902
1096.34	26.8885
1099.71	32.7811
1103.08	35.8167
1106.46	39.3959
1109.83	55.7153
1113.21	72.2236
1116.58	70.3421
1119.96	48.9294
1123.33	29.2123
1126.71	18.4432
1130.08	7.96146
1133.46	8.08243
1136.83	5.61664
1140.21	6.6756
1143.58	10.2075
1146.96	15.2395
1150.33	20.0432
1153.71	22.4173
1157.08	23.8133
1160.46	26.5846
1163.83	20.8706
1167.21	19.6322
1170.58	17.4002
1173.96	16.7313
1177.33	7.36798
1180.7	4.55331
1184.08	2.58572
1187.45	3.86795
1190.83	1.02518
1194.2	2.11896
1197.58	0.625732
1200.95	3.03305
1204.33	1.80261
1207.7	0.812836
1211.08	0.09903
1214.45	1.96246
1217.83	2.44299
1221.2	3.68921
1224.58	6.79987
1227.95	16.504
1231.33	12.9419
1234.7	17.1727
1238.08	14.8442
1241.45	13.0584
1244.83	11.6191
1248.2	10.2828
1251.58	10.3552
1254.95	7.92859
1258.33	7.32123
1261.7	7.92523
1265.08	20.7086
1268.45	13.6274
1271.83	10.1296
1275.2	8.14685
1278.58	4.00915
1281.95	6.50195
1285.32	0
