Measurement: Raman, 785 nm, unoriented, Raman Data Processed
Mineral: Bustamite
Rruff sample: R040014
Ideal chemistry: CaMn^2+^Si_2_O_6_
Locality: Broken Hill, New South Wales, Australia
Source: University of Arizona Mineral Museum
Description: Orange fragment
Measured chemistry: (Ca_0.90_Mn_0.10_)_Σ=1_(Mn^2+^_0.78_Fe^2+^_0.19_Fe^3+^_0.02_Mg_0.01_)_Σ=1_(Si_1.98_Fe^3+^_0.02_)_Σ=2_O_6_
Raman shift (cm-1)	intensity
122.01	0
124.903	11.36
127.796	143.664
130.688	399.775
133.581	697.195
136.474	739.566
139.367	699.977
142.259	736.065
145.152	941.519
148.045	1235.75
150.937	1568.88
153.83	1673.79
156.723	1325.57
159.615	917.643
162.508	590.203
165.401	435.763
168.293	350.021
171.186	309.322
174.079	304.718
176.971	261.133
179.864	176.312
182.757	89.6731
185.65	37.6755
188.542	18.0194
191.435	7.8938
194.328	32.4788
197.22	4.79803
200.113	36.5079
203.006	29.7571
205.899	35.6097
208.791	35.3593
211.684	2.52545
214.577	20.1362
217.469	94.1725
220.362	166.561
223.255	283.806
226.147	455.177
229.04	607.153
231.933	825.105
234.826	980.411
237.718	1152.31
240.611	1274.3
243.504	1349.33
246.396	1279.78
249.289	1062.66
252.182	801.088
255.074	585.752
257.967	371.293
260.86	266.684
263.752	168.107
266.645	101.442
269.538	117.871
272.431	170.489
275.323	248.531
278.216	339.546
281.109	426.527
284.001	500.202
286.894	549.951
289.787	607.472
292.68	678.203
295.572	774.701
298.465	1038.03
301.358	1423.5
304.25	2104.25
307.143	3089.01
310.036	4366.34
312.928	5540.48
315.821	5978.99
318.714	5195.34
321.606	3747.12
324.499	2476.03
327.392	1708.71
330.285	1261.1
333.177	992.266
336.07	809.719
338.963	630.133
341.855	420.783
344.748	267.118
347.641	179.981
350.534	108.298
353.426	55.2703
356.319	10.735
359.212	13.8855
362.104	29.7621
364.997	33.7547
367.89	34.1654
370.782	14.5649
373.675	40.1542
376.568	89.5685
379.461	182.387
382.353	301.107
385.246	477.967
388.139	743.562
391.031	975.726
393.924	1159.07
396.817	1166.14
399.709	1029.58
402.602	936.81
405.495	805.255
408.387	622.035
411.28	467.501
414.173	295.143
417.066	194.77
419.958	133.039
422.851	81.3272
425.744	42.3138
428.636	119.371
431.529	31.3473
434.422	25.3036
437.315	40.4323
440.207	42.5428
443.1	63.1396
445.993	36.7121
448.885	26.8289
451.778	48.5782
454.671	89.8176
457.563	176.16
460.456	205.187
463.349	199.07
466.241	138.089
469.134	56.0832
472.027	16.8101
474.92	4.22858
477.812	1.64325
480.705	13.3007
483.598	24.8718
486.49	19.535
489.383	34.604
492.276	59.0643
495.168	74.9561
498.061	126.405
500.954	197.268
503.847	326.519
506.739	476.228
509.632	729.42
512.525	962.075
515.417	1043.03
518.31	836.472
521.203	511.795
524.096	305.123
526.988	183.489
529.881	98.3193
532.774	47.7589
535.666	16.5855
538.559	4.88351
541.452	8.5672
544.344	15.4085
547.237	5.62494
550.13	12.5857
553.023	3.55832
555.915	18.1666
558.808	51.2134
561.701	99.5388
564.593	204.865
567.486	363.658
570.379	627.957
573.271	861.819
576.164	1023.99
579.057	881.524
581.949	616.718
584.842	358.877
587.735	183.543
590.628	98.7838
593.52	38.25
596.413	31.8616
599.306	16.3106
602.198	2.75446
605.091	30.1943
607.984	23.1979
610.876	39.4149
613.769	89.2938
616.662	145.146
619.555	224.495
622.447	374.417
625.34	610.29
628.233	965.408
631.125	1549.86
634.018	2542.89
636.911	4212.49
639.803	6572.67
642.696	9316.41
645.589	10628.2
648.482	8494.11
651.374	5205.39
654.267	3057.16
657.16	1841.28
660.052	1112.96
662.945	672.158
665.838	367.874
668.731	207.253
671.623	122.8
674.516	45.9037
677.409	15.5466
680.301	9.48077
683.194	67.053
686.087	162.778
688.979	241.081
691.872	259.288
694.765	193.887
697.658	104.868
700.55	31.8976
703.443	29.5429
706.336	31.4865
709.228	81.2038
712.121	159.667
715.014	279.759
717.906	338.653
720.799	245.232
723.692	151.591
726.585	91.8485
729.477	38.0785
732.37	26.508
735.263	16.666
738.155	8.6189
741.048	9.68298
743.941	0.910278
746.833	11.6578
749.726	9.13898
752.619	5.19434
755.511	8.32825
758.404	4.57877
761.297	6.74802
764.19	21.1374
767.082	11.5966
769.975	20.7868
772.868	15.8017
775.76	37.4051
778.653	40.9869
781.546	39.0794
784.438	38.0574
787.331	53.8568
790.224	52.8526
793.117	65.1936
796.009	61.1247
798.902	51.2873
801.795	50.794
804.687	60.8908
807.58	63.072
810.473	56.1278
813.365	68.4162
816.258	49.5226
819.151	62.8603
822.044	38.9238
824.936	54.5894
827.829	31.153
830.722	30.8319
833.614	38.9255
836.507	28.7483
839.4	30.6729
842.293	27.1203
845.185	28.7478
848.078	9.0327
850.971	22.2709
853.863	12.605
856.756	3.76562
859.649	18.3035
862.541	22.187
865.434	18.5346
868.327	27.0644
871.22	21.3116
874.112	36.8481
877.005	39.8816
879.898	56.8838
882.79	81.931
885.683	105.724
888.576	135.769
891.468	140.068
894.361	155.102
897.254	140.694
900.146	105.036
903.039	67.224
905.932	21.5067
908.825	20.3123
911.717	13.7027
914.61	26.7162
917.503	32.5153
920.395	33.312
923.288	18.167
926.181	0.529572
929.073	31.9529
931.966	46.1812
934.859	113.888
937.752	74.4741
940.644	59.3745
943.537	39.7401
946.43	36.5984
949.322	78.6316
952.215	177.75
955.108	372.54
958	701.347
960.893	1267.34
963.786	2354.47
966.679	4524.68
969.571	7853.7
972.464	11588
975.357	11872.9
978.249	8059.58
981.142	4613.93
984.035	2941.34
986.928	2176.48
989.82	1909.51
992.713	1809.14
995.606	1812.42
998.498	1813.78
1001.39	1726.33
1004.28	1432.75
1007.18	1163.08
1010.07	991.398
1012.96	865.812
1015.85	831.558
1018.75	946.346
1021.64	1140.54
1024.53	1400.96
1027.42	1585.02
1030.32	1604.59
1033.21	1893.6
1036.1	2548.23
1039	3121.99
1041.89	2706
1044.78	1732.04
1047.67	938.642
1050.57	515.453
1053.46	271.705
1056.35	134.921
1059.24	76.2995
1062.14	22.236
1065.03	7.06561
1067.92	16.7203
1070.82	20.7882
1073.71	2.90094
1076.6	4.59253
1079.49	47.6264
1082.39	67.855
1085.28	94.4802
1088.17	80.123
1091.07	35.2253
1093.96	32.9774
1096.85	13.809
1099.74	7.36298
1102.63	12.8371
1105.53	10.3997
1108.42	0.111633
