Measurement: Raman, 514 nm, unoriented, Raman Data Processed
Mineral: Bustamite
Rruff sample: R040014
Ideal chemistry: CaMn^2+^Si_2_O_6_
Locality: Broken Hill, New South Wales, Australia
Source: University of Arizona Mineral Museum
Description: Orange fragment
Measured chemistry: (Ca_0.90_Mn_0.10_)_Σ=1_(Mn^2+^_0.78_Fe^2+^_0.19_Fe^3+^_0.02_Mg_0.01_)_Σ=1_(Si_1.98_Fe^3+^_0.02_)_Σ=2_O_6_
Raman shift (cm-1)	intensity
65.458	0
69.651	2.843
73.842	43.335
78.031	102.393
82.218	257.062
86.404	401.039
90.587	755.111
94.768	1176.72
98.947	1377.97
103.124	1259.37
107.3	927.147
111.473	629.988
115.644	642.658
119.813	795.131
123.981	665.26
128.146	626.174
132.309	759.378
136.47	710.93
140.63	553.611
144.787	358.65
148.942	265.374
153.096	188.018
157.247	144.658
161.396	105.394
165.544	146.196
169.689	167.04
173.833	120.546
177.974	63.396
182.114	19.548
186.251	38.826
190.387	25.192
194.52	24.637
198.652	43.158
202.782	18.749
206.909	60.407
211.035	20.876
215.159	17.562
219.281	6.63
223.4	35.352
227.518	110.802
231.634	163.883
235.748	269.833
239.86	284.046
243.97	261.964
248.079	178.381
252.185	71.175
256.289	28.263
260.391	5.413
264.492	10.528
268.59	16.617
272.687	69.789
276.781	89.012
280.874	106.1
284.964	138.803
289.053	145.893
293.14	193.25
297.225	215.039
301.308	315.355
305.389	533.718
309.468	918.968
313.545	1327.24
317.62	1254.55
321.693	815.89
325.765	515.257
329.834	399.643
333.902	363.036
337.967	313.449
342.031	207.876
346.093	123.298
350.153	68.741
354.21	23.09
358.267	5.49
362.321	13.05
366.373	16.646
370.423	16.293
374.471	3.417
378.518	4.663
382.563	37.138
386.605	103.233
390.646	182.319
394.685	211.413
398.722	386.554
402.757	566.732
406.79	552.934
410.821	385.151
414.851	182.378
418.878	82.609
422.904	27.725
426.927	20.513
430.949	3.751
434.969	20.478
438.987	5.544
443.003	1.541
447.018	31.554
451.03	0.656
455.041	8.183
459.049	25.012
463.056	21.826
467.061	40.626
471.064	152.439
475.065	302.273
479.064	663.133
483.062	817.985
487.057	522.84
491.051	251.682
495.043	129.521
499.032	106.339
503.02	106.134
507.007	172.906
510.991	237.656
514.973	214.382
518.954	160.44
522.933	93.448
526.91	65.072
530.885	52.088
534.858	34.765
538.829	45.966
542.799	56.576
546.766	57.166
550.732	68.736
554.696	84.283
558.658	124.807
562.618	158.307
566.576	301.782
570.533	475.233
574.488	631.657
578.44	605.056
582.391	477.428
586.341	332.417
590.288	313.954
594.233	331.283
598.177	320.209
602.119	405.856
606.059	431.611
609.997	525.505
613.933	627.142
617.868	853.848
621.801	1186.57
625.731	1667.98
629.66	2780.38
633.588	4916.46
637.513	9146.26
641.437	16288.1
645.358	18644.1
649.278	12396.7
653.196	6545.02
657.113	3574.89
661.027	2138.72
664.94	1286.76
668.851	846.535
672.76	591.02
676.667	437.994
680.572	351.699
684.476	353.418
688.378	405.162
692.278	385.917
696.176	274.656
700.072	223.371
703.967	138.01
707.86	140.721
711.751	209.357
715.64	262.968
719.527	247.554
723.413	163.116
727.297	75.655
731.179	82.171
735.059	66.667
738.937	5.858
742.814	16.578
746.689	4.993
750.562	23.402
754.433	40.186
758.303	0.887
762.17	22.37
766.036	4.597
769.901	18.2
773.763	19.929
777.624	5.95
781.482	19.864
785.339	7.863
789.195	22.946
793.048	2.113
796.9	9.69
800.75	13.541
804.598	7.804
808.445	9.903
812.289	8.744
816.132	42.32
819.973	46.027
823.813	55.737
827.65	32.452
831.486	20.174
835.32	26.905
839.152	32.643
842.983	71.391
846.812	47.148
850.639	37.916
854.464	62.694
858.288	74.485
862.11	108.29
865.93	171.109
869.748	188.944
873.564	274.795
877.379	371.668
881.192	543.576
885.004	748.554
888.813	931.586
892.621	972.847
896.427	906.754
900.232	677.241
904.034	583.223
907.835	501.466
911.634	453.997
915.432	446.753
919.227	486.248
923.021	502.165
926.813	549.807
930.604	629.66
934.393	710.025
938.18	735.251
941.965	794.019
945.749	869.339
949.53	1099.4
953.311	1403.48
957.089	2130.06
960.866	3448.01
964.641	6541.02
968.414	13950.1
972.185	25901.9
975.955	26176.1
979.723	14599.3
983.49	7789.56
987.254	5387.86
991.017	4480.21
994.779	4207.6
998.538	4204.04
1002.3	3807.53
1006.05	2811.05
1009.81	2000.63
1013.56	1589.12
1017.31	1492.91
1021.06	1696.62
1024.81	2023.37
1028.55	2134.78
1032.3	1777.5
1036.04	1878.58
1039.78	2151.64
1043.52	1717.45
1047.26	987.172
1050.99	659.346
1054.73	423.052
1058.46	339.099
1062.19	264.375
1065.92	189.465
1069.65	165.698
1073.37	140.835
1077.1	109.348
1080.82	115.308
1084.54	107.132
1088.26	81.722
1091.97	54.525
1095.69	26.218
1099.4	50.108
1103.12	31.492
1106.83	77.555
1110.54	52.349
1114.24	30.213
1117.95	28.104
1121.65	91.21
1125.35	123.073
1129.06	71.928
1132.75	17.759
1136.45	35.6
1140.15	18.442
1143.84	33.282
1147.53	30.12
1151.22	21.953
1154.91	31.782
1158.6	33.884
1162.28	33.419
1165.97	37.226
1169.65	27.023
1173.33	9.191
1177.01	5.433
1180.69	27.741
1184.36	4.827
1188.04	3.663
1191.71	11.797
1195.38	3.801
1199.05	19.545
1202.71	6.177
1206.38	16.029
1210.04	1.819
1213.71	6.452
1217.37	20.448
1221.03	1.545
1224.68	8.519
1228.34	17.336
1231.99	36.172
1235.65	4.087
1239.3	49.627
1242.95	22.275
1246.59	0.119
1250.24	6.43
1253.88	0.062
1257.53	16.383
1261.17	48.313
1264.81	26.202
1268.45	32.523
1272.08	30.793
1275.72	53.023
1279.35	60.211
1282.98	54.984
1286.61	55.46
1290.24	76.523
1293.87	89.649
1297.49	64.528
1301.11	60.47
1304.73	55.084
1308.36	68.239
1311.97	73.069
1315.59	72.773
1319.2	70.162
1322.82	73.466
1326.43	83.837
1330.04	63.461
1333.65	67.227
1337.26	65.264
1340.86	60.78
1344.47	48.585
1348.07	54.955
1351.67	52.197
1355.27	1.337
1358.87	24.436
1362.46	29.557
1366.06	61.604
1369.65	55.447
1373.24	4.415
1376.83	56.607
1380.42	33.264
1384	54.073
1387.59	60.94
1391.17	14.402
1394.75	18.204
1398.33	26.979
1401.91	1.098
1405.49	31.182
1409.06	26.191
1412.64	19.121
1416.21	45.971
1419.78	29.739
1423.35	36.425
1426.91	42.11
1430.48	29.937
1434.05	40.797
1437.61	49.714
1441.17	25.461
1444.73	32.423
1448.29	42.498
1451.84	53.581
1455.4	78.754
1458.95	80.018
1462.5	57.365
1466.05	73.669
1469.6	78.124
1473.15	47.642
1476.69	57.263
1480.24	48.002
1483.78	66.214
1487.32	67.273
1490.86	53.088
1494.39	35.469
1497.93	22.077
1501.46	51.963
1505	37.193
1508.53	55.851
1512.06	52.071
1515.59	59.45
1519.11	48.507
1522.64	36.866
