Measurement: Raman, 532 nm, unoriented, Raman Data Processed
Mineral: Bustamite
Rruff sample: R040014
Ideal chemistry: CaMn^2+^Si_2_O_6_
Locality: Broken Hill, New South Wales, Australia
Source: University of Arizona Mineral Museum
Description: Orange fragment
Measured chemistry: (Ca_0.90_Mn_0.10_)_Σ=1_(Mn^2+^_0.78_Fe^2+^_0.19_Fe^3+^_0.02_Mg_0.01_)_Σ=1_(Si_1.98_Fe^3+^_0.02_)_Σ=2_O_6_
Raman shift (cm-1)	intensity
117.665	0
120.558	7.21909
123.451	155.036
126.344	411.79
129.236	794.011
132.129	1289.48
135.022	1701.05
137.914	1845.68
140.807	1753.1
143.7	1732.54
146.593	1933.25
149.485	2309.55
152.378	2607.28
155.271	2541.24
158.163	1984.83
161.056	1336.81
163.949	804.818
166.841	503.163
169.734	361.05
172.627	301.548
175.519	315.865
178.412	221.99
181.305	122.905
184.198	30.2629
187.09	19.9707
189.983	11.3279
192.876	37.2007
195.768	15.6877
198.661	25.8212
201.554	55.8644
204.446	78.5862
207.339	52.1928
210.232	7.875
213.125	39.1641
216.017	104.637
218.91	228.573
221.803	363.323
224.695	615.285
227.588	874.572
230.481	1186.41
233.373	1450.23
236.266	1673.99
239.159	1938.34
242.052	2051.17
244.944	2018.31
247.837	1715.72
250.73	1263.62
253.622	926.764
256.515	587.413
259.408	388.41
262.3	239.11
265.193	174.42
268.086	174.652
270.978	258.415
273.871	355.55
276.764	522.938
279.657	695.898
282.549	965.942
285.442	917.501
288.335	1083.26
291.227	1234.27
294.12	1455.14
297.013	1869.72
299.906	2567.27
302.798	3779.49
305.691	5468.09
308.584	7457.34
311.476	9511.92
314.369	10772
317.262	10025.3
320.154	7819.74
323.047	5466.27
325.94	3734.34
328.832	2662.57
331.725	2026.23
334.618	1600.2
337.51	1222.81
340.403	876.631
343.296	588.009
346.189	380.849
349.081	227.926
351.974	92.0565
354.867	32.3491
357.759	24.7156
360.652	59.4734
363.545	42.7015
366.438	51.678
369.33	4.84821
372.223	88.4681
375.116	218.32
378.008	380.97
380.901	662.164
383.794	1002.1
386.686	1486.26
389.579	2045.15
392.472	2478.45
395.365	2530.54
398.257	2259.68
401.15	1974.05
404.043	1730.85
406.935	1403.63
409.828	1050.18
412.721	721.723
415.613	496.808
418.506	321.898
421.399	216.17
424.291	91.339
427.184	52.5714
430.077	23.2356
432.97	16.4994
435.862	37.8656
438.755	38.8336
441.648	12.5569
444.54	74.705
447.433	16.3198
450.326	62.244
453.218	150.538
456.111	294.932
459.004	405.067
461.897	416.239
464.789	314.655
467.682	193.472
470.575	83.251
473.467	14.9841
476.36	6.23956
479.253	11.1264
482.145	18.5544
485.038	47.4208
487.931	74.1527
490.824	84.7692
493.716	174.252
496.609	273.088
499.502	442.704
502.394	713.273
505.287	1076.62
508.18	1518.72
511.072	1966.16
513.965	2325.38
516.858	2190.45
519.75	1538.4
522.643	912.768
525.536	551.703
528.429	307.178
531.321	176.653
534.214	90.8191
537.107	28.9567
539.999	0.287537
542.892	24.9661
545.785	10.9568
548.678	0.967041
551.57	22.8098
554.463	1.64905
557.356	38.504
560.248	152.826
563.141	270.36
566.034	477.346
568.926	744.372
571.819	1056.19
574.712	1262.02
577.604	1253.9
580.497	949.106
583.39	565.229
586.283	309.31
589.175	154.492
592.068	94.0237
594.961	26.714
597.853	13.6246
600.746	9.2558
603.639	2.24103
606.531	23.3104
609.424	60.2322
612.317	146.356
615.21	253.218
618.102	390.01
620.995	636.579
623.888	1013.11
626.78	1600.96
629.673	2545.59
632.566	3989.11
635.458	6037.07
638.351	8708.29
641.244	11787.8
644.136	14411.8
647.029	13684.5
649.922	9292.69
652.815	5468.99
655.707	3226.77
658.6	1924.57
661.493	1180.07
664.385	643.844
667.278	382.641
670.171	191.851
673.063	73.3071
675.956	12.4296
678.849	17.916
681.742	61.6525
684.634	166.293
687.527	303.957
690.42	410.4
693.312	363.096
696.205	230.572
699.098	133.936
701.99	112.463
704.883	138.63
707.776	237.535
710.669	364.618
713.561	602.939
716.454	795.779
719.347	745.46
722.239	494.841
725.132	288.564
728.025	159.802
730.917	98.3273
733.81	64.1892
736.703	23.5802
739.596	5.98474
742.488	14.0144
745.381	7.5628
748.274	4.67896
751.166	23.757
754.059	31.1254
756.952	26.3222
759.844	2.29465
762.737	26.4459
765.63	13.993
768.523	35.0898
771.415	42.729
774.308	52.4096
777.201	44.7839
780.093	49.5226
782.986	65.8152
785.879	66.6634
788.771	70.8253
791.664	85.5895
794.557	92.8957
797.449	95.3133
800.342	108.159
803.235	102.242
806.128	110.38
809.02	129.409
811.913	96.4444
814.806	109.231
817.698	99.9654
820.591	105.412
823.484	104.023
826.376	96.0112
829.269	97.6159
832.162	84.7823
835.055	52.0234
837.947	62.4114
840.84	48.7636
843.733	29.7986
846.625	14.7675
849.518	1.16495
852.411	6.49448
855.303	18.501
858.196	39.1782
861.089	38.6929
863.982	30.5996
866.874	56.0682
869.767	74.8393
872.66	80.3417
875.552	93.7525
878.445	111.193
881.338	134.82
884.23	172.576
887.123	221.111
890.016	234.668
892.909	253.617
895.801	228.289
898.694	173.326
901.587	113.41
904.479	40.8032
907.372	8.27106
910.265	42.8709
913.157	58.6122
916.05	60.3145
918.943	52.6036
921.836	10.7731
924.728	28.0121
927.621	94.6432
930.514	149.998
933.406	220.295
936.299	280.934
939.192	200.417
942.084	132.163
944.977	72.7892
947.87	115.81
950.763	277.859
953.655	611.703
956.548	1229.78
959.441	2367.94
962.333	4389.56
965.226	7606.24
968.119	12569.7
971.011	18533.7
973.904	22607.7
976.797	18764.5
979.689	11525
982.582	6990.27
985.475	4886.01
988.368	4124.26
991.26	3926.58
994.153	3985.12
997.046	4058.08
999.938	3955.8
1002.83	3478.06
1005.72	2924.99
1008.62	2371.15
1011.51	1980.3
1014.4	1793.14
1017.29	1822.48
1020.19	2039.98
1023.08	2518.37
1025.97	3054.96
1028.87	3364.96
1031.76	3696.61
1034.65	4720.05
1037.54	5982.7
1040.44	6081.15
1043.33	4431.87
1046.22	2541.17
1049.11	1363.45
1052.01	752.107
1054.9	396.784
1057.79	160.468
1060.68	43.4244
1063.58	28.6442
1066.47	78.475
1069.36	66.4984
1072.26	42.2198
1075.15	35.4085
1078.04	106.698
1080.93	165.548
1083.83	255.513
1086.72	263.634
1089.61	208.247
1092.51	160.083
1095.4	24.7507
1098.29	18.0244
1101.18	15.8206
1104.08	10.3671
1106.97	4.61175
1109.86	21.5086
1112.75	14.7957
1115.65	12.1099
