Measurement: Raman, 780 nm, unoriented, Raman Data Processed
Mineral: Butlerite
Rruff sample: R110160
Ideal chemistry: Fe^3+^SO_4_(OH)2H_2_O
Locality: United Verde mine, Jerome, Arizona
Source: George Rossman, California Institute of Technology
Description: Orange translucent grains
Raman shift (cm-1)	intensity
193.33	0
196.223	1.13
199.115	12.8967
202.008	44.1028
204.901	88.6603
207.794	147.353
210.686	206.13
213.579	268.726
216.472	318.542
219.364	350.968
222.257	362.35
225.15	357.497
228.042	338.869
230.935	319.112
233.828	297.997
236.721	279.432
239.613	258.872
242.506	223.834
245.399	189.009
248.291	146.65
251.184	108.592
254.077	74.1558
256.969	48.8715
259.862	34.0792
262.755	25.8828
265.648	20.0054
268.54	17.8575
271.433	14.4444
274.326	12.9607
277.218	13.1516
280.111	14.7124
283.004	16.2063
285.897	16.9798
288.789	17.8205
291.682	17.9561
294.575	11.488
297.467	8.5499
300.36	4.40671
303.253	0.725677
306.145	0.61319
309.038	1.27525
311.931	2.49733
314.824	3.45309
317.716	5.79259
320.609	5.75661
323.502	4.89296
326.394	3.83638
329.287	3.32532
332.18	2.59566
335.072	0.305527
337.965	0.925919
340.858	2.98537
343.75	5.9711
346.643	11.3035
349.536	17.6424
352.429	25.9603
355.321	36.9892
358.214	46.9581
361.107	59.5341
364	69.7499
366.892	83.3719
369.785	94.5845
372.678	106.738
375.57	118.632
378.463	134.348
381.356	145.406
384.248	165.132
387.141	186.511
390.034	208.094
392.926	233.36
395.819	257.675
398.712	270.255
401.605	277.227
404.497	264.252
407.39	243.943
410.283	205.876
413.175	163.749
416.068	125.808
418.961	88.3828
421.853	67.1372
424.746	46.4253
427.639	36.1489
430.532	37.5686
433.424	51.6324
436.317	75.9339
439.21	116.749
442.102	177.184
444.995	248.276
447.888	317.077
450.781	360.172
453.673	378.721
456.566	395.43
459.459	440.901
462.351	516.43
465.244	593.172
468.137	606.86
471.029	540.453
473.922	425.789
476.815	305.214
479.707	215.672
482.6	147.349
485.493	98.1426
488.386	61.1374
491.278	33.6847
494.171	17.7546
497.064	5.81784
499.956	4.68088
502.849	7.07568
505.742	9.79465
508.635	6.41556
511.527	0.989502
514.42	7.1051
517.313	23.0122
520.205	41.0649
523.098	64.1786
525.991	93.8219
528.883	133.024
531.776	175.962
534.669	217.922
537.562	247.675
540.454	256.498
543.347	240.661
546.24	203.442
549.132	158.92
552.025	113.938
554.918	76.0675
557.81	49.142
560.703	31.0076
563.596	15.9512
566.489	3.14334
569.381	0.126251
572.274	2.00992
575.167	1.22192
578.059	1.94388
580.952	8.86267
583.845	14.5976
586.737	26
589.63	41.6185
592.523	64.229
595.415	97.0911
598.308	134.576
601.201	159.469
604.094	152.439
606.986	126.484
609.879	99.085
612.772	77.4688
615.664	59.8395
618.557	45.3528
621.45	35.4956
624.342	28.1627
627.235	20.3659
630.128	13.5449
633.021	9.07454
635.913	4.5148
638.806	2.57761
641.699	3.18626
644.591	2.40622
647.484	2.16206
650.377	2.40303
653.269	1.68036
656.162	3.19846
659.055	4.20937
661.948	3.71582
664.84	4.49551
667.733	4.61574
670.626	4.53024
673.518	4.80931
676.411	4.33861
679.304	3.3887
682.197	2.76936
685.089	3.11951
687.982	2.86438
690.875	1.39359
693.767	1.10121
696.66	0.124084
699.553	0.391716
702.445	0.360626
705.338	0.890938
708.231	0.263611
711.124	0.260109
714.016	1.28266
716.909	0.648186
719.802	0.243698
722.694	0.42804
725.587	0.246605
728.48	0.521477
731.372	2.5279
734.265	0.37513
737.158	1.93312
740.051	4.11075
742.943	1.82743
745.836	2.0743
748.729	2.83952
751.621	2.29993
754.514	3.00188
757.407	2.5109
760.299	2.27453
763.192	2.8406
766.085	3.00494
768.977	3.23422
771.87	1.96645
774.763	1.25513
777.656	2.31966
780.548	2.08748
783.441	1.24921
786.334	2.29475
789.226	0.702354
792.119	2.47117
795.012	2.86085
797.904	0.757553
800.797	1.2844
803.69	2.01489
806.583	2.0387
809.475	4.54208
812.368	4.46013
815.261	3.67796
818.153	3.02793
821.046	0.870651
823.939	1.32159
826.832	0.262901
829.724	0.348961
832.617	0.480232
835.51	0.496017
838.402	0.953209
841.295	0.705048
844.188	2.62015
847.08	2.63184
849.973	5.55695
852.866	7.53986
855.759	8.86604
858.651	9.46574
861.544	9.49747
864.437	7.6078
867.329	5.94801
870.222	5.9946
873.115	5.29865
876.007	5.91528
878.9	5.45988
881.793	5.30714
884.686	5.86646
887.578	5.16766
890.471	5.3929
893.364	5.26292
896.256	5.24399
899.149	6.25586
902.042	6.72077
904.934	7.40349
907.827	8.41721
910.72	8.62806
913.612	9.38617
916.505	9.37197
919.398	9.12532
922.291	8.37017
925.183	9.4958
928.076	7.41206
930.969	8.29266
933.861	6.85184
936.754	6.68807
939.647	4.8903
942.539	4.67017
945.432	3.15029
948.325	2.29903
951.218	2.23234
954.11	1.31657
957.003	0.638802
959.896	1.01677
962.788	2.3192
965.681	2.20166
968.574	2.58069
971.466	0.44825
974.359	2.02461
977.252	1.32196
980.145	0.888992
983.037	2.11563
985.93	5.08884
988.823	9.81078
991.715	19.4581
994.608	29.4506
997.501	45.7856
1000.39	67.0326
1003.29	99.259
1006.18	139.1
1009.07	193.68
1011.96	266.072
1014.86	383.165
1017.75	557.693
1020.64	713.144
1023.53	685.5
1026.43	510.479
1029.32	351.097
1032.21	238.421
1035.11	156.835
1038	103.421
1040.89	64.464
1043.78	41.1882
1046.68	21.5906
1049.57	11.8367
1052.46	5.08839
1055.36	4.75258
1058.25	6.10797
1061.14	8.91759
1064.03	9.59335
1066.93	12.6812
1069.82	22.3824
1072.71	33.002
1075.6	47.3789
1078.5	65.346
1081.39	88.0482
1084.28	115.493
1087.17	151.038
1090.07	192.43
1092.96	244.779
1095.85	293.992
1098.74	349.741
1101.64	394.981
1104.53	424.479
1107.42	425.749
1110.32	387.93
1113.21	320.91
1116.1	254.281
1118.99	198.55
1121.89	153.515
1124.78	120.481
1127.67	94.2468
1130.57	76.7981
1133.46	62.6645
1136.35	51.2558
1139.24	41.9706
1142.14	34.4943
1145.03	25.5593
1147.92	20.2682
1150.81	11.8027
1153.71	8.08824
1156.6	3.50774
1159.49	0.029373
1162.38	1.30507
1165.28	3.20358
1168.17	2.83937
1171.06	2.44865
1173.96	2.57326
1176.85	0.183548
1179.74	3.3016
1182.63	2.80656
1185.53	2.59024
1188.42	5.76927
1191.31	9.07556
1194.2	11.4769
1197.1	13.9804
1199.99	16.8628
1202.88	18.858
1205.78	20.3979
1208.67	21.6858
1211.56	22.5856
1214.45	23.2084
1217.35	23.1743
1220.24	21.5354
1223.13	20.4069
1226.02	15.9792
1228.92	11.8235
1231.81	8.16766
1234.7	6.6879
1237.6	5.4093
1240.49	2.07993
1243.38	2.16052
1246.27	1.28052
1249.17	3.1242
1252.06	1.82819
1254.95	2.06638
1257.84	2.73273
1260.74	3.89976
1263.63	4.30311
1266.52	3.25433
1269.41	3.58291
1272.31	2.37714
1275.2	1.53483
1278.09	0.082802
1280.98	0.988007
1283.88	1.25465
