Measurement: Raman, 532 nm, unoriented, Raman Data Processed
Mineral: Butlerite
Rruff sample: R110160
Ideal chemistry: Fe^3+^SO_4_(OH)2H_2_O
Locality: United Verde mine, Jerome, Arizona
Source: George Rossman, California Institute of Technology
Description: Orange translucent grains
Raman shift (cm-1)	intensity
177.755	0
180.648	1.48059
183.541	3.93225
186.433	18.7705
189.326	51.1598
192.219	94.6667
195.112	160.207
198.004	246.867
200.897	346.161
203.79	457.738
206.682	583.415
209.575	727.294
212.468	869.616
215.36	998.023
218.253	1090.68
221.146	1147.8
224.038	1157.72
226.931	1144.52
229.824	1115.03
232.717	1085.01
235.609	1048.11
238.502	1002.78
241.395	938.955
244.287	852.365
247.18	738.133
250.073	619.334
252.965	507.932
255.858	412.485
258.751	343.325
261.644	285.353
264.536	240.366
267.429	207.837
270.322	180.154
273.214	155.713
276.107	130.108
279	106.838
281.892	84.889
284.785	67.763
287.678	55.8078
290.571	45.6183
293.463	36.2536
296.356	25.7635
299.249	18.6461
302.141	10.7232
305.034	5.50238
307.927	0.489014
310.82	7.30908
313.712	10.9919
316.605	11.3937
319.498	14.571
322.39	15.231
325.283	18.938
328.176	16.474
331.068	15.321
333.961	3.79797
336.854	10.6542
339.747	30.1403
342.639	55.7673
345.532	97.6222
348.425	153.416
351.317	237.332
354.21	332.277
357.103	445.022
359.995	560.08
362.888	666.194
365.781	775.089
368.673	863.514
371.566	945.61
374.459	1030.61
377.352	1118.21
380.244	1220.86
383.137	1356.18
386.03	1512.25
388.922	1700.35
391.815	1880.73
394.708	2063.28
397.601	2199
400.493	2259.24
403.386	2217.69
406.279	2075.92
409.171	1832.03
412.064	1541.4
414.957	1228.24
417.849	929.279
420.742	670.583
423.635	456.401
426.527	296.727
429.42	180.586
432.313	94.5809
435.206	53.1782
438.098	52.7966
440.991	86.7616
443.884	165.344
446.776	279.329
449.669	415.996
452.562	558.291
455.454	728.276
458.347	963.837
461.24	1276.88
464.133	1610.51
467.025	1826.43
469.918	1785.27
472.811	1504.93
475.703	1141.93
478.596	827.013
481.489	584.479
484.382	398.923
487.274	262.605
490.167	161.983
493.06	87.4086
495.952	37.0273
498.845	2.86023
501.738	22.8087
504.63	33.1562
507.523	33.7205
510.416	20.7802
513.308	8.79889
516.201	47.303
519.094	102.342
521.987	172.417
524.879	258.273
527.772	360.092
530.665	468.187
533.557	576.05
536.45	659.828
539.343	697.117
542.236	679.956
545.128	601.848
548.021	488.26
550.914	361.772
553.806	254.831
556.699	167.867
559.592	108.56
562.484	60.206
565.377	26.9861
568.27	5.45425
571.163	4.00263
574.055	3.29675
576.948	2.62292
579.841	13.2705
582.733	30.6238
585.626	53.8649
588.519	87.3254
591.411	134.035
594.304	192.191
597.197	256.551
600.09	312.541
602.982	313.01
605.875	261.488
608.768	196.449
611.66	141.676
614.553	103.935
617.446	74.8307
620.338	58.0579
623.231	45.141
626.124	33.5723
629.016	22.4335
631.909	11.7398
634.802	5.73077
637.695	1.63602
640.587	0.902252
643.48	1.31992
646.373	6.71396
649.265	9.1282
652.158	8.98941
655.051	14.373
657.943	17.824
660.836	19.9903
663.729	23.1068
666.622	22.1854
669.514	23.9932
672.407	22.9544
675.3	22.3783
678.192	22.7011
681.085	23.4294
683.978	22.1133
686.87	19.4812
689.763	18.4749
692.656	15.657
695.549	11.9099
698.441	12.2862
701.334	8.62698
704.227	4.94226
707.119	3.51465
710.012	4.49203
712.905	0.510315
715.798	0.588562
718.69	1.90277
721.583	0.095856
724.476	1.6218
727.368	0.98761
730.261	0.956055
733.154	1.53723
736.046	0.377594
738.939	0.837219
741.832	1.11459
744.725	0.59494
747.617	1.07941
750.51	2.02359
753.403	4.11346
756.295	4.92969
759.188	3.2016
762.081	5.24667
764.973	5.8645
767.866	5.40189
770.759	6.91019
773.652	5.11215
776.544	6.12338
779.437	5.4079
782.33	4.50336
785.222	3.54327
788.115	2.37634
791.008	4.11289
793.9	1.90149
796.793	2.59262
799.686	1.3439
802.578	0.214142
805.471	0.886658
808.364	1.18561
811.257	2.43411
814.149	1.93878
817.042	1.099
819.935	0.444824
822.827	1.61987
825.72	0.685394
828.613	0.928253
831.505	0.883759
834.398	0.197205
837.291	1.92188
840.184	2.80673
843.076	2.30609
845.969	5.1712
848.862	5.77512
851.754	7.46197
854.647	12.2095
857.54	13.6374
860.433	15.0072
863.325	14.7632
866.218	15.8285
869.111	13.8993
872.003	16.6286
874.896	16.8539
877.789	17.4858
880.681	16.4288
883.574	18.3998
886.467	19.5032
889.36	19.8433
892.252	20.6061
895.145	20.8659
898.038	21.3552
900.93	21.703
903.823	23.2878
906.716	24.274
909.608	23.5559
912.501	23.3501
915.394	23.6225
918.287	23.6457
921.179	22.0704
924.072	20.2082
926.965	18.969
929.857	18.3411
932.75	16.2023
935.643	13.0221
938.535	10.9055
941.428	8.67203
944.321	7.44348
947.213	6.94504
950.106	4.64999
952.999	2.63779
955.892	0.413452
958.784	1.33929
961.677	2.38351
964.57	1.99087
967.462	4.53329
970.355	0.123718
973.248	4.77435
976.14	3.84244
979.033	0.829926
981.926	2.64474
984.819	10.0851
987.711	17.7143
990.604	34.5616
993.497	55.59
996.389	84.2745
999.282	122.36
1002.17	177.095
1005.07	250.822
1007.96	337.671
1010.85	456.375
1013.75	616.852
1016.64	828.673
1019.53	1092.28
1022.42	1221.22
1025.32	1036.27
1028.21	746.571
1031.1	524.757
1033.99	363.155
1036.89	243.405
1039.78	158.146
1042.67	98.54
1045.57	58.3703
1048.46	32.1797
1051.35	15.3448
1054.24	10.1216
1057.14	8.37393
1060.03	6.65646
1062.92	11.2979
1065.81	16.8054
1068.71	29.1736
1071.6	47.0572
1074.49	69.5837
1077.38	98.8773
1080.28	131.005
1083.17	171.562
1086.06	222.212
1088.96	288.752
1091.85	361.694
1094.74	454.263
1097.63	555.645
1100.53	657.613
1103.42	738.181
1106.31	778.571
1109.2	750.076
1112.1	662.474
1114.99	537.717
1117.88	421.66
1120.78	323.083
1123.67	250.248
1126.56	196.957
1129.45	156.601
1132.35	129.035
1135.24	112.904
1138.13	96.2272
1141.02	80.7877
1143.92	61.9264
1146.81	49.3461
1149.7	35.0325
1152.6	21.2672
1155.49	9.52084
1158.38	2.05408
1161.27	3.44415
1164.17	7.11099
1167.06	6.97803
1169.95	5.32147
1172.84	2.12729
1175.74	1.37064
1178.63	4.89008
1181.52	12.363
1184.41	19.3922
1187.31	26.1599
1190.2	35.4728
1193.09	45.6406
1195.99	54.8234
1198.88	65.7612
1201.77	74.6744
1204.66	79.8235
1207.56	84.5559
1210.45	87.8415
1213.34	89.8682
1216.23	85.4233
1219.13	81.8386
1222.02	72.7182
1224.91	64.9083
1227.81	52.7733
1230.7	40.1904
1233.59	29.7491
1236.48	19.546
1239.38	13.4403
1242.27	8.97839
1245.16	5.18872
1248.05	2.63785
1250.95	1.49927
1253.84	0.867462
1256.73	0.795441
1259.62	1.54999
1262.52	2.31662
1265.41	2.95373
1268.3	3.7775
1271.2	8.25717
1274.09	9.86383
1276.98	10.3161
1279.87	9.33617
1282.77	6.81863
1285.66	3.21437
1288.55	3.41213
1291.44	3.99794
1294.34	2.1098
1297.23	2.41524
1300.12	1.59064
1303.02	0
