Measurement: Raman, 532 nm, unoriented, Raman Data Processed
Mineral: Buttgenbachite
Rruff sample: R090013
Ideal chemistry: Cu_36_(NO_3_)_2_Cl_6_(OH)_64_nH_2_O
Locality: Likasi Mine, Jadotville, Shaba, Zaire
Source: William W. Pinch
Description: Deep blue acicular crystals aggregate on matrix
Raman shift (cm-1)	intensity
123.71	0
127.085	47.5884
130.46	124.029
133.834	125.989
137.209	135.53
140.584	173.699
143.959	216.767
147.334	203.831
150.708	139.346
154.083	112.08
157.458	102.547
160.833	104.664
164.208	84.598
167.583	78.0267
170.957	84.585
174.332	105.82
177.707	141.251
181.082	166.125
184.457	162.182
187.832	182.893
191.206	184.21
194.581	92.027
197.956	20.5476
201.331	5.05685
204.706	15.2364
208.08	11.4613
211.455	5.37543
214.83	2.79105
218.205	16.8831
221.58	26.8519
224.954	44.1657
228.329	56.1545
231.704	65.0319
235.079	71.4573
238.454	74.4962
241.829	84.995
245.203	97.1577
248.578	110.741
251.953	123.572
255.328	138.475
258.703	128.444
262.077	86.5588
265.452	49.4426
268.827	24.6961
272.202	12.5563
275.577	2.2196
278.952	0.586258
282.326	0.099762
285.701	0.350449
289.076	4.26121
292.451	7.278
295.826	13.6602
299.2	21.636
302.575	31.1589
305.95	40.4609
309.325	45.3957
312.7	54.3707
316.075	57.0742
319.449	60.7198
322.824	53.9644
326.199	53.0288
329.574	57.488
332.949	64.2463
336.323	76.6443
339.698	90.0586
343.073	95.4504
346.448	89.7586
349.823	64.6072
353.197	27.0146
356.572	0.838257
359.947	7.85202
363.322	3.98047
366.697	6.91434
370.072	25.8174
373.446	52.9614
376.821	86.1851
380.196	147.778
383.571	233.853
386.946	361.276
390.32	508.373
393.695	672.02
397.07	812.862
400.445	852.168
403.82	720.104
407.195	493.886
410.569	298.465
413.944	170.215
417.319	96.3782
420.694	56.8658
424.069	38.8494
427.443	30.532
430.818	32.6992
434.193	40.345
437.568	47.1317
440.943	51.1038
444.317	48.3602
447.692	42.1488
451.067	29.7442
454.442	16.7641
457.817	7.86035
461.192	3.42517
464.566	0.0242
467.941	0.428009
471.316	3.96599
474.691	7.76651
478.066	9.16093
481.44	8.60687
484.815	8.21411
488.19	4.24747
491.565	2.79297
494.94	0.353043
498.315	0.10051
501.689	0.226776
505.064	2.02339
508.439	6.6781
511.814	14.8482
515.189	23.0534
518.563	29.1281
521.938	35.9839
525.313	37.5355
528.688	32.5373
532.063	22.3839
535.438	11.1123
538.812	2.98157
542.187	2.17071
545.562	6.07733
548.937	2.37135
552.312	2.61154
555.687	6.37678
559.061	15.2854
562.436	25.2203
565.811	38.5724
569.186	52.7074
572.561	66.0334
575.935	77.5507
579.31	86.0138
582.685	80.158
586.06	70.1768
589.435	57.5252
592.809	46.2785
596.184	39.931
599.559	34.0243
602.934	29.3487
606.309	30.3706
609.683	30.2422
613.058	28.293
616.433	23.2074
619.808	18.7426
623.183	13.9834
626.558	10.1588
629.932	8.58639
633.307	3.37858
636.682	4.814
640.057	3.8774
643.432	1.98153
646.807	2.58752
650.181	3.4392
653.556	1.41678
656.931	1.13928
660.306	0.608513
663.681	1.42313
667.055	2.85877
670.43	1.20066
673.805	1.58532
677.18	0.997208
680.555	1.74034
683.929	2.36086
687.304	0.419891
690.679	1.89931
694.054	1.69818
697.429	1.95914
700.803	0.177319
704.178	1.47022
707.553	0.227043
710.928	1.03756
714.303	1.01976
717.678	0.269867
721.052	0.11232
724.427	0.135525
727.802	1.74421
731.177	1.58132
734.552	1.9468
737.927	0.437546
741.301	1.21672
744.676	0.467205
748.051	1.38743
751.426	2.68786
754.801	2.2051
758.175	2.17042
761.55	2.92063
764.925	0.687447
768.3	2.718
771.675	0.588787
775.049	1.35295
778.424	0.172459
781.799	0.847454
785.174	0.177444
788.549	0.130466
791.923	0.859901
795.298	1.28645
798.673	1.54735
802.048	1.10371
805.423	2.65812
808.798	2.60895
812.172	3.79692
815.547	2.93859
818.922	2.51114
822.297	4.96349
825.672	3.56175
829.047	4.55737
832.421	4.41261
835.796	5.65661
839.171	5.5998
842.546	5.4184
845.921	4.73273
849.295	4.05827
852.67	5.14859
856.045	4.31655
859.42	3.86393
862.795	4.71954
866.169	4.257
869.544	3.62236
872.919	3.28839
876.294	3.24141
879.669	3.75674
883.044	4.36568
886.418	3.2008
889.793	2.47067
893.168	2.3405
896.543	1.83563
899.918	1.17333
903.293	0.369568
906.667	0.678104
910.042	0.462605
913.417	1.01747
916.792	0.547966
920.167	0.325241
923.541	1.10713
926.916	0.339951
930.291	0.585995
933.666	0.748482
937.041	0.836266
940.415	0.307293
943.79	0.361172
947.165	2.07467
950.54	3.21733
953.915	4.22913
957.29	9.15985
960.664	14.1003
964.039	19.7528
967.414	32.3944
970.789	54.7109
974.164	93.121
977.538	150.277
980.913	216.176
984.288	212.093
987.663	127.083
991.038	58.2076
994.413	28.4247
997.787	14.4785
1001.16	9.28963
1004.54	4.37047
1007.91	3.42948
1011.29	2.50391
1014.66	3.96014
1018.04	6.50679
1021.41	10.2383
1024.79	11.0132
1028.16	14.8037
1031.54	17.3337
1034.91	19.899
1038.29	21.4177
1041.66	17.8577
1045.04	14.1206
1048.41	8.31639
1051.78	5.55778
1055.16	2.31619
1058.53	0.412975
1061.91	0.344444
1065.28	0.245041
1068.66	0.381775
1072.03	0.341755
1075.41	0.808174
1078.78	1.0057
1082.16	3.71627
1085.53	6.06416
1088.91	6.86746
1092.28	8.25185
1095.66	9.36984
1099.03	11.7508
1102.41	11.3159
1105.78	10.4474
1109.16	12.3614
1112.53	12.7464
1115.91	10.1483
1119.28	10.9182
1122.66	9.97126
1126.03	8.21352
1129.4	7.63347
1132.78	6.96001
1136.15	7.02831
1139.53	5.42325
1142.9	4.765
1146.28	5.06257
1149.65	4.73612
1153.03	3.53417
1156.4	3.13288
1159.78	2.20811
1163.15	2.21075
1166.53	2.16283
1169.9	1.81237
1173.28	1.94011
1176.65	0.268484
1180.03	0.082832
1183.4	0.624289
1186.78	0.153091
1190.15	0.193546
1193.53	0.91581
1196.9	0.210835
1200.28	1.33772
1203.65	0.977554
1207.03	0.776209
1210.4	2.0826
1213.78	2.45124
1217.15	2.48726
1220.53	2.84074
1223.9	2.62701
1227.28	2.68455
1230.65	1.9963
1234.02	3.4437
1237.4	1.99515
1240.77	2.84216
1244.15	2.57784
1247.52	1.80989
1250.9	0.915985
1254.27	2.11775
1257.65	0.71808
1261.02	1.71275
1264.4	2.21454
1267.77	2.2095
1271.15	1.61988
1274.52	0.766126
1277.9	1.15175
1281.27	1.17503
1284.65	2.58949
1288.02	1.14619
1291.4	1.02714
1294.77	0.789897
1298.15	1.01131
1301.52	1.51944
