Measurement: Raman, 532 nm, unoriented, Raman Data Processed
Mineral: Bystrite
Rruff sample: R060642
Ideal chemistry: (Na,K)_7_Ca(Si_6_Al_6_)O_24_(S_3_)_1.5_H_2_O
Locality: Malaya Bystvaya, Lapis Deposit, Baikal, Russia
Source: Michael Scott
Description: Yellowish-brown granular associated with blue lazurite and white calcite
Raman shift (cm-1)	intensity
114.772	0
118.147	7.653
121.521	610.487
124.896	643.186
128.271	1133.55
131.646	1017.66
135.021	2213.93
138.396	3650.58
141.77	4407.18
145.145	5021.23
148.52	6165.1
151.895	7529.53
155.27	8827.05
158.645	10477.3
162.019	12739
165.394	15465
168.769	17037.8
172.144	18656.3
175.519	20418.6
178.893	23590.8
182.268	27596.7
185.643	30103.9
189.018	30675
192.393	26069.1
195.768	20352.3
199.142	14782.7
202.517	10014.1
205.892	6232.85
209.267	3397.26
212.642	1599.62
216.016	758.615
219.391	111.01
222.766	386.848
226.141	51.933
229.516	46.967
232.891	309.582
236.265	182.854
239.64	754.058
243.015	1877.37
246.39	2971.24
249.765	4015.41
253.139	5148.44
256.514	4609.32
259.889	3796.78
263.264	3168.16
266.639	2887.71
270.013	2687.23
273.388	1989.47
276.763	952.796
280.138	320.519
283.513	88.441
286.888	161.312
290.263	81.999
293.637	18.655
297.012	16.187
300.387	90.228
303.762	295.426
307.137	440.832
310.511	516.815
313.886	592.152
317.261	672.067
320.636	657.949
324.011	805.04
327.385	748.577
330.76	801.437
334.135	742.625
337.51	648.101
340.885	495.392
344.26	335.547
347.634	171.568
351.009	148.565
354.384	107.251
357.759	35.827
361.134	31.937
364.509	4.82
367.883	45.161
371.258	99.066
374.633	58.592
378.008	63.051
381.383	258.582
384.757	424.813
388.132	884.896
391.507	1167.01
394.882	1367.99
398.257	1777.06
401.632	2440.49
405.006	3542.98
408.381	5205.87
411.756	7358.82
415.131	9899.68
418.506	13058.1
421.88	17099.6
425.255	18852.9
428.63	21443.1
432.005	25408.7
435.38	31624.3
438.754	40056.7
442.129	49180.4
445.504	55664.9
448.879	54805.4
452.254	46328.5
455.629	31508.2
459.003	15156.3
462.378	5998.23
465.753	2494.46
469.128	1360.16
472.503	881.647
475.878	61.48
479.252	171.313
482.627	20.628
486.002	422.406
489.377	1280.43
492.752	2420.15
496.126	4404.08
499.501	6771.63
502.876	9221.95
506.251	10963
509.626	10076.4
513	6037.54
516.375	2363.23
519.75	455.751
523.125	34.694
526.5	122.979
529.875	100.235
533.25	79.814
536.624	62.069
539.999	151.816
543.374	342.658
546.749	479.641
550.124	362.632
553.498	309.655
556.873	193.398
560.248	325.13
563.623	362.607
566.998	487.723
570.372	587.313
573.747	646.785
577.122	496.259
580.497	358.992
583.872	266.198
587.247	112.576
590.621	10.239
593.996	26.097
597.371	43.52
600.746	42.066
604.121	7.235
607.495	106.713
610.87	168.113
614.245	238.692
617.62	243.97
620.995	351.092
624.37	432.816
627.744	409.108
631.119	303.894
634.494	108.887
637.869	92.978
641.244	31.947
644.619	42.6
647.993	9.14
651.368	57.622
654.743	87.433
658.118	61.733
661.493	190.153
664.867	294.169
668.242	288.723
671.617	299.956
674.992	135.561
678.367	62.555
681.742	91.35
685.116	258.337
688.491	346.836
691.866	366.303
695.241	447.246
698.616	220.097
701.99	151.151
705.365	129.913
708.74	96.193
712.115	59.042
715.49	128.626
718.865	195.343
722.239	144.153
725.614	174.034
728.989	131.508
732.364	119.27
735.739	113.98
739.114	169.234
742.488	136.584
745.863	101.465
749.238	98.267
752.613	30.245
755.988	19.184
759.362	30.532
762.737	44.461
766.112	33.594
769.487	40.223
772.862	56.815
776.237	8.38
779.611	30.28
782.986	24.464
786.361	36.738
789.736	113.929
793.111	132.968
796.485	207.801
799.86	286.43
803.235	324.418
806.61	488.818
809.985	522.464
813.359	680.597
816.734	809.214
820.109	955.932
823.484	1218.34
826.859	1498.12
830.234	1792.81
833.609	2084.24
836.983	2423.53
840.358	2760.7
843.733	3156.14
847.108	3504.76
850.482	3757.61
853.857	3895.4
857.232	4095.69
860.607	4292.29
863.982	4288.96
867.357	4091.75
870.731	3782.24
874.106	3189.77
877.481	2603.61
880.856	1949.27
884.231	1378.25
887.606	971.502
890.98	653.509
894.355	502.155
897.73	324.275
901.105	111.627
904.48	72.734
907.854	10.883
911.229	9.159
914.604	47.865
917.979	1.107
921.354	5.178
924.729	22.898
928.103	173.689
931.478	129.614
934.853	56.579
938.228	214.715
941.603	264.045
944.977	275.741
948.352	286.055
951.727	253.856
955.102	196.818
958.477	192.943
961.852	195.126
965.226	213.325
968.601	8.233
971.976	16.07
975.351	52.007
978.726	68.323
982.101	126.455
985.475	241.999
988.85	208.233
992.225	324.26
995.6	548.481
998.975	807.405
1002.35	1107.6
1005.72	1249.19
1009.1	1447.8
1012.47	1552.34
1015.85	1121.68
1019.22	615.837
1022.6	317.518
1025.97	228.285
1029.35	183.418
1032.72	287.834
1036.1	250.096
1039.47	393.132
1042.85	599.464
1046.22	527.094
1049.6	332.076
1052.97	234.376
1056.35	280.171
1059.72	74.027
1063.1	2.496
1066.47	0.855
1069.85	14.056
1073.22	75.038
1076.6	74.89
1079.97	85.545
1083.35	211.432
1086.72	249.519
1090.1	334.518
1093.47	325.126
1096.84	336.248
1100.22	259.036
1103.59	255.101
1106.97	179.727
1110.34	158.872
1113.72	73.151
1117.09	94.127
1120.47	10.081
1123.84	24.782
1127.22	51.092
1130.59	204.821
1133.97	71.106
1137.34	3.918
1140.72	19.927
1144.09	13.904
1147.47	22.684
1150.84	29.297
1154.22	55.671
1157.59	65.933
1160.97	10.203
1164.34	4.096
1167.72	1.747
1171.09	12.526
1174.46	73.157
1177.84	74.251
1181.21	128.938
1184.59	47.366
1187.96	146.236
1191.34	11.248
1194.71	33.207
1198.09	56.145
1201.46	59.986
1204.84	64.82
1208.21	59.138
1211.59	162.882
1214.96	129.844
1218.34	170.024
1221.71	212.905
1225.09	138.216
1228.46	112.706
1231.84	117.328
1235.21	197.525
1238.59	217.78
1241.96	184.052
1245.34	227.228
1248.71	217.357
1252.09	159.783
1255.46	56.885
1258.84	21.233
1262.21	47.327
1265.59	5.953
1268.96	26.461
1272.34	150.953
1275.71	103.944
1279.09	120.211
1282.46	96.799
1285.83	9.274
1289.21	32.571
