Measurement: Raman, 780 nm, unoriented, Raman Data Processed
Mineral: Bystrite
Rruff sample: R060642
Ideal chemistry: (Na,K)_7_Ca(Si_6_Al_6_)O_24_(S_3_)_1.5_H_2_O
Locality: Malaya Bystvaya, Lapis Deposit, Baikal, Russia
Source: Michael Scott
Description: Yellowish-brown granular associated with blue lazurite and white calcite
Raman shift (cm-1)	intensity
94.4526	0
97.8274	7.20422
101.202	8.61035
104.577	14.749
107.952	18.188
111.327	0.061523
114.701	2.90918
118.076	1.96423
121.451	4.17773
124.826	16.7981
128.201	22.3857
131.576	42.2296
134.95	57.9197
138.325	82.2747
141.7	119.114
145.075	146.356
148.45	202.828
151.825	266.772
155.199	326.32
158.574	311.248
161.949	285.927
165.324	310.233
168.698	354.987
172.073	403.051
175.448	429.8
178.823	472.219
182.198	539.657
185.573	616.057
188.947	650.924
192.322	612.355
195.697	519.044
199.072	398.219
202.447	297.878
205.821	207.395
209.196	136.078
212.571	102.076
215.946	115.193
219.321	140.865
222.696	131.738
226.07	1.05554
229.445	8.00971
232.82	3.66174
236.195	21.3265
239.57	43.929
242.945	68.9904
246.319	103.859
249.694	132.149
253.069	149.154
256.444	149.681
259.818	135.438
263.193	105.697
266.568	81.1531
269.943	71.9438
273.318	63.1463
276.693	36.8766
280.067	15.9854
283.442	8.81079
286.817	1.34369
290.192	3.53693
293.567	3.86389
296.942	2.11328
300.316	4.13611
303.691	3.36572
307.066	5.23077
310.441	5.17731
313.816	11.7897
317.19	11.3295
320.565	14.1692
323.94	21.1689
327.315	23.4399
330.69	22.3927
334.065	22.6071
337.439	20.4328
340.814	20.3256
344.189	18.281
347.564	16.9915
350.938	10.9888
354.313	11.4901
357.688	8.43121
361.063	6.55157
364.438	3.25372
367.813	1.08374
371.187	3.40192
374.562	0.485229
377.937	0.005554
381.312	1.78082
384.687	2.2641
388.062	5.92743
391.436	8.95196
394.811	7.26709
398.186	3.0849
401.561	1.05145
404.935	3.25171
408.31	11.5524
411.685	27.9465
415.06	51.4365
418.435	80.9156
421.81	118.637
425.184	163.748
428.559	212.055
431.934	257.479
435.309	312.354
438.684	385.818
442.058	475.123
445.433	570.6
448.808	648.255
452.183	643.182
455.558	538.148
458.933	352.931
462.307	184.168
465.682	109.751
469.057	96.4943
472.432	111.291
475.807	97.1276
479.182	35.0874
482.556	10.3074
485.931	11.1057
489.306	16.6276
492.681	26.4666
496.055	40.2762
499.43	53.6902
502.805	67.2108
506.18	82.9551
509.555	90.1605
512.93	67.4179
516.304	28.8643
519.679	4.17773
523.054	5.50793
526.429	4.72076
529.804	0.531616
533.178	3.5282
536.553	12.9358
539.928	19.9205
543.303	23.8082
546.678	23.441
550.053	17.9431
553.427	9.39789
556.802	6.56378
560.177	8.86133
563.552	7.91657
566.927	10.8235
570.302	14.1342
573.676	15.9443
577.051	15.0856
580.426	13.8436
583.801	4.22629
587.176	0.713654
590.55	0.26828
593.925	0.268005
597.3	1.28815
600.675	1.31918
604.05	2.74158
607.424	0.113525
610.799	4.02356
614.174	0.373474
617.549	2.6626
620.924	2.59982
624.298	1.94019
627.673	0.85614
631.048	1.81622
634.423	0.580536
637.798	2.25488
641.173	3.09393
644.547	1.02951
647.922	1.6915
651.297	1.33817
654.672	4.52191
658.047	6.65039
661.421	12.3384
664.796	17.308
668.171	21.4998
671.546	16.9963
674.921	11.8411
678.295	7.26892
681.67	3.93045
685.045	3.45966
688.42	5.11386
691.795	3.54141
695.17	1.35526
698.544	2.37808
701.919	1.33664
705.294	1.41348
708.669	0.768738
712.044	1.83411
715.418	4.91385
718.793	3.35001
722.168	0.645752
725.543	1.5993
728.918	0.755524
732.293	3.0766
735.667	5.39734
739.042	5.22241
742.417	5.06287
745.792	4.54297
749.167	0.985718
752.541	1.8934
755.916	1.272
759.291	2.91711
762.666	0.373016
766.041	0.366089
769.415	0.021454
772.79	2.24628
776.165	1.75427
779.54	0.517456
782.915	2.04804
786.29	2.4422
789.664	0.239655
793.039	2.36865
796.414	4.15335
799.789	3.4505
803.164	2.20572
806.538	4.2934
809.913	3.57315
813.288	6.94589
816.663	6.72082
820.038	15.3276
823.413	10.3347
826.787	10.3306
830.162	12.8495
833.537	15.7316
836.912	17.1824
840.287	18.8178
843.661	19.9293
847.036	24.8129
850.411	27.0207
853.786	28.9896
857.161	31.3591
860.535	32.915
863.91	35.6268
867.285	33.3388
870.66	33.6722
874.035	31.4604
877.409	27.2347
880.784	22.1466
884.159	16.9363
887.534	10.1482
890.909	8.45996
894.284	8.02557
897.658	4.23248
901.033	3.55731
904.408	4.12738
907.783	1.272
911.158	1.94315
914.533	1.04938
917.907	0.392334
921.282	1.86832
924.657	1.07086
928.032	1.80496
931.407	0.25943
934.781	0.993256
938.156	0.882813
941.531	0.171173
944.906	0.514801
948.281	0.274597
951.655	1.80002
955.03	0.410645
958.405	2.29135
961.78	1.00589
965.155	1.74066
968.529	2.24097
971.904	1.34299
975.279	2.2688
978.654	3.05133
982.029	4.38769
985.404	7.96289
988.778	12.6593
992.153	13.4163
995.528	13.9256
998.903	14.7729
1002.28	17.0708
1005.65	22.8413
1009.03	29.1879
1012.4	33.9787
1015.78	33.5242
1019.15	21.105
1022.53	9.59146
1025.9	6.63962
1029.28	2.86551
1032.65	3.50736
1036.03	7.36319
1039.4	7.08853
1042.78	8.93066
1046.15	11.0903
1049.53	8.51148
1052.9	6.55331
1056.28	5.31378
1059.65	3.07065
1063.02	2.40076
1066.4	0.776154
1069.77	0.355011
1073.15	1.026
1076.52	2.2999
1079.9	0.719299
1083.27	3.72641
1086.65	9.73572
1090.02	11.2772
1093.4	8.1149
1096.77	4.97614
1100.15	9.16046
1103.52	11.0592
1106.9	14.9727
1110.27	14.8158
1113.65	17.2418
1117.02	15.6698
1120.4	15.9609
1123.77	15.0376
1127.15	9.54208
1130.52	7.89618
1133.9	6.53616
1137.27	3.85239
1140.64	3.22748
1144.02	1.45142
1147.39	1.75147
1150.77	1.12903
1154.14	0.193512
1157.52	0.140533
1160.89	0.682251
1164.27	0.592987
1167.64	3.71603
1171.02	2.17047
1174.39	2.54547
1177.77	1.2478
1181.14	2.61746
1184.52	2.83261
1187.89	3.72308
1191.27	2.80441
1194.64	2.99945
1198.02	3.47113
1201.39	2.03882
1204.77	1.47632
1208.14	0.065277
1211.52	3.02679
1214.89	1.70926
1218.27	2.00162
1221.64	1.12021
1225.02	2.84509
1228.39	0.20932
1231.77	1.87314
1235.14	0.700348
1238.52	1.96396
1241.89	1.54422
1245.26	2.42734
1248.64	1.03552
1252.01	1.91305
1255.39	0.82605
1258.76	2.57983
1262.14	4.4295
1265.51	1.67212
1268.89	2.61572
1272.26	0.972076
1275.64	0.597687
1279.01	4.75934
1282.39	1.06006
