Measurement: Raman, 780 nm, unoriented, Raman Data Processed
Mineral: Cabalzarite
Rruff sample: R060658
Ideal chemistry: CaMg_2_(As^5+^O_4_)_2_2H_2_O
Locality: Falotta, Switzerland
Source: Michael Scott
Description: Orange bleb
Raman shift (cm-1)	intensity
90.5957	0
93.9705	124.02
97.3453	34.3543
100.72	5.10742
104.095	3.24841
107.47	11.1888
110.845	12.1855
114.219	19.9322
117.594	21.6754
120.969	12.2911
124.344	11.8509
127.719	0.913818
131.094	2.91083
134.468	5.55243
137.843	7.49579
141.218	7.22888
144.593	6.44635
147.968	18.176
151.342	47.5661
154.717	85.0745
158.092	125.226
161.467	152.679
164.842	179.724
168.216	202.672
171.591	231.151
174.966	263.003
178.341	250.816
181.716	183.004
185.09	114.944
188.465	70.3842
191.84	44.9337
195.215	28.7622
198.59	24.9392
201.965	24.4762
205.339	32.4118
208.714	47.639
212.089	70.4923
215.464	96.3923
218.839	123.326
222.214	149.366
225.588	175.102
228.963	189.138
232.338	197.576
235.713	190.277
239.088	165.323
242.462	133.927
245.837	100.601
249.212	68.5461
252.587	44.3646
255.962	30.9612
259.336	22.8591
262.711	16.7967
266.086	10.9738
269.461	10.97
272.836	11.4049
276.211	14.0478
279.585	14.2737
282.96	11.8492
286.335	4.90521
289.71	0.728821
293.085	4.73932
296.459	7.37732
299.834	3.51996
303.209	2.03412
306.584	4.64703
309.959	10.1384
313.334	18.5304
316.708	28.7806
320.083	39.1524
323.458	41.4628
326.833	44.4528
330.207	36.9151
333.582	28.383
336.957	24.7604
340.332	23.3888
343.707	35.1993
347.082	50.193
350.456	66.4326
353.831	75.7346
357.206	74.2666
360.581	69.5518
363.956	60.9122
367.33	55.5485
370.705	54.4779
374.08	64.9555
377.455	73.988
380.83	83.2275
384.205	91.4865
387.579	93.9829
390.954	91.1171
394.329	85.9211
397.704	74.1008
401.079	62.6092
404.453	52.1771
407.828	44.311
411.203	42.5349
414.578	48.2737
417.953	60.7249
421.327	80.9209
424.702	103.17
428.077	125.471
431.452	131.883
434.827	112.593
438.202	73.5161
441.576	37.4587
444.951	9.98862
448.326	0.014648
451.701	6.59436
455.076	4.61826
458.45	2.8367
461.825	3.78638
465.2	8.35571
468.575	13.8644
471.95	14.0191
475.325	17.2699
478.699	19.2022
482.074	18.3529
485.449	18.3222
488.824	18.3492
492.199	21.7536
495.573	23.6253
498.948	30.6398
502.323	39.257
505.698	54.9316
509.073	74.4176
512.447	98.3486
515.822	128.277
519.197	163.79
522.572	199.258
525.947	231.607
529.322	249.129
532.696	253.39
536.071	233.021
539.446	203.606
542.821	165.976
546.196	127.474
549.57	93.9255
552.945	66.7403
556.32	44.3422
559.695	24.1641
563.07	14.1733
566.444	4.46942
569.819	0.486053
573.194	0.340149
576.569	0.982422
579.944	1.03336
583.319	1.09003
586.693	1.56287
590.068	4.59491
593.443	9.40152
596.818	11.6142
600.193	15.5249
603.567	17.8862
606.942	18.1902
610.317	20.6958
613.692	21.1044
617.067	20.0237
620.442	19.6494
623.816	20.4514
627.191	18.5347
630.566	18.8908
633.941	17.607
637.316	18.1039
640.69	18.8585
644.065	20.4348
647.44	20.915
650.815	20.8834
654.19	21.1444
657.564	23.1659
660.939	23.7315
664.314	26.0745
667.689	28.7456
671.064	31.8593
674.439	31.937
677.813	31.5039
681.188	29.1588
684.563	27.1371
687.938	24.8493
691.313	23.4388
694.688	20.4508
698.062	17.5049
701.437	15.0487
704.812	11.6304
708.187	8.94684
711.562	7.16663
714.936	5.15448
718.311	1.62909
721.686	1.62305
725.061	5.17252
728.436	1.64075
731.81	5.72257
735.185	0.990387
738.56	2.1015
741.935	7.06586
745.31	15.9597
748.684	24.4888
752.059	33.3903
755.434	41.0789
758.809	46.6834
762.184	50.8674
765.559	56.1081
768.933	58.6491
772.308	57.0937
775.683	53.5619
779.058	45.2033
782.433	31.8604
785.808	19.8105
789.182	8.22235
792.557	1.517
795.932	4.63333
799.307	1.71484
802.682	5.21915
806.056	20.2704
809.431	43.2141
812.806	71.8946
816.181	108.751
819.556	148.262
822.93	192.259
826.305	236.02
829.68	275.597
833.055	318.372
836.43	353.185
839.804	381.641
843.179	403.554
846.554	422.455
849.929	420.435
853.304	398.055
856.679	358.881
860.053	317.617
863.428	290.135
866.803	267.835
870.178	263.456
873.553	277.867
876.927	311.103
880.302	373.011
883.677	459.668
887.052	552.579
890.427	581.362
893.802	515.22
897.176	380.654
900.551	252.021
903.926	162.066
907.301	96.6574
910.676	58.4592
914.05	35.3332
917.425	19.3917
920.8	13.1929
924.175	6.13541
927.55	2.67191
930.924	1.27234
934.299	2.52649
937.674	5.21835
941.049	4.69333
944.424	3.25263
947.799	1.83243
951.173	2.48581
954.548	0.440247
957.923	2.06233
961.298	3.45325
964.673	5.2708
968.047	7.51636
971.422	11.8648
974.797	14.5244
978.172	18.3476
981.547	21.3926
984.922	24.0906
988.296	25.1654
991.671	27.9233
995.046	30.0751
998.421	30.3213
1001.8	29.6611
1005.17	29.6638
1008.54	27.7319
1011.92	25.3878
1015.29	24.2369
1018.67	23.2663
1022.04	22.773
1025.42	21.7708
1028.79	19.5269
1032.17	18.9565
1035.54	18.7456
1038.92	18.2293
1042.29	17.2472
1045.67	16.8105
1049.04	15.4823
1052.42	13.6366
1055.79	13.4017
1059.17	13.5253
1062.54	11.1363
1065.92	10.845
1069.29	10.1849
1072.67	8.45406
1076.04	7.66836
1079.42	6.50388
1082.79	6.34521
1086.17	5.3208
1089.54	6.00552
1092.92	2.68866
1096.29	3.83078
1099.66	2.59111
1103.04	1.19626
1106.41	1.83224
1109.79	1.38081
1113.16	0.392685
1116.54	0.214218
1119.91	0.057465
1123.29	0.695679
1126.66	0.814758
1130.04	0.537537
1133.41	2.19965
1136.79	0.622757
1140.16	0.881821
1143.54	0.230591
1146.91	1.5069
1150.29	0.965805
1153.66	0.767227
1157.04	0.706879
1160.41	0.727798
1163.79	0.057129
1167.16	0.914398
1170.54	0.331635
1173.91	0.706833
1177.29	0.723038
1180.66	0.343369
1184.04	2.41425
1187.41	0.56601
1190.79	0.307587
1194.16	0.786896
1197.54	0.494751
1200.91	1.33427
1204.28	1.18855
1207.66	0.945602
1211.03	4.13911
1214.41	0.62886
1217.78	0.321655
1221.16	1.84148
1224.53	1.16179
1227.91	0.880356
1231.28	0.25769
1234.66	0.793411
1238.03	1.38094
1241.41	0.012711
1244.78	0.02002
1248.16	0.873276
1251.53	0.118912
1254.91	3.88876
1258.28	1.90341
1261.66	0.873474
1265.03	1.7711
1268.41	1.59428
1271.78	2.10988
1275.16	0.827164
1278.53	0.267639
1281.9	0.675339
