Measurement: Raman, 532 nm, unoriented, Raman Data Processed
Mineral: Cabalzarite
Rruff sample: R060658
Ideal chemistry: CaMg_2_(As^5+^O_4_)_2_2H_2_O
Locality: Falotta, Switzerland
Source: Michael Scott
Description: Orange bleb
Raman shift (cm-1)	intensity
135.022	0
138.397	177.171
141.772	310.249
145.147	487.073
148.522	625.003
151.896	861.859
155.271	1084.96
158.646	1191.92
162.021	1371.31
165.396	1470.83
168.77	1585.01
172.145	1606.56
175.52	1440.05
178.895	1223.27
182.27	786.616
185.645	558.701
189.019	331.567
192.394	260.224
195.769	226.849
199.144	234.544
202.519	252.151
205.893	392.161
209.268	517.313
212.643	672.982
216.018	959.302
219.393	1167.04
222.768	1519.73
226.142	1786.23
229.517	2030.63
232.892	1940.78
236.267	1808.67
239.642	1386.97
243.016	1059.53
246.391	772.899
249.766	495.525
253.141	265.087
256.516	115.228
259.891	32.602
263.265	7.689
266.64	0.207
270.015	16.618
273.39	113.38
276.765	163.359
280.139	198.439
283.514	122.401
286.889	65.454
290.264	4.851
293.639	84.267
297.013	60.199
300.388	7.671
303.763	46.035
307.138	141.063
310.513	272.135
313.888	421.906
317.262	595.68
320.637	723.031
324.012	743.963
327.387	824.507
330.762	707.901
334.136	700.262
337.511	790.546
340.886	988.095
344.261	1331.44
347.636	1633.84
351.01	1939.26
354.385	2058.37
357.76	1973.14
361.135	1853.94
364.51	1801.29
367.885	1747.55
371.259	1707.23
374.634	1768.78
378.009	1808.26
381.384	1808.14
384.759	1751.59
388.134	1735.21
391.508	1635
394.883	1520.27
398.258	1426.62
401.633	1330.22
405.008	1269.53
408.382	1336.02
411.757	1348.12
415.132	1514.94
418.507	1787.08
421.882	2024.94
425.256	2312.82
428.631	2440.51
432.006	2295.95
435.381	1887
438.756	1453.08
442.13	1300.02
445.505	1073.62
448.88	909.173
452.255	931.089
455.63	922.029
459.005	894.643
462.379	929.377
465.754	922.922
469.129	873.12
472.504	946.149
475.879	876.86
479.254	884.318
482.628	919.465
486.003	953.712
489.378	1033.31
492.753	1108.91
496.128	1271.15
499.502	1511.57
502.877	1815.53
506.252	2218.16
509.627	2993.03
513.002	3511.64
516.376	4071.73
519.751	4856.94
523.126	5547.57
526.501	5992.02
529.876	6108.02
533.25	5880.26
536.625	5352.56
540	4630.82
543.375	3922.08
546.75	3137.33
550.125	2434
553.499	1815.13
556.874	1390.24
560.249	1009.05
563.624	727.49
566.999	569.834
570.373	445.95
573.748	399.778
577.123	354.233
580.498	282.411
583.873	285.021
587.248	337.784
590.622	405.603
593.997	455.858
597.372	522.018
600.747	484.523
604.122	518.935
607.497	470.017
610.871	387.417
614.246	312.072
617.621	204.876
620.996	161.767
624.37	76.997
627.745	15.762
631.12	48.685
634.495	118.384
637.87	127.696
641.245	145.771
644.619	181.39
647.994	156.509
651.369	163.816
654.744	165.827
658.119	179.759
661.494	169.929
664.868	216.225
668.243	205.148
671.618	201.725
674.993	220.999
678.368	191.459
681.742	228.995
685.117	217.405
688.492	220.951
691.867	214.831
695.242	257.921
698.617	239.127
701.991	200.972
705.366	207.367
708.741	220.573
712.116	144.262
715.49	140.569
718.865	73.287
722.24	21.941
725.615	63.173
728.99	183.977
732.365	349.873
735.739	530.509
739.114	819.671
742.489	1144.19
745.864	1492.81
749.239	1927.33
752.614	2190.53
755.988	2657.7
759.363	2945.57
762.738	3322.65
766.113	3622.24
769.487	4041.5
772.862	4255.3
776.237	4340.48
779.612	4427.1
782.987	4394.06
786.362	4433.79
789.737	4457.75
793.111	4515.2
796.486	4661.24
799.861	4855.31
803.236	5164.91
806.61	5903.34
809.985	6427.57
813.36	7196.39
816.735	8113.42
820.11	9057.28
823.485	10096.9
826.859	10899.8
830.234	11807.4
833.609	12386.9
836.984	12887.5
840.359	13325.1
843.734	13532.3
847.108	13381.8
850.483	12747.7
853.858	11701.1
857.233	10654.9
860.608	9731.83
863.982	8753.36
867.357	8051.46
870.732	7571.12
874.107	7311.09
877.482	7621.45
880.857	8234.63
884.231	9132.8
887.606	9511.18
890.981	8793.19
894.356	7407.76
897.731	5446.14
901.105	3967.6
904.48	3017.75
907.855	2290.72
911.23	1920.51
914.605	1623.63
917.979	1379.77
921.354	1191.55
924.729	1050.15
928.104	935.132
931.479	770.164
934.854	615.704
938.228	400.47
941.603	355.303
944.978	191.057
948.353	91.578
951.728	15.819
955.102	45.162
958.477	124.064
961.852	120.838
965.227	170.647
968.602	197.624
971.977	137.051
975.351	135.77
978.726	148.74
982.101	114.33
985.476	132.076
988.851	130.543
992.225	113.516
995.6	77.784
998.975	99.681
1002.35	98.344
1005.73	84.218
1009.1	88.889
1012.47	45.729
1015.85	96.907
1019.22	23.679
1022.6	22.585
1025.97	6.863
1029.35	42.865
1032.72	0.117
1036.1	29.364
1039.47	4.317
1042.85	14.447
1046.22	30.515
1049.6	2.961
1052.97	12.723
1056.35	32.85
1059.72	20.851
1063.1	31.519
1066.47	8.268
1069.85	21.199
1073.22	18.125
1076.6	43.474
1079.97	4.336
1083.35	23.025
1086.72	19.355
1090.1	37.238
1093.47	56.085
1096.85	7.603
1100.22	28.169
1103.59	20.426
1106.97	24.072
1110.34	42.777
1113.72	32.332
1117.09	30.218
1120.47	54.475
1123.84	24.714
1127.22	22.861
1130.59	44.53
1133.97	34.282
1137.34	52.511
1140.72	37.539
1144.09	0.516
1147.47	38.412
1150.84	2.54
1154.22	64.387
1157.59	6.15
1160.97	17.48
1164.34	3.74
1167.72	0.855
1171.09	12.525
1174.46	16.3
1177.84	11.538
1181.21	7.331
1184.59	30.725
1187.96	5.084
1191.34	6.919
1194.71	43.453
1198.09	21.002
1201.46	17.418
1204.84	65.031
1208.21	27.084
1211.59	18.343
1214.96	21.828
1218.34	16.586
1221.71	37.47
1225.09	6.345
1228.46	1.967
1231.84	8.865
1235.21	11.022
1238.59	0.991
1241.96	33.071
1245.34	10.368
1248.71	4.737
1252.09	38.965
1255.46	4.725
1258.84	57.297
1262.21	14.477
1265.59	22.257
1268.96	7.457
1272.34	52.556
1275.71	48.703
1279.09	5.437
1282.46	39.864
1285.83	25.635
1289.21	53.338
1292.58	1.937
