Measurement: Raman, 532 nm, unoriented, Raman Data Processed
Mineral: Cadmoindite
Rruff sample: R060748
Ideal chemistry: CdIn_2_S_4_
Locality: Kudriavy (Kudryaviy) volcano, Iturup island, Kuril Islands, Russia
Source: Michael Scott
Description: Black octahedra
Measured chemistry: (Cd_0.78_Fe^2+^_0.17_Ti_0.05_)_Î£=1_In_2.00_S_4.00_
Raman shift (cm-1)	intensity
132.129	0
135.022	25.6855
137.915	60.7844
140.807	53.66
143.7	90.2894
146.593	73.3562
149.486	77.0706
152.378	87.6182
155.271	90.6807
158.164	72.2368
161.056	86.7195
163.949	92.1161
166.842	167.656
169.734	285.033
172.627	298.217
175.52	370.034
178.412	416.598
181.305	387.099
184.198	293.513
187.091	208.31
189.983	126.377
192.876	65.5591
195.769	27.0178
198.661	16.3889
201.554	44.3259
204.447	15.6985
207.339	54.386
210.232	0.452148
213.125	27.8252
216.018	69.2815
218.91	199.778
221.803	176.172
224.696	242.506
227.588	384.035
230.481	582.37
233.374	959.33
236.267	1338.32
239.159	1811.54
242.052	2210
244.945	2363.6
247.837	2142.67
250.73	1895.86
253.623	1615.86
256.515	1480.12
259.408	1421.67
262.301	1328.96
265.193	1252.44
268.086	1149.8
270.979	933.142
273.872	703.533
276.764	440.702
279.657	201.466
282.55	0.802246
285.442	45.9563
288.335	25.9526
291.228	262.683
294.12	501.968
297.013	864.458
299.906	1270.17
302.799	1869.91
305.691	2406.21
308.584	2865.73
311.477	3180.04
314.369	3350.39
317.262	3365.37
320.155	3578.19
323.048	3797.28
325.94	4339.67
328.833	4852.85
331.726	5190.48
334.618	5257.4
337.511	4850.76
340.404	4004.45
343.296	2997.45
346.189	2453.31
349.082	2402.97
351.974	2531.46
354.867	2649.17
357.76	2675.76
360.652	2460.19
363.545	2219.21
366.438	1713.09
369.331	1183.37
372.223	821.373
375.116	505.254
378.009	299.851
380.901	174.214
383.794	90.9614
386.687	53.846
389.579	17.6612
392.472	3.07568
395.365	15.9086
398.258	35.8357
401.15	39.1874
404.043	3.15942
406.936	25.2764
409.828	7.09521
412.721	9.53992
415.614	44.3794
418.507	41.4785
421.399	55.4869
424.292	74.6634
427.185	69.5317
430.077	72.7107
432.97	72.7388
435.863	98.8274
438.755	136.51
441.648	144.148
444.541	120.718
447.433	127.494
450.326	106.379
453.219	140.983
456.112	119.078
459.004	153.083
461.897	117.409
464.79	90.9852
467.682	69.2166
470.575	76.8759
473.468	72.5024
476.361	52.5977
479.253	64.4348
482.146	49.9066
485.039	72.8419
487.931	90.0463
490.824	84.932
493.717	131.758
496.609	125.006
499.502	137.976
502.395	184.194
505.288	133.659
508.18	134.661
511.073	159.089
513.966	150.031
516.858	130.695
519.751	148.461
522.644	139.948
525.536	124.365
528.429	122.239
531.322	143.575
534.215	69.0379
537.107	131.203
540	103.655
542.893	99.5704
545.785	81.9104
548.678	79.7494
551.571	65.4488
554.463	40.7866
557.356	29.4645
560.249	11.3659
563.141	1.07971
566.034	18.6119
568.927	42.1106
571.82	3.70459
574.712	16.0442
577.605	34.1883
580.498	38.332
583.39	35.6435
586.283	29.4252
589.176	44.8121
592.068	77.8799
594.961	100.534
597.854	120.803
600.746	136.859
603.639	160.216
606.532	159.974
609.425	161.813
612.317	130.579
615.21	108.746
618.103	117.176
620.995	90.6138
623.888	73.8894
626.781	26.0045
629.673	45.0317
632.566	50.6138
635.459	3.52472
638.352	22.3607
641.244	52.9034
644.137	74.172
647.03	46.1262
649.922	115.242
652.815	100.861
655.708	143.916
658.601	149.091
661.493	160.021
664.386	194.907
667.279	231.877
670.171	244.286
673.064	265.914
675.957	250.316
678.849	242.101
681.742	191.436
684.635	114.873
687.528	96.2703
690.42	65.6296
693.313	72.4356
696.206	44.5668
699.098	4.45258
701.991	63.8223
704.884	31.6616
707.776	14.1266
710.669	37.8635
713.562	0.914307
716.455	31.4793
719.347	30.8536
722.24	12.0994
725.133	20.5981
728.025	38.7839
730.918	38.7638
733.811	15.4252
736.703	9.177
739.596	10.0068
742.489	27.8889
745.381	36.322
748.274	57.5243
751.167	16.1045
754.06	13.1577
756.952	9.52948
759.845	3.31372
762.738	2.56
765.63	40.2147
768.523	26.0624
771.416	20.6457
774.308	37.7807
777.201	18.4094
780.094	33.7289
782.987	39.2187
785.879	38.8082
788.772	55.5448
791.665	39.3902
794.557	75.7167
797.45	53.2627
800.343	12.2221
803.236	18.1434
806.128	40.4102
809.021	26.8448
811.914	2.74866
814.806	23.1496
817.699	23.2576
820.592	47.5028
823.484	23.9479
826.377	13.4482
829.27	23.2421
832.163	31.5899
835.055	36.5206
837.948	15.3002
840.841	16.971
843.733	25.7633
846.626	68.0748
849.519	5.2803
852.411	29.705
855.304	21.9095
858.197	11.5286
861.089	29.9227
863.982	15.7457
866.875	19.0346
869.768	20.7344
872.66	41.3498
875.553	35.9471
878.446	59.148
881.338	61.1385
884.231	77.7903
887.124	10.6182
890.016	55.9433
892.909	37.3261
895.802	34.8586
898.694	30.983
901.587	6.91724
904.48	0.260803
907.373	53.221
910.265	78.9786
913.158	36.9179
916.051	52.9857
918.943	50.7572
921.836	13.7819
924.729	62.618
927.621	40.6108
930.514	47.7763
933.407	28.0512
936.3	10.7668
939.192	13.8634
942.085	21.7936
944.978	17.7142
947.87	21.759
950.763	18.5734
953.656	59.0712
956.548	63.6294
959.441	21.5156
962.334	2.42816
965.227	36.9443
968.119	71.0955
971.012	23.648
973.905	10.6792
976.797	41.7234
979.69	9.60819
982.583	26.4876
985.476	57.08
988.368	43.0261
991.261	55.9329
994.154	20.4082
997.046	29.762
999.939	30.9173
1002.83	1.26685
1005.72	28.7264
1008.62	12.8363
1011.51	31.9437
1014.4	30.0041
1017.29	46.6317
1020.19	8.30048
1023.08	19.4761
1025.97	41.2881
1028.87	32.3727
1031.76	55.0565
1034.65	55.496
1037.54	18.171
1040.44	24.302
1043.33	32.7752
1046.22	1.80768
1049.12	17.8267
1052.01	9.17044
1054.9	3.87982
1057.79	3.87628
1060.69	38.5515
1063.58	34.5412
1066.47	39.0668
1069.36	17.6911
1072.26	49.168
1075.15	59.2408
1078.04	30.9221
1080.93	8.90347
1083.83	28.1171
1086.72	45.8302
1089.61	2.39233
1092.51	37.7891
1095.4	7.09064
1098.29	28.4267
1101.18	35.9143
1104.08	41.2306
1106.97	58.5744
1109.86	37.1082
1112.75	41.4402
1115.65	44.577
1118.54	59.4826
1121.43	12.8214
1124.33	53.8833
1127.22	47.2012
1130.11	3.26355
