Measurement: Raman, 785 nm, unoriented, Raman Data Processed
Mineral: Cadmoindite
Rruff sample: R060748
Ideal chemistry: CdIn_2_S_4_
Locality: Kudriavy (Kudryaviy) volcano, Iturup island, Kuril Islands, Russia
Source: Michael Scott
Description: Black octahedra
Measured chemistry: (Cd_0.78_Fe^2+^_0.17_Ti_0.05_)_Î£=1_In_2.00_S_4.00_
Raman shift (cm-1)	intensity
150.455	0
153.347	47.3121
156.24	2.33118
159.133	16.9926
162.025	180.433
164.918	397.413
167.811	740.255
170.704	1214.07
173.596	1641.51
176.489	2054.11
179.382	2375.83
182.274	2157.93
185.167	1630.36
188.06	938.744
190.952	528.576
193.845	215.477
196.738	128.095
199.631	28.6389
202.523	32.8818
205.416	0.577637
208.309	59.7458
211.201	66.3928
214.094	36.7683
216.987	53.6387
219.88	166.683
222.772	221.809
225.665	361.358
228.558	552.263
231.45	938.696
234.343	1532.62
237.236	2404.64
240.128	3468.77
243.021	4353.66
245.914	4605.4
248.807	4021.79
251.699	3387.17
254.592	2835.32
257.485	2422.05
260.377	2134.25
263.27	1892.64
266.163	1573.02
269.056	1291.66
271.948	974.139
274.841	654.216
277.734	374.622
280.626	103.004
283.519	12.6479
286.412	32.4346
289.304	2.54053
292.197	202.042
295.09	471.206
297.983	634.581
300.875	762.958
303.768	1031.38
306.661	1321.49
309.553	1748.7
312.446	2128.6
315.339	2488.22
318.231	2555.45
321.124	2619.83
324.017	2773.5
326.909	3115.99
329.802	3459.83
332.695	3704.04
335.588	3624.07
338.48	3275.24
341.373	2577.53
344.266	1951.44
347.158	1853.57
350.051	2104.34
352.944	2536.91
355.836	2874.37
358.729	3073.31
361.622	3000.62
364.515	2637.7
367.407	2141.64
370.3	1534.08
373.193	994.274
376.085	584.139
378.978	344.025
381.871	194.337
384.763	100.678
387.656	51.3989
390.549	24.8654
393.442	0.714966
396.334	28.8815
399.227	21.318
402.12	2.23383
405.012	6.13696
407.905	18.3159
410.798	7.62079
413.69	14.8082
416.583	23.7051
419.476	40.1417
422.369	50.4697
425.261	31.7947
428.154	80.9831
431.047	80.3867
433.939	97.439
436.832	82.8356
439.725	135.557
442.617	108.24
445.51	118.032
448.403	135.871
451.296	130.712
454.188	112.391
457.081	101.147
459.974	112.204
462.866	97.9942
465.759	70.6162
468.652	100.112
471.544	77.0134
474.437	73.4748
477.33	84.2381
480.223	75.5918
483.115	69.8745
486.008	105.521
488.901	110.195
491.793	124.164
494.686	106.141
497.579	134.025
500.471	106.376
503.364	89.6532
506.257	94.8885
509.15	136.748
512.042	128.625
514.935	124.903
517.828	119.506
520.72	117.877
523.613	98.3374
526.506	79.2809
529.398	103.675
532.291	63.0649
535.184	87.4057
538.077	110.999
540.969	76.321
543.862	61.3399
546.755	109.405
549.647	74.6572
552.54	33.7007
555.433	58.3409
558.326	11.484
561.218	29.2308
564.111	25.4477
567.004	19.8183
569.896	10.3622
572.789	4.55212
575.682	18.6596
578.574	38.0667
581.467	11.4915
584.36	34.0351
587.253	13.3034
590.145	13.0063
593.038	22.3182
595.931	59.974
598.823	5.97412
601.716	52.1787
604.609	32.9528
607.501	29.694
610.394	23.3076
613.287	66.2001
616.18	50.8071
619.072	44.736
621.965	38.0437
624.858	67.4544
627.75	49.2784
630.643	31.1908
633.536	30.6395
636.428	30.6394
639.321	29.4215
642.214	5.69153
645.107	21.5829
647.999	18.6668
650.892	41.3839
653.785	18.433
656.677	53.6285
659.57	48.8328
662.463	68.3788
665.355	51.6788
668.248	100.135
671.141	85.8893
674.034	62.507
676.926	73.4726
679.819	60.4464
682.712	47.4787
685.604	18.5177
688.497	21.8287
691.39	21.8608
694.282	5.3609
697.175	4.11935
700.068	29.1648
702.961	36.4303
705.853	17.0777
708.746	29.1211
711.639	21.1947
714.531	13.6218
717.424	20.5874
720.317	44.0613
723.209	28.6375
726.102	26.7001
728.995	34.2126
731.888	25.5857
734.78	39.4178
737.673	53.2112
740.566	62.5295
743.458	34.0467
746.351	6.30429
749.244	10.599
752.136	17.1664
755.029	22.7066
757.922	43.8461
760.815	6.95667
763.707	9.03876
766.6	5.72632
769.493	4.785
772.385	30.8181
775.278	33.1296
778.171	26.2035
781.063	45.9363
783.956	30.9703
786.849	49.66
789.742	24.9846
792.634	48.2485
795.527	37.0536
798.42	2.49512
801.312	3.34244
804.205	18.9443
807.098	6.5293
809.99	26.1076
812.883	56.9001
815.776	45.9835
818.669	35.3029
821.561	40.8484
824.454	58.6542
827.347	41.6328
830.239	29.2936
833.132	44.1053
836.025	50.3507
838.917	9.46075
841.81	12.3655
844.703	28.9097
847.596	20.8833
850.488	45.1403
853.381	31.7337
856.274	24.67
859.166	39.7768
862.059	48.6724
864.952	20.0822
867.844	62.4335
870.737	35.1658
873.63	2.3859
876.523	36.1003
879.415	34.2097
882.308	1.65689
885.201	36.3742
888.093	42.98
890.986	12.7316
893.879	32.3795
896.771	48.0557
899.664	23.6442
902.557	47.624
905.45	49.073
908.342	56.7645
911.235	9.12375
914.128	42.115
917.02	38.1737
919.913	33.5915
922.806	7.7598
925.698	4.46838
928.591	10.7087
931.484	10.6648
934.377	21.8993
937.269	32.0425
940.162	44.7132
943.055	51.6826
945.947	18.7693
948.84	2.86002
951.733	20.9406
954.625	5.5538
957.518	37.3472
960.411	35.484
963.304	21.2302
966.196	31.6474
969.089	26.9518
971.982	39.4327
974.874	57.0547
977.767	28.2148
980.66	36.0005
983.552	17.4037
986.445	7.41074
989.338	52.9922
992.231	10.7855
995.123	9.65573
998.016	31.27
1000.91	41.4926
1003.8	38.693
1006.69	44.7661
1009.59	44.2537
1012.48	45.2185
1015.37	65.2878
1018.26	52.5471
1021.16	3.21146
1024.05	44.5043
1026.94	7.93359
1029.84	4.85794
1032.73	39.5337
1035.62	40.5063
1038.51	51.5732
1041.41	2.23718
1044.3	42.2582
1047.19	44.0444
1050.09	43.883
1052.98	60.803
1055.87	81.3293
1058.76	0.606384
1061.65	7.62845
1064.55	10.8139
1067.44	38.4278
1070.33	9.13562
1073.23	11.6152
1076.12	11.7917
1079.01	17.2912
1081.9	13.2837
1084.8	18.1306
1087.69	25.2576
1090.58	13.9213
1093.47	33.5265
1096.37	32.5807
1099.26	42.5547
1102.15	18.6783
1105.05	17.7129
1107.94	3.63544
1110.83	12.5841
1113.72	6.9509
1116.62	12.6957
1119.51	11.2994
1122.4	56.1297
1125.3	24.2986
1128.19	41.4224
1131.08	38.7718
1133.97	36.7484
1136.87	38.0617
1139.76	40.2348
1142.65	38.0742
1145.54	26.8442
1148.44	9.40479
1151.33	23.121
1154.22	25.2048
1157.12	4.7959
1160.01	14.7409
1162.9	29.7153
1165.79	27.6465
1168.68	36.4131
1171.58	29.302
1174.47	3.70886
1177.36	5.83334
1180.26	17.6385
1183.15	17.641
1186.04	31.199
1188.93	17.09
1191.83	59.8114
1194.72	40.3839
1197.61	86.3323
1200.51	104.02
1203.4	76.4729
1206.29	101.136
1209.18	89.3788
1212.08	105.869
1214.97	115.611
1217.86	162.538
1220.75	172.492
1223.65	156.151
1226.54	159.931
1229.43	204.436
1232.33	167.565
1235.22	154.435
1238.11	106.084
1241	74.8751
1243.9	77.1541
1246.79	88.568
1249.68	46.7712
1252.57	40.1949
1255.47	5.84625
1258.36	73.1891
1261.25	30.8236
1264.14	19.2855
1267.04	13.9083
1269.93	21.7345
1272.82	0
