Measurement: Raman, 532 nm, unoriented, Raman Data Processed
Mineral: Cafarsite
Rruff sample: R080118
Ideal chemistry: Ca_5.9_Mn^2+^_1.7_Fe^3+^_3_Ti^4+^_3_(As^3+^O_3_)_12_4-5H_2_O
Locality: Monte Cervandone, Val Devero, Piedmont, Italy
Source: Renato and Adriana Pagano
Description: Dark reddish-brown pseudocubic crystals associated with black clinochlore and white orthoclase
Raman shift (cm-1)	intensity
150.69	0
153.582	1.20074
156.475	20.8095
159.368	48.2684
162.26	83.5823
165.153	116.599
168.046	157.37
170.939	202.183
173.831	249.119
176.724	281.677
179.617	313.452
182.509	342.932
185.402	396.075
188.295	446.481
191.187	474.311
194.08	471.383
196.973	447.478
199.865	404.009
202.758	344.064
205.651	283.471
208.544	221.212
211.436	163.048
214.329	116.725
217.222	81.9085
220.114	59.5312
223.007	40.7591
225.9	34.474
228.792	25.9968
231.685	20.0488
234.578	6.34711
237.471	5.34778
240.363	9.90057
243.256	7.19067
246.149	5.39795
249.041	1.18756
251.934	7.2055
254.827	17.7997
257.719	17.2967
260.612	23.4429
263.505	25.4606
266.398	28.1599
269.29	37.1797
272.183	47.2941
275.076	58.1816
277.968	66.9148
280.861	77.3526
283.754	78.6667
286.647	76.0154
289.539	74.6013
292.432	72.5939
295.325	66.8657
298.217	65.5364
301.11	67.6674
304.003	74.8815
306.895	83.2449
309.788	93.7169
312.681	103.216
315.574	112.552
318.466	120.988
321.359	126.956
324.252	131.556
327.144	131.675
330.037	127.475
332.93	122.802
335.822	111.151
338.715	97.1896
341.608	78.4807
344.5	60.262
347.393	42.8632
350.286	31.0873
353.179	19.1615
356.071	8.21191
358.964	3.80994
361.857	0.195099
364.749	1.56079
367.642	3.77454
370.535	3.92575
373.428	0.422699
376.32	3.26135
379.213	4.49735
382.106	7.27588
384.998	11.599
387.891	13.1393
390.784	12.9373
393.676	14.9355
396.569	15.6549
399.462	18.0522
402.354	21.4884
405.247	27.2277
408.14	33.4736
411.033	39.7536
413.925	48.7574
416.818	60.6946
419.711	67.618
422.603	76.752
425.496	77.1354
428.389	80.1768
431.281	81.0735
434.174	80.0981
437.067	73.5102
439.96	62.9834
442.852	56.6067
445.745	52.3332
448.638	42.1329
451.53	33.5954
454.423	26.7826
457.316	19.8785
460.209	12.8119
463.101	5.72635
465.994	1.55188
468.887	4.89758
471.779	6.1861
474.672	5.98538
477.565	4.87378
480.457	2.90976
483.35	9.8179
486.243	20.6869
489.135	34.6337
492.028	47.261
494.921	61.9175
497.814	75.2887
500.706	87.2255
503.599	94.7694
506.492	98.2944
509.384	95.7677
512.277	92.8372
515.17	88.648
518.063	83.3691
520.955	74.9763
523.848	66.5081
526.741	53.2978
529.633	44.0792
532.526	29.0795
535.419	20.1854
538.312	10.272
541.204	6.51318
544.097	6.3725
546.99	7.7894
549.882	14.3918
552.775	24.712
555.668	37.4026
558.56	52.8291
561.453	71.8101
564.346	91.2606
567.239	112.376
570.131	130.417
573.024	147.988
575.917	168.531
578.809	178.81
581.702	184.893
584.595	193.005
587.487	192.18
590.38	188.862
593.273	183.845
596.165	181.907
599.058	171.812
601.951	163.058
604.843	155.701
607.736	144.807
610.629	135.518
613.522	125.463
616.414	118.888
619.307	105.889
622.2	96.7525
625.092	84.6122
627.985	71.6742
630.878	61.1203
633.77	52.1617
636.663	41.7152
639.556	33.8419
642.449	26.8319
645.341	19.8169
648.234	13.9207
651.127	7.53839
654.019	3.85148
656.912	1.38815
659.805	2.35736
662.697	2.42398
665.59	2.26459
668.483	6.86914
671.376	4.34595
674.268	6.11841
677.161	0.549408
680.054	1.47226
682.946	6.93375
685.839	13.7551
688.732	23.9427
691.625	36.4969
694.517	54.3744
697.41	73.8389
700.303	99.5931
703.195	125.769
706.088	153.177
708.981	181.967
711.873	208.945
714.766	232.12
717.659	248.046
720.552	261.348
723.444	262.154
726.337	259.004
729.23	253.322
732.122	241.662
735.015	233.073
737.908	222.39
740.8	219.96
743.693	222.434
746.586	226.398
749.479	235.243
752.371	240.802
755.264	243.406
758.157	234.995
761.049	222.384
763.942	202.407
766.835	178.089
769.727	152.839
772.62	125.248
775.513	103.068
778.405	80.436
781.298	57.9638
784.191	40.5027
787.084	26.7859
789.976	13.4867
792.869	7.52841
795.762	1.70483
798.654	2.25592
801.547	3.6976
804.44	3.29208
807.332	0.83728
810.225	1.43051
813.118	4.52185
816.011	9.3501
818.903	11.9164
821.796	14.515
824.689	15.4001
827.581	17.7958
830.474	16.5713
833.367	19.0207
836.26	21.6726
839.152	24.5786
842.045	26.6642
844.938	32.0858
847.83	37.9297
850.723	41.7795
853.616	49.4327
856.508	54.1835
859.401	57.2359
862.294	58.7619
865.187	62.2431
868.079	60.3895
870.972	57.2208
873.865	51.8205
876.757	46.6222
879.65	39.7539
882.543	33.6854
885.435	27.6891
888.328	21.1185
891.221	17.2453
894.114	12.3168
897.006	8.70673
899.899	5.23598
902.792	2.86566
905.684	0.990936
908.577	0.441696
911.47	0.444931
914.362	1.56021
917.255	0.430817
920.148	1.90597
923.04	0.765869
925.933	0.380188
928.826	1.39023
931.719	0.696426
934.611	0.960159
937.504	0.706711
940.397	4.14798
943.289	4.3793
946.182	0.676926
949.075	3.94295
951.967	2.67572
954.86	5.2751
957.753	5.58421
960.646	6.1434
963.538	6.6821
966.431	6.65144
969.324	6.89809
972.216	8.25824
975.109	7.12921
978.002	6.01952
980.894	6.67322
983.787	5.7977
986.68	5.51895
989.573	4.90501
992.465	4.80733
995.358	4.71729
998.251	3.5529
1001.14	3.77713
1004.04	2.88017
1006.93	3.46494
1009.82	3.88208
1012.71	4.1376
1015.61	4.46078
1018.5	2.9606
1021.39	3.1568
1024.29	2.36662
1027.18	2.22432
1030.07	2.58369
1032.96	3.04192
1035.86	2.37064
1038.75	1.92908
1041.64	1.68315
1044.53	2.4088
1047.43	1.91988
1050.32	1.38939
1053.21	1.34708
1056.11	1.1432
1059	1.74242
1061.89	0.348099
1064.78	0.890427
1067.68	1.20425
1070.57	0.563004
1073.46	0.087097
1076.35	0.005341
1079.25	1.27507
1082.14	0.386513
1085.03	0.251831
1087.92	0.693153
1090.82	1.46957
1093.71	1.16464
1096.6	0.934227
1099.49	0.436157
1102.39	0.711861
1105.28	0.777771
1108.17	0.825211
1111.07	0.735489
1113.96	0.559151
1116.85	0.167709
1119.74	0.252693
1122.64	0.5159
1125.53	0.477257
1128.42	0.091248
1131.32	0.244759
1134.21	0.772461
1137.1	1.50122
1139.99	2.08351
1142.89	1.52006
1145.78	1.36742
1148.67	0.000145
1151.56	0.601845
1154.46	1.16901
1157.35	0.966995
1160.24	0.925812
1163.13	1.53721
1166.03	1.31017
1168.92	0.213081
1171.81	1.29181
1174.7	1.08495
1177.6	0.293053
1180.49	0.090469
1183.38	0.398415
1186.28	0.755898
1189.17	0.11721
1192.06	1.06802
1194.95	0.898499
1197.85	0.620041
1200.74	0.501152
1203.63	0.977432
1206.53	0.935753
1209.42	0.78331
1212.31	1.08941
1215.2	1.82759
1218.1	1.70416
1220.99	0.62088
1223.88	0.556168
1226.77	0.948799
1229.67	1.35047
1232.56	1.82627
1235.45	1.89795
1238.35	1.79187
1241.24	1.27391
1244.13	1.71066
1247.02	1.57587
1249.92	1.77915
1252.81	2.46261
1255.7	2.53657
1258.59	0.710594
1261.49	1.2651
1264.38	1.492
1267.27	1.26972
1270.16	2.05466
1273.06	1.2513
1275.95	1.01804
1278.84	1.489
1281.73	0.52523
1284.63	1.10973
1287.52	0.039452
1290.41	0.917328
1293.31	0.721725
1296.2	0.030968
1299.09	0.254021
1301.98	0.697227
1304.88	0
