Measurement: Raman, 780 nm, unoriented, Raman Data Processed
Mineral: Cafarsite
Rruff sample: R080118
Ideal chemistry: Ca_5.9_Mn^2+^_1.7_Fe^3+^_3_Ti^4+^_3_(As^3+^O_3_)_12_4-5H_2_O
Locality: Monte Cervandone, Val Devero, Piedmont, Italy
Source: Renato and Adriana Pagano
Description: Dark reddish-brown pseudocubic crystals associated with black clinochlore and white orthoclase
Raman shift (cm-1)	intensity
150.377	0
153.27	0.880371
156.163	12.9891
159.055	39.1621
161.948	74.2135
164.841	113.463
167.734	155.049
170.626	200.867
173.519	254.278
176.412	305.715
179.304	351.728
182.197	386.419
185.09	425.133
187.982	476.927
190.875	512.882
193.768	503.973
196.661	451.425
199.553	389.829
202.446	328.892
205.339	261.712
208.231	205.253
211.124	153.47
214.017	109.967
216.91	82.0448
219.802	65.8076
222.695	51.2599
225.588	47.3731
228.48	49.9271
231.373	49.9134
234.266	46.3399
237.158	29.2381
240.051	8.87003
242.944	4.77576
245.837	10.1223
248.729	7.48517
251.622	3.10211
254.515	2.82849
257.407	7.98795
260.3	15.4496
263.193	18.0736
266.085	22.9598
268.978	26.7715
271.871	31.2317
274.764	39.3146
277.656	47.1537
280.549	57.4101
283.442	63.2916
286.334	62.6198
289.227	61.4846
292.12	55.2509
295.012	50.2497
297.905	44.8655
300.798	42.7648
303.69	39.2378
306.583	40.4583
309.476	45.4585
312.369	48.8344
315.261	53.2186
318.154	56.1201
321.047	59.6915
323.939	62.0147
326.832	63.0844
329.725	63.5305
332.618	63.7969
335.51	62.2828
338.403	60.5648
341.296	45.6496
344.188	36.27
347.081	25.1995
349.974	15.7565
352.866	13.8893
355.759	3.54614
358.652	0.227463
361.545	2.24544
364.437	2.5562
367.33	2.1371
370.223	0.929611
373.115	0.636612
376.008	3.19475
378.901	5.77405
381.793	8.7208
384.686	11.1521
387.579	12.0454
390.471	14.4144
393.364	13.1004
396.257	14.6207
399.15	14.3496
402.042	13.505
404.935	14.3762
407.828	17.7078
410.72	21.9705
413.613	26.7138
416.506	31.0629
419.399	31.8962
422.291	34.5663
425.184	35.6347
428.077	37.7867
430.969	41.9004
433.862	41.4915
436.755	42.9763
439.647	39.5791
442.54	36.8209
445.433	31.0464
448.325	25.6792
451.218	22.3437
454.111	16.2752
457.004	13.2575
459.896	7.60381
462.789	3.41335
465.682	0.374817
468.574	2.18977
471.467	2.99329
474.36	1.13509
477.252	2.11674
480.145	9.65044
483.038	19.9767
485.931	30.1729
488.823	42.3856
491.716	56.432
494.609	72.0683
497.501	88.2368
500.394	100.064
503.287	107.634
506.18	107.98
509.072	105.781
511.965	94.9522
514.858	84.0731
517.75	75.5997
520.643	66.3577
523.536	60.5484
526.428	53.249
529.321	45.2462
532.214	33.4081
535.106	22.5734
537.999	11.9833
540.892	4.2944
543.785	0.401993
546.677	4.07156
549.57	3.9122
552.463	0.993378
555.355	8.16773
558.248	14.3602
561.141	27.6384
564.034	41.969
566.926	58.4267
569.819	79.8987
572.712	98.7515
575.604	121.398
578.497	139.062
581.39	156.853
584.282	170.049
587.175	176.631
590.068	183.559
592.96	183.933
595.853	182.082
598.746	180.331
601.639	173.588
604.531	164.315
607.424	155.849
610.317	145.247
613.209	137.426
616.102	126.624
618.995	117.072
621.888	109.981
624.78	100.798
627.673	93.6414
630.566	85.5101
633.458	78.2107
636.351	68.683
639.244	60.6492
642.136	54.2815
645.029	45.7649
647.922	38.199
650.814	31.6216
653.707	24.4614
656.6	19.0384
659.493	13.3024
662.385	9.08238
665.278	5.43727
668.171	3.6161
671.063	2.84453
673.956	0.710045
676.849	3.22742
679.741	3.94061
682.634	3.84167
685.527	3.1129
688.42	0.621895
691.312	4.42437
694.205	14.6425
697.098	25.0805
699.99	38.7912
702.883	55.7106
705.776	75.4
708.668	97.5746
711.561	118.299
714.454	138.173
717.347	150.828
720.239	162.409
723.132	164.316
726.025	162.679
728.917	158.11
731.81	148.676
734.703	136.777
737.596	127.812
740.488	121.528
743.381	119.089
746.274	122.626
749.166	131.66
752.059	144.014
754.952	152.306
757.844	161.485
760.737	160.637
763.63	152.704
766.523	139.132
769.415	120.468
772.308	102.695
775.201	85.9625
778.093	69.2071
780.986	56.0207
783.879	42.2425
786.771	29.2338
789.664	20.9145
792.557	13.1857
795.449	7.57758
798.342	1.63888
801.235	0.694008
804.128	2.51477
807.02	0.851318
809.913	0.065567
812.806	2.37221
815.698	6.50717
818.591	11.8964
821.484	14.3341
824.376	15.9101
827.269	16.068
830.162	16.2888
833.055	14.0373
835.947	13.9381
838.84	12.9571
841.733	12.186
844.625	11.0681
847.518	7.93114
850.411	6.41272
853.303	4.41833
856.196	3.49041
859.089	1.76111
861.982	1.25677
864.874	0.582062
867.767	1.16804
870.66	1.50642
873.552	1.64911
876.445	1.4728
879.338	1.62346
882.231	0.199669
885.123	0.193714
888.016	0.895405
890.909	0.308788
893.801	0.692497
896.694	1.17572
899.587	0.018841
902.479	0.581657
905.372	0.482292
908.265	0.602924
911.158	0.528988
914.05	1.86168
916.943	1.70382
919.836	2.86272
922.728	3.44469
925.621	2.77064
928.514	4.20499
931.406	4.53171
934.299	5.09832
937.192	6.09001
940.084	7.53824
942.977	7.026
945.87	6.98765
948.763	7.23977
951.655	7.17491
954.548	7.37061
957.441	6.57444
960.333	6.99659
963.226	5.85806
966.119	5.86641
969.011	5.15102
971.904	5.32128
974.797	4.39973
977.689	5.33256
980.582	3.62396
983.475	4.40835
986.368	3.85904
989.26	4.02768
992.153	3.62067
995.046	3.38745
997.938	3.0775
1000.83	2.93478
1003.72	2.72735
1006.62	2.7267
1009.51	2.38874
1012.4	2.39263
1015.29	1.99331
1018.19	1.92405
1021.08	1.90855
1023.97	2.00207
1026.87	2.00335
1029.76	1.38665
1032.65	0.957579
1035.54	1.7931
1038.44	2.25317
1041.33	0.467712
1044.22	1.55303
1047.11	0.577126
1050.01	0.66305
1052.9	0.802668
1055.79	0.754908
1058.68	0.455362
1061.58	0.395041
1064.47	0.721796
1067.36	0.180849
1070.26	0.150669
1073.15	0.008595
1076.04	0.470327
1078.93	0.307846
1081.83	0.107428
1084.72	0.179817
1087.61	0.096577
1090.51	0.344736
1093.4	0.962126
1096.29	0.171473
1099.18	0.181061
1102.08	0.143656
1104.97	0.349234
1107.86	0.820375
1110.75	0.257298
1113.65	0.14994
1116.54	0.225229
1119.43	0.084631
1122.32	0.402323
1125.22	0.652044
1128.11	0.291492
1131	0.243011
1133.89	0.212877
1136.79	0.501413
1139.68	0.10396
1142.57	0.118816
1145.47	0.021681
1148.36	0.494101
1151.25	0.559542
1154.14	0.148895
1157.04	0.199871
1159.93	0.798721
1162.82	0.332571
1165.71	0.087154
1168.61	0.105154
1171.5	0.382524
1174.39	0.603395
1177.29	0.25255
1180.18	0.331028
1183.07	0.3174
1185.96	0.476547
1188.86	0.331314
1191.75	0.0397
1194.64	0.247458
1197.54	0.158726
1200.43	0.901075
1203.32	0.520121
1206.21	0.263924
1209.11	0.150202
1212	0.217793
1214.89	0.210434
1217.78	0.395996
1220.68	0.288054
1223.57	0.564833
1226.46	0.605215
1229.35	0.061792
1232.25	0.942503
1235.14	0.900806
1238.03	0.121208
1240.92	0.380287
1243.82	0.146894
1246.71	0.459349
1249.6	0.676287
1252.5	0.795197
1255.39	0.709139
1258.28	0.748123
1261.17	0.490929
1264.07	0.183737
1266.96	0.622066
1269.85	0.104509
1272.74	0.66046
1275.64	0.47076
1278.53	0.359402
1281.42	0.052094
1284.32	0.284641
