Measurement: Raman, 532 nm, unoriented, Raman Data Processed
Mineral: Cafetite
Rruff sample: R060872
Ideal chemistry: CaTi_2_O_5_H_2_O
Locality: Magnet Cove, Arkansas, USA
Source: Michael Scott
Description: Pale brown colored pseudohexagonal plates, associated with pectolite and albite.
Raman shift (cm-1)	intensity
193.84	0
196.733	65.2617
199.626	314.107
202.519	416.589
205.411	508.219
208.304	269.606
211.197	95.2803
214.089	25.8223
216.982	46.9121
219.875	211.668
222.767	614.63
225.66	1034.14
228.553	1473.02
231.446	1666.61
234.338	1981.51
237.231	2435.59
240.124	2998.29
243.016	3606.16
245.909	4009.82
248.802	4200.04
251.694	4020.26
254.587	3694.22
257.48	3064.66
260.373	2403.36
263.265	1896.44
266.158	1576.48
269.051	1564.19
271.943	1711.42
274.836	2074
277.729	2461.33
280.621	2710.96
283.514	2968.56
286.407	2910.46
289.3	2733.79
292.192	2575.75
295.085	2418.28
297.978	2342.43
300.87	2302.73
303.763	2245.97
306.656	2015.84
309.548	1745.75
312.441	1405.62
315.334	1144.27
318.226	949.094
321.119	838.461
324.012	727.715
326.904	580.401
329.797	442.041
332.69	267.046
335.583	125.621
338.475	6.36279
341.368	39.4336
344.261	18.7642
347.153	115.84
350.046	244.61
352.939	403.232
355.832	437.798
358.724	453.491
361.617	330.117
364.51	213.641
367.402	120.281
370.295	52.0764
373.188	116.102
376.08	77.9011
378.973	96.7324
381.866	13.884
384.759	6.79468
387.651	135.978
390.544	257.5
393.437	403.367
396.329	544.273
399.222	744.099
402.115	904.233
405.007	1159.43
407.9	1493.11
410.793	1861.06
413.685	2324.85
416.578	2774.18
419.471	3212.94
422.364	3468.64
425.256	3436.69
428.149	3265.54
431.042	2978.46
433.934	2741.56
436.827	2605.91
439.72	2519.27
442.612	2606.36
445.505	2421.86
448.398	2332.5
451.291	2167.77
454.183	1907.55
457.076	1738.43
459.969	1512.12
462.861	1409.06
465.754	1297.82
468.647	1189.81
471.539	1077.19
474.432	1037.03
477.325	1006
480.217	1025.12
483.11	1040.36
486.003	944.896
488.896	916.035
491.788	854.584
494.681	760.267
497.574	686.57
500.466	567.051
503.359	452.488
506.252	391.74
509.144	352.022
512.037	265.547
514.93	224.023
517.823	191.556
520.715	108.385
523.608	77.3193
526.501	48.2881
529.393	29.0666
532.286	16.2773
535.179	17.8215
538.072	29.4746
540.964	57.6162
543.857	12.6714
546.75	34.7983
549.642	9.84766
552.535	16.9087
555.428	36.2893
558.32	39.3782
561.213	2.74658
564.106	40.7122
566.998	110.83
569.891	122.05
572.784	186.758
575.677	280.308
578.569	357.714
581.462	460.205
584.355	600.337
587.247	795.088
590.14	1011.21
593.033	1217.92
595.925	1306.19
598.818	1426.24
601.711	1474.21
604.604	1611.8
607.496	1668.52
610.389	1698.22
613.282	1750.53
616.174	1796.64
619.067	1787.89
621.96	1775.89
624.852	1717.42
627.745	1598.69
630.638	1437.04
633.53	1250.72
636.423	1190.91
639.316	1049.31
642.209	983.93
645.101	931.394
647.994	876.169
650.887	846.575
653.779	800.865
656.672	708.599
659.565	717.485
662.457	619.542
665.35	614.66
668.243	541.3
671.135	483.069
674.028	380.18
676.921	337.869
679.814	261.368
682.706	202.535
685.599	154.442
688.492	86.8144
691.384	38.8018
694.277	6.19311
697.17	39.439
700.062	28.4807
702.955	100.828
705.848	4.88257
708.741	13.6433
711.633	70.9771
714.526	153.519
717.419	194.819
720.311	268.25
723.204	274.779
726.097	243.113
728.99	243.211
731.882	161.753
734.775	129.712
737.668	56.7812
740.56	41.5159
743.453	15.6108
746.346	21.2573
749.238	16.1194
752.131	27.4421
755.024	33.0137
757.916	156.144
760.809	205.84
763.702	286.971
766.595	405.341
769.487	563.153
772.38	701.573
775.273	833.262
778.165	1010.39
781.058	1172.68
783.951	1337.94
786.843	1503.43
789.736	1609.53
792.629	1737.26
795.521	1754.77
798.414	1768.96
801.307	1720.39
804.2	1720.54
807.092	1661.08
809.985	1764.15
812.878	1819.87
815.77	2043.45
818.663	2218.67
821.556	2530.81
824.448	2665.7
827.341	2726.26
830.234	2613.7
833.127	2431.94
836.019	2139.78
838.912	1838.55
841.805	1550.17
844.697	1307.49
847.59	1126.47
850.483	852.635
853.375	647.79
856.268	543.114
859.161	389.448
862.053	268.522
864.946	188.001
867.839	95.293
870.732	37.0813
873.624	5.87012
876.517	20.7405
879.41	10.7141
882.302	23.0813
885.195	3.29663
888.088	13.009
890.981	13.4304
893.873	39.4045
896.766	37.0154
899.659	16.9629
902.551	52.4331
905.444	5.06055
908.337	10.2346
911.229	7.13184
914.122	14.6999
917.015	26.6521
919.908	4.39478
922.8	22.5125
925.693	22.5315
928.586	2.62573
931.478	32.0791
934.371	32.9324
937.264	42.1853
940.156	60.602
943.049	126.467
945.942	36.6472
948.835	58.6345
951.727	56.3782
954.62	64.6572
957.513	127.609
960.405	82.6585
963.298	76.262
966.191	109.704
969.083	109.318
971.976	83.8176
974.869	107.194
977.761	109.818
980.654	97.5183
983.547	112.084
986.439	99.7336
989.332	97.7141
992.225	70.9348
995.118	71.311
998.01	91.969
1000.9	65.8054
1003.8	76.6782
1006.69	77.8294
1009.58	38.4138
1012.47	74.0107
1015.37	61.6511
1018.26	51.3667
1021.15	29.8814
1024.05	32.9695
1026.94	49.5376
1029.83	29.053
1032.72	56.4067
1035.62	20.6018
1038.51	36.2114
1041.4	57.8933
1044.29	18.8672
1047.19	34.5449
1050.08	36.0117
1052.97	41.3367
1055.86	50.7634
1058.76	20.6736
1061.65	41.4949
1064.54	67.2214
1067.43	25.2905
1070.33	18.2625
1073.22	10.9048
1076.11	29.8862
1079.01	25.9629
1081.9	11.97
1084.79	9.27295
1087.68	32.9333
1090.58	48.7454
1093.47	25.4653
1096.36	11.2102
1099.26	57.7913
1102.15	1.88159
1105.04	42.1521
1107.93	43.5994
1110.83	37.3027
1113.72	17.0408
1116.61	10.7932
1119.5	12.6426
1122.4	16.8323
1125.29	19.4236
1128.18	19.2546
1131.07	47.446
1133.97	41.9102
1136.86	7.36841
1139.75	19.4446
1142.64	22.5359
1145.54	46.9573
1148.43	16.688
1151.32	31.4873
1154.22	33.6333
1157.11	34.4202
1160	33.1299
1162.89	30.6648
1165.79	9.17773
1168.68	28.8899
1171.57	3.75513
1174.46	4.7312
1177.36	55.603
1180.25	6.45044
1183.14	18.3967
1186.04	5.86523
1188.93	22.3389
1191.82	23.1599
1194.71	27.7549
1197.61	23.7861
1200.5	5.37793
1203.39	23.1687
1206.29	34.1555
1209.18	44.8713
1212.07	43.8276
1214.96	27.4104
1217.86	62.1545
1220.75	1.1438
1223.64	39.5942
1226.53	26.8369
1229.43	30.8684
1232.32	30.4814
1235.21	39.7734
1238.1	18.0486
1241	12.3293
1243.89	45.1536
1246.78	53.9255
1249.67	34.8989
1252.57	47.0498
1255.46	32.0542
1258.35	61.4512
1261.25	11.6785
1264.14	67.0234
1267.03	11.2832
1269.92	28.3352
1272.82	45.792
1275.71	58.9976
1278.6	36.9385
1281.49	2.43677
1284.39	48.8035
1287.28	17.9661
