Measurement: Raman, 785 nm, unoriented, Raman Data Processed
Mineral: Cafetite
Rruff sample: R060872
Ideal chemistry: CaTi_2_O_5_H_2_O
Locality: Magnet Cove, Arkansas, USA
Source: Michael Scott
Description: Pale brown colored pseudohexagonal plates, associated with pectolite and albite.
Raman shift (cm-1)	intensity
179.381	0
182.274	93.4995
185.167	223.633
188.06	240.083
190.952	40.4595
193.845	11.3257
196.738	247.722
199.63	535.798
202.523	663.814
205.416	519.72
208.308	302.837
211.201	106.206
214.094	76.3369
216.987	15.3091
219.879	154.279
222.772	651.607
225.665	1081.51
228.557	1464.59
231.45	1746.77
234.343	2030.71
237.235	2501.72
240.128	3139.39
243.021	3704.47
245.913	4044.24
248.806	4210.43
251.699	4150.93
254.592	3976.85
257.484	3287.02
260.377	2560.04
263.27	1924.96
266.162	1560.62
269.055	1479.15
271.948	1613.14
274.841	1973.58
277.733	2396.01
280.626	2706.81
283.519	2907.09
286.411	2937.02
289.304	2676.14
292.197	2408.67
295.089	2185
297.982	2170.09
300.875	2188.2
303.767	2132.64
306.66	1873.01
309.553	1596.21
312.446	1205.59
315.338	917.956
318.231	735.638
321.124	637.507
324.016	619.578
326.909	558.586
329.802	477.907
332.695	319.62
335.587	144.559
338.48	7.70459
341.373	66.3916
344.265	0.713379
347.158	126.853
350.051	232.851
352.943	389.932
355.836	456.713
358.729	471.24
361.622	373.927
364.514	241.082
367.407	139.43
370.3	60.7319
373.192	56.3091
376.085	136.382
378.978	105.056
381.87	59.2666
384.763	13.9495
387.656	61.2893
390.549	170.4
393.441	313.266
396.334	384.995
399.227	549.317
402.119	656.848
405.012	875.223
407.905	1154.54
410.798	1497.64
413.69	2002.43
416.583	2504.63
419.476	3000.41
422.368	3297.78
425.261	3350.46
428.154	3233.63
431.046	2858.67
433.939	2577.58
436.832	2465.03
439.724	2418.84
442.617	2488.44
445.51	2439.65
448.403	2341.58
451.295	2091.83
454.188	1809.05
457.081	1665.86
459.973	1476.18
462.866	1397.64
465.759	1227.07
468.651	1135.78
471.544	1027.55
474.437	938.056
477.33	898.075
480.222	941.538
483.115	942.032
486.008	890.957
488.9	915.434
491.793	851.86
494.686	728.361
497.579	654.577
500.471	559.773
503.364	439.743
506.257	407.351
509.149	332.293
512.042	279.089
514.935	170.402
517.827	160.106
520.72	51.4849
523.613	49.7773
526.505	27.197
529.398	9.22461
532.291	10.2004
535.184	38.439
538.076	45.2524
540.969	7.70093
543.862	31.2959
546.754	47.3362
549.647	57.0791
552.54	0.978027
555.433	15.3691
558.325	1.13745
561.218	2.51001
564.111	41.6399
567.003	83.0125
569.896	57.5676
572.789	121.891
575.681	172.799
578.574	260.577
581.467	351.896
584.36	438.599
587.252	570.745
590.145	719.469
593.038	907.731
595.93	977.419
598.823	1143.44
601.716	1203.74
604.608	1243.65
607.501	1263.18
610.394	1290.12
613.287	1339.18
616.179	1431.85
619.072	1453.15
621.965	1488.86
624.857	1402.41
627.75	1306.49
630.643	1201.92
633.535	1103.44
636.428	982.342
639.321	914.157
642.213	782.096
645.106	778.959
647.999	695.717
650.892	641.609
653.784	580.653
656.677	583.427
659.57	569.702
662.462	484.857
665.355	448.827
668.248	400.346
671.14	314.343
674.033	327.305
676.926	264.972
679.819	222.731
682.711	172.253
685.604	105.162
688.497	43.6089
691.389	51.3955
694.282	9.7876
697.175	8.36206
700.067	26.5254
702.96	34.7075
705.853	6.99805
708.746	26.1645
711.638	18.1631
714.531	91.1743
717.424	112.742
720.316	182.622
723.209	210.441
726.102	179.449
728.995	157.29
731.887	120.344
734.78	73.8933
737.673	59.6345
740.565	27.0388
743.458	11.5066
746.351	74.5886
749.243	16.272
752.136	15.0188
755.029	54.2703
757.922	86.4524
760.814	116.757
763.707	212.785
766.6	298.008
769.492	355.764
772.385	493.147
775.278	542.226
778.17	669.999
781.063	787.003
783.956	923.391
786.848	1027.3
789.741	1164.93
792.634	1243.5
795.527	1258.96
798.419	1255.48
801.312	1183.32
804.205	1141.09
807.097	1069.46
809.99	1147
812.883	1197.32
815.775	1320.33
818.668	1497.06
821.561	1663.94
824.454	1878.04
827.346	1971.14
830.239	1886.28
833.132	1740.76
836.024	1545.33
838.917	1342.93
841.81	1109.03
844.703	954.365
847.595	781.726
850.488	677.274
853.381	535.82
856.273	417.388
859.166	275.535
862.059	187.103
864.952	128.358
867.844	79.6148
870.737	24.4817
873.63	1.17078
876.522	43.9357
879.415	15.1608
882.308	0.924072
885.2	7.2395
888.093	5.66785
890.986	4.21399
893.879	10.8667
896.771	17.1434
899.664	9.12451
902.557	15.7441
905.449	7.92773
908.342	10.5502
911.235	5.3866
914.127	21.0979
917.02	4.59216
919.913	10.6309
922.806	1.91736
925.698	9.22522
928.591	3.72485
931.484	23.6503
934.376	31.2183
937.269	49.3295
940.162	40.3732
943.054	18.2562
945.947	51.5437
948.84	19.1998
951.732	43.8085
954.625	64.9298
957.518	39.0343
960.411	83.2391
963.303	74.5012
966.196	72.0997
969.089	90.0524
971.981	76.9115
974.874	90.5966
977.767	80.155
980.659	69.2695
983.552	58.3403
986.445	58.4097
989.338	48.8927
992.23	29.3599
995.123	75.8656
998.016	66.2108
1000.91	41.1779
1003.8	43.6146
1006.69	49.9945
1009.59	58.8146
1012.48	59.8163
1015.37	50.531
1018.26	63.151
1021.16	31.0292
1024.05	11.5238
1026.94	9.93384
1029.84	14.0761
1032.73	40.4916
1035.62	31.1168
1038.51	39.5078
1041.41	14.47
1044.3	23.4708
1047.19	32.0776
1050.08	40.8081
1052.98	67.4364
1055.87	48.0087
1058.76	40.6604
1061.65	15.309
1064.55	25.7444
1067.44	3.68494
1070.33	7.81457
1073.23	26.7963
1076.12	31.1218
1079.01	19.2041
1081.9	34.2002
1084.8	20.2873
1087.69	12.2723
1090.58	17.8409
1093.47	21.7947
1096.37	37.8107
1099.26	18.9763
1102.15	5.15735
1105.05	6.82886
1107.94	19.7956
1110.83	31.5193
1113.72	31.0247
1116.62	3.02039
1119.51	12.7023
1122.4	28.8312
1125.3	36.5414
1128.19	13.6239
1131.08	21.0245
1133.97	16.3419
1136.87	29.8456
1139.76	4.31091
1142.65	6.9906
1145.54	22.0752
1148.44	48.6127
1151.33	9.54541
1154.22	17.3342
1157.11	23.5078
1160.01	1.69116
1162.9	17.6744
1165.79	34.703
1168.68	42.7225
1171.58	38.5977
1174.47	3.29102
1177.36	32.4185
1180.26	28.444
1183.15	18.3274
1186.04	28.8329
1188.93	19.0456
1191.83	10.2127
1194.72	23.1591
1197.61	9.67395
1200.51	27.4401
1203.4	22.3329
1206.29	15.5438
