Measurement: Raman, 532 nm, unoriented, Raman Data Processed
Mineral: Cahnite
Rruff sample: R110095
Ideal chemistry: Ca_2_B(As^5+^O_4_)(OH)_4_
Locality: Inner Mongolia province, China
Source: Rob Lavinsky
Description: White tetrahedra associated with bluish green borcarite (R110094)
Measured chemistry: Ca_2.01_B[(As_0.96_Si_0.04_)O_4_](OH)_4_
Raman shift (cm-1)	intensity
112.67	0
116.044	0.279192
119.419	1.53109
122.794	2.60056
126.169	2.75411
129.544	4.32587
132.918	4.37568
136.293	2.7731
139.668	2.79145
143.043	0.355801
146.418	0.263721
149.792	1.02787
153.167	1.10931
156.542	4.6502
159.917	9.2919
163.292	11.7932
166.667	16.4536
170.041	24.2274
173.416	42.4533
176.791	42.161
180.166	28.3148
183.541	17.2925
186.916	12.3502
190.29	10.3552
193.665	8.60415
197.04	7.86272
200.415	9.16665
203.79	9.28423
207.164	9.39246
210.539	9.68963
213.914	12.904
217.289	17.9836
220.664	16.8892
224.038	7.32391
227.413	3.92898
230.788	2.36118
234.163	1.52203
237.538	0.242558
240.913	0.360929
244.287	0.284128
247.662	0.25415
251.037	1.29267
254.412	1.80934
257.787	4.08903
261.161	5.44813
264.536	10.2692
267.911	18.8088
271.286	27.7786
274.661	20.956
278.036	20.8425
281.41	28.0362
284.785	41.4534
288.16	43.1882
291.535	24.9352
294.91	13.5382
298.284	9.22821
301.659	9.25533
305.034	17.5572
308.409	28.4403
311.784	38.6289
315.159	56.0775
318.533	94.6307
321.908	123.401
325.283	62.3668
328.658	15.8204
332.033	4.18653
335.408	0.933792
338.782	0.844538
342.157	1.18011
345.532	1.25315
348.907	0.692131
352.281	0.213966
355.656	1.59492
359.031	4.56795
362.406	9.91357
365.781	15.6737
369.156	23.9985
372.53	31.3606
375.905	37.1667
379.28	38.0132
382.655	36.4329
386.03	39.8541
389.404	50.4387
392.779	62.278
396.154	61.2774
399.529	46.3936
402.904	43.5864
406.279	47.7702
409.653	56.4496
413.028	61.3337
416.403	57.177
419.778	43.6563
423.153	32.3678
426.527	24.727
429.902	24.4595
433.277	26.107
436.652	31.1704
440.027	40.6354
443.402	55.8106
446.776	64.73
450.151	55.301
453.526	36.9089
456.901	26.0489
460.276	22.33
463.651	18.7921
467.025	15.3676
470.4	9.28106
473.775	4.44668
477.15	0.480246
480.525	0.296028
483.899	0.172932
487.274	0.15906
490.649	0.158968
494.024	0.460651
497.399	0.651957
500.774	0.656662
504.148	0.202639
507.523	0.222191
510.898	0.554455
514.273	0.737457
517.648	0.982552
521.022	1.23579
524.397	1.90432
527.772	2.94493
531.147	4.92696
534.522	8.01576
537.896	11.3
541.271	15.023
544.646	15.1123
548.021	11.7323
551.396	10.6879
554.771	5.73276
558.145	2.08567
561.52	1.58773
564.895	0.71508
568.27	0.694618
571.645	0.03944
575.019	0.139107
578.394	0.143333
581.769	0.942625
585.144	0.444407
588.519	0.628155
591.894	0.927021
595.268	0.990412
598.643	0.443607
602.018	1.36649
605.393	0.811083
608.768	0.666088
612.142	0.969263
615.517	0.6294
618.892	1.50405
622.267	1.16332
625.642	0.96954
629.016	1.22896
632.391	1.16477
635.766	1.06286
639.141	1.43016
642.516	1.97848
645.891	1.6163
649.265	2.45106
652.64	2.96573
656.015	2.3999
659.39	2.74725
662.765	3.74252
666.139	3.14279
669.514	3.51796
672.889	3.70414
676.264	3.21669
679.639	2.62462
683.014	2.67685
686.388	2.47801
689.763	1.43617
693.138	1.9619
696.513	1.07153
699.888	0.187855
703.263	0.568588
706.637	0.718338
710.012	0.46064
713.387	0.6647
716.762	0.63797
720.136	1.74362
723.511	0.929909
726.886	0.621601
730.261	0.86681
733.636	3.71615
737.011	12.0119
740.385	24.3632
743.76	44.4096
747.135	66.5058
750.51	87.1695
753.885	102.288
757.26	100.939
760.634	79.9139
764.009	51.8451
767.384	33.0527
770.759	25.7178
774.134	28.2679
777.508	38.4711
780.883	56.4611
784.258	79.7925
787.633	98.9462
791.008	100.425
794.383	80.9699
797.757	49.1151
801.132	27.0892
804.507	13.7216
807.882	7.35925
811.257	4.6156
814.631	4.79441
818.006	8.66333
821.381	18.2472
824.756	35.5523
828.131	75.8232
831.505	178.278
834.88	311.852
838.255	514.882
841.63	830.099
845.005	815.9
848.38	367.211
851.754	172.493
855.129	92.5829
858.504	59.3639
861.879	41.9306
865.254	34.6175
868.629	28.5053
872.003	22.7198
875.378	14.3385
878.753	4.67022
882.128	0.319035
885.503	2.61746
888.877	1.68138
892.252	1.10905
895.627	1.00905
899.002	4.15712
902.377	7.05025
905.751	8.77401
909.126	11.2962
912.501	13.5276
915.876	15.55
919.251	14.7392
922.625	14.351
926	12.8413
929.375	10.9617
932.75	9.16062
936.125	8.21989
939.5	8.40258
942.875	7.16679
946.249	5.32293
949.624	2.88364
952.999	1.40603
956.374	0.048923
959.749	0.028069
963.123	0.023594
966.498	0.770462
969.873	0.085529
973.248	1.22932
976.623	2.5236
979.997	3.95509
983.372	5.7892
986.747	7.30934
990.122	8.45904
993.497	8.22852
996.871	8.31637
1000.25	7.41234
1003.62	8.15748
1007	9.18719
1010.37	12.1977
1013.75	9.73219
1017.12	8.15425
1020.5	5.57162
1023.87	3.03785
1027.24	2.13212
1030.62	1.05864
1033.99	0.772812
1037.37	0.495874
1040.74	0.166035
1044.12	0.081135
1047.49	0.805933
1050.87	0.490417
1054.24	0.207733
1057.62	0.258726
1060.99	0.144899
1064.37	0.383177
1067.74	0.474819
1071.12	0.35252
1074.49	0.39842
1077.87	1.73037
1081.24	0.853329
1084.62	2.55966
1087.99	2.69202
1091.37	0.772938
1094.74	0.78619
1098.12	0.546789
1101.49	1.02094
1104.87	0.593071
1108.24	0.497341
1111.62	0.687296
1114.99	0.537367
1118.37	0.811731
1121.74	0.01013
1125.12	0.919727
1128.49	0.25868
1131.86	0.686996
1135.24	0.084454
1138.61	0.844151
1141.99	0.764666
1145.36	0.522064
1148.74	0.527422
1152.11	0.36685
1155.49	0.227489
1158.86	0.95849
1162.24	0.297169
1165.61	0.654713
1168.99	0.734056
1172.36	0.323687
1175.74	0.825405
1179.11	0.353214
1182.49	0.525202
1185.86	0.3489
1189.24	0.691021
1192.61	0.602259
1195.99	0.621805
1199.36	0.258114
1202.73	0.466002
1206.11	1.22153
1209.48	1.91151
1212.86	2.11883
1216.23	2.51383
1219.61	3.92456
1222.98	4.10061
1226.36	3.09551
1229.73	1.81852
1233.11	1.42952
1236.48	0.87994
1239.86	0.988617
1243.23	0.774754
1246.61	1.61816
1249.98	1.56669
1253.36	2.38615
1256.73	2.65001
1260.11	2.33723
1263.48	2.22477
1266.86	0.409237
1270.23	0.561836
1273.61	0.166447
1276.98	0.984886
1280.36	0.058044
1283.73	0.119106
1287.11	0.88625
1290.48	0.515553
1293.86	0.512009
1297.23	0.740078
1300.61	0.568752
