Measurement: Raman, 780 nm, unoriented, Raman Data Processed
Mineral: Cahnite
Rruff sample: R070182
Ideal chemistry: Ca_2_B(As^5+^O_4_)(OH)_4_
Locality: Vallerano Quarry, Vallerano, Rome, Rome Province, Latium, Italy
Source: Michael Scott
Description: Pale yellow tetrahedra associated with colorless prismatic chabazite, botryoidal phillipsite, dark green prismatic augite, acicular apatite, calcite, akermanite, and calzirtite
Measured chemistry: Ca_2.03_B(As_0.98_O_4_)(OH)_4_. The sample suffered some damage during the probe.
Raman shift (cm-1)	intensity
139.333	0
142.226	5.45993
145.119	1.14993
148.011	1.70206
150.904	0.726624
153.797	6.06937
156.689	10.7604
159.582	12.3655
162.475	12.8239
165.367	17.3043
168.26	26.8308
171.153	42.0561
174.046	51.245
176.938	24.4348
179.831	12.4065
182.724	11.1984
185.616	7.8204
188.509	4.48865
191.402	1.11472
194.294	0.845337
197.187	0.008881
200.08	0.378906
202.972	0.933685
205.865	0.155609
208.758	3.32605
211.651	11.798
214.543	14.5074
217.436	17.8634
220.329	14.324
223.221	7.72696
226.114	4.36133
229.007	2.99402
231.899	0.45874
234.792	0.436493
237.685	0.364532
240.578	0.774353
243.47	1.63827
246.363	2.88776
249.256	4.11655
252.148	6.28143
255.041	5.51108
257.934	8.69089
260.827	11.9987
263.719	18.8004
266.612	29.3636
269.505	41.8763
272.397	36.9086
275.29	23.1563
278.183	19.6778
281.075	20.3386
283.968	27.8372
286.861	32.4296
289.753	32.8704
292.646	26.6004
295.539	16.4299
298.432	9.5275
301.324	8.91293
304.217	9.3613
307.11	10.3991
310.002	13.0297
312.895	13.5063
315.788	19.2155
318.68	34.5354
321.573	49.5282
324.466	32.3597
327.359	10.5454
330.251	4.12988
333.144	1.90118
336.037	0.746796
338.929	0.702087
341.822	2.52225
344.715	1.99924
347.608	1.78381
350.5	4.29776
353.393	6.46701
356.286	8.23962
359.178	13.9493
362.071	18.365
364.964	26.8285
367.856	37.2837
370.749	49.8227
373.642	56.2552
376.534	58.12
379.427	50.678
382.32	47.1388
385.213	45.8879
388.105	48.3171
390.998	57.4273
393.891	60.7752
396.783	46.4082
399.676	26.5727
402.569	18.6289
405.462	16.8439
408.354	14.6742
411.247	15.1909
414.14	21.7127
417.032	24.4793
419.925	25.9709
422.818	26.2917
425.71	30.8802
428.603	40.0358
431.496	49.6257
434.389	57.5611
437.281	63.282
440.174	59.6324
443.067	60.8935
445.959	61.0855
448.852	49.0303
451.745	34.8978
454.637	20.9497
457.53	13.9983
460.423	9.53424
463.315	5.99139
466.208	3.33786
469.101	3.64499
471.994	2.98508
474.886	1.66113
477.779	0.340424
480.672	1.147
483.564	0.733856
486.457	0.956085
489.35	0.397858
492.243	0.956238
495.135	0.361237
498.028	1.75699
500.921	0.789856
503.813	1.28101
506.706	0.161835
509.599	1.77142
512.491	5.10202
515.384	0.603455
518.277	1.83868
521.169	1.70221
524.062	0.999512
526.955	2.8479
529.848	0.63858
532.74	3.20383
535.633	4.92517
538.526	9.40848
541.418	11.6294
544.311	6.8392
547.204	7.9216
550.096	7.21582
552.989	7.20309
555.882	4.3735
558.775	3.64734
561.667	0.940338
564.56	2.74936
567.453	0.197571
570.345	0.170105
573.238	0.838074
576.131	0.90152
579.024	3.22058
581.916	1.45822
584.809	2.81076
587.702	3.31476
590.594	1.84982
593.487	4.26325
596.38	1.95157
599.272	3.34158
602.165	2.27417
605.058	2.60266
607.951	3.16632
610.843	3.92481
613.736	6.31772
616.629	4.0976
619.521	3.82077
622.414	4.66147
625.307	1.30432
628.199	4.37299
631.092	2.4751
633.985	4.36188
636.878	2.9231
639.77	5.22122
642.663	3.99246
645.556	2.67175
648.448	3.69037
651.341	4.16675
654.234	3.37009
657.126	2.83322
660.019	6.99841
662.912	1.54269
665.804	4.35669
668.697	4.24698
671.59	3.13223
674.483	4.39484
677.375	1.88815
680.268	2.81338
683.161	2.40185
686.053	3.75851
688.946	0.578125
691.839	1.10538
694.731	0.128845
697.624	0.71228
700.517	1.73315
703.41	0.240906
706.302	0.868011
709.195	0.469452
712.088	1.11902
714.98	0.683838
717.873	1.10187
720.766	1.06335
723.659	1.03107
726.551	1.86026
729.444	0.235779
732.337	4.01016
735.229	6.88553
738.122	14.1243
741.015	25.3498
743.907	45.4311
746.8	62.9929
749.693	77.6471
752.586	90.6853
755.478	92.1966
758.371	84.8422
761.264	63.4601
764.156	40.7423
767.049	32.0284
769.942	22.9392
772.834	22.4701
775.727	22.8893
778.62	30.3818
781.513	39.4131
784.405	48.0602
787.298	54.5757
790.191	45.5971
793.083	37.588
795.976	31.4129
798.869	25.1265
801.761	17.9868
804.654	15.1281
807.547	12.8852
810.439	10.6176
813.332	12.6283
816.225	14.7308
819.118	20.111
822.01	34.4005
824.903	52.999
827.796	92.8918
830.688	147.826
833.581	224.191
836.474	365.637
839.366	617.345
842.259	871.837
845.152	647.559
848.045	320.047
850.937	169.887
853.83	104.713
856.723	71.3207
859.615	50.3145
862.508	34.0948
865.401	23.2774
868.293	17.68
871.186	10.7614
874.079	8.31296
876.972	4.10489
879.864	4.45966
882.757	1.30121
885.65	0.344482
888.542	1.43445
891.435	1.17956
894.328	0.566864
897.221	0.5466
900.113	1.18707
903.006	2.66785
905.899	0.120728
908.791	1.07413
911.684	0.448792
914.577	2.06085
917.469	2.3598
920.362	2.7775
923.255	8.23401
926.148	6.65744
929.04	6.51099
931.933	9.5958
934.826	12.6705
937.718	14.1551
940.611	16.6323
943.504	18.059
946.396	21.7082
949.289	21.3759
952.182	17.8491
955.074	16.6412
957.967	13.3254
960.86	10.2761
963.753	7.38693
966.645	6.42688
969.538	4.58353
972.431	4.98468
975.323	2.72693
978.216	0.643646
981.109	3.89395
984.001	4.2858
986.894	1.47818
989.787	3.96091
992.68	2.02332
995.572	3.79575
998.465	2.30258
1001.36	2.55859
1004.25	2.79913
1007.14	1.97333
1010.04	3.69418
1012.93	1.27673
1015.82	1.9266
1018.71	2.49438
1021.61	2.0499
1024.5	0.389008
1027.39	0.594788
1030.29	2.14612
1033.18	2.21277
1036.07	2.3714
1038.96	2.78552
1041.86	2.70615
1044.75	2.7883
1047.64	2.60706
1050.53	1.54312
1053.43	1.9469
1056.32	3.44238
1059.21	3.57718
1062.1	2.056
1065	5.12372
1067.89	6.1907
1070.78	5.95105
1073.67	3.26691
1076.57	2.92694
1079.46	0.006836
1082.35	2.81601
1085.25	1.85956
1088.14	2.74515
1091.03	2.44577
1093.92	3.51666
1096.82	0.127991
1099.71	0.770416
1102.6	2.00009
1105.49	0.87735
1108.39	3.11984
1111.28	0.433075
1114.17	3.72333
1117.07	2.48535
1119.96	2.71896
1122.85	1.18716
1125.74	0.045105
1128.64	0.092834
1131.53	1.94183
1134.42	2.6359
1137.32	2.53027
1140.21	1.5387
1143.1	0.084229
1145.99	4.14459
1148.88	4.72687
1151.78	3.6673
1154.67	3.74622
1157.56	0.470337
1160.46	3.53329
1163.35	3.07278
1166.24	0.080078
1169.13	0.281342
1172.03	0.243866
1174.92	1.37256
1177.81	0.149872
1180.7	0.991211
1183.6	1.82861
1186.49	1.06299
1189.38	1.97058
1192.28	2.74475
1195.17	3.03278
1198.06	2.93842
1200.95	2.27035
1203.85	2.03403
1206.74	2.90683
1209.63	4.19952
1212.53	2.74643
1215.42	2.20532
1218.31	5.68561
1221.2	4.48355
1224.1	6.08655
1226.99	4.38226
1229.88	3.23236
1232.77	3.9921
1235.67	4.60168
1238.56	3.67014
1241.45	0.506622
1244.34	1.95383
1247.24	2.69064
1250.13	1.94556
1253.02	1.78827
1255.91	0.601471
1258.81	1.9469
1261.7	5.69913
1264.59	2.44742
1267.49	0.254303
1270.38	1.87827
1273.27	1.50049
1276.16	0.620056
1279.06	0.632874
1281.95	0.080292
1284.84	1.8284
