Measurement: Raman, 532 nm, unoriented, Raman Data Processed
Mineral: Cahnite
Rruff sample: R070182
Ideal chemistry: Ca_2_B(As^5+^O_4_)(OH)_4_
Locality: Vallerano Quarry, Vallerano, Rome, Rome Province, Latium, Italy
Source: Michael Scott
Description: Pale yellow tetrahedra associated with colorless prismatic chabazite, botryoidal phillipsite, dark green prismatic augite, acicular apatite, calcite, akermanite, and calzirtite
Measured chemistry: Ca_2.03_B(As_0.98_O_4_)(OH)_4_. The sample suffered some damage during the probe.
Raman shift (cm-1)	intensity
202.825	0
205.718	50.8145
208.611	4.02734
211.504	44.0645
214.396	80.3594
217.289	79.5527
220.182	100.971
223.074	125.447
225.967	103.582
228.86	68.1602
231.752	103.441
234.645	144.154
237.538	138.137
240.43	65.7012
243.323	1.71289
246.216	8.76367
249.109	75.6836
252.001	49.6387
254.894	124.057
257.787	154.227
260.679	180.148
263.572	203.262
266.465	324.309
269.358	480.293
272.25	395.199
275.143	432.619
278.036	408.668
280.928	439.391
283.821	322.637
286.714	272.213
289.606	186.42
292.499	151.004
295.392	96.5176
298.284	65.0488
301.177	6.68555
304.07	36.9902
306.963	12.5273
309.855	0.783203
312.748	42.9082
315.641	108.777
318.533	166.539
321.426	152.402
324.319	64.9531
327.212	8.85938
330.104	23.9414
332.997	51.3418
335.89	62.5527
338.782	81.9043
341.675	78.8926
344.568	40.1426
347.46	69.7109
350.353	196.106
353.246	313.898
356.139	558.363
359.031	748.588
361.924	1016.03
364.817	1373.64
367.709	1843.74
370.602	2233.66
373.495	2392.57
376.387	2273.7
379.28	1990.67
382.173	1716.56
385.065	1471.73
387.958	1347.2
390.851	1169.68
393.744	1011.84
396.636	836.371
399.529	735.269
402.422	711.131
405.314	793.176
408.207	965.094
411.1	1133.87
413.993	1349.2
416.885	1292.3
419.778	1044.91
422.671	866.963
425.563	659.461
428.456	593.383
431.349	467.414
434.241	362.787
437.134	322.041
440.027	292.207
442.92	302.705
445.812	302.394
448.705	307.982
451.598	210.115
454.49	102.033
457.383	87.5254
460.276	92.9863
463.168	64.9766
466.061	51.1133
468.954	45.8262
471.846	18.2637
474.739	11.6836
477.632	11.0469
480.525	9.63281
483.417	26.6289
486.31	12.0254
489.203	31.5684
492.095	31.2949
494.988	82.8535
497.881	104.789
500.774	104.951
503.666	23.5586
506.559	26.5762
509.452	52.0312
512.344	63.6328
515.237	100.353
518.13	21.8398
521.022	8.81641
523.915	105.984
526.808	143.685
529.701	160
532.593	141.734
535.486	118.33
538.379	139.361
541.271	203.66
544.164	198.315
547.057	199.209
549.949	226.815
552.842	194.432
555.735	153.953
558.628	124.102
561.52	89.084
564.413	112.041
567.306	100.287
570.198	56.1797
573.091	83.5918
575.984	130.799
578.876	165.504
581.769	211.824
584.662	117.225
587.554	216.828
590.447	207.236
593.34	165.393
596.232	154.727
599.125	153.877
602.018	59.4512
604.911	46.0371
607.803	66.2324
610.696	116.926
613.589	93.7852
616.481	66.0879
619.374	80.1328
622.267	53.9082
625.159	10.3066
628.052	32.2773
630.945	2.98438
633.838	56.9688
636.73	65.2383
639.623	40.959
642.516	33.1699
645.408	55.1699
648.301	32.3906
651.194	10.8965
654.087	103.301
656.979	91.0019
659.872	174.154
662.765	135.799
665.657	124.082
668.55	121.328
671.443	145.002
674.335	153.877
677.228	143.932
680.121	190.082
683.014	254.451
685.906	137.603
688.799	191.955
691.692	222.44
694.584	195.766
697.477	196.967
700.37	126.943
703.263	20.1387
706.155	35.9746
709.048	89.2344
711.941	96.168
714.833	29.5039
717.726	67.6152
720.619	73.4902
723.511	31.4004
726.404	39.877
729.297	103.068
732.189	102.939
735.082	106.703
737.975	108.281
740.868	217.131
743.76	314.828
746.653	434.016
749.546	515.99
752.438	752.652
755.331	703.83
758.224	575.158
761.116	369.473
764.009	293.121
766.902	224.639
769.795	241.607
772.687	228.301
775.58	264.969
778.473	271.717
781.365	383.361
784.258	419.455
787.151	451.123
790.043	388.721
792.936	408.562
795.829	356.861
798.722	238.92
801.614	176.84
804.507	220.281
807.4	228.049
810.292	362.869
813.185	357.209
816.078	427.242
818.971	597.709
821.863	905.512
824.756	1212.27
827.649	2034.73
830.541	3418.62
833.434	5261.59
836.327	8495.86
839.219	12565.7
842.112	13719.4
845.005	8340.79
847.898	4388.51
850.79	2604.27
853.683	1785.23
856.576	1284.62
859.468	958.748
862.361	659.748
865.254	400.894
868.146	222.547
871.039	190.062
873.932	171.428
876.824	97.0019
879.717	4.15039
882.61	84.0332
885.503	10.5508
888.395	84.7969
891.288	25.4238
894.181	5.70312
897.073	40.8281
899.966	26.6484
902.859	18.6387
905.751	37.7773
908.644	104.986
911.537	95.8203
914.43	103.998
917.322	133.955
920.215	109.519
923.108	34.5332
926	110.004
928.893	136.447
931.786	76.0293
934.678	41.2285
937.571	2.60547
940.464	111.449
943.357	106.182
946.249	178.088
949.142	123.963
952.035	192.643
954.927	151.125
957.82	86.1172
960.713	111.111
963.606	81.9512
966.498	129.82
969.391	177.371
972.284	57.1328
975.176	15.4492
978.069	107.691
980.962	71.6289
983.854	79.7383
986.747	103.055
989.64	139.875
992.533	179.59
995.425	114.582
998.318	45.207
1001.21	63.1484
1004.1	16.8984
1007	95.1992
1009.89	96.4492
1012.78	42.7578
1015.67	25.9648
1018.57	19.4844
1021.46	133.262
1024.35	96.4609
1027.24	52.2656
1030.14	61.0156
1033.03	71.6602
1035.92	149.469
1038.82	148.918
1041.71	51.4375
1044.6	66.25
1047.49	33.8789
1050.39	80.4219
1053.28	214.285
1056.17	190.023
1059.07	281.945
1061.96	238.492
1064.85	237.656
1067.74	194.219
1070.63	197.879
1073.53	106.156
1076.42	122.981
1079.31	25.3125
1082.21	107.234
1085.1	70.6094
1087.99	27.8008
1090.88	0.046875
1093.78	76.4062
1096.67	107.055
1099.56	140.008
1102.45	111.109
1105.35	75.8594
1108.24	48.1016
1111.13	146.152
1114.03	160.762
1116.92	162.039
1119.81	108.953
1122.7	112.555
1125.6	130.828
1128.49	57.0898
1131.38	17.6406
1134.28	20.8164
1137.17	105.746
1140.06	126.848
1142.95	73.4258
1145.85	61.4023
1148.74	103.113
1151.63	72.6133
1154.52	87.7617
1157.42	17.8867
1160.31	22.0352
1163.2	25.0391
1166.09	108.219
1168.99	81.5781
1171.88	71.0547
1174.77	102.406
1177.66	97.7695
1180.56	113.824
1183.45	121.477
1186.34	171.07
1189.24	211.551
1192.13	192.211
1195.02	109.824
1197.91	113.547
1200.81	162.746
1203.7	138.305
1206.59	246.285
1209.48	382.031
1212.38	359.262
1215.27	291.312
1218.16	161.062
1221.06	137.371
1223.95	195.18
1226.84	176.066
1229.73	98.0898
1232.63	60.3633
1235.52	1.80859
1238.41	16.0195
1241.31	15.7305
1244.2	101.41
1247.09	85.918
1249.98	67.0781
1252.88	81.5078
1255.77	99.5039
1258.66	188.828
1261.55	127.414
1264.45	153.418
1267.34	185.856
1270.23	85.4688
1273.12	112.848
1276.02	201.566
1278.91	113.004
1281.8	41.9297
1284.69	39.5859
1287.59	111.258
1290.48	92.3555
1293.37	1.08984
1296.27	163.039
1299.16	167.848
1302.05	57.8047
