Measurement: Raman, 780 nm, unoriented, Raman Data Processed
Mineral: Cahnite
Rruff sample: R110095
Ideal chemistry: Ca_2_B(As^5+^O_4_)(OH)_4_
Locality: Inner Mongolia province, China
Source: Rob Lavinsky
Description: White tetrahedra associated with bluish green borcarite (R110094)
Measured chemistry: Ca_2.01_B[(As_0.96_Si_0.04_)O_4_](OH)_4_
Raman shift (cm-1)	intensity
101.246	0
104.621	0.799015
107.996	2.25516
111.37	0.028549
114.745	0.640299
118.12	0.76874
121.495	0.581026
124.87	0.667803
128.244	0.707239
131.619	0.109402
134.994	0.222898
138.369	0.17527
141.744	0.373798
145.119	0.95365
148.493	2.10049
151.868	3.62984
155.243	7.33173
158.618	9.72131
161.993	12.0236
165.367	11.9315
168.742	12.9208
172.117	23.1256
175.492	23.833
178.867	11.4452
182.242	4.29484
185.616	1.87215
188.991	0.000801
192.366	0.06731
195.741	0.233953
199.115	0.331829
202.49	0.701202
205.865	1.36775
209.24	2.22536
212.615	3.8306
215.99	7.41275
219.364	8.27512
222.739	4.0413
226.114	0.998007
229.489	0.482178
232.864	0.300171
236.238	0.523998
239.613	0.767164
242.988	0.05859
246.363	0.18446
249.738	1.018
253.113	1.95198
256.487	2.62141
259.862	4.2352
263.237	7.38901
266.612	14.8514
269.987	20.3353
273.361	14.232
276.736	12.3205
280.111	16.5458
283.486	24.6789
286.861	29.9098
290.236	20.9018
293.61	12.9799
296.985	10.7317
300.36	14.2293
303.735	23.1887
307.11	30.7947
310.485	41.6733
313.859	64.2582
317.234	111.552
320.609	157.247
323.984	91.9753
327.359	29.012
330.733	8.56292
334.108	2.80565
337.483	0.851717
340.858	0.350483
344.233	0.826109
347.608	0.5618
350.982	0.348812
354.357	1.45169
357.732	4.03696
361.107	6.85381
364.482	12.0849
367.856	17.4091
371.231	23.7922
374.606	27.1953
377.981	27.0225
381.356	24.094
384.731	25.0654
388.105	30.6146
391.48	40.7049
394.855	41.2609
398.23	26.8178
401.605	17.659
404.979	14.9874
408.354	19.6331
411.729	18.5413
415.104	19.5493
418.479	15.8132
421.853	12.9104
425.228	9.63748
428.603	8.32134
431.978	7.88324
435.353	9.03064
438.728	11.5295
442.102	16.3678
445.477	21.708
448.852	20.3732
452.227	13.1563
455.602	9.1372
458.976	7.02196
462.351	5.74225
465.726	4.53314
469.101	2.22023
472.476	0.878742
475.851	0.200653
479.225	0.267387
482.6	0.076561
485.975	0.710657
489.35	0.14444
492.725	0.025042
496.099	0.168633
499.474	0.225458
502.849	0.260973
506.224	0.078878
509.599	0.416594
512.973	0.350748
516.348	1.39451
519.723	1.00729
523.098	1.01343
526.473	2.03885
529.848	2.66086
533.222	3.21636
536.597	5.30128
539.972	8.06251
543.347	7.95686
546.722	5.31339
550.096	4.41607
553.471	2.95861
556.846	1.49951
560.221	1.52345
563.596	0.495918
566.971	0.983799
570.345	0.273922
573.72	0.595436
577.095	0.138733
580.47	0.648588
583.845	0.44113
587.22	0.053141
590.594	0.397907
593.969	0.414293
597.344	0.380958
600.719	0.964674
604.094	0.574605
607.468	0.574383
610.843	0.838231
614.218	0.287971
617.593	0.841124
620.968	1.11284
624.342	0.624775
627.717	0.409998
631.092	0.731926
634.467	0.517295
637.842	0.851662
641.217	1.41454
644.591	0.854236
647.966	0.848106
651.341	0.920261
654.716	1.47046
658.091	1.40036
661.466	2.4776
664.84	1.73329
668.215	1.33789
671.59	1.42201
674.965	1.43636
678.34	1.12293
681.714	0.980688
685.089	0.515228
688.464	1.1921
691.839	0.8564
695.214	0.497076
698.588	0.178816
701.963	0.026917
705.338	0.188225
708.713	0.440302
712.088	0.190186
715.462	0.657701
718.837	0.450333
722.212	0.212864
725.587	0.02355
728.962	0.820169
732.337	2.6625
735.711	6.49505
739.086	12.4874
742.461	21.7217
745.836	33.756
749.211	44.5299
752.586	54.0436
755.96	55.8294
759.335	46.4752
762.71	30.7044
766.085	19.67
769.46	14.4348
772.834	13.0943
776.209	15.8203
779.584	22.723
782.959	32.4086
786.334	40.5508
789.708	38.5527
793.083	29.131
796.458	18.2822
799.833	10.5899
803.208	5.45621
806.583	2.88076
809.957	1.88859
813.332	2.53975
816.707	4.63501
820.082	9.18999
823.457	16.9507
826.832	35.1734
830.206	72.2589
833.581	116.369
836.956	207.055
840.331	410.157
843.706	479.608
847.08	219.483
850.455	96.4644
853.83	51.331
857.205	31.8261
860.58	21.718
863.955	15.067
867.329	10.7068
870.704	6.36785
874.079	2.97163
877.454	0.549442
880.829	0.476381
884.203	0.975119
887.578	0.969744
890.953	0.841022
894.328	0.572123
897.703	1.02872
901.077	2.10109
904.452	2.73647
907.827	2.80251
911.202	3.97985
914.577	5.56333
917.952	5.6468
921.326	5.64366
924.701	4.57417
928.076	4.19482
931.451	3.99105
934.826	3.53137
938.2	3.35863
941.575	2.68218
944.95	1.58669
948.325	1.31451
951.7	0.461052
955.074	0.681865
958.449	0.077972
961.824	0.223509
965.199	0.228917
968.574	0.56632
971.949	0.349819
975.323	0.959965
978.698	1.55198
982.073	1.88179
985.448	2.73829
988.823	3.35081
992.197	3.42143
995.572	2.51062
998.947	2.52342
1002.32	2.92514
1005.7	2.78789
1009.07	3.12807
1012.45	2.85754
1015.82	2.54349
1019.2	1.61645
1022.57	0.948564
1025.95	0.607085
1029.32	0.257505
1032.69	0.356832
1036.07	0.11081
1039.44	0.663388
1042.82	0.002309
1046.19	0.128014
1049.57	0.524448
1052.94	0.376665
1056.32	0.470868
1059.69	0.259835
1063.07	0.128378
1066.44	0.576097
1069.82	0.195318
1073.19	0.409807
1076.57	0.226077
1079.94	0.14707
1083.32	0.819015
1086.69	1.20681
1090.07	0.641671
1093.44	0.498375
1096.82	0.642639
1100.19	0.166673
1103.57	0.35818
1106.94	0.211018
1110.32	0.118845
1113.69	0.041075
1117.07	0.063585
1120.44	0.017921
1123.82	0.562677
1127.19	0.73663
1130.57	0.163969
1133.94	0.017078
1137.32	0.366648
1140.69	0.271371
1144.06	0.338102
1147.44	0.415368
1150.81	0.336962
1154.19	0.71345
1157.56	0.442773
1160.94	0.301018
1164.31	0.201447
1167.69	0.495715
1171.06	0.047867
1174.44	0.298652
1177.81	0.271838
1181.19	0.331227
1184.56	0.10901
1187.94	0.070362
1191.31	0.768527
1194.69	0.112901
1198.06	0.243983
1201.44	0.185887
1204.81	0.531625
1208.19	0.858152
1211.56	0.878054
1214.93	0.973533
1218.31	1.63588
1221.68	2.1299
1225.06	1.3405
1228.43	1.29653
1231.81	0.893351
1235.18	0.551057
1238.56	0.222895
1241.93	0.397658
1245.31	0.108051
1248.68	0.623767
1252.06	0.773665
1255.43	0.4251
1258.81	0.65064
1262.18	0.256298
1265.56	0.307024
1268.93	0.285433
1272.31	0.48942
1275.68	0.617992
1279.06	0.154463
1282.43	0.3975
