Measurement: Raman, 514 nm, unoriented, Raman Data Processed
Mineral: Calcite
Rruff sample: R050009
Ideal chemistry: CaCO_3_
Locality: Amparo mine, Rodeo, Durango, Mexico
Source: Eugene Schlepp
Description: Colorless cleavage rhomb
Measured chemistry: Ca_1.00_CO_3_; trace amounts of Mn
Raman shift (cm-1)	intensity
101.732	0
105.908	35.14
110.082	12.651
114.254	158.539
118.424	225.3
122.592	241.675
126.758	203.034
130.922	291.743
135.083	611.792
139.243	1285.51
143.401	1818.42
147.557	1730.09
151.711	3071.12
155.863	4511.31
160.013	1899.62
164.161	721.883
168.308	398.028
172.452	234.98
176.594	151.618
180.734	183.849
184.872	118.737
189.008	120.667
193.143	160.599
197.275	123.652
201.405	160.008
205.534	42.911
209.66	50.414
213.784	94.327
217.907	1.538
222.027	62.184
226.146	66.581
230.263	90.956
234.377	138.9
238.49	65.607
242.601	228.841
246.709	205.02
250.816	286.094
254.921	385.373
259.024	321.562
263.125	714.537
267.224	964.324
271.321	1551.78
275.416	3013.93
279.51	5902.22
283.601	6370.19
287.69	3038.54
291.778	1411.91
295.863	821.524
299.947	417.317
304.029	229.827
308.108	244.131
312.186	116.631
316.262	47.624
320.336	102.934
324.408	80.004
328.478	85.564
332.546	141.247
336.612	107.535
340.677	61.315
344.739	48.604
348.799	10.66
352.858	45.993
356.915	109.399
360.969	10.565
365.022	83.708
369.073	5.161
373.122	126.935
377.169	144.334
381.215	156.879
385.258	3.208
389.299	243.178
393.339	147.649
397.376	196.131
401.412	101.046
405.446	131.93
409.478	73.083
413.508	67.911
417.536	108.256
421.562	232.765
425.586	167.621
429.609	161.131
433.629	138.728
437.648	105.053
441.665	152.852
445.68	169.484
449.693	95.557
453.704	25.496
457.713	59.337
461.721	33.111
465.726	32.962
469.73	39.88
473.731	109.046
477.731	59.656
481.729	23.401
485.725	59.841
489.72	158.468
493.712	31.851
497.703	90.011
501.691	129.748
505.678	12.674
509.663	274.115
513.646	251.918
517.627	212.691
521.607	113.982
525.584	128.346
529.56	102.322
533.534	41.089
537.506	164.269
541.476	113.437
545.444	93.95
549.41	143.218
553.375	220.052
557.337	94.567
561.298	88.712
565.257	85.809
569.214	2.951
573.17	34.056
577.123	47.177
581.075	47.731
585.024	137.905
588.972	97.06
592.918	183.686
596.863	149.382
600.805	182.411
604.746	142.585
608.685	199.613
612.621	210.337
616.557	244.98
620.49	239.109
624.421	330.641
628.351	66.586
632.279	85.247
636.205	367.348
640.129	352.738
644.051	321.529
647.972	330.715
651.89	316.271
655.807	252.166
659.722	236.623
663.636	115.477
667.547	20.395
671.457	215.588
675.365	148.271
679.271	157.426
683.175	41.486
687.077	215.668
690.978	191.252
694.877	17.328
698.774	289.301
702.669	306.111
706.562	415.111
710.454	974.928
714.344	1843.28
718.232	190.141
722.118	210.859
726.002	115.699
729.885	27.906
733.766	118.387
737.645	137.617
741.522	268.203
745.397	74.252
749.271	130.918
753.143	267.408
757.013	195.035
760.881	47.58
764.748	181.801
768.613	320.891
772.476	220.168
776.337	139.688
780.196	167.283
784.054	17.373
787.91	279.662
791.764	214.396
795.616	127.586
799.467	339.258
803.316	64.283
807.163	46.842
811.008	211.186
814.851	2.322
818.693	47.906
822.533	93.217
826.371	163.223
830.208	192.9
834.042	81.857
837.875	221.346
841.706	228.57
845.536	99.406
849.363	161.34
853.189	271.516
857.013	267.768
860.836	60.592
864.656	7.5
868.475	100.328
872.292	82.711
876.108	236.293
879.922	216.049
883.733	189.408
887.544	159.984
891.352	80.535
895.159	125.811
898.964	71.998
902.767	232.402
906.568	114.055
910.368	77.252
914.166	311.25
917.962	182.086
921.757	303.238
925.55	234.539
929.341	238.021
933.13	415.559
936.918	311.924
940.703	161.84
944.488	220.508
948.27	494.412
952.051	201.238
955.83	109.502
959.607	228.826
963.383	38.182
967.156	294.121
970.928	20.129
974.699	119.041
978.468	261.17
982.234	73.322
986	106.156
989.763	122.076
993.525	214.236
997.285	340.059
1001.04	6.535
1004.8	338.115
1008.55	428.465
1012.31	351.406
1016.06	211.234
1019.81	368.174
1023.56	423.059
1027.31	149.191
1031.05	589.172
1034.79	288.852
1038.53	418.377
1042.27	665.475
1046.01	429.596
1049.75	219.576
1053.48	573.875
1057.22	364.188
1060.95	415.262
1064.68	662.561
1068.4	513.992
1072.13	608.551
1075.86	585.357
1079.58	821.387
1083.3	3304.08
1087.02	33745.1
1090.74	6541.92
1094.45	1110.88
1098.17	384.98
1101.88	425.164
1105.59	222.086
1109.3	254.133
1113.01	70.248
1116.71	203.564
1120.42	121.359
1124.12	180.783
1127.82	109.619
1131.52	298.684
1135.22	71.67
1138.91	6.211
1142.61	257.736
1146.3	64.125
1149.99	327.945
1153.68	340.928
1157.37	436.051
1161.06	155.852
1164.74	291.762
1168.42	70.596
1172.1	353.408
1175.78	317.486
1179.46	32.611
1183.14	195.49
1186.81	344.299
1190.48	517.643
1194.15	697.73
1197.83	321.266
1201.49	678.672
1205.16	214.658
1208.82	642.611
1212.49	627.861
1216.15	379.611
1219.81	400.812
1223.46	410.664
1227.12	666.848
1230.78	572.477
1234.43	287.98
1238.08	271.27
1241.73	638.891
1245.38	533.797
1249.03	670.105
1252.67	428.562
1256.31	309.289
1259.95	619.641
1263.6	280.461
1267.23	244.359
1270.87	453.035
1274.51	442.809
1278.14	393.145
1281.77	294.242
1285.4	196.031
1289.03	202.422
1292.66	400.832
1296.28	110.375
1299.91	233.418
1303.53	184.219
1307.15	19.055
1310.77	166.219
1314.38	276.828
1318	162.215
1321.61	305.25
1325.23	260.969
1328.84	139.742
1332.45	243.836
1336.06	115.062
1339.66	223.805
1343.27	232.02
1346.87	363.391
1350.47	285.535
1354.07	382.293
1357.67	263.605
1361.26	386.598
1364.86	376.258
1368.45	651.09
1372.04	384.73
1375.63	511.512
1379.22	558.859
1382.81	588.328
1386.39	741.375
1389.98	769.848
1393.56	218.992
1397.14	582.09
1400.72	640.117
1404.3	374.797
1407.87	413.945
1411.45	673.758
1415.02	144.023
1418.59	308.207
1422.16	454.977
1425.73	649.441
1429.29	512.531
1432.86	420.023
1436.42	854.227
1439.98	1398.75
1443.54	797.23
1447.1	572.238
1450.66	521.961
1454.21	552.301
1457.77	428.98
1461.32	322.82
1464.87	311.652
1468.42	737.379
1471.96	432.984
1475.51	368.043
1479.06	342.422
1482.6	619.637
1486.14	121.598
