Measurement: Raman, 780 nm, unoriented, Raman Data Processed
Mineral: Calcioferrite
Rruff sample: R120092
Ideal chemistry: Ca_4_MgFe^3+^_4_(PO_4_)_6_(OH)_4_12H_2_O
Locality: Moculta quarry, Angastan, South Australia, Australia
Source: Bob Jenkins
Description: Clusters of pale yellow, micaceous crystals
Measured chemistry: (Ca_3.78_Sr_0.07_)_Σ=3.85_Mg_0.98_(Fe^3+^_2.82_Al_1.03_)_Σ=3.85_(PO_4_)_6.00_(OH)_4_·14.21H_2_O
Raman shift (cm-1)	intensity
110.484	0
113.859	6.79163
117.234	23.1282
120.609	46.7105
123.984	77.371
127.358	122.43
130.733	183.393
134.108	221.259
137.483	262.514
140.858	264.286
144.232	261.12
147.607	231.824
150.982	167.291
154.357	99.9792
157.732	63.5745
161.107	64.6075
164.481	78.8506
167.856	95.0546
171.231	117.476
174.606	130.337
177.981	132.522
181.355	113.244
184.73	91.9044
188.105	64.2897
191.48	39.151
194.855	18.0109
198.229	0.394043
201.604	6.36536
204.979	15.546
208.354	9.43872
211.729	3.79346
215.103	28.6754
218.478	51.631
221.853	78.2198
225.228	105.033
228.603	128.26
231.978	170.103
235.352	214.215
238.727	258.834
242.102	291.48
245.477	322.425
248.852	343.267
252.226	368.348
255.601	390.778
258.976	410.492
262.351	410.982
265.726	389.39
269.101	356.825
272.475	306.603
275.85	250.515
279.225	198.431
282.6	147.568
285.975	114.04
289.349	96.7756
292.724	84.7604
296.099	78.6263
299.474	75.4371
302.849	68.3301
306.224	59.269
309.598	46.0496
312.973	34.1067
316.348	25.0941
319.723	15.1279
323.098	6.76215
326.472	3.92731
329.847	0.87561
333.222	1.27509
336.597	0.609436
339.972	0.812134
343.346	0.592468
346.721	2.51178
350.096	10.5301
353.471	9.78497
356.846	12.6464
360.221	16.0875
363.595	14.2443
366.97	20.8491
370.345	24.0977
373.72	25.0707
377.095	30.2322
380.469	35.7667
383.844	35.2768
387.219	33.352
390.594	24.8162
393.969	16.9581
397.344	7.96521
400.718	3.39349
404.093	5.33118
407.468	5.22778
410.843	2.84784
414.217	1.44452
417.592	13.239
420.967	32.9847
424.342	58.3538
427.717	89.8251
431.092	129.315
434.466	171.491
437.841	201.051
441.216	215.524
444.591	206.502
447.966	191.451
451.341	169.755
454.715	138.787
458.09	110.656
461.465	76.8531
464.84	56.4019
468.215	50.6577
471.589	56.0159
474.964	79.8274
478.339	114.87
481.714	163.584
485.089	218.203
488.463	279.062
491.838	322.659
495.213	330.664
498.588	275.197
501.963	195.065
505.337	116.809
508.712	59.8806
512.087	26.9099
515.462	6.87445
518.837	2.82495
522.212	2.98212
525.586	2.59271
528.961	4.42932
532.336	8.94531
535.711	17.3806
539.086	31.04
542.46	39.3433
545.835	49.4582
549.21	54.419
552.585	58.6967
555.96	62.314
559.335	62.5023
562.709	65.6888
566.084	70.5064
569.459	74.0656
572.834	75.4341
576.209	82.554
579.583	79.3483
582.958	78.1099
586.333	76.3887
589.708	67.6327
593.083	54.8565
596.457	42.2726
599.832	27.7532
603.207	23.2537
606.582	19.3638
609.957	13.3063
613.332	10.2622
616.706	11.7878
620.081	10.3524
623.456	11.8756
626.831	3.90015
630.206	1.83481
633.58	0.854736
636.955	1.5123
640.33	1.07248
643.705	2.20798
647.08	2.05612
650.455	0.058167
653.829	2.3367
657.204	3.86786
660.579	5.17786
663.954	3.93686
667.329	4.98196
670.703	6.32565
674.078	5.2897
677.453	6.40738
680.828	6.05991
684.203	6.81308
687.577	7.53439
690.952	7.85727
694.327	8.76331
697.702	8.54742
701.077	9.56287
704.452	7.19211
707.826	6.62118
711.201	5.43848
714.576	6.66312
717.951	5.59363
721.326	5.45056
724.7	6.13736
728.075	5.54053
731.45	6.96271
734.825	4.83911
738.2	6.86484
741.574	3.58615
744.949	4.90085
748.324	4.52701
751.699	3.42105
755.074	0.440826
758.449	0.04187
761.823	0.982513
765.198	4.73877
768.573	2.21228
771.948	2.52115
775.323	0.079376
778.697	0.674835
782.072	1.98917
785.447	2.03653
788.822	1.33017
792.197	4.12302
795.572	4.64337
798.946	3.54965
802.321	4.07822
805.696	4.59952
809.071	6.4621
812.446	5.2092
815.82	4.84888
819.195	4.80502
822.57	5.65942
825.945	4.42084
829.32	4.17972
832.694	2.35336
836.069	3.9585
839.444	5.81949
842.819	6.15237
846.194	6.19922
849.569	5.62543
852.943	6.71066
856.318	6.98865
859.693	7.20471
863.068	6.02701
866.443	5.17728
869.817	4.73953
873.192	2.51163
876.567	1.89896
879.942	0.883026
883.317	0.311157
886.692	0.405579
890.066	0.209229
893.441	1.20749
896.816	1.9931
900.191	0.104645
903.566	2.19955
906.94	1.27704
910.315	0.185913
913.69	1.0191
917.065	7.20477
920.44	9.20874
923.814	13.8925
927.189	23.233
930.564	37.1413
933.939	53.8143
937.314	70.2024
940.689	87.472
944.063	96.9663
947.438	102.085
950.813	104.297
954.188	115.003
957.563	129.304
960.937	152.214
964.312	174.647
967.687	191.607
971.062	199.217
974.437	215.661
977.812	240.339
981.186	275.864
984.561	293.911
987.936	295.712
991.311	264.318
994.686	238.69
998.06	226.215
1001.43	233.219
1004.81	267.711
1008.18	276.723
1011.56	209.496
1014.93	124.707
1018.31	62.9407
1021.68	32.7794
1025.06	21.1739
1028.43	14.9981
1031.81	12.0633
1035.18	6.28815
1038.56	1.24484
1041.93	6.36331
1045.31	6.87302
1048.68	4.32684
1052.06	7.03784
1055.43	18.2578
1058.81	38.4644
1062.18	59.2004
1065.56	84.6676
1068.93	94.6427
1072.31	83.6579
1075.68	71.9406
1079.06	62.3823
1082.43	58.5638
1085.81	51.175
1089.18	46.6902
1092.56	42.6211
1095.93	38.8997
1099.31	41.2653
1102.68	45.2963
1106.05	46.2929
1109.43	58.3621
1112.8	67.3754
1116.18	76.9345
1119.55	82.5143
1122.93	87.9037
1126.3	86.2997
1129.68	86.2765
1133.05	93.3065
1136.43	106.88
1139.8	123.225
1143.18	118.442
1146.55	104.743
1149.93	79.808
1153.3	59.5421
1156.68	39.0836
1160.05	24.1624
1163.43	12.3148
1166.8	7.47006
1170.18	4.06061
1173.55	2.82635
1176.93	1.4722
1180.3	0.889496
1183.67	1.28732
1187.05	3.00726
1190.42	0.743286
1193.8	0.19812
1197.17	0.742126
1200.55	1.57519
1203.92	3.42044
1207.3	0.260956
1210.67	1.39099
1214.05	0.389038
1217.42	1.43875
1220.8	2.25809
1224.17	5.00952
1227.55	2.76593
1230.92	4.58636
1234.3	4.59875
1237.67	5.15134
1241.05	5.19116
1244.42	6.17899
1247.8	2.63223
1251.17	4.85864
1254.55	3.72543
1257.92	5.55719
1261.3	1.54358
1264.67	2.40601
1268.05	0.653656
1271.42	2.13901
1274.8	0.468536
1278.17	0.254303
1281.55	0.064728
