Measurement: Raman, 780 nm, unoriented, Raman Data Processed
Mineral: Calcioancylite-(Ce)
Rruff sample: R060205
Ideal chemistry: (Ce,Ca,Sr)CO_3_(OH,H_2_O)
Locality: Mont Saint-Hilaire, Rouville County, Quebec, Canada
Source: Royal Ontario Museum
Description: Aggregate of coarse, poorly formed pink crystals, color is pale green under fluorescent lights
Measured chemistry: (Ce_0.57_La_0.35_Nd_0.12_Pr_0.05_)_Σ=1.09_(Ca_0.44_Sr_0.36_Ba_0.04_)_Σ=0.84_(CO_3_)_1.97_(OH_0.83_F_0.17_)_Σ=1.00_·H_2_O
Raman shift (cm-1)	intensity
91.8272	0
94.7198	1.88336
97.6125	1.37431
100.505	1.79588
103.398	4.93996
106.291	11.7977
109.183	12.8394
112.076	15.748
114.969	19.0337
117.861	19.6761
120.754	17.7741
123.647	16.2914
126.54	12.0265
129.432	7.87489
132.325	3.92275
135.218	1.46098
138.11	0.345993
141.003	0.19355
143.896	1.30491
146.788	0.817467
149.681	2.49061
152.574	0.999214
155.466	2.89392
158.359	5.35695
161.252	7.38493
164.145	8.44617
167.037	14.8386
169.93	18.738
172.823	26.0424
175.715	29.1196
178.608	33.1928
181.501	36.3543
184.393	40.188
187.286	37.1597
190.179	31.9829
193.072	23.8147
195.964	15.0493
198.857	9.43483
201.75	5.64528
204.642	8.09399
207.535	3.42163
210.428	4.96532
213.321	8.23997
216.213	12.6875
219.106	15.8901
221.999	19.4029
224.891	24.696
227.784	22.715
230.677	23.9984
233.569	23.081
236.462	22.5204
239.355	20.024
242.248	18.208
245.14	15.3114
248.033	13.2776
250.926	10.2187
253.818	3.39362
256.711	0.864822
259.604	1.71773
262.496	2.46147
265.389	0.947556
268.282	1.55389
271.175	0.741302
274.067	4.39169
276.96	6.71469
279.853	10.2706
282.745	12.6537
285.638	15.4523
288.531	20.0694
291.423	26.1424
294.316	29.969
297.209	35.8233
300.101	43.8079
302.994	48.346
305.887	54.5579
308.78	60.5447
311.672	65.7039
314.565	73.6726
317.458	76.184
320.35	76.2593
323.243	69.5852
326.136	62.4797
329.029	54.7445
331.921	48.7543
334.814	42.7227
337.707	33.6453
340.599	28.2986
343.492	22.6784
346.385	19.2107
349.277	15.9527
352.17	15.283
355.063	14.952
357.955	15.6401
360.848	17.344
363.741	19.135
366.634	20.8366
369.526	22.8078
372.419	22.7709
375.312	20.2927
378.204	18.8404
381.097	16.6249
383.99	13.3224
386.882	11.631
389.775	7.24573
392.668	6.79103
395.561	3.90721
398.453	2.88695
401.346	0.615585
404.239	0.265472
407.131	0.68486
410.024	1.14279
412.917	0.885788
415.81	1.47955
418.702	0.79476
421.595	0.562228
424.488	0.918785
427.38	0.72476
430.273	0.67409
433.166	0.087036
436.058	0.613663
438.951	0.806732
441.844	3.29054
444.736	4.05279
447.629	3.02683
450.522	5.30707
453.415	5.48068
456.307	5.75905
459.2	6.82622
462.093	7.99916
464.985	8.72111
467.878	8.65889
470.771	8.93033
473.663	7.72185
476.556	10.0396
479.449	7.68375
482.342	8.60389
485.234	8.38766
488.127	8.56709
491.02	8.23692
493.912	8.85662
496.805	11.1276
499.698	10.2518
502.591	11.8838
505.483	13.2219
508.376	11.9122
511.269	14.6412
514.161	13.8277
517.054	14.5563
519.947	15.2627
522.839	17.3011
525.732	15.6425
528.625	17.2624
531.518	18.1077
534.41	16.0938
537.303	16.9385
540.196	16.8552
543.088	16.5427
545.981	15.3786
548.874	15.9812
551.766	15.1896
554.659	15.9961
557.552	14.6836
560.444	14.2201
563.337	13.1146
566.23	12.6296
569.123	10.7611
572.015	11.3584
574.908	10.2972
577.801	10.2101
580.693	9.01755
583.586	8.23415
586.479	6.30879
589.371	6.71867
592.264	6.13069
595.157	3.90535
598.05	5.74115
600.942	3.46663
603.835	2.94225
606.728	3.02823
609.62	2.32405
612.513	1.08254
615.406	0.158035
618.298	0.830643
621.191	1.00124
624.084	1.52998
626.977	0.729462
629.869	1.84973
632.762	2.3577
635.655	0.123322
638.547	0.602219
641.44	1.39601
644.333	1.21548
647.226	1.99893
650.118	3.46196
653.011	4.34555
655.904	4.53052
658.796	5.70062
661.689	7.30659
664.582	9.22392
667.474	9.71994
670.367	10.3656
673.26	11.6005
676.153	12.2847
679.045	12.2518
681.938	14.3142
684.831	18.907
687.723	22.5059
690.616	27.1766
693.509	40.5405
696.401	42.2581
699.294	40.6368
702.187	29.5746
705.08	19.6042
707.972	13.5915
710.865	13.1093
713.758	13.7422
716.65	15.7744
719.543	17.7676
722.436	18.9174
725.328	18.829
728.221	14.4888
731.114	8.21655
734.006	4.36469
736.899	2.06629
739.792	1.13613
742.685	0.728889
745.577	0.356277
748.47	0.498962
751.363	0.666466
754.255	1.0714
757.148	0.314285
760.041	0.22184
762.933	0.4505
765.826	1.85339
768.719	1.16119
771.612	1.43176
774.504	1.92472
777.397	1.25973
780.29	1.93547
783.182	1.06494
786.075	1.75214
788.968	1.12288
791.861	1.53263
794.753	1.32957
797.646	1.05264
800.539	0.904687
803.431	0.190876
806.324	0.601386
809.217	1.01685
812.109	1.51932
815.002	1.79715
817.895	1.9319
820.788	1.58846
823.68	1.8421
826.573	2.24669
829.466	2.43197
832.358	2.51401
835.251	1.73023
838.144	2.16591
841.036	1.97461
843.929	2.32223
846.822	3.57912
849.715	3.8
852.607	4.01887
855.5	4.14429
858.393	4.46541
861.285	3.51298
864.178	4.15055
867.071	3.2253
869.963	2.20291
872.856	1.75014
875.749	1.88646
878.641	1.4722
881.534	1.77323
884.427	1.80123
887.32	1.99631
890.212	1.30173
893.105	1.09169
895.998	1.47164
898.89	1.90808
901.783	1.10458
904.676	0.703859
907.568	0.72982
910.461	0.952312
913.354	0.608231
916.246	0.336685
919.139	0.627604
922.032	0.099777
924.925	0.265079
927.817	0.834787
930.71	0.716572
933.603	0.419888
936.495	0.191721
939.388	0.196933
942.281	0.533836
945.173	0.253094
948.066	0.371498
950.959	0.393841
953.852	0.076134
956.744	0.170471
959.637	0.585049
962.53	0.270016
965.422	0.102909
968.315	0.253403
971.208	0.268315
974.101	0.902696
976.993	0.260445
979.886	1.29433
982.779	1.88687
985.671	2.58362
988.564	1.90989
991.457	3.12229
994.349	2.87592
997.242	4.09487
1000.13	4.55505
1003.03	3.82485
1005.92	4.10328
1008.81	3.78592
1011.71	4.73875
1014.6	3.49482
1017.49	4.05175
1020.38	4.90472
1023.28	5.14822
1026.17	6.10886
1029.06	7.0647
1031.95	7.40005
1034.85	8.37478
1037.74	10.8758
1040.63	12.1143
1043.53	13.1789
1046.42	15.7018
1049.31	17.8689
1052.2	20.4698
1055.1	26.31
1057.99	34.1076
1060.88	45.6669
1063.77	62.7018
1066.67	90.8345
1069.56	126.43
1072.45	169.053
1075.35	210.13
1078.24	252.717
1081.13	288.299
1084.02	257.911
1086.92	154.003
1089.81	78.3498
1092.7	54.8273
1095.59	47.7995
1098.49	44.2495
1101.38	45.6126
1104.27	43.0864
1107.16	41.7904
1110.06	40.5628
1112.95	36.3025
1115.84	31.623
1118.73	27.5179
1121.63	24.4426
1124.52	17.1034
1127.41	7.74298
1130.31	1.42456
1133.2	3.49888
1136.09	2.66132
1138.98	0.085205
1141.88	2.49564
1144.77	4.58673
1147.66	10.1527
1150.56	10.8055
1153.45	18.75
1156.34	18.141
1159.23	21.8951
1162.13	21.592
1165.02	21.5003
1167.91	19.9606
1170.8	18.35
1173.7	14.3633
1176.59	10.1808
1179.48	10.5414
1182.38	10.1334
1185.27	2.51758
1188.16	0.473755
