Measurement: Raman, 514 nm, unoriented, Raman Data Processed
Mineral: Calcite
Rruff sample: R050048
Ideal chemistry: CaCO_3_
Locality: Magdalena, New Mexico, USA
Source: University of Arizona Mineral Museum
Description: Colorless massive
Measured chemistry: (Ca_0.99_Zn_0.01_)CO_3_
Raman shift (cm-1)	intensity
103.124	0
107.3	40.113
111.473	8.091
115.644	79.851
119.813	19.34
123.981	71.597
128.146	115.998
132.309	155.321
136.47	273.685
140.63	424.568
144.787	833.413
148.942	1958.07
153.096	3767.38
157.247	3450.21
161.396	1514.54
165.544	645.055
169.689	294.811
173.833	159.874
177.974	64.321
182.114	67.241
186.251	73.513
190.387	41.892
194.52	92.293
198.652	21.766
202.782	77.397
206.909	97.132
211.035	1.989
215.159	11.902
219.281	29.885
223.4	19.934
227.518	17.025
231.634	95.171
235.748	109.333
239.86	141.514
243.97	255.212
248.079	330.07
252.185	445.208
256.289	675.511
260.391	929.733
264.492	1404.63
268.59	2283.53
272.687	3891.95
276.781	7245.26
280.874	10808.3
284.964	8471.58
289.053	4341.93
293.14	2178.74
297.225	1306.2
301.308	787.036
305.389	539.442
309.468	383.5
313.545	282.951
317.62	217.438
321.693	188.741
325.765	96.537
329.834	99.085
333.902	86.965
337.967	62.379
342.031	38.753
346.093	21.205
350.153	19.376
354.21	24.615
358.267	46.847
362.321	23.96
366.373	15.115
370.423	5.104
374.471	9.571
378.518	49.354
382.563	0.09
386.605	10.953
390.646	4.01
394.685	21.821
398.722	11.236
402.757	34.505
406.79	12.796
410.821	14.552
414.851	53.442
418.878	0.835
422.904	13.173
426.927	45.427
430.949	32.244
434.969	32.718
438.987	25.334
443.003	26.928
447.018	41.934
451.03	37.841
455.041	3.727
459.049	1.129
463.056	66.297
467.061	30.898
471.064	6.149
475.065	11.296
479.064	40.668
483.062	32.264
487.057	41.581
491.051	59.821
495.043	17.133
499.032	33.177
503.02	53.462
507.007	46.804
510.991	37.799
514.973	72.733
518.954	66.576
522.933	63.36
526.91	74.374
530.885	74.98
534.858	80.523
538.829	24.026
542.799	57.289
546.766	39.315
550.732	79.217
554.696	49.478
558.658	67.74
562.618	71.977
566.576	78.924
570.533	28.776
574.488	76.721
578.44	36.616
582.391	37.378
586.341	27.081
590.288	8.149
594.233	41.186
598.177	20.048
602.119	54.47
606.059	77.842
609.997	54.326
613.933	10.074
617.868	8.505
621.801	47.38
625.731	31.803
629.66	57.564
633.588	45.064
637.513	14.964
641.437	94.696
645.358	70.872
649.278	44.258
653.196	60.598
657.113	4.221
661.027	26.015
664.94	44.622
668.851	15.057
672.76	21.414
676.667	30.717
680.572	80.949
684.476	56.239
688.378	89.45
692.278	112.502
696.176	42.916
700.072	177.357
703.967	278.125
707.86	1168.14
711.751	4107.14
715.64	1830.96
719.527	468.908
723.413	165.812
727.297	97.986
731.179	129.49
735.059	73.353
738.937	79.191
742.814	37.95
746.689	31.354
750.562	28.046
754.433	25.71
758.303	66.981
762.17	47.659
766.036	20.369
769.901	48.919
773.763	80.065
777.624	7.772
781.482	61.859
785.339	63.117
789.195	50.356
793.048	37.296
796.9	49.73
800.75	41.272
804.598	58.809
808.445	14.176
812.289	12.479
816.132	40.095
819.973	31.981
823.813	35.181
827.65	27.497
831.486	59.837
835.32	25.129
839.152	63.094
842.983	38.605
846.812	10.346
850.639	13.899
854.464	48.125
858.288	56.309
862.11	41.5
865.93	9.695
869.748	93.901
873.564	42.124
877.379	28.355
881.192	16.617
885.004	35.892
888.813	14.178
892.621	47.473
896.427	22.221
900.232	75.063
904.034	75.256
907.835	47.167
911.634	69.594
915.432	91.04
919.227	51.482
923.021	50.825
926.813	93.991
930.604	71.147
934.393	48.618
938.18	45.184
941.965	48.061
945.749	20.376
949.53	66.954
953.311	69.576
957.089	62.204
960.866	86.277
964.641	38.986
968.414	1.169
972.185	1.849
975.955	90.593
979.723	94.413
983.49	119.218
987.254	84.168
991.017	82.1
994.779	110.705
998.538	129.111
1002.3	58.364
1006.05	122.456
1009.81	122.552
1013.56	137.062
1017.31	168.202
1021.06	150.697
1024.81	183.905
1028.55	210.431
1032.3	237.021
1036.04	243.438
1039.78	226.855
1043.52	182.353
1047.26	169.995
1050.99	184.397
1054.73	210.493
1058.46	263.323
1062.19	339.765
1065.92	594.68
1069.65	571.398
1073.37	612.926
1077.1	1223.42
1080.82	3864.18
1084.54	21000.9
1088.26	41521.4
1091.97	5840
1095.69	1336.5
1099.4	622.895
1103.12	400.175
1106.83	251.596
1110.54	312.122
1114.24	216.001
1117.95	176.131
1121.65	204.683
1125.35	256.274
1129.06	142.145
1132.75	73.103
1136.45	82.486
1140.15	43.247
1143.84	105.785
1147.53	92.111
1151.22	54.75
1154.91	29.399
1158.6	9.907
1162.28	37.701
1165.97	8.248
1169.65	15.532
1173.33	6.13
1177.01	67.169
1180.69	52.387
1184.36	11.939
1188.04	4.724
1191.71	16.468
1195.38	32.582
1199.05	33.531
1202.71	52.693
1206.38	67.628
1210.04	34.798
1213.71	2.696
1217.37	84.82
1221.03	70.203
1224.68	10.343
1228.34	43.236
1231.99	79.114
1235.65	83.87
1239.3	74.411
1242.95	34.877
1246.59	66.263
1250.24	50.559
1253.88	70.76
1257.53	36.835
1261.17	3.794
1264.81	92.545
1268.45	84.225
1272.08	81.769
1275.72	48.1
1279.35	68.305
1282.98	9.38
1286.61	55.253
1290.24	53.36
1293.87	29.723
1297.49	29.98
1301.11	101.404
1304.73	54.165
1308.36	78.324
1311.97	48.207
1315.59	19.79
1319.2	42.773
1322.82	6.105
1326.43	30.986
1330.04	2.68
1333.65	38.661
1337.26	39.837
1340.86	64.906
1344.47	48.61
1348.07	96.537
1351.67	53.847
1355.27	58.743
1358.87	13.372
1362.46	33.836
1366.06	110.196
1369.65	55.548
1373.24	45.451
1376.83	35.299
1380.42	74.747
1384	87.798
1387.59	97.286
1391.17	87.94
1394.75	117.569
1398.33	87.462
1401.91	98.359
1405.49	114.286
1409.06	75.875
1412.64	63.991
1416.21	130.719
1419.78	164.854
1423.35	152.869
1426.91	131.977
1430.48	239.94
1434.05	532.169
1437.61	1426.87
1441.17	827.154
1444.73	286.02
1448.29	107.751
1451.84	170.763
1455.4	183.008
1458.95	167.803
1462.5	95.104
1466.05	59.642
1469.6	42.655
1473.15	2.54
1476.69	48.859
1480.24	65.91
1483.78	58.023
1487.32	49.835
