Measurement: Raman, 532 nm, unoriented, Raman Data Processed
Mineral: Calcite
Rruff sample: R040170
Ideal chemistry: CaCO_3_
Locality: Peramea, Lerida Province, Catalonia, Spain
Source: University of Arizona Mineral Museum
Description: Pink fragment
Measured chemistry: (Ca_0.99_Mg_0.01_)CO_3_; trace amounts of Co
Raman shift (cm-1)	intensity
141.948	0
145.323	138.571
148.698	527.758
152.072	1158.9
155.447	1415.41
158.822	942.922
162.197	427.03
165.572	147.234
168.946	68.8828
172.321	48.0015
175.696	30.5498
179.071	31.2808
182.446	36.4951
185.821	35.9605
189.195	25.2383
192.57	74.0664
195.945	0.054199
199.32	24.2441
202.695	0.499512
206.07	13.3467
209.444	10.5596
212.819	30.6919
216.194	2.24658
219.569	8.42676
222.944	11.8706
226.318	6.03271
229.693	69.3628
233.068	100.514
236.443	140.832
239.818	196.174
243.192	302.44
246.567	393.34
249.942	504.412
253.317	751.325
256.692	1047.75
260.067	1383.96
263.441	2033.82
266.816	2895.43
270.191	3998.17
273.566	5403.29
276.941	6643.89
280.315	6929.51
283.69	5658.87
287.065	3794.91
290.44	2350.35
293.815	1602.21
297.19	1098.83
300.564	677.684
303.939	575.205
307.314	423.552
310.689	326.519
314.064	235.534
317.438	152.633
320.813	106.852
324.188	57.229
327.563	69.771
330.938	80.0151
334.313	0.15625
337.687	41.6714
341.062	21.0337
344.437	14.1357
347.812	18.9419
351.187	41.9761
354.562	43.5127
357.936	4.05957
361.311	31.1758
364.686	30.0796
368.061	43.7705
371.436	5.91406
374.81	39.2598
378.185	66.8467
381.56	24.7354
384.935	18.3203
388.31	67.6436
391.685	28.9062
395.059	85.3174
398.434	72.5967
401.809	34.1924
405.184	1.20703
408.559	49.0078
411.933	7.67383
415.308	22.7783
418.683	4.38672
422.058	65.9981
425.433	44.9424
428.808	94.9307
432.182	85.21
435.557	59.0049
438.932	73.2109
442.307	35.2676
445.682	74.4248
449.056	87.9258
452.431	62.3857
455.806	38.3281
459.181	75.5801
462.556	51.331
465.93	36.5996
469.305	34.5
472.68	27.4238
476.055	56.3223
479.43	115.238
482.805	91.7949
486.179	36.3379
489.554	49.0537
492.929	82.3643
496.304	55.8643
499.679	92.5498
503.053	84.9912
506.428	111.72
509.803	78.7119
513.178	73.1992
516.553	102.148
519.928	53.1602
523.302	85.9023
526.677	30.9717
530.052	32.7695
533.427	55.8145
536.802	24.2539
540.177	7.84766
543.551	15.5703
546.926	52.042
550.301	75.7803
553.676	48.1992
557.051	51.0928
560.425	28.4473
563.8	66.7803
567.175	26.9248
570.55	47.1426
573.925	50.3779
577.299	119.143
580.674	51.208
584.049	38.5312
587.424	64.9434
590.799	23.7295
594.174	52.1758
597.548	90.3525
600.923	59.6279
604.298	46.7812
607.673	52.8506
611.048	98.0088
614.423	110.246
617.797	57.9639
621.172	145.3
624.547	64.3857
627.922	130.038
631.297	8.8418
634.671	152.269
638.046	67.1172
641.421	99.9853
644.796	45.4297
648.171	113.109
651.545	154.674
654.92	31.502
658.295	71.7217
661.67	78.9756
665.045	85.5459
668.42	23.9199
671.794	55.2881
675.169	87.2852
678.544	142.92
681.919	59.2988
685.294	92.2793
688.668	95.3174
692.043	143.442
695.418	271.321
698.793	577.817
702.168	1106.19
705.543	1719.26
708.917	2560.1
712.292	3146.26
715.667	1539.98
719.042	602.243
722.417	315.654
725.792	324.078
729.166	98.1133
732.541	167.736
735.916	43.9307
739.291	73.4463
742.666	40.1787
746.04	67.2002
749.415	81.7227
752.79	185.819
756.165	81.2529
759.54	33.9004
762.915	52.5791
766.289	11.4785
769.664	29.9102
773.039	27.542
776.414	124.628
779.789	0.105469
783.163	44.3291
786.538	148.078
789.913	36.5459
793.288	24.4053
796.663	44.3457
800.038	93.9023
803.412	126.994
806.787	76.6689
810.162	76.3799
813.537	132.406
816.912	84.0918
820.286	89.291
823.661	56.3262
827.036	17.8984
830.411	27.2979
833.786	28.4883
837.16	42.4355
840.535	27.6699
843.91	66.3213
847.285	109.586
850.66	91.4268
854.035	107.865
857.409	73.1748
860.784	64.2725
864.159	105.217
867.534	130.346
870.909	87.2471
874.284	12.7842
877.658	97.7754
881.033	22.8691
884.408	34.1846
887.783	108.219
891.158	23.6465
894.533	113.561
897.907	57.6963
901.282	22.4893
904.657	152.031
908.032	38.1435
911.407	120.872
914.781	59.2812
918.156	136.66
921.531	92.7529
924.906	166.154
928.281	50.2383
931.655	89.2832
935.03	139.456
938.405	89.2373
941.78	79.8691
945.155	81.0019
948.529	29.8867
951.904	77.1103
955.279	48.0898
958.654	67.0293
962.029	52.5029
965.404	91.1816
968.778	13.4297
972.153	85.3369
975.528	12.8301
978.903	56.2275
982.278	167.514
985.653	123.11
989.027	119.654
992.402	187.564
995.777	247.492
999.152	406.553
1002.53	328.769
1005.9	413.391
1009.28	665.691
1012.65	701.971
1016.03	769.256
1019.4	592.569
1022.78	211.168
1026.15	205.675
1029.53	40.9228
1032.9	80.2539
1036.28	41.7676
1039.65	9.91406
1043.02	6.31836
1046.4	17.7188
1049.77	21.3516
1053.15	91.3223
1056.52	117.356
1059.9	220.326
1063.27	425.147
1066.65	687.922
1070.02	991.611
1073.4	2390.47
1076.77	7004.64
1080.15	15962.1
1083.52	26236.9
1086.9	28910.3
1090.27	9161.11
1093.65	2303.75
1097.02	726.244
1100.4	323.1
1103.77	163.805
1107.15	123.592
1110.52	64.8184
1113.9	17.1582
1117.27	40.2891
1120.64	17.832
1124.02	53.1465
1127.39	54.2832
1130.77	12.4082
1134.14	26.4688
1137.52	46.6191
1140.89	80.457
1144.27	85.2383
1147.64	94.7012
1151.02	141.018
1154.39	68.6367
1157.77	71.3047
1161.14	12.123
1164.52	135.834
1167.89	94.2559
1171.27	98.7441
1174.64	64.2402
1178.02	80.4981
1181.39	7.32812
1184.77	36.7207
1188.14	113.963
1191.52	183.254
1194.89	178.883
1198.27	84.6641
1201.64	79.1504
1205.02	164.871
1208.39	37.7012
1211.77	93.2383
1215.14	118.18
1218.52	29.1445
1221.89	118.619
1225.27	80.6797
1228.64	95.2481
1232.01	94.3203
1235.39	98.2715
1238.76	197.613
1242.14	66.6621
1245.51	17.0176
1248.89	64.0918
1252.26	38.5645
1255.64	106.531
1259.01	133.342
1262.39	48.8066
1265.76	17.7461
1269.14	93.7481
1272.51	173.502
1275.89	228.879
1279.26	108.094
1282.64	201.977
1286.01	141.848
1289.39	29.0723
1292.76	71.7227
1296.14	37.3086
1299.51	56.082
1302.88	188.627
1306.26	126.602
1309.63	65.7773
