Measurement: Raman, 514 nm, unoriented, Raman Data Processed
Mineral: Calcite
Rruff sample: R050128
Ideal chemistry: CaCO_3_
Locality: Tie Siding, Albany County, Wyoming, USA
Source: Dave Bunk Minerals
Description: Pseudomorph after aragonite, not single crystal. Trace of aragonite still present.
Measured chemistry: Ca_1.00_CO_3_
Raman shift (cm-1)	intensity
0	0
89.306	21.804
93.49	79.625
97.673	165.682
101.854	216.713
106.032	180.42
110.209	119.762
114.384	173.248
118.556	74.754
122.727	24.257
126.895	12.387
131.062	4.295
135.226	55.462
139.388	190.235
143.549	436.386
147.707	1237.08
151.863	2579.14
156.018	2128.1
160.17	916.799
164.32	241.811
168.469	105.144
172.615	34.788
176.759	48.536
180.901	19.813
185.041	43.621
189.18	63.121
193.316	134.157
197.45	29.777
201.582	196.576
205.712	274.221
209.84	221.811
213.967	123.568
218.091	65.367
222.213	148.462
226.333	0.884
230.451	61.56
234.567	2.333
238.682	14.435
242.794	26.576
246.904	61.785
251.012	17.865
255.118	63.165
259.223	237.522
263.325	470.403
267.425	997.954
271.523	2218.7
275.62	4554.21
279.714	6518.07
283.806	4787.74
287.897	2309.64
291.985	816.415
296.072	303.578
300.156	87.826
304.239	8.296
308.319	61.174
312.398	8.04
316.474	27.494
320.549	45.024
324.622	50.509
328.692	94.945
332.761	29.454
336.828	160.573
340.893	96.79
344.956	70.573
349.017	79.126
353.076	122.905
357.133	46.974
361.188	46.706
365.241	96.514
369.292	57.407
373.341	75.814
377.388	82.949
381.434	56.514
385.477	20.481
389.519	67.996
393.558	93.032
397.596	77.266
401.631	20.188
405.665	46.985
409.697	1.625
413.727	76.114
417.755	54.522
421.781	81.091
425.805	10.763
429.827	93.603
433.847	148.231
437.865	89.231
441.882	34.235
445.896	69.149
449.909	38.403
453.919	11.842
457.928	82.341
461.935	33.254
465.94	12.267
469.943	6.172
473.944	130.447
477.943	88.478
481.94	107.556
485.935	66.575
489.929	1.997
493.92	23.211
497.91	70.349
501.898	246.116
505.883	68.572
509.867	52.92
513.849	22.947
517.829	29.134
521.808	14.184
525.784	68.809
529.758	52.035
533.731	2.772
537.701	109.922
541.67	128.713
545.637	5.894
549.602	42.703
553.565	63.42
557.526	45.627
561.486	129.642
565.443	85.579
569.399	99.482
573.352	78.49
577.304	55.505
581.254	35.823
585.202	63.966
589.148	149.28
593.093	135.454
597.035	83.252
600.976	9.279
604.914	136.525
608.851	106.577
612.786	88.637
616.719	101.02
620.651	73.855
624.58	0.005
628.507	52.182
632.433	126.603
636.357	99.976
640.279	84.569
644.199	15.574
648.117	46.012
652.034	39.249
655.948	161.361
659.861	131.523
663.772	59.887
667.681	1.449
671.588	104.505
675.493	159.705
679.397	91.603
683.298	116.475
687.198	100.092
691.096	91.551
694.992	47.105
698.886	393.559
702.779	431.174
706.669	1093.93
710.558	3380.93
714.445	1406
718.33	277.989
722.214	223.033
726.095	185.938
729.975	94.254
733.852	162.647
737.728	70.393
741.603	6.39
745.475	167.718
749.345	129.894
753.214	153.572
757.081	83.816
760.946	89.674
764.809	133.956
768.671	174.902
772.53	152.229
776.388	121.217
780.244	139.019
784.098	3.095
787.951	21.257
791.801	137.926
795.65	35.341
799.497	61.758
803.342	85.692
807.186	83.917
811.027	44.619
814.867	119.189
818.705	67.239
822.541	34.834
826.375	52.239
830.208	116.354
834.039	252.69
837.868	158.111
841.695	149.555
845.521	110.202
849.344	90.264
853.166	48.927
856.986	4.051
860.804	41.756
864.621	58.238
868.436	94.885
872.248	41.365
876.06	58.154
879.869	71.658
883.677	93.565
887.482	141.523
891.287	40.071
895.089	29.179
898.889	110.622
902.688	102.443
906.485	32.671
910.28	133.585
914.074	54.965
917.865	121.623
921.655	155.539
925.443	155.446
929.23	23.271
933.014	101.441
936.797	47.636
940.578	152.887
944.358	76.243
948.135	11.242
951.911	149.15
955.685	202.425
959.458	6.702
963.228	161.795
966.997	98.52
970.764	111.346
974.529	101.276
978.293	189.067
982.055	75.655
985.815	47.65
989.573	34.747
993.33	178.184
997.085	27.396
1000.84	173.68
1004.59	133.45
1008.34	42.1
1012.09	21.098
1015.83	18.543
1019.58	185.592
1023.32	63.058
1027.06	191.622
1030.8	126.372
1034.54	61.419
1038.27	25.138
1042.01	177.973
1045.74	355.297
1049.47	13.292
1053.2	219.867
1056.93	167.99
1060.65	84.384
1064.38	332.912
1068.1	194.145
1071.82	275.765
1075.54	681.599
1079.25	2968.27
1082.97	26576.5
1086.68	27584.5
1090.39	4035.28
1094.11	624.451
1097.81	183.339
1101.52	188.808
1105.22	56.881
1108.93	42.312
1112.63	175.792
1116.33	4.644
1120.03	333.918
1123.72	207.811
1127.42	238.434
1131.11	278.447
1134.8	131.713
1138.49	239.771
1142.18	104.343
1145.87	24.806
1149.55	28.647
1153.23	207.107
1156.91	176.683
1160.59	318.004
1164.27	239.19
1167.95	232.833
1171.62	8.728
1175.3	30.699
1178.97	202.75
1182.64	282.689
1186.3	248.912
1189.97	199.647
1193.63	72.536
1197.3	65.902
1200.96	141.166
1204.62	57.915
1208.27	115.436
1211.93	64.015
1215.58	4.502
1219.24	343.748
1222.89	115.639
1226.54	236.564
1230.18	246.199
1233.83	394.654
1237.47	68.307
1241.12	107.271
1244.76	112.469
1248.4	205.154
1252.04	119.289
1255.67	456.703
1259.31	308.139
1262.94	42.77
1266.57	97.352
1270.2	38.004
1273.83	58
1277.45	123.242
1281.08	198.816
1284.7	91.299
1288.32	74.543
1291.94	274.676
1295.56	183.672
1299.17	19.352
1302.79	120.967
1306.4	188.805
1310.01	549.748
1313.62	118.977
1317.23	357.684
1320.84	170.965
1324.44	363.822
1328.04	353.807
1331.64	198.648
1335.24	117.986
1338.84	219.703
1342.44	119.23
1346.03	51.264
1349.63	270.066
1353.22	200.439
1356.81	192.473
1360.4	103.24
1363.98	132.084
1367.57	83.645
1371.15	157.959
1374.73	114.457
1378.32	163.59
1381.89	185.766
1385.47	301.398
1389.05	355.666
1392.62	291.055
1396.19	210.621
1399.76	220.619
1403.33	7.904
1406.9	89.684
1410.46	4.602
1414.03	104.721
1417.59	20.59
1421.15	168.533
1424.71	157.346
1428.27	446.248
1431.82	678.922
1435.38	957.453
1438.93	517.625
1442.48	377.676
1446.03	64.357
1449.58	40.053
1453.13	133.074
1456.67	3.34
1460.21	540.627
1463.76	392.559
1467.3	142.889
1470.83	412.289
1474.37	224.893
1477.91	110.67
1481.44	65.059
1484.97	224.857
1488.5	210.758
1492.03	256.492
1495.56	0.844
