Measurement: Raman, 785 nm, unoriented, Raman Data Processed
Mineral: Calcite
Rruff sample: R040070
Ideal chemistry: CaCO_3_
Locality: Pryor Mountain, Big Horn County, Montana, USA
Source: University of Arizona Mineral Museum
Description: Orange scalenohedral crystals
Measured chemistry: (Ca_0.99_Mg_0.01_)CO_3_
Raman shift (cm-1)	intensity
131.754	0
134.647	13.3721
137.539	32.6378
140.432	87.9401
143.325	375.447
146.217	894.437
149.11	1463.11
152.003	2354.22
154.895	2789.86
157.788	1574.58
160.681	691.355
163.573	354.086
166.466	208.688
169.359	148.571
172.252	111.116
175.144	86.2845
178.037	60.4485
180.93	17.1929
183.822	18.9057
186.715	1.61871
189.608	10.8716
192.5	16.2311
195.393	8.4707
198.286	4.64291
201.179	7.13589
204.071	9.0531
206.964	1.10242
209.857	25.8433
212.749	17.5954
215.642	17.6448
218.535	18.1291
221.428	25.2958
224.32	37.9876
227.213	35.9955
230.106	47.2575
232.998	51.0188
235.891	73.9681
238.784	101.312
241.676	107.09
244.569	146.958
247.462	185.201
250.355	236.03
253.247	297.719
256.14	413.392
259.033	548.928
261.925	734.095
264.818	1005.47
267.711	1449.34
270.603	2213.1
273.496	3417.67
276.389	5127.34
279.281	6766.16
282.174	6807.99
285.067	4592.36
287.96	2516.77
290.852	1417.9
293.745	894.898
296.638	567.791
299.53	400.63
302.423	280.021
305.316	197.784
308.209	152.916
311.101	109.499
313.994	95.1493
316.887	78.4419
319.779	55.2001
322.672	20.8534
325.565	22.3834
328.457	27.6073
331.35	13.6107
334.243	8.44829
337.135	1.17848
340.028	4.9044
342.921	5.06908
345.814	11.7224
348.706	3.58742
351.599	1.92758
354.492	4.14322
357.384	16.4769
360.277	4.89233
363.17	1.23741
366.062	6.66641
368.955	10.101
371.848	3.95305
374.741	4.42395
377.633	10.9375
380.526	6.16632
383.419	2.40221
386.311	1.17159
389.204	10.2505
392.097	2.41272
394.99	9.46349
397.882	0.763901
400.775	9.81328
403.668	4.36731
406.56	6.38335
409.453	4.93987
412.346	8.57216
415.238	9.25333
418.131	4.81999
421.024	13.2644
423.916	5.02329
426.809	15.2567
429.702	16.0539
432.595	6.6417
435.487	12.8062
438.38	12.8577
441.273	12.0223
444.165	11.6779
447.058	8.81342
449.951	16.5391
452.844	8.53696
455.736	15.9104
458.629	10.5267
461.522	16.2467
464.414	12.5835
467.307	6.99839
470.2	13.5607
473.092	12.7917
475.985	5.07892
478.878	1.55009
481.771	13.0184
484.663	5.30833
487.556	21.1988
490.449	6.39832
493.341	2.85484
496.234	10.0375
499.127	8.96223
502.019	7.39162
504.912	10.2613
507.805	12.7956
510.697	11.2927
513.59	5.34479
516.483	10.9745
519.376	8.86527
522.268	12.7244
525.161	18.176
528.054	10.0253
530.946	4.50231
533.839	3.86974
536.732	8.22937
539.625	12.7644
542.517	18.9482
545.41	16.1082
548.303	10.2211
551.195	5.1817
554.088	7.38305
556.981	11.0879
559.873	7.92812
562.766	9.55108
565.659	1.52892
568.552	8.89738
571.444	5.67085
574.337	4.02907
577.23	9.16067
580.122	12.6447
583.015	11.9324
585.908	14.1414
588.8	12.4638
591.693	13.2254
594.586	8.03049
597.479	14.5148
600.371	13.35
603.264	14.5687
606.157	12.4097
609.049	10.6671
611.942	13.9581
614.835	12.0396
617.727	3.625
620.62	16.373
623.513	11.9248
626.405	8.07358
629.298	6.01892
632.191	7.79952
635.084	8.34765
637.976	1.62694
640.869	4.67923
643.762	0.326637
646.654	8.4848
649.547	7.52384
652.44	6.17128
655.332	3.27965
658.225	0.388481
661.118	1.88891
664.011	2.7557
666.903	5.10557
669.796	14.736
672.689	3.37327
675.581	0.7658
678.474	5.14294
681.367	16.1718
684.26	3.79588
687.152	20.2598
690.045	31.8256
692.938	35.8691
695.83	67.5684
698.723	102.525
701.616	256.87
704.508	612.403
707.401	1461.29
710.294	3241.13
713.187	3846.29
716.079	908.625
718.972	277.595
721.865	126.658
724.757	76.7753
727.65	48.2901
730.543	42.8323
733.435	29.0195
736.328	20.7785
739.221	14.2427
742.114	12.8935
745.006	15.5895
747.899	5.93133
750.792	4.08023
753.684	4.97968
756.577	9.13747
759.47	4.4122
762.362	2.77818
765.255	0.424644
768.148	4.22247
771.04	10.038
773.933	8.72753
776.826	10.7306
779.719	3.24024
782.611	18.3035
785.504	10.6692
788.397	17.229
791.289	5.68234
794.182	7.25358
797.075	1.2132
799.967	0.171844
802.86	8.6052
805.753	2.94871
808.646	15.8081
811.538	11.1897
814.431	8.17094
817.324	6.03625
820.216	5.08974
823.109	12.8401
826.002	16.3163
828.894	6.79999
831.787	6.16415
834.68	4.39429
837.573	17.0795
840.465	7.84147
843.358	14.7451
846.251	8.51112
849.143	14.3208
852.036	9.93704
854.929	3.09721
857.822	3.44796
860.714	12.536
863.607	4.93758
866.5	4.4345
869.392	6.29869
872.285	14.6051
875.178	1.18993
878.07	2.6868
880.963	7.53476
883.856	6.8774
886.749	6.72304
889.641	11.3755
892.534	14.6149
895.427	15.8235
898.319	5.52947
901.212	14.5081
904.105	11.6527
906.997	19.2209
909.89	15.3201
912.783	10.275
915.675	15.4655
918.568	6.87296
921.461	15.8094
924.354	15.6976
927.246	18.7851
930.139	15.9925
933.032	14.5197
935.924	15.0947
938.817	7.6267
941.71	17.2307
944.602	10.9245
947.495	17.5621
950.388	13.807
953.28	7.81654
956.173	7.70176
959.066	16.2708
961.959	3.2357
964.851	3.74727
967.744	3.75031
970.637	2.09456
973.529	9.27058
976.422	4.27924
979.315	0.572884
982.207	3.97714
985.1	3.32524
987.993	9.45638
990.886	13.592
993.778	0.807892
996.671	13.2104
999.564	22.1039
1002.46	26.5251
1005.35	25.2041
1008.24	39.9914
1011.13	43.6417
1014.03	58.8302
1016.92	56.9818
1019.81	45.2138
1022.71	42.4322
1025.6	38.0949
1028.49	31.585
1031.38	32.9612
1034.28	26.2902
1037.17	21.8257
1040.06	14.6909
1042.95	30.5554
1045.85	25.949
1048.74	36.1058
1051.63	52.6407
1054.53	58.7947
1057.42	72.2828
1060.31	111.965
1063.2	226.777
1066.1	520.952
1068.99	343.912
1071.88	390.257
1074.77	755.163
1077.67	1968.61
1080.56	7520.44
1083.45	25312.9
1086.35	59114.5
1089.24	9768.81
1092.13	1581.36
1095.02	649.063
1097.92	339.916
1100.81	209.754
1103.7	134.433
1106.59	91.0014
1109.49	68.9256
1112.38	50.678
1115.27	30.7839
1118.16	25.8446
1121.06	21.868
1123.95	10.6217
1126.84	1.65086
1129.73	6.49355
1132.63	12.1645
1135.52	4.37213
1138.41	1.94534
1141.31	1.7348
1144.2	4.17773
1147.09	6.83298
1149.98	2.41106
1152.88	3.46242
1155.77	2.8734
1158.66	0.855827
1161.56	6.21323
1164.45	0.87085
1167.34	3.42986
1170.23	0.934143
1173.13	6.287
1176.02	10.0683
1178.91	1.81239
1181.8	7.93121
1184.7	13.396
1187.59	21.1971
1190.48	13.4127
1193.38	12.5718
1196.27	14.3223
1199.16	16.2003
1202.05	14.7995
1204.94	16.2396
1207.84	12.5892
1210.73	10.2923
1213.62	21.5856
1216.52	16.8668
1219.41	10.3028
1222.3	8.17154
1225.19	20.6045
1228.09	27.8612
1230.98	14.2033
1233.87	16.6687
1236.77	8.38216
1239.66	2.89475
1242.55	5.59661
1245.44	16.5432
1248.34	13.444
1251.23	13.3328
1254.12	0.066383
1257.01	4.84175
1259.91	4.68403
1262.8	0
