Measurement: Raman, 514 nm, unoriented, Raman Data Processed
Mineral: Calcite
Rruff sample: R050127
Ideal chemistry: CaCO_3_
Locality: Rodeo, Durango, Mexico
Source: Dave Bunk Minerals
Description: Group of colorless crystals
Measured chemistry: Ca_1.00_CO_3_
Raman shift (cm-1)	intensity
79.427	0
83.614	51.651
87.798	26.639
91.981	92.497
96.161	161.931
100.34	114.401
104.516	213.483
108.691	185.681
112.864	292.035
117.034	485.904
121.203	300.839
125.369	269.465
129.534	265.442
133.696	260.56
137.857	348.684
142.016	358.716
146.172	678.558
150.327	1496.13
154.48	2071.36
158.63	1246.19
162.779	595.655
166.926	355.254
171.07	254.023
175.213	221.066
179.354	199.406
183.493	182.05
187.63	173.984
191.765	155.34
195.898	98.066
200.029	173.083
204.158	154.327
208.285	138.806
212.41	91.524
216.533	102.413
220.654	94.782
224.773	124.981
228.891	129.335
233.006	135.83
237.119	111.349
241.231	143.995
245.34	190.466
249.448	249.951
253.553	211.639
257.657	334.922
261.758	521.511
265.858	703.222
269.956	1096.28
274.052	2182.75
278.146	4048.9
282.237	4299
286.327	2510.26
290.416	1268.97
294.502	645.821
298.586	420.836
302.668	289.215
306.749	205.955
310.827	125.788
314.903	134.97
318.978	59.736
323.051	86.172
327.121	85.724
331.19	47.371
335.257	82.655
339.322	67.459
343.385	51.305
347.446	48.189
351.505	42.158
355.563	69.16
359.618	58.205
363.672	0.458
367.723	42.205
371.773	54.37
375.821	107.646
379.866	24.813
383.91	21.053
387.952	52.263
391.992	1.562
396.031	27.609
400.067	42.04
404.101	56.211
408.134	5.732
412.165	34.14
416.193	28.297
420.22	72.763
424.245	23.572
428.268	9.738
432.289	29.876
436.309	21.867
440.326	49.836
444.342	31.911
448.355	26.972
452.367	22.021
456.377	21.985
460.385	26.893
464.391	20.049
468.395	34.263
472.398	0.382
476.398	9.416
480.397	55.022
484.394	17.583
488.389	87.088
492.382	23.219
496.373	58.634
500.362	22.387
504.349	32.649
508.335	54.127
512.319	49.403
516.3	30.874
520.28	37.284
524.259	113.266
528.235	35.32
532.209	2.174
536.182	65.937
540.152	78.674
544.121	24.316
548.088	69.871
552.053	57.535
556.017	27.992
559.978	34.492
563.938	43.056
567.895	12.147
571.851	70.284
575.805	25.969
579.758	3.166
583.708	112.504
587.657	54.744
591.603	18.608
595.548	34.083
599.491	48.476
603.432	55.182
607.372	91.308
611.309	54.462
615.245	69.222
619.179	26.019
623.111	112.327
627.041	43.932
630.97	2.722
634.896	108.069
638.821	58.924
642.744	53.873
646.665	65.642
650.584	69.274
654.502	64.164
658.418	49.848
662.331	18.509
666.244	7.991
670.154	82.577
674.062	54.754
677.969	67.785
681.874	118.477
685.777	108.893
689.678	149.56
693.577	43.283
697.475	111.273
701.371	138.548
705.265	405.616
709.157	1864.69
713.047	2827.12
716.936	551.355
720.823	194.251
724.708	93.75
728.591	3.946
732.472	97.792
736.352	86.318
740.23	113.384
744.106	92.398
747.98	17.051
751.853	60.519
755.723	54.698
759.592	25.528
763.459	83.223
767.325	85.865
771.188	36.48
775.05	8.151
778.91	38.382
782.768	78.855
786.625	30.009
790.479	58.391
794.332	81.701
798.183	74.971
802.033	54.645
805.88	49.634
809.726	10.333
813.57	10.272
817.413	32.06
821.253	1.289
825.092	23.08
828.929	33.663
832.764	33.14
836.598	9.899
840.429	66.633
844.259	37.486
848.088	37.291
851.914	74.095
855.739	17.928
859.562	34.738
863.383	15.476
867.203	88.213
871.02	26.068
874.836	63.597
878.65	49.254
882.463	35.354
886.274	126.974
890.083	3.027
893.89	114.503
897.695	16.707
901.499	5.483
905.301	22.945
909.102	43.445
912.9	47.641
916.697	86.625
920.492	42.125
924.285	62.425
928.077	138.628
931.867	82.052
935.655	107.501
939.442	109.81
943.226	146.981
947.009	101.201
950.791	13.466
954.57	12.931
958.348	103.253
962.124	6.242
965.899	60.966
969.671	56.271
973.442	87.31
977.211	120.652
980.979	96.168
984.745	0.72
988.509	98.208
992.271	145.763
996.032	150.578
999.791	72.183
1003.55	95.667
1007.3	163.517
1011.06	94.927
1014.81	85.748
1018.56	237.525
1022.31	179.106
1026.06	143.646
1029.8	189.527
1033.55	204.758
1037.29	234.575
1041.03	242.702
1044.77	235.477
1048.5	184.42
1052.24	316.436
1055.97	196.018
1059.7	269.121
1063.43	355.14
1067.16	666.734
1070.89	402.501
1074.61	680.436
1078.34	1097.21
1082.06	4742.8
1085.78	51635.5
1089.5	11333.4
1093.21	1855.36
1096.93	577.249
1100.64	457.588
1104.35	325.645
1108.06	217.564
1111.77	124.048
1115.48	158.049
1119.18	148.445
1122.89	205.45
1126.59	108.434
1130.29	157.787
1133.99	43.664
1137.68	12.33
1141.38	73.284
1145.07	43.566
1148.76	93.125
1152.45	36.25
1156.14	65.659
1159.83	65.595
1163.51	7
1167.19	1.43
1170.88	24.403
1174.56	19.386
1178.23	8.437
1181.91	54.828
1185.59	44.079
1189.26	160.823
1192.93	187.94
1196.6	5.55
1200.27	90.58
1203.94	15.804
1207.6	49.886
1211.27	106.78
1214.93	67.084
1218.59	75.054
1222.25	107.472
1225.9	80.48
1229.56	65.861
1233.21	78.021
1236.86	29.048
1240.51	97.26
1244.16	62.206
1247.81	92.889
1251.45	19.545
1255.1	3.847
1258.74	92.414
1262.38	46.547
1266.02	51.759
1269.66	34.604
1273.29	30.729
1276.93	123.721
1280.56	18.971
1284.19	11.48
1287.82	54.056
1291.45	80.429
1295.07	97.992
1298.7	5.02
1302.32	59.994
1305.94	9.953
1309.56	82.633
1313.18	21.113
1316.8	13.068
1320.41	68.469
1324.02	94.386
1327.63	63.04
1331.24	107.807
1334.85	39.116
1338.46	60.587
1342.06	152.286
1345.67	25.445
1349.27	39.15
1352.87	86.129
1356.47	19.45
1360.07	62.293
1363.66	75.912
1367.25	24.543
1370.85	99.761
1374.44	120.537
1378.03	121.742
1381.61	54.054
1385.2	215.005
1388.78	197.209
1392.37	80.709
1395.95	63.511
1399.53	158.258
1403.1	194.858
1406.68	217.272
1410.26	209.946
1413.83	120.016
1417.4	203.696
1420.97	217.24
1424.54	287.012
1428.1	159.377
1431.67	285.865
1435.23	857.143
1438.8	1128.83
1442.36	364.61
1445.91	255.711
1449.47	173.837
1453.03	222.585
1456.58	165.962
1460.13	171.935
1463.68	200.294
1467.23	260.865
1470.78	188.988
1474.33	257.276
1477.87	204.815
1481.42	252.859
1484.96	199.04
1488.5	235.738
1492.04	142.68
1495.57	108.07
1499.11	206.469
1502.64	26.788
1506.17	115.441
1509.71	136.276
1513.23	139.204
1516.76	107.466
1520.29	41.431
