Measurement: Raman, 514 nm, unoriented, Raman Data Processed
Mineral: Calcite
Rruff sample: R050307
Ideal chemistry: CaCO_3_
Locality: Zaire
Source: Eugene Schlepp
Description: Group of pink prismatic crystals
Measured chemistry: Ca_1.00_CO_3_
Raman shift (cm-1)	intensity
91.981	0
96.161	39.389
100.34	37.977
104.516	25.23
108.691	4.574
112.864	53.136
117.034	186.354
121.203	188.26
125.369	141.24
129.534	201.867
133.696	345.839
137.857	538.903
142.016	1146.83
146.172	2772.53
150.327	6624.91
154.48	9559.89
158.63	5476.38
162.779	2097.32
166.926	864.638
171.07	470.392
175.213	298.497
179.354	196.655
183.493	126.91
187.63	104.296
191.765	99.931
195.898	69.014
200.029	112.408
204.158	85.952
208.285	76.505
212.41	81.432
216.533	109.317
220.654	113.295
224.773	117.344
228.891	154.46
233.006	200.638
237.119	236.88
241.231	282.219
245.34	371.355
249.448	554.459
253.553	753.274
257.657	1025.79
261.758	1574.82
265.858	2361.22
269.956	3975.48
274.052	7643.38
278.146	13071.6
282.237	13808.9
286.327	7955.47
290.416	3729.6
294.502	1946.77
298.586	1127.19
302.668	721.562
306.749	515.698
310.827	371.328
314.903	272.891
318.978	235.163
323.051	126.753
327.121	85.393
331.19	89.575
335.257	64.301
339.322	40.207
343.385	55.32
347.446	46.099
351.505	50.895
355.563	19.705
359.618	23.521
363.672	37.358
367.723	18.237
371.773	49.064
375.821	59.096
379.866	47.466
383.91	34.401
387.952	40.011
391.992	5.819
396.031	21.652
400.067	34.357
404.101	40.032
408.134	15.749
412.165	7.397
416.193	17.5
420.22	26.549
424.245	3.88
428.268	8.227
432.289	14.752
436.309	15.743
440.326	1.429
444.342	16.03
448.355	14.359
452.367	32.309
456.377	9.402
460.385	22.564
464.391	20.603
468.395	8.391
472.398	16.18
476.398	12.128
480.397	28.979
484.394	43.322
488.389	31.813
492.382	53.262
496.373	37.789
500.362	8.27
504.349	97.923
508.335	39.315
512.319	34.688
516.3	46.921
520.28	53.496
524.259	35.104
528.235	55.927
532.209	19.874
536.182	54.897
540.152	18.317
544.121	16.189
548.088	51.831
552.053	74.724
556.017	63.248
559.978	46.109
563.938	30.531
567.895	32.492
571.851	58.782
575.805	30
579.758	69.271
583.708	35.338
587.657	53.627
591.603	62.564
595.548	38.84
599.491	36.654
603.432	54.151
607.372	43.135
611.309	22.277
615.245	79.15
619.179	19.578
623.111	65.851
627.041	27.314
630.97	7.602
634.896	96.729
638.821	60.207
642.744	11.323
646.665	72.792
650.584	38.296
654.502	28.469
658.418	23.161
662.331	35.201
666.244	27.975
670.154	37.658
674.062	65.381
677.969	34.94
681.874	59.518
685.777	65.965
689.678	91.132
693.577	17.447
697.475	115.483
701.371	118.267
705.265	245.046
709.157	960.494
713.047	1263.66
716.936	344.305
720.823	171.109
724.708	84.012
728.591	48.951
732.472	61.003
736.352	71.316
740.23	74.616
744.106	17.147
747.98	14.948
751.853	67.431
755.723	40.747
759.592	15.116
763.459	41.517
767.325	75.745
771.188	69.439
775.05	47.809
778.91	38.133
782.768	55.519
786.625	40.673
790.479	61.511
794.332	77.178
798.183	46.09
802.033	30.846
805.88	31.072
809.726	34.209
813.57	12.248
817.413	24.078
821.253	31.801
825.092	13.787
828.929	39.955
832.764	5.146
836.598	64.559
840.429	35.145
844.259	80.741
848.088	69.513
851.914	31.038
855.739	25.506
859.562	18.014
863.383	18.505
867.203	31.916
871.02	37.288
874.836	14.629
878.65	20.664
882.463	55.255
886.274	44.509
890.083	12.622
893.89	103.659
897.695	5.304
901.499	57.444
905.301	69.684
909.102	9.72
912.9	45.424
916.697	56.506
920.492	37.553
924.285	43.621
928.077	14.502
931.867	43.638
935.655	28.793
939.442	23.798
943.226	27.888
947.009	26.999
950.791	10.072
954.57	24.67
958.348	40.529
962.124	16.885
965.899	17.027
969.671	32.821
973.442	88.804
977.211	37.679
980.979	61.667
984.745	40.517
988.509	18.551
992.271	58.423
996.032	20.419
999.791	119.403
1003.55	65.59
1007.3	152.387
1011.06	117.452
1014.81	144.13
1018.56	186.602
1022.31	175.397
1026.06	143.771
1029.8	149.183
1033.55	126.728
1037.29	177.145
1041.03	138.25
1044.77	160.614
1048.5	147.503
1052.24	186.592
1055.97	222.977
1059.7	290.141
1063.43	331.662
1067.16	736.242
1070.89	503.037
1074.61	733.214
1078.34	1464.38
1082.06	6850.55
1085.78	56164.5
1089.5	16472.6
1093.21	2359.74
1096.93	726.197
1100.64	459.926
1104.35	297.379
1108.06	247.086
1111.77	213.341
1115.48	122.23
1119.18	112.273
1122.89	114.839
1126.59	87.036
1130.29	93.763
1133.99	67.271
1137.68	64.846
1141.38	54.387
1145.07	39.051
1148.76	69.524
1152.45	35.325
1156.14	121.931
1159.83	29.916
1163.51	23.65
1167.19	49.113
1170.88	35.093
1174.56	40.938
1178.23	7.796
1181.91	13.661
1185.59	11.531
1189.26	4.106
1192.93	57.762
1196.6	79.388
1200.27	80.909
1203.94	17.049
1207.6	85.177
1211.27	51.074
1214.93	11.217
1218.59	99.505
1222.25	52.879
1225.9	85.219
1229.56	76.083
1233.21	55.08
1236.86	1.652
1240.51	99.356
1244.16	80.524
1247.81	47.995
1251.45	68.304
1255.1	46.561
1258.74	43.109
1262.38	32.172
1266.02	13.187
1269.66	26.057
1273.29	36.052
1276.93	60.819
1280.56	35.385
1284.19	35.619
1287.82	85.74
1291.45	74.574
1295.07	45.22
1298.7	36.32
1302.32	20.665
1305.94	60.564
1309.56	20.108
1313.18	13.498
1316.8	58.593
1320.41	16.896
1324.02	30.176
1327.63	94.875
1331.24	66.457
1334.85	51.417
1338.46	16.467
1342.06	5.337
1345.67	49.892
1349.27	96.312
1352.87	65.131
1356.47	29.214
1360.07	102.008
1363.66	120.561
1367.25	101.566
1370.85	120.586
1374.44	74.327
1378.03	110.541
1381.61	133.855
1385.2	93.198
1388.78	152.358
1392.37	65.787
1395.95	49.421
1399.53	80.469
1403.1	92.521
1406.68	140.824
1410.26	167.504
1413.83	106.167
1417.4	113.893
1420.97	120.785
1424.54	154.653
1428.1	196.289
1431.67	267.295
1435.23	826.297
1438.8	945.633
1442.36	335.175
1445.91	167.8
1449.47	146.979
1453.03	140.987
1456.58	174.364
1460.13	143.66
1463.68	107.088
1467.23	96.499
1470.78	99.8
1474.33	86.603
1477.87	114.875
1481.42	165.329
1484.96	114.92
1488.5	193.574
1492.04	89.387
1495.57	99.637
1499.11	184.009
1502.64	109.803
1506.17	121.21
1509.71	136.831
1513.23	122.352
1516.76	151.604
1520.29	100.889
1523.81	0
