Measurement: Raman, 514 nm, unoriented, Raman Data Processed
Mineral: Calcite
Rruff sample: R040170
Ideal chemistry: CaCO_3_
Locality: Peramea, Lerida Province, Catalonia, Spain
Source: University of Arizona Mineral Museum
Description: Pink fragment
Measured chemistry: (Ca_0.99_Mg_0.01_)CO_3_; trace amounts of Co
Raman shift (cm-1)	intensity
90.587	0
94.768	38.371
98.947	60.394
103.124	20.624
107.3	132.594
111.473	172.043
115.644	191.734
119.813	268.292
123.981	258.621
128.146	314.267
132.309	485.874
136.47	738.079
140.63	1160.5
144.787	2239.88
148.942	3929.08
153.096	3949.97
157.247	2486.46
161.396	1274.73
165.544	684.747
169.689	432.804
173.833	299.349
177.974	243.853
182.114	137.251
186.251	154.779
190.387	74.344
194.52	128.993
198.652	197.849
202.782	201.901
206.909	289.139
211.035	144.448
215.159	137.842
219.281	152.271
223.4	176.722
227.518	225.179
231.634	239.916
235.748	293.613
239.86	406.505
243.97	533.426
248.079	795.502
252.185	904.064
256.289	1297.54
260.391	1914.72
264.492	2779.19
268.59	4420.51
272.687	7154.96
276.781	9612.17
280.874	8974.67
284.964	6072.54
289.053	3626.59
293.14	2196.03
297.225	1445.82
301.308	1014.02
305.389	669.588
309.468	572.277
313.545	416.02
317.62	325.463
321.693	233.338
325.765	168.225
329.834	101.871
333.902	113.843
337.967	96.26
342.031	34.589
346.093	42.009
350.153	71.328
354.21	7.666
358.267	11.245
362.321	24.988
366.373	22.069
370.423	84.076
374.471	30.244
378.518	41.398
382.563	32.452
386.605	7.525
390.646	54.978
394.685	22.825
398.722	14.008
402.757	27.117
406.79	47.243
410.821	42.991
414.851	80.931
418.878	73.708
422.904	9.481
426.927	92.95
430.949	22.571
434.969	112.646
438.987	63.722
443.003	30.36
447.018	70.054
451.03	29.542
455.041	82.921
459.049	25.445
463.056	54.645
467.061	35.761
471.064	45.117
475.065	80.172
479.064	45.896
483.062	29.602
487.057	97.899
491.051	89.203
495.043	81.208
499.032	94.518
503.02	111.535
507.007	161.625
510.991	112.294
514.973	54.831
518.954	99.443
522.933	61.708
526.91	82.833
530.885	44.344
534.858	92.377
538.829	69.959
542.799	66.69
546.766	77.536
550.732	47.964
554.696	4.781
558.658	88.258
562.618	32.669
566.576	36.777
570.533	25.683
574.488	11.218
578.44	213.712
582.391	117.371
586.341	71.496
590.288	106.182
594.233	29.158
598.177	115.665
602.119	216.947
606.059	116.516
609.997	108.368
613.933	137.72
617.868	126.164
621.801	106.516
625.731	100.575
629.66	120.693
633.588	138.933
637.513	59.069
641.437	91.428
645.358	82.157
649.278	102.018
653.196	95.035
657.113	102.749
661.027	167.582
664.94	130.747
668.851	130.749
672.76	81.429
676.667	100.172
680.572	82.027
684.476	188.769
688.378	95.166
692.278	107.511
696.176	289.292
700.072	293.351
703.967	595.072
707.86	1915.14
711.751	2578.62
715.64	1106.17
719.527	341.88
723.413	259.338
727.297	167.863
731.179	187.85
735.059	121.719
738.937	111.607
742.814	12.735
746.689	107.126
750.562	81.828
754.433	31.923
758.303	35.206
762.17	114.098
766.036	110.017
769.901	30.851
773.763	20.704
777.624	111.528
781.482	145.952
785.339	58.258
789.195	4.109
793.048	84.14
796.9	61.236
800.75	12.37
804.598	5.705
808.445	113.727
812.289	14.26
816.132	51.87
819.973	58.193
823.813	75.916
827.65	77.335
831.486	146.631
835.32	4.013
839.152	182.464
842.983	131.969
846.812	167.257
850.639	66.757
854.464	159.392
858.288	143.719
862.11	167.195
865.93	120.655
869.748	75.092
873.564	132.505
877.379	130.9
881.192	115.311
885.004	106.734
888.813	15.85
892.621	26.516
896.427	131.522
900.232	136.669
904.034	87.043
907.835	94.389
911.634	96.87
915.432	119.755
919.227	40.73
923.021	27.95
926.813	99.282
930.604	216.32
934.393	35.56
938.18	20.551
941.965	27.282
945.749	81.507
949.53	91.602
953.311	168.532
957.089	76.275
960.866	25.661
964.641	48.341
968.414	66.185
972.185	23.311
975.955	27.537
979.723	66.697
983.49	57.703
987.254	214.794
991.017	235.352
994.779	246.18
998.538	344.08
1002.3	503.511
1006.05	495.329
1009.81	695.093
1013.56	1028.03
1017.31	1247.04
1021.06	697.917
1024.81	354.632
1028.55	219.19
1032.3	274.185
1036.04	275.616
1039.78	250.417
1043.52	209.49
1047.26	298.342
1050.99	357.896
1054.73	292.613
1058.46	360.58
1062.19	436.021
1065.92	612.531
1069.65	760.218
1073.37	1116.12
1077.1	2728.2
1080.82	8218.45
1084.54	28709.2
1088.26	29703
1091.97	6614.42
1095.69	1683.83
1099.4	625.875
1103.12	364.556
1106.83	242.043
1110.54	143.22
1114.24	79.931
1117.95	171.68
1121.65	113.665
1125.35	160.846
1129.06	60.354
1132.75	123.36
1136.45	81.503
1140.15	173.013
1143.84	19.75
1147.53	122.29
1151.22	63.774
1154.91	141.067
1158.6	10.476
1162.28	133.951
1165.97	61.773
1169.65	107.187
1173.33	20.265
1177.01	96.887
1180.69	151.101
1184.36	174.692
1188.04	174.607
1191.71	60.206
1195.38	66.75
1199.05	137.784
1202.71	27.956
1206.38	104.687
1210.04	228.798
1213.71	127.741
1217.37	53.042
1221.03	104.309
1224.68	18.729
1228.34	81.493
1231.99	142.095
1235.65	190.699
1239.3	175.23
1242.95	199.382
1246.59	164.38
1250.24	23.614
1253.88	12.215
1257.53	111.676
1261.17	75.902
1264.81	158.93
1268.45	112.701
1272.08	41.794
1275.72	45.361
1279.35	48.547
1282.98	35.267
1286.61	26.194
1290.24	15.958
1293.87	40.153
1297.49	49.435
1301.11	49.842
1304.73	21.641
1308.36	99.653
1311.97	202.417
1315.59	18.044
1319.2	115.15
1322.82	6.909
1326.43	7.299
1330.04	2.56
1333.65	128.58
1337.26	153.208
1340.86	141.541
1344.47	66.877
1348.07	132.652
1351.67	197.736
1355.27	103.086
1358.87	264.176
1362.46	255.879
1366.06	178.611
1369.65	139.843
1373.24	183.885
1376.83	82.923
1380.42	82.805
1384	210.856
1387.59	148.195
1391.17	76.611
1394.75	99.021
1398.33	235.21
1401.91	212.229
1405.49	218.056
1409.06	213.943
1412.64	318.917
1416.21	290.293
1419.78	304.011
1423.35	360.363
1426.91	425.944
1430.48	576.486
1434.05	758.876
1437.61	1324.21
1441.17	687.693
1444.73	446.736
1448.29	454.988
1451.84	269.592
1455.4	186.721
1458.95	376.656
1462.5	246.334
1466.05	287.518
1469.6	275.253
1473.15	276.528
1476.69	220.463
1480.24	187.734
1483.78	144.115
1487.32	309.753
1490.86	134.87
1494.39	259.724
1497.93	187.473
1501.46	45.836
1505	75.993
1508.53	126.462
1512.06	97.166
1515.59	108.436
1519.11	4.858
1522.64	0
