Measurement: Raman, 532 nm, unoriented, Raman Data Processed
Mineral: Calcioancylite-(Ce)
Rruff sample: R130005
Ideal chemistry: (Ce,Ca,Sr)CO_3_(OH,H_2_O)
Locality: Mont Saint-Hilaire, Rouville RCM, Monteregie, Quebec, Canada
Source: Don Doell
Description: Granular massive, green under sunlight, light red under microscope light, associated with albite and rhodochrosite
Raman shift (cm-1)	intensity
178.071	0
180.964	1.09586
183.857	7.43755
186.749	37.5057
189.642	86.0826
192.535	138.91
195.427	161.542
198.32	162.709
201.213	164.048
204.105	174.523
206.998	197.009
209.891	228.368
212.784	270.279
215.676	321.212
218.569	365.588
221.462	407.309
224.354	434.678
227.247	448.431
230.14	454.396
233.032	455.625
235.925	466.8
238.818	476.493
241.71	484.299
244.603	484.826
247.496	470.01
250.389	433.342
253.281	373.943
256.174	306.166
259.067	242.021
261.959	186.524
264.852	141.907
267.745	106.161
270.637	81.4734
273.53	58.6605
276.423	41.45
279.316	31.5453
282.208	23.1595
285.101	14.7002
287.994	9.06635
290.886	4.67213
293.779	0.142426
296.672	0.37619
299.565	2.64565
302.457	1.9198
305.35	3.35168
308.243	4.85687
311.135	2.82292
314.028	1.70926
316.921	2.4581
319.813	0.723618
322.706	2.44124
325.599	5.04797
328.491	9.03175
331.384	13.4588
334.277	20.321
337.17	27.2831
340.062	33.6265
342.955	44.9085
345.848	53.3923
348.74	65.0818
351.633	77.0202
354.526	88.8914
357.418	102.172
360.311	115.533
363.204	126.098
366.097	133.889
368.989	136.37
371.882	138.807
374.775	133.637
377.667	124.62
380.56	110.777
383.453	93.4316
386.346	78.9971
389.238	68.0869
392.131	52.5969
395.024	41.6059
397.916	31.4436
400.809	25.8976
403.702	18.9044
406.594	14.2237
409.487	9.13734
412.38	6.5889
415.272	5.8635
418.165	3.04983
421.058	2.42989
423.951	0.638641
426.843	0.335518
429.736	0.733528
432.629	0.527397
435.521	0.329529
438.414	0.681953
441.307	0.342178
444.2	0.71962
447.092	1.59117
449.985	1.45048
452.878	2.00035
455.77	2.06057
458.663	1.21064
461.556	2.98351
464.448	3.12187
467.341	3.17807
470.234	3.65943
473.127	3.78895
476.019	4.11878
478.912	3.57542
481.805	3.42693
484.697	4.26531
487.59	3.20546
490.483	3.13763
493.375	1.66925
496.268	1.72952
499.161	2.33566
502.053	2.36087
504.946	1.17334
507.839	0.988014
510.732	0.411911
513.624	0.76004
516.517	0.063416
519.41	0.045929
522.302	0.176689
525.195	0.488167
528.088	0.807861
530.981	0.968269
533.873	0.810966
536.766	0.880386
539.659	0.597473
542.551	0.88414
545.444	0.222961
548.337	0.044037
551.229	0.39341
554.122	0.234978
557.015	0.744003
559.908	0.505676
562.8	0.462524
565.693	0.897774
568.586	0.050903
571.478	1.67625
574.371	1.03651
577.264	0.714455
580.156	1.0952
583.049	0.796509
585.942	0.744621
588.835	0.92878
591.727	1.26246
594.62	0.267525
597.513	0.497002
600.405	0.333145
603.298	1.28128
606.191	0.380272
609.083	0.000343
611.976	0.622635
614.869	0.064468
617.761	0.152931
620.654	0.330887
623.547	0.816124
626.44	0.503754
629.332	0.152115
632.225	0.328461
635.118	0.428093
638.01	0.152122
640.903	0.342773
643.796	0.222839
646.688	1.31329
649.581	0.480347
652.474	1.02905
655.367	1.91026
658.259	1.60989
661.152	3.11319
664.045	3.29001
666.937	2.40695
669.83	2.29658
672.723	2.88798
675.615	4.41491
678.508	5.19423
681.401	7.12698
684.294	12.3509
687.186	25.4278
690.079	44.3035
692.972	71.3959
695.864	105.174
698.757	139.041
701.65	146.335
704.543	94.2342
707.435	53.8386
710.328	45.602
713.221	53.7175
716.113	73.3948
719.006	106.269
721.899	146.033
724.791	190.347
727.684	216.317
730.577	188.412
733.47	116.329
736.362	61.8405
739.255	36.3725
742.148	23.4638
745.04	16.0469
747.933	10.6732
750.826	5.51405
753.718	2.62902
756.611	2.56853
759.504	1.80241
762.396	1.37766
765.289	0.156746
768.182	0.197533
771.075	0.413765
773.967	0.870316
776.86	0.508209
779.753	0.013123
782.645	0.269173
785.538	0.637756
788.431	0.973488
791.323	1.11969
794.216	0.354698
797.109	0.111862
800.002	0.045906
802.894	0.146629
805.787	0.510162
808.68	1.33407
811.572	0.191216
814.465	0.686966
817.358	0.323921
820.25	1.40537
823.143	0.939438
826.036	1.65852
828.929	0.947212
831.821	1.86514
834.714	3.0059
837.607	3.63657
840.5	4.13622
843.392	3.54002
846.285	5.74445
849.178	9.88223
852.07	21.698
854.963	32.5162
857.856	22.2106
860.748	12.838
863.641	9.42219
866.534	6.81146
869.427	5.41322
872.319	4.61063
875.212	3.39395
878.105	3.54835
880.997	2.05367
883.89	1.7248
886.783	0.092758
889.675	0.875908
892.568	0.465637
895.461	0.550232
898.354	0.524246
901.246	0.647392
904.139	1.33588
907.032	1.15388
909.924	0.874138
912.817	0.91729
915.71	1.02425
918.602	0.604782
921.495	0.83564
924.388	0.099442
927.28	1.12669
930.173	0.40155
933.066	1.17235
935.959	1.21128
938.851	1.37721
941.744	2.48077
944.637	1.91383
947.529	2.00693
950.422	3.63484
953.315	3.86626
956.207	4.03065
959.1	4.1599
961.993	5.57993
964.886	7.29219
967.778	8.38072
970.671	11.073
973.564	11.6052
976.456	12.5777
979.349	12.9321
982.242	12.6142
985.135	12.2956
988.027	11.9293
990.92	11.2659
993.813	10.3991
996.705	8.97849
999.598	9.30401
1002.49	8.4688
1005.38	7.22927
1008.28	6.17448
1011.17	4.5482
1014.06	4.2989
1016.95	3.26582
1019.85	3.25075
1022.74	0.493073
1025.63	0.859398
1028.53	0.640282
1031.42	0.393433
1034.31	0.411285
1037.2	0.918541
1040.1	0.204521
1042.99	1.71355
1045.88	2.54424
1048.77	5.4032
1051.67	10.3678
1054.56	20.3156
1057.45	33.9598
1060.35	56.3369
1063.24	100.127
1066.13	170.982
1069.02	288.145
1071.92	459.98
1074.81	692.532
1077.7	934.353
1080.59	1174.18
1083.49	1506.14
1086.38	1609.98
1089.27	1023.83
1092.16	380.257
1095.06	107.597
1097.95	40.1735
1100.84	18.7019
1103.73	9.28741
1106.63	4.2286
1109.52	2.37433
1112.41	0.932587
1115.31	1.27361
1118.2	0.071678
1121.09	0.015617
1123.98	0.636864
1126.88	0.193909
1129.77	1.032
1132.66	0.914207
1135.56	1.15086
1138.45	0.999283
1141.34	0.977333
1144.23	1.73519
1147.13	1.37932
1150.02	1.72831
1152.91	1.76804
1155.8	1.543
1158.7	2.91585
1161.59	2.74731
1164.48	2.02982
1167.38	1.40373
1170.27	1.24657
1173.16	1.18187
1176.05	1.42907
1178.94	2.83069
1181.84	2.8076
1184.73	1.70876
1187.62	1.21612
1190.52	0.996323
1193.41	1.04825
1196.3	0.476501
1199.19	0.017067
1202.09	0.551346
1204.98	1.33112
1207.87	0.271935
1210.77	1.81491
1213.66	3.35133
1216.55	1.10868
1219.44	0.464066
1222.34	0.672974
1225.23	0.176773
1228.12	3.15959
1231.01	0.019402
1233.91	0.200951
1236.8	1.08886
1239.69	1.95091
1242.59	1.52309
1245.48	1.07774
1248.37	1.87765
1251.26	1.57598
1254.16	1.57334
1257.05	2.41238
1259.94	1.40692
1262.83	2.32234
1265.73	1.66428
1268.62	1.81362
1271.51	1.20116
1274.4	2.59362
1277.3	0.679298
1280.19	1.38457
1283.08	1.88474
1285.97	1.21945
1288.87	0.902435
1291.76	0.843178
1294.65	0.731888
1297.55	1.31428
1300.44	0.098663
