Measurement: Raman, 780 nm, unoriented, Raman Data Processed
Mineral: Calcite
Rruff sample: R150075
Ideal chemistry: CaCO_3_
Locality: Montana, USA
Source: Michael Scott
Description: Colorless cleavage rhomb
Raman shift (cm-1)	intensity
94.4526	0
97.8274	8.15271
101.202	8.38165
104.577	25.7612
107.952	53.2858
111.327	16.6053
114.701	0.828186
118.076	2.34503
121.451	2.81873
124.826	28.4379
128.201	53.7462
131.576	117.144
134.95	263.169
138.325	459.304
141.7	616.498
145.075	872.409
148.45	1382.38
151.825	2472.82
155.199	4663.69
158.574	3958.91
161.949	1430.85
165.324	576.837
168.698	293.95
172.073	166.191
175.448	95.5472
178.823	48.549
182.198	25.2017
185.573	10.5338
188.947	4.07745
192.322	10.5046
195.697	9.33063
199.072	6.79501
202.447	0.644348
205.821	9.43237
209.196	7.88373
212.571	17.4506
215.946	23.6263
219.321	33.4397
222.696	35.0011
226.07	47.5956
229.445	63.2251
232.82	84.8554
236.195	113.48
239.57	147.132
242.945	195.561
246.319	252.923
249.694	339.724
253.069	467.975
256.444	663.549
259.818	1018.42
263.193	1606.77
266.568	2249.1
269.943	2762.64
273.318	3376.15
276.693	4312.61
280.067	5823.78
283.442	6523.29
286.817	4235.89
290.192	2034.64
293.567	1049.09
296.942	607.105
300.316	387.189
303.691	256.545
307.066	176.77
310.441	124.724
313.816	88.8937
317.19	61.4776
320.565	43.1388
323.94	27.5835
327.315	14.8632
330.69	7.94296
334.065	1.42578
337.439	1.41985
340.814	3.63832
344.189	5.49539
347.564	5.89127
350.938	2.38422
354.313	0.523392
357.688	4.13742
361.063	5.0341
364.438	6.12205
367.813	7.30879
371.187	11.4579
374.562	11.8651
377.937	13.7693
381.312	13.221
384.687	12.4022
388.062	11.4992
391.436	12.9044
394.811	11.4713
398.186	5.78716
401.561	4.12273
404.935	3.03201
408.31	0.528809
411.685	1.65599
415.06	1.42262
418.435	0.982651
421.81	1.69293
425.184	5.28319
428.559	4.52022
431.934	2.37793
435.309	3.7123
438.684	4.3215
442.058	5.38838
445.433	3.25714
448.808	5.64928
452.183	4.32033
455.558	4.44545
458.933	4.67377
462.307	7.38522
465.682	3.97798
469.057	4.06507
472.432	3.18722
475.807	2.71539
479.182	0.673019
482.556	2.15402
485.931	4.24172
489.306	4.18604
492.681	3.87423
496.055	3.03336
499.43	4.67673
502.805	3.97996
506.18	2.01662
509.555	3.83448
512.93	2.97778
516.304	1.19206
519.679	2.38448
523.054	1.42149
526.429	2.13014
529.804	3.35935
533.178	0.770561
536.553	0.336479
539.928	0.59243
543.303	2.43823
546.678	0.028564
550.053	1.11771
553.427	1.37392
556.802	3.06562
560.177	3.51302
563.552	2.22558
566.927	3.45944
570.302	0.090981
573.676	2.54092
577.051	1.69855
580.426	2.715
583.801	4.59767
587.176	2.07026
590.55	4.18752
593.925	5.12187
597.3	3.90701
600.675	4.67826
604.05	7.8502
607.424	6.65144
610.799	3.92298
614.174	5.50504
617.549	5.01774
620.924	4.44028
624.298	4.76295
627.673	1.22887
631.048	4.99284
634.423	4.62844
637.798	6.62547
641.173	4.80094
644.547	3.03268
647.922	2.43774
651.297	0.477882
654.672	1.68047
658.047	0.967644
661.421	0.554092
664.796	1.67561
668.171	2.60254
671.546	2.25714
674.921	4.60756
678.295	3.79208
681.67	3.53767
685.045	2.07097
688.42	7.82132
691.795	14.9825
695.17	36.449
698.544	148.869
701.919	231.736
705.294	251.683
708.669	290.963
712.044	495.064
715.418	475.259
718.793	93.0479
722.168	26.4452
725.543	9.96228
728.918	4.44254
732.293	3.45541
735.667	1.55224
739.042	2.19892
742.417	0.20858
745.792	1.90078
749.167	0.920738
752.541	0.337067
755.916	0.841965
759.291	0.216843
762.666	0.965553
766.041	1.83256
769.415	3.06512
772.79	0.920143
776.165	2.04569
779.54	3.60382
782.915	2.35497
786.29	2.28059
789.664	3.4932
793.039	2.77984
796.414	1.06795
799.789	3.18778
803.164	3.50658
806.538	4.1176
809.913	4.73187
813.288	5.54669
816.663	6.01401
820.038	7.79207
823.413	8.16003
826.787	8.93967
830.162	6.61105
833.537	6.5584
836.912	5.63774
840.287	10.3665
843.661	9.3142
847.036	8.84126
850.411	7.45028
853.786	6.8483
857.161	7.43391
860.535	6.09784
863.91	4.48421
867.285	5.08289
870.66	4.57967
874.035	2.43441
877.409	2.16899
880.784	1.8469
884.159	2.50979
887.534	1.9915
890.909	0.80159
894.284	1.69243
897.658	0.333771
901.033	2.03043
904.408	1.2746
907.783	0.10006
911.158	1.20315
914.533	0.003708
917.907	3.6716
921.282	2.09991
924.657	2.79247
928.032	2.80603
931.407	3.7802
934.781	3.03608
938.156	5.14495
941.531	2.61473
944.906	4.62202
948.281	2.23092
951.655	2.7819
955.03	0.29464
958.405	1.16253
961.78	0.80217
965.155	1.23856
968.529	1.25337
971.904	0.356003
975.279	0.237854
978.654	1.05379
982.029	3.23637
985.404	0.213669
988.778	0.821426
992.153	3.06062
995.528	3.54527
998.903	5.29151
1002.28	7.45146
1005.65	10.6148
1009.03	11.3547
1012.4	17.8347
1015.78	18.207
1019.15	18.4073
1022.53	14.8109
1025.9	12.5453
1029.28	12.4893
1032.65	9.94851
1036.03	6.28046
1039.4	6.4144
1042.78	6.9652
1046.15	8.54163
1049.53	9.44967
1052.9	9.58273
1056.28	16.2429
1059.65	19.1063
1063.02	35.7272
1066.4	93.2791
1069.77	112.331
1073.15	142.556
1076.52	549.276
1079.9	927.553
1083.27	2546.99
1086.65	11538.8
1090.02	5827.97
1093.4	565.242
1096.77	159.525
1100.15	76.2048
1103.52	43.3934
1106.9	30.3405
1110.27	27.3755
1113.65	22.8565
1117.02	18.9139
1120.4	13.8727
1123.77	10.3787
1127.15	8.78949
1130.52	8.49177
1133.9	7.77741
1137.27	6.21838
1140.64	4.06577
1144.02	1.31796
1147.39	2.03208
1150.77	0.704697
1154.14	1.0378
1157.52	0.592804
1160.89	1.07491
1164.27	2.68147
1167.64	3.79755
1171.02	0.528442
1174.39	0.649628
1177.77	0.204224
1181.14	4.99756
1184.52	7.1904
1187.89	9.46083
1191.27	14.0163
1194.64	21.2922
1198.02	24.4199
1201.39	38.8245
1204.77	46.6369
1208.14	65.1622
1211.52	83.8272
1214.89	102.895
1218.27	127.777
1221.64	152.167
1225.02	170.655
1228.39	192.703
1231.77	198.564
1235.14	196.971
1238.52	183.886
1241.89	162.646
1245.26	138.898
1248.64	107.355
1252.01	86.24
1255.39	59.8119
1258.76	43.2666
1262.14	27.1035
1265.51	16.2937
1268.89	4.60489
1272.26	0.641388
1275.64	0.692078
1279.01	0.049469
1282.39	1.68411
