Measurement: Raman, 532 nm, unoriented, Raman Data Processed
Mineral: Calcite
Rruff sample: R050127
Ideal chemistry: CaCO_3_
Locality: Rodeo, Durango, Mexico
Source: Dave Bunk Minerals
Description: Group of colorless crystals
Measured chemistry: Ca_1.00_CO_3_
Raman shift (cm-1)	intensity
129.985	0
133.36	63.3596
136.735	416.175
140.11	730.943
143.484	975.779
146.859	1317.45
150.234	1887.86
153.609	3043.34
156.984	3634.77
160.359	1530.49
163.733	570.906
167.108	248.482
170.483	123.811
173.858	56.1313
177.233	12.6053
180.607	6.79425
183.982	11.0062
187.357	22.2646
190.732	21.371
194.107	19.5458
197.482	9.45114
200.856	1.44037
204.231	13.1029
207.606	21.5574
210.981	38.9055
214.356	50.4582
217.73	53.3787
221.105	76.4365
224.48	93.4486
227.855	115.966
231.23	147.395
234.605	198.087
237.979	260.731
241.354	342.037
244.729	434.266
248.104	574.512
251.479	788.457
254.853	1119.44
258.228	1676.87
261.603	2646.33
264.978	4037.05
268.353	5292.9
271.727	6522.26
275.102	8065.97
278.477	10179.6
281.852	11812.2
285.227	8971.02
288.601	4550.67
291.976	2324.74
295.351	1327
298.726	831.292
302.101	559.737
305.476	392.823
308.85	274.257
312.225	195.17
315.6	139.379
318.975	98.3468
322.35	70.2908
325.724	42.1071
329.099	23.5104
332.474	13.3135
335.849	6.86996
339.224	3.59366
342.599	1.78751
345.973	8.61011
349.348	5.03864
352.723	6.55829
356.098	10.773
359.473	4.03705
362.848	1.85596
366.222	2.32202
369.597	0.672424
372.972	1.12814
376.347	8.71701
379.721	4.46445
383.096	3.16795
386.471	4.59624
389.846	2.10913
393.221	10.1077
396.596	5.43698
399.97	6.32065
403.345	11.2123
406.72	11.1206
410.095	12.0615
413.47	15.2963
416.844	14.5769
420.219	8.79753
423.594	14.6288
426.969	15.5141
430.344	14.3711
433.719	17.2613
437.093	11.7932
440.468	17.6739
443.843	13.1503
447.218	14.4609
450.593	9.48918
453.967	11.076
457.342	4.99356
460.717	5.4216
464.092	8.37021
467.467	6.29402
470.842	8.395
474.216	6.03485
477.591	6.78923
480.966	5.41772
484.341	12.1512
487.716	7.17708
491.091	5.65546
494.465	1.51883
497.84	5.13986
501.215	9.70456
504.59	9.19348
507.964	2.88176
511.339	7.8331
514.714	5.49751
518.089	5.29057
521.464	4.27747
524.839	6.5766
528.213	3.41905
531.588	11.8799
534.963	5.53224
538.338	3.29413
541.713	1.07237
545.087	5.64015
548.462	5.46887
551.837	4.86783
555.212	3.00502
558.587	0.956619
561.962	3.36621
565.336	0.93399
568.711	4.19627
572.086	0.868362
575.461	4.17772
578.836	2.8679
582.21	1.0733
585.585	3.80367
588.96	6.94669
592.335	5.08499
595.71	0.794067
599.085	6.79173
602.459	6.49559
605.834	6.1053
609.209	10.7672
612.584	3.25345
615.959	8.4991
619.333	7.40459
622.708	9.72101
626.083	7.54782
629.458	6.78685
632.833	1.44473
636.207	1.23505
639.582	1.58795
642.957	1.49945
646.332	1.94502
649.707	0.167419
653.082	4.1208
656.456	1.28328
659.831	4.89192
663.206	0.846725
666.581	3.67178
669.956	0.014954
673.33	4.36289
676.705	6.39041
680.08	8.81428
683.455	13.1395
686.83	21.279
690.205	39.7154
693.579	84.7125
696.954	289.262
700.329	665.706
703.704	881.817
707.079	1391.56
710.453	2670.81
713.828	3837.58
717.203	848.948
720.578	218.085
723.953	96.4408
727.327	56.9704
730.702	31.4123
734.077	20.1561
737.452	16.1592
740.827	8.40239
744.202	6.79634
747.576	3.8759
750.951	2.60683
754.326	1.84601
757.701	3.95317
761.076	1.56357
764.451	6.03461
767.825	3.73012
771.2	2.56306
774.575	8.19525
777.95	3.71979
781.324	5.44724
784.699	7.56798
788.074	1.18536
791.449	1.22678
794.824	5.33958
798.199	7.65384
801.573	2.59747
804.948	0.361847
808.323	2.16759
811.698	0.600845
815.073	0.202621
818.447	1.36148
821.822	1.06749
825.197	5.21977
828.572	2.86305
831.947	4.88951
835.322	0.927963
838.696	1.51469
842.071	3.03235
845.446	4.25234
848.821	1.13312
852.196	1.84547
855.571	6.00789
858.945	2.61565
862.32	4.00946
865.695	3.04768
869.07	6.62207
872.445	3.4577
875.819	3.66644
879.194	5.22221
882.569	5.45882
885.944	6.81961
889.319	6.59354
892.693	10.5505
896.068	4.41092
899.443	7.29788
902.818	9.59636
906.193	8.9077
909.567	7.04695
912.942	12.503
916.317	12.1427
919.692	13.9589
923.067	19.1975
926.442	13.6468
929.816	18.4282
933.191	17.3919
936.566	10.6899
939.941	17.1819
943.316	11.7725
946.691	6.98045
950.065	8.98567
953.44	3.62381
956.815	4.1622
960.19	2.50565
963.565	2.68091
966.939	2.12772
970.314	4.52316
973.689	5.69162
977.064	1.19019
980.439	2.41745
983.813	0.648743
987.188	7.60586
990.563	10.2284
993.938	11.2578
997.313	24.8229
1000.69	33.6298
1004.06	37.7776
1007.44	49.5894
1010.81	54.7273
1014.19	69.2051
1017.56	65.6707
1020.94	55.1625
1024.31	50.1146
1027.69	45.1802
1031.06	30.5386
1034.44	30.1197
1037.81	30.1912
1041.18	29.2827
1044.56	27.3613
1047.93	35.9935
1051.31	47.5637
1054.68	81.1627
1058.06	125.698
1061.43	177.257
1064.81	334.334
1068.18	658.676
1071.56	825.629
1074.93	4524.01
1078.31	7195.62
1081.68	11457.6
1085.06	29597.7
1088.43	45730.2
1091.81	3386.2
1095.18	890.169
1098.56	414.77
1101.93	245.655
1105.31	154.002
1108.68	95.492
1112.06	69.7973
1115.43	45.3591
1118.81	36.4322
1122.18	23.8942
1125.56	18.6041
1128.93	10.7669
1132.31	8.40152
1135.68	3.37888
1139.06	1.47632
1142.43	2.17416
1145.81	3.49182
1149.18	10.5754
1152.55	5.97217
1155.93	0.967224
1159.3	3.43335
1162.68	0.900513
1166.05	4.07104
1169.43	0.960999
1172.8	6.62482
1176.18	6.79794
1179.55	6.96524
1182.93	3.7504
1186.3	12.4948
1189.68	13.8253
1193.05	10.4782
1196.43	9.83313
1199.8	15.1349
1203.18	10.5366
1206.55	15.8567
1209.93	9.35754
1213.3	9.03888
1216.68	8.73007
1220.05	9.65503
1223.42	11.7151
1226.8	4.37289
1230.17	13.4347
1233.55	11.4588
1236.92	10.3324
1240.3	5.56317
1243.67	8.03586
1247.05	4.99295
1250.42	7.81372
1253.8	9.93781
1257.17	6.79157
1260.55	7.76273
1263.92	1.90976
1267.3	3.48062
1270.67	0.643097
1274.05	4.05185
1277.42	3.38861
1280.8	7.77774
1284.17	5.77698
1287.55	4.69409
1290.92	3.89896
1294.3	4.60794
1297.67	0.992889
1301.05	1.07739
1304.42	1.28201
