Measurement: Raman, 532 nm, unoriented, Raman Data Processed
Mineral: Calcite
Rruff sample: R150020
Ideal chemistry: CaCO_3_
Locality: Creel, Chihuahua, Mexico
Source: Canan D'Avela
Description: Transparent colorless cleavage fragments of Iceland spar obtained through Wards
Measured chemistry: Ca_0.993_CO_3_; trace amount of Sr
Raman shift (cm-1)	intensity
89.7832	0
93.158	3.00695
96.5328	1.45713
99.9077	0.731678
103.282	0.002495
106.657	2.79981
110.032	5.46638
113.407	5.65172
116.782	9.70517
120.157	8.91211
123.531	10.1208
126.906	9.74969
130.281	11.3839
133.656	14.5644
137.031	22.1483
140.405	31.055
143.78	35.5883
147.155	38.4815
150.53	47.2595
153.905	77.0917
157.28	98.1275
160.654	47.1284
164.029	20.8102
167.404	11.2212
170.779	7.79556
174.154	6.87676
177.528	3.5168
180.903	2.35007
184.278	2.08192
187.653	1.50684
191.028	2.2504
194.403	0.899818
197.777	1.0102
201.152	0.796242
204.527	0.764267
207.902	1.24135
211.277	0.056511
214.651	0.01844
218.026	0.546448
221.401	0.936897
224.776	0.734009
228.151	1.99442
231.525	3.10738
234.9	3.98144
238.275	7.78837
241.65	11.9127
245.025	15.7851
248.4	22.0398
251.774	29.1361
255.149	43.7671
258.524	66.6533
261.899	111.743
265.274	182.417
268.649	247.751
272.023	273.538
275.398	273.728
278.773	286.423
282.148	304.833
285.523	232.984
288.897	122.97
292.272	63.6217
295.647	37.2612
299.022	24.4785
302.397	16.0761
305.772	11.3008
309.146	7.5685
312.521	7.01305
315.896	4.86504
319.271	2.71646
322.646	2.21071
326.02	2.15505
329.395	0.452652
332.77	0.215111
336.145	0.952644
339.52	0.339882
342.894	0.782829
346.269	0.631821
349.644	0.180923
353.019	1.41388
356.394	0.771614
359.769	2.56148
363.143	2.39602
366.518	1.65264
369.893	1.8611
373.268	0.008881
376.643	1.2832
380.017	2.50544
383.392	2.06397
386.767	3.07593
390.142	1.20706
393.517	1.33303
396.892	1.85598
400.266	2.87755
403.641	2.19933
407.016	1.1632
410.391	1.4257
413.766	0.659416
417.14	0.358032
420.515	1.82426
423.89	1.95583
427.265	1.35917
430.64	1.82713
434.014	1.74927
437.389	0.88282
440.764	0.730103
444.139	2.56122
447.514	0.870628
450.889	0.622772
454.263	2.04068
457.638	1.03979
461.013	2.3653
464.388	1.52889
467.763	3.05109
471.137	3.78432
474.512	3.38164
477.887	2.37727
481.262	4.4243
484.637	7.94994
488.012	1.50921
491.386	0.130676
494.761	2.26299
498.136	1.13464
501.511	1.44579
504.886	1.36929
508.26	0.694359
511.635	0.566902
515.01	0.647217
518.385	0.526291
521.76	1.02661
525.135	0.707558
528.509	0.337891
531.884	0.064514
535.259	1.54625
538.634	2.50397
542.009	2.42287
545.384	1.89912
548.758	2.39897
552.133	0.810593
555.508	0.647583
558.883	0.020172
562.258	1.78528
565.632	2.46155
569.007	1.91562
572.382	1.22745
575.757	1.72543
579.132	2.66969
582.506	0.407608
585.881	1.11163
589.256	0.993469
592.631	1.92751
596.006	0.204285
599.381	1.73103
602.755	1.79564
606.13	3.20647
609.505	2.61229
612.88	5.19608
616.255	1.64551
619.63	0.274445
623.004	0.105682
626.379	0.565002
629.754	0.268814
633.129	1.62146
636.504	0.593643
639.878	0.809814
643.253	1.01921
646.628	1.44269
650.003	0.70784
653.378	0.249496
656.752	1.73573
660.127	0.730057
663.502	0.02449
666.877	2.14314
670.252	0.403214
673.626	0.818161
677.001	1.35666
680.376	2.39092
683.751	3.54077
687.126	3.39267
690.501	3.79207
693.875	6.2213
697.25	18.4173
700.625	70.7582
704	88.6618
707.375	90.7931
710.75	141.348
714.124	265.089
717.499	54.4953
720.874	15.4961
724.249	7.54387
727.624	3.91228
730.998	2.70503
734.373	2.31232
737.748	1.79193
741.123	2.72151
744.498	2.12822
747.872	1.3223
751.247	2.05852
754.622	0.621353
757.997	0.615463
761.372	1.02449
764.747	0.836197
768.121	1.60774
771.496	0.057358
774.871	1.65924
778.246	1.49887
781.621	0.872498
784.995	2.49406
788.37	1.59126
791.745	1.45381
795.12	0.990326
798.495	1.33623
801.87	1.13942
805.244	3.4919
808.619	3.35944
811.994	1.6687
815.369	3.19365
818.744	2.04611
822.119	0.60025
825.493	2.24518
828.868	0.604843
832.243	1.78702
835.618	0.086746
838.993	1.04421
842.367	3.02985
845.742	3.08067
849.117	1.58205
852.492	1.15335
855.867	1.60461
859.241	1.93095
862.616	1.24921
865.991	2.05818
869.366	2.16759
872.741	2.65581
876.115	2.43175
879.49	1.63371
882.865	2.54228
886.24	1.05374
889.615	1.61697
892.99	3.42296
896.364	2.8226
899.739	3.35681
903.114	2.65178
906.489	3.62866
909.864	2.38383
913.239	0.521027
916.613	2.77242
919.988	3.16289
923.363	1.41281
926.738	1.21521
930.113	0.955627
933.487	2.0018
936.862	2.36929
940.237	4.16028
943.612	0.42807
946.987	1.05618
950.361	1.85242
953.736	2.22766
957.111	1.91299
960.486	0.096832
963.861	1.18024
967.236	1.69589
970.61	0.505554
973.985	0.521484
977.36	1.30817
980.735	1.20142
984.11	1.34909
987.485	2.78931
990.859	2.00793
994.234	0.131775
997.609	0.026428
1000.98	0.429077
1004.36	1.91715
1007.73	1.24127
1011.11	4.49332
1014.48	3.74841
1017.86	5.18387
1021.23	4.95282
1024.61	2.46225
1027.98	2.25046
1031.36	2.60175
1034.73	1.73312
1038.11	3.53378
1041.48	3.39716
1044.86	2.18512
1048.23	3.46136
1051.61	2.60583
1054.98	6.05734
1058.36	7.65149
1061.73	10.0551
1065.11	14.0195
1068.48	43.2349
1071.86	25.8906
1075.23	66.0069
1078.6	192.583
1081.98	395.759
1085.35	1541.62
1088.73	3630.72
1092.1	396.026
1095.48	67.7162
1098.85	26.4007
1102.23	14.9111
1105.6	9.32547
1108.98	6.405
1112.35	5.91568
1115.73	1.20425
1119.1	3.89471
1122.48	1.52768
1125.85	0.510315
1129.23	2.47473
1132.6	1.03342
1135.98	0.75647
1139.35	0.63208
1142.73	2.0459
1146.1	1.4415
1149.48	1.10217
1152.85	3.7753
1156.22	2.43466
1159.6	2.12283
1162.97	2.31345
1166.35	2.27899
1169.72	0.072784
1173.1	2.81955
1176.47	3.37628
1179.85	2.65185
1183.22	3.78772
1186.6	3.80924
1189.97	4.40414
1193.35	3.63089
1196.72	4.76352
1200.1	0.613434
1203.47	4.49777
1206.85	4.09146
1210.22	1.03397
1213.6	1.332
1216.97	3.59006
1220.35	0.673859
1223.72	2.3476
1227.1	2.91168
1230.47	1.23572
1233.85	1.91937
1237.22	1.90088
1240.6	1.95398
1243.97	3.28696
1247.35	3.51593
1250.72	4.41745
1254.1	3.2381
1257.47	2.55798
1260.85	1.68622
1264.22	0.58017
1267.59	1.81149
1270.97	4.22632
1274.34	3.47925
1277.72	0.738953
1281.09	1.73477
1284.47	2.92346
1287.84	2.71765
1291.22	2.28155
1294.59	2.31436
1297.97	1.56161
1301.34	0.010529
