Measurement: Raman, 785 nm, unoriented, Raman Data Processed
Mineral: Calcite
Rruff sample: R040170
Ideal chemistry: CaCO_3_
Locality: Peramea, Lerida Province, Catalonia, Spain
Source: University of Arizona Mineral Museum
Description: Pink fragment
Measured chemistry: (Ca_0.99_Mg_0.01_)CO_3_; trace amounts of Co
Raman shift (cm-1)	intensity
81.0037	0
84.3785	7.108
87.7534	13.3611
91.1282	26.9149
94.503	35.9732
97.8778	36.9182
101.253	59.8057
104.627	62.3716
108.002	44.4713
111.377	33.9086
114.752	10.6521
118.127	7.61993
121.501	9.75444
124.876	6.77536
128.251	1.04976
131.626	35.9525
135.001	66.6856
138.376	115.499
141.75	205.38
145.125	336.028
148.5	526.287
151.875	738.294
155.25	758.882
158.625	539.59
161.999	366.671
165.374	265.226
168.749	208.651
172.124	178.985
175.499	153.571
178.873	121.354
182.248	107.758
185.623	72.3966
188.998	76.2107
192.373	64.0879
195.748	60.7093
199.122	58.5949
202.497	35.7182
205.872	33.2586
209.247	15.431
212.622	19.7732
215.996	26.1515
219.371	4.10095
222.746	4.69995
226.121	17.5076
229.496	19.7682
232.87	9.16003
236.245	32.0771
239.62	37.4565
242.995	78.9891
246.37	113.809
249.745	149.052
253.119	224.899
256.494	331.233
259.869	461.448
263.244	682.846
266.619	964.679
269.993	1326.88
273.368	1726.17
276.743	2254.34
280.118	2493.22
283.493	2168.49
286.868	1486.14
290.242	939.18
293.617	584.072
296.992	402.801
300.367	241.981
303.742	192.146
307.116	133.617
310.491	80.9257
313.866	61.2834
317.241	54.3419
320.616	42.1133
323.99	18.2856
327.365	21.4914
330.74	13.7391
334.115	0.07309
337.49	0.811584
340.865	13.7542
344.239	5.39212
347.614	12.9239
350.989	2.30109
354.364	19.2602
357.739	5.9509
361.113	9.84827
364.488	8.59375
367.863	20.2532
371.238	17.3909
374.613	13.4187
377.988	28.3495
381.362	1.57754
384.737	29.4452
388.112	17.2535
391.487	17.3311
394.862	19.5956
398.236	20.6392
401.611	20.6632
404.986	25.0025
408.361	14.5619
411.736	9.46481
415.111	21.2634
418.485	21.6512
421.86	18.9299
425.235	24.7314
428.61	16.7848
431.985	23.9108
435.36	21.6858
438.734	25.7871
442.109	31.4515
445.484	25.8101
448.859	24.1546
452.234	25.2319
455.608	14.5955
458.983	11.1188
462.358	15.7176
465.733	8.90088
469.108	12.0456
472.483	12.4145
475.857	5.76791
479.232	18.5305
482.607	0.1203
485.982	17.9348
489.356	12.3981
492.731	19.0752
496.106	2.58441
499.481	32.4218
502.856	21.869
506.231	29.2241
509.605	40.1121
512.98	19.5188
516.355	33.9303
519.73	10.2122
523.105	15.33
526.48	4.4455
529.854	2.39594
533.229	5.78821
536.604	21.4862
539.979	11.2428
543.354	6.034
546.729	9.86832
550.103	2.013
553.478	14.1866
556.853	12.6595
560.228	6.53406
563.602	3.22623
566.977	5.98834
570.352	0.208466
573.727	14.4575
577.102	12.0627
580.477	11.2043
583.851	10.0528
587.226	10.6959
590.601	12.1995
593.976	12.7085
597.351	19.2443
600.726	28.8178
604.1	18.1829
607.475	16.549
610.85	24.0689
614.225	32.9903
617.6	24.5721
620.974	15.0131
624.349	17.3694
627.724	19.5096
631.099	23.6789
634.474	14.2943
637.848	3.07587
641.223	8.1427
644.598	3.86908
647.973	5.14551
651.348	4.37167
654.722	14.1395
658.097	15.783
661.472	1.12137
664.847	14.459
668.222	10.7987
671.597	23.0807
674.971	9.00345
678.346	15.1117
681.721	9.53741
685.096	20.1083
688.471	33.6949
691.846	57.2867
695.22	80.7449
698.595	162.213
701.97	327.457
705.345	561.811
708.72	985.136
712.094	1409.42
715.469	818.602
718.844	300.089
722.219	135.099
725.594	63.989
728.968	56.7179
732.343	42.0262
735.718	17.6523
739.093	0.765991
742.468	20.7088
745.843	17.4005
749.217	19.4801
752.592	6.83865
755.967	15.5601
759.342	2.67017
762.717	6.9061
766.091	3.57083
769.466	5.92114
772.841	0.867249
776.216	18.4318
779.591	2.69983
782.966	8.6503
786.34	8.77567
789.715	0.577362
793.09	3.60684
796.465	12.1882
799.84	15.88
803.215	0.416595
806.589	20.1383
809.964	16.2492
813.339	14.7969
816.714	9.25134
820.089	3.8681
823.463	0.387909
826.838	6.89105
830.213	10.4029
833.588	19.2845
836.963	6.96756
840.337	11.2199
843.712	23.5879
847.087	18.5313
850.462	14.8761
853.837	31.43
857.212	24.1352
860.586	20.2057
863.961	23.2606
867.336	13.0991
870.711	3.99676
874.086	26.1033
877.46	11.3142
880.835	31.7472
884.21	0.928802
887.585	13.1313
890.96	11.9043
894.335	2.86859
897.709	10.2431
901.084	17.0481
904.459	15.8761
907.834	21.1366
911.209	12.4962
914.583	20.7228
917.958	16.3934
921.333	2.57831
924.708	8.60297
928.083	10.6322
931.457	9.89694
934.832	16.6959
938.207	5.43149
941.582	11.0576
944.957	12.3213
948.332	25.4013
951.706	4.37155
955.081	2.1943
958.456	2.10757
961.831	11.0793
965.206	4.44498
968.581	3.87488
971.955	3.2204
975.33	5.42117
978.705	8.27286
982.08	13.3867
985.455	10.0225
988.829	34.3767
992.204	48.3511
995.579	67.5711
998.954	94.3722
1002.33	123.978
1005.7	156.659
1009.08	192.939
1012.45	221.721
1015.83	262.001
1019.2	195.395
1022.58	81.3816
1025.95	12.7877
1029.33	26.3227
1032.7	7.71432
1036.08	11.8504
1039.45	4.71234
1042.83	17.6348
1046.2	25.1454
1049.58	4.52734
1052.95	14.7531
1056.33	11.6354
1059.7	64.1564
1063.08	107.056
1066.45	196.369
1069.83	324.302
1073.2	682.716
1076.58	1909.13
1079.95	4362.71
1083.32	8740.58
1086.7	11875.5
1090.07	4462.07
1093.45	1135.05
1096.82	334.538
1100.2	137.082
1103.57	50.9651
1106.95	33.8991
1110.32	26.0709
1113.7	9.99793
1117.07	0.818085
1120.45	0.259064
1123.82	1.75006
1127.2	20.0564
1130.57	11.8529
1133.95	14.3631
1137.32	1.42618
1140.7	16.0385
1144.07	19.6135
1147.45	4.21303
1150.82	6.22044
1154.19	8.91669
1157.57	8.45833
1160.94	10.5345
1164.32	11.9964
1167.69	7.90726
1171.07	2.99927
1174.44	11.2106
1177.82	19.0146
1181.19	7.72214
1184.57	10.1358
1187.94	13.5086
1191.32	1.92281
1194.69	5.21599
1198.07	15.5807
1201.44	12.0653
1204.82	16.9912
1208.19	14.3585
1211.57	14.3397
1214.94	8.99841
1218.32	28.4209
1221.69	15.2817
1225.07	9.30205
1228.44	17.3198
1231.82	13.3185
1235.19	4.89059
1238.57	1.07532
