Measurement: Raman, 532 nm, unoriented, Raman Data Processed
Mineral: Calciouranoite
Rruff sample: R070022
Ideal chemistry: (Ca,Ba,Pb,K,Na)U_2_O_7_5H_2_O
Locality: Oktyabr'skoye Mo-U deposit,  east Transbaikal region, Russia
Source: Michael Scott
Description: Cryptocrystalline looking, greasy yellow blotches, amorphous
Raman shift (cm-1)	intensity
162.235	0
165.128	21.8438
168.02	371.734
170.913	595.797
173.806	694.856
176.699	812.883
179.591	1086.36
182.484	1101.81
185.377	1644.53
188.269	2224.16
191.162	2563.23
194.055	3014.04
196.947	3451.42
199.84	4015.02
202.733	4077.83
205.625	3984.68
208.518	3888.91
211.411	3623.37
214.304	3194.81
217.196	2624.33
220.089	2298.12
222.982	1781.78
225.874	1354.32
228.767	922.32
231.66	627.769
234.553	616.992
237.445	258.625
240.338	173.633
243.231	247.172
246.123	186.18
249.016	147.43
251.909	271.469
254.801	168.836
257.694	241.367
260.587	317.934
263.479	625.84
266.372	516.852
269.265	643.152
272.158	523.422
275.05	591.781
277.943	699.617
280.836	588.644
283.728	715.777
286.621	602.809
289.514	752.762
292.406	873.098
295.299	689.125
298.192	803.449
301.084	840.238
303.977	945.863
306.87	788.074
309.763	525.363
312.655	529.273
315.548	591.492
318.441	610.762
321.333	321.25
324.226	299.801
327.119	278.867
330.012	23.4336
332.904	158.82
335.797	74.4414
338.69	71.4844
341.582	211.758
344.475	21.7852
347.368	70.8633
350.26	38.0977
353.153	72.3203
356.046	145.32
358.938	255.949
361.831	142.801
364.724	593.25
367.617	477.781
370.509	666.141
373.402	698.176
376.295	913.91
379.187	885.695
382.08	1163.1
384.973	1167.02
387.865	1194.75
390.758	1151.33
393.651	1103.28
396.543	1063.33
399.436	1058.88
402.329	834.75
405.222	682.516
408.114	597.852
411.007	358.406
413.9	373.555
416.792	446.031
419.685	216.086
422.578	215.984
425.471	20.9531
428.363	138.445
431.256	42.7031
434.149	51.4688
437.041	162.281
439.934	64.8281
442.827	68.375
445.719	181.539
448.612	248.328
451.505	323.719
454.397	213.188
457.29	411.25
460.183	469.075
463.076	501.743
465.968	537.959
468.861	531.107
471.754	523.318
474.646	562.92
477.539	555.212
480.432	467.344
483.324	342.023
486.217	545.102
489.11	239.18
492.002	6.03125
494.895	124.281
497.788	304.117
500.681	98.7656
503.573	18.4766
506.466	21.5156
509.359	84.6719
512.251	21.0391
515.144	32.7656
518.037	257.969
520.929	70.8203
523.822	292.773
526.715	269.648
529.608	374.141
532.5	575.586
535.393	676.719
538.286	826.828
541.178	935.734
544.071	981.25
546.964	887.898
549.856	724.672
552.749	427.727
555.642	534.477
558.534	295.609
561.427	535.062
564.32	405
567.213	145.258
570.105	143.914
572.998	159.062
575.891	163.086
578.783	171.047
581.676	112.562
584.569	170.422
587.462	101
590.354	184.562
593.247	7.36719
596.14	273.109
599.032	74.3906
601.925	348.43
604.818	91.4141
607.71	154.742
610.603	77.8125
613.496	177.812
616.389	103.625
619.281	174.398
622.174	336.727
625.067	282.328
627.959	309.734
630.852	679.375
633.745	382.969
636.637	481.867
639.53	278.398
642.423	544.297
645.316	261.242
648.208	472.125
651.101	670.734
653.994	607.586
656.886	619.195
659.779	687.844
662.672	537.211
665.564	711.523
668.457	688.789
671.35	506.359
674.242	360.477
677.135	347.008
680.028	338.625
682.92	260.758
685.813	268.469
688.706	123.898
691.599	27.6328
694.491	102.727
697.384	291.734
700.277	199.562
703.169	136.906
706.062	3.125
708.955	140.242
711.847	153.398
714.74	193.539
717.633	87.2578
720.526	206.898
723.418	26.7188
726.311	67.5312
729.204	405.906
732.096	463.375
734.989	641.273
737.882	567.383
740.774	897.203
743.667	1384.93
746.56	1574.95
749.453	2030.33
752.345	2777.94
755.238	3477.73
758.131	4203.88
761.023	4916.53
763.916	5801.21
766.809	7207.78
769.701	8466.08
772.594	9898.66
775.487	11727.5
778.38	13775
781.272	16175.2
784.165	18876.6
787.058	21107
789.95	23428
792.843	24313.6
795.736	24453.6
798.628	22878.7
801.521	20075.4
804.414	16844.3
807.307	13635.4
810.199	10858.4
813.092	8859.58
815.985	7130.99
818.877	5722.28
821.77	4788.2
824.663	3816.3
827.555	2908.34
830.448	2585.24
833.341	1735.84
836.234	1614.94
839.126	1205.21
842.019	950.688
844.912	537.109
847.804	543.992
850.697	102.641
853.59	81.2891
856.482	54.8203
859.375	39.5391
862.268	47.0312
865.16	157.68
868.053	35.1802
870.946	87.7768
873.838	216.289
876.731	143.539
879.624	43.3125
882.517	112.203
885.409	154.203
888.302	47.0703
891.195	42.2344
894.087	68.1641
896.98	87.3359
899.873	123.633
902.765	251.008
905.658	208.164
908.551	116.383
911.443	258.953
914.336	342.089
917.229	620.312
920.122	612.586
923.014	704.95
925.907	849.347
928.8	977.516
931.692	1313.45
934.585	1524.58
937.478	1876.09
940.37	1888.27
943.263	2472
946.156	2820.56
949.049	3111.31
951.941	3407.02
954.834	3928.26
957.727	4363.55
960.619	4444.94
963.512	4628.97
966.405	4321.64
969.298	3477.54
972.19	2933.23
975.083	2417.8
977.976	1961.48
980.868	1758.63
983.761	1467.94
986.654	1134.34
989.546	1067.56
992.439	622.836
995.332	967.336
998.225	745.047
1001.12	595.008
1004.01	503.617
1006.9	185.445
1009.79	391.211
1012.69	83.125
1015.58	34.25
1018.47	295.109
1021.37	143.602
1024.26	158.352
1027.15	418.75
1030.04	194.469
1032.94	156.859
1035.83	242.461
1038.72	108.633
1041.62	375.711
1044.51	143.617
1047.4	110.062
1050.29	267.414
1053.19	50.5
1056.08	207.586
1058.97	161.523
1061.86	368.547
1064.76	348.844
1067.65	20.5625
1070.54	230.016
1073.43	202.078
1076.33	452.531
1079.22	422.109
1082.11	372.484
1085.01	310.75
1087.9	379.914
1090.79	445.562
1093.68	420.734
1096.58	239.305
1099.47	227.195
1102.36	163.891
1105.25	82.8125
1108.15	480.914
1111.04	228.289
1113.93	58.9531
1116.83	358.734
1119.72	75.7344
1122.61	35.0078
1125.5	192.25
1128.4	369.055
1131.29	67.0938
1134.18	344.047
1137.07	47.1797
1139.97	297.953
1142.86	215.727
1145.75	430.25
1148.64	325.484
1151.54	631.094
1154.43	319.625
1157.32	22.8203
1160.21	313.305
1163.11	229.961
1166	260.453
1168.89	337.727
1171.79	143.656
1174.68	146.734
1177.57	219.609
1180.46	2.14844
1183.36	67.9922
1186.25	198.25
1189.14	190.289
1192.04	38.4531
1194.93	268.648
1197.82	113.734
1200.71	85.2969
1203.61	61.9609
1206.5	387.203
1209.39	241.188
1212.28	45.3516
1215.18	199.188
1218.07	170.023
1220.96	288.852
1223.86	173.461
1226.75	65.9297
1229.64	102.969
1232.53	46.7031
1235.43	40.2422
1238.32	369.758
1241.21	167.672
1244.1	264.734
1247	162.531
1249.89	108.773
1252.78	77.2734
1255.67	204.008
1258.57	122.234
1261.46	107.852
1264.35	385.773
1267.24	312.109
1270.14	130.727
1273.03	287.203
1275.92	490.359
1278.82	586.156
1281.71	411.922
1284.6	375.508
1287.49	547.211
1290.39	253.531
1293.28	374.852
1296.17	149.203
1299.07	277.391
1301.96	13.9141
