Measurement: Raman, 785 nm, unoriented, Raman Data Processed
Mineral: Calciouranoite
Rruff sample: R070022
Ideal chemistry: (Ca,Ba,Pb,K,Na)U_2_O_7_5H_2_O
Locality: Oktyabr'skoye Mo-U deposit,  east Transbaikal region, Russia
Source: Michael Scott
Description: Cryptocrystalline looking, greasy yellow blotches, amorphous
Raman shift (cm-1)	intensity
194.591	0
197.484	236.033
200.377	840.973
203.27	1291.97
206.162	1535.66
209.055	1494.05
211.948	1388.84
214.84	1001.12
217.733	1113.47
220.626	796.438
223.518	725.898
226.411	385.623
229.304	207.309
232.197	32.5645
235.089	97.0391
237.982	45.5547
240.875	86.7519
243.767	8.42383
246.66	196.32
249.553	140.654
252.446	48.8828
255.338	269.727
258.231	506.022
261.124	507.397
264.016	621.873
266.909	546.586
269.802	661.039
272.694	684.016
275.587	848.287
278.48	764.576
281.373	925.469
284.265	960.32
287.158	1063.42
290.051	1049.42
292.943	885.186
295.836	814.578
298.729	688.254
301.621	809.098
304.514	836.562
307.407	748.227
310.3	755.107
313.192	696.539
316.085	545.838
318.978	520.695
321.87	511.008
324.763	341.076
327.656	224.932
330.548	276.305
333.441	248.582
336.334	135.434
339.226	77.5547
342.119	102.938
345.012	146.471
347.905	1.25586
350.797	74.6582
353.69	3.4375
356.583	80.7852
359.475	70.0898
362.368	79.6035
365.261	203.822
368.154	242.1
371.046	372.908
373.939	387.201
376.832	523.59
379.724	461.668
382.617	456.695
385.51	520.336
388.402	496.865
391.295	521.334
394.188	658.652
397.08	627.203
399.973	522.535
402.866	401.736
405.759	360.566
408.651	235.272
411.544	200.197
414.437	342.994
417.329	203.644
420.222	133.418
423.115	163.502
426.007	2.49609
428.9	85.7519
431.793	5.5957
434.686	108.814
437.578	7.29688
440.471	8.40625
443.364	73.0527
446.256	85.3438
449.149	99.4043
452.042	133.76
454.935	264.381
457.827	356.725
460.72	461.045
463.613	507.744
466.505	602.451
469.398	580.09
472.291	531.512
475.183	430.658
478.076	521.602
480.969	301.037
483.861	236.773
486.754	230.781
489.647	205.58
492.54	137.25
495.432	132.287
498.325	87.6191
501.218	12.5449
504.111	21.0996
507.003	5.89453
509.896	19.4102
512.789	20.1875
515.681	163.018
518.574	93.9434
521.467	209.746
524.359	116.311
527.252	158.115
530.145	185.412
533.038	357.565
535.93	349.531
538.823	435.81
541.716	531.697
544.608	553.961
547.501	364.545
550.394	427.672
553.286	176.908
556.179	130.602
559.072	223.217
561.965	218.394
564.857	59.4023
567.75	152.502
570.643	73.0117
573.535	65.9863
576.428	8.9082
579.321	51.5645
582.213	156.045
585.106	117.848
587.999	61.3652
590.891	17.709
593.784	56.6055
596.677	38.5977
599.57	85.2598
602.462	198.381
605.355	140.815
608.248	90.3496
611.14	142.072
614.033	55.6738
616.926	80.9805
619.818	12.6465
622.711	106.211
625.604	94.8652
628.497	150.385
631.389	136.662
634.282	138.717
637.175	83.0117
640.067	159.193
642.96	172.205
645.853	63.8438
648.745	351.037
651.638	198.109
654.531	61.3965
657.424	207.254
660.316	101.553
663.209	131.482
666.102	136.035
668.994	84.9023
671.887	128.65
674.78	226.1
677.673	36.709
680.565	73.1387
683.458	150.106
686.351	92.7188
689.243	109.07
692.136	31.9551
695.029	32.7676
697.921	19.5879
700.814	8.83008
703.707	82.1641
706.6	47.1895
709.492	11.3398
712.385	89.3809
715.278	144.176
718.17	80.2773
721.063	51.8535
723.956	51.7266
726.848	18.6133
729.741	31.1328
732.634	58.3926
735.527	56.1211
738.419	127.684
741.312	370.824
744.205	490.69
747.097	714.428
749.99	869.713
752.883	1108.17
755.775	1323.08
758.668	1702.4
761.561	2294.75
764.454	2724.23
767.346	3315
770.239	4140.42
773.132	4881.26
776.024	5911.9
778.917	7231.74
781.81	8605.76
784.702	10522.5
787.595	12458.6
790.488	14452.3
793.381	15968.7
796.273	16457.8
799.166	16042.5
802.059	14471.6
804.951	12072.4
807.844	9485.73
810.737	7457.86
813.63	5828.27
816.522	4390.93
819.415	3393.42
822.308	2856.52
825.2	2219.8
828.093	1715.98
830.986	1426.14
833.878	1074
836.771	885.158
839.664	701.064
842.557	506.111
845.449	263.518
848.342	209.658
851.235	158.543
854.127	3.62305
857.02	19.9473
859.913	93.4922
862.805	45.3828
865.698	63.2344
868.591	37.5566
871.484	62.2168
874.376	3.3418
877.269	62.1895
880.162	6.75391
883.054	53.0352
885.947	47.9102
888.84	22.2969
891.732	0.625
894.625	6.67773
897.518	14.8652
900.41	3.375
903.303	41.5059
906.196	153.805
909.089	52.4746
911.981	25.6055
914.874	101.711
917.767	143.357
920.659	244.775
923.552	227.834
926.445	337.379
929.337	299.732
932.23	502.019
935.123	640.092
938.016	611.744
940.908	754.481
943.801	820.783
946.694	1048.82
949.586	1185.47
952.479	1323.82
955.372	1499.34
958.264	1626.24
961.157	1677.33
964.05	1634.02
966.943	1483.38
969.835	1282.31
972.728	1029.38
975.621	751.457
978.513	637.396
981.406	529.324
984.299	456.324
987.192	363.94
990.084	259.254
992.977	181.315
995.87	178.812
998.762	136.621
1001.65	209.113
1004.55	100.506
1007.44	186.057
1010.33	27.5332
1013.23	70.3809
1016.12	6.87695
1019.01	41.9941
1021.9	85.9551
1024.8	48.9805
1027.69	118.234
1030.58	12.293
1033.47	5.52734
1036.37	57.4785
1039.26	40.3223
1042.15	91.4629
1045.05	38.9102
1047.94	42.4922
1050.83	41.1797
1053.72	72.3594
1056.62	41.7129
1059.51	160.078
1062.4	151.865
1065.29	123.182
1068.19	96.7812
1071.08	162.578
1073.97	242.082
1076.87	211.266
1079.76	213.488
1082.65	218.498
1085.54	166.999
1088.44	225.917
1091.33	117.835
1094.22	183.759
1097.11	113.712
1100.01	62.6885
1102.9	143.47
1105.79	149.895
1108.68	174.498
1111.58	140.255
1114.47	145.783
1117.36	76.8506
1120.26	87.1621
1123.15	4.14648
1126.04	137.811
1128.93	51.2353
1131.83	31.9277
1134.72	88.3965
1137.61	101.912
1140.51	160.16
1143.4	210.225
1146.29	108.209
1149.18	135.881
1152.08	54.5
1154.97	89.1504
1157.86	4.9541
1160.75	72.5176
1163.65	36.9258
1166.54	11.0312
1169.43	85.2012
1172.32	167.173
1175.22	5.69238
1178.11	10.708
1181	7.12695
1183.89	38.5342
1186.79	34.3008
1189.68	56.8897
1192.57	26.8477
1195.47	108.026
1198.36	14.7031
1201.25	110.019
1204.14	38.9639
1207.04	125.406
1209.93	132.046
1212.82	176.763
1215.71	115.549
1218.61	149.934
1221.5	130.095
1224.39	60.6123
1227.29	157.534
1230.18	82.1904
1233.07	53.5166
1235.96	76.9609
1238.86	8.6084
