Measurement: Raman, 780 nm, unoriented, Raman Data Processed
Mineral: Calcite
Rruff sample: R050307
Ideal chemistry: CaCO_3_
Locality: Zaire
Source: Eugene Schlepp
Description: Group of pink prismatic crystals
Measured chemistry: Ca_1.00_CO_3_
Raman shift (cm-1)	intensity
95.4161	0
98.7909	4.24716
102.166	0.305923
105.541	0.896118
108.915	2.9205
112.29	0.329742
115.665	6.16676
119.04	12.4358
122.415	32.2284
125.79	54.8267
129.164	98.3355
132.539	201.465
135.914	351.094
139.289	456.938
142.664	609.726
146.038	871.33
149.413	1314.8
152.788	2139.76
156.163	2490.55
159.538	1251.28
162.912	502.142
166.287	239.784
169.662	131.349
173.037	83.7273
176.412	48.9408
179.786	32.6826
183.161	17.3928
186.536	9.60104
189.911	2.85467
193.286	0.210236
196.661	2.39128
200.035	1.97278
203.41	2.50343
206.785	0.461533
210.16	0.642242
213.535	2.80197
216.91	2.70381
220.284	7.67384
223.659	13.1296
227.034	19.4398
230.409	27.5965
233.784	37.4764
237.158	53.9062
240.533	72.204
243.908	104.02
247.283	140.662
250.658	196.548
254.032	285.929
257.407	424.113
260.782	647.459
264.157	923.129
267.532	1190.48
270.907	1548.86
274.281	2047.78
277.656	2760.95
281.031	3383.62
284.406	2821.39
287.781	1561.41
291.156	793.002
294.53	442.175
297.905	273.212
301.28	181.017
304.655	122.532
308.03	82.9922
311.404	59.7294
314.779	42.7422
318.154	30.2392
321.529	23.0217
324.904	14.2916
328.279	6.2994
331.653	2.59582
335.028	1.90178
338.403	1.0796
341.778	0.58387
345.152	1.49982
348.527	3.3864
351.902	2.08677
355.277	1.23052
358.652	0.623314
362.027	0.721634
365.401	0.366508
368.776	0.596283
372.151	4.74843
375.526	1.66098
378.901	3.94273
382.276	1.76199
385.65	0.936966
389.025	3.68145
392.4	1.26988
395.775	4.57988
399.15	3.61463
402.524	3.01585
405.899	3.35977
409.274	2.69282
412.649	4.99536
416.024	2.33569
419.399	4.13583
422.773	1.77571
426.148	3.1347
429.523	2.23508
432.898	1.88252
436.273	4.63913
439.647	1.84795
443.022	0.395817
446.397	0.751205
449.772	2.45663
453.147	1.94539
456.522	2.54843
459.896	1.91782
463.271	1.46267
466.646	2.1171
470.021	0.265617
473.396	1.18557
476.77	1.56059
480.145	1.78038
483.52	1.0939
486.895	1.10138
490.27	0.798203
493.644	1.14898
497.019	1.12191
500.394	0.657406
503.769	2.8871
507.144	3.19909
510.519	2.25858
513.893	2.32342
517.268	1.41411
520.643	1.28532
524.018	2.40293
527.393	1.84039
530.768	0.851353
534.142	0.186493
537.517	1.26582
540.892	1.5574
544.267	1.00666
547.641	0.630287
551.016	0.481197
554.391	1.65021
557.766	1.87766
561.141	0.499313
564.516	1.71529
567.89	0.861115
571.265	2.567
574.64	1.38332
578.015	1.48718
581.39	0.355965
584.764	1.03723
588.139	0.377911
591.514	2.81548
594.889	2.71077
598.264	1.51665
601.639	2.50486
605.013	0.300327
608.388	2.45149
611.763	1.94311
615.138	2.26559
618.513	3.07888
621.888	2.46674
625.262	0.405403
628.637	0.30072
632.012	1.72
635.387	1.76623
638.761	1.01648
642.136	0.638596
645.511	1.18415
648.886	1.08183
652.261	1.66989
655.636	2.6127
659.01	1.26803
662.385	0.648983
665.76	1.05563
669.135	1.0324
672.51	0.088779
675.885	0.619888
679.259	1.92765
682.634	3.11569
686.009	3.17966
689.384	4.37082
692.759	10.2074
696.133	27.7991
699.508	57.8984
702.883	76.7813
706.258	123.101
709.633	218.195
713.008	340.554
716.382	153.843
719.757	35.7923
723.132	12.33
726.507	6.75854
729.882	4.31757
733.256	4.47641
736.631	2.54177
740.006	1.71503
743.381	1.12015
746.756	0.187786
750.13	1.51833
753.505	0.549011
756.88	2.66744
760.255	0.883053
763.63	0.138363
767.005	1.50697
770.379	1.24863
773.754	2.07388
777.129	1.38158
780.504	2.51923
783.879	2.04229
787.254	1.3598
790.628	2.38693
794.003	1.34794
797.378	1.4865
800.753	0.617161
804.128	1.41393
807.502	2.49005
810.877	2.1412
814.252	0.513165
817.627	1.50765
821.002	1.49002
824.376	1.41632
827.751	0.326992
831.126	0.711458
834.501	3.04311
837.876	2.41861
841.25	1.96977
844.625	1.52171
848	0.280975
851.375	3.3598
854.75	1.87044
858.125	0.733349
861.5	0.595247
864.874	1.21947
868.249	2.68231
871.624	3.57039
874.999	3.81025
878.374	2.62448
881.748	2.52356
885.123	1.03842
888.498	0.896002
891.873	3.69408
895.248	0.62377
898.622	2.19156
901.997	0.066381
905.372	2.25979
908.747	0.285473
912.122	0.818277
915.496	0.428204
918.871	2.67107
922.246	1.89187
925.621	2.63725
928.996	3.02631
932.37	2.47002
935.745	3.46549
939.12	0.84428
942.495	3.15933
945.87	0.849764
949.245	1.39402
952.619	3.23798
955.994	0.370523
959.369	0.652193
962.744	0.916842
966.119	1.59078
969.494	0.115276
972.868	0.755316
976.243	1.19341
979.618	0.137039
982.993	0.413151
986.368	0.052511
989.742	3.50803
993.117	2.42311
996.492	3.28023
999.867	4.87115
1003.24	7.2807
1006.62	4.95196
1009.99	7.6506
1013.37	8.91883
1016.74	8.95995
1020.12	10.9987
1023.49	8.39689
1026.87	7.79659
1030.24	6.9546
1033.62	4.47248
1036.99	3.36558
1040.37	1.30487
1043.74	0.833275
1047.11	5.40542
1050.49	5.03052
1053.86	8.9163
1057.24	16.0286
1060.61	23.5978
1063.99	46.988
1067.36	88.5613
1070.74	135.514
1074.11	593.29
1077.49	894.392
1080.86	1711.89
1084.24	3936.59
1087.61	6100.62
1090.99	1049.68
1094.36	157.331
1097.74	59.2364
1101.11	30.8763
1104.49	19.1224
1107.86	13.3072
1111.24	6.95054
1114.61	4.85999
1117.98	3.06558
1121.36	2.32252
1124.73	1.35678
1128.11	0.894238
1131.48	0.360792
1134.86	2.53991
1138.23	0.185745
1141.61	0.31883
1144.98	1.03978
1148.36	0.41242
1151.73	0.73443
1155.11	0.68087
1158.48	0.457567
1161.86	0.345928
1165.23	1.95788
1168.61	0.95932
1171.98	1.39184
1175.36	0.345795
1178.73	0.09436
1182.11	1.40045
1185.48	2.42613
1188.86	2.63229
1192.23	2.64169
1195.61	2.96214
1198.98	3.72394
1202.36	1.64719
1205.73	3.816
1209.11	4.47717
1212.48	3.86855
1215.86	0.769823
1219.23	2.26724
1222.61	4.31931
1225.98	2.1839
1229.35	2.13391
1232.73	2.19653
1236.1	3.29923
1239.48	1.84536
1242.85	2.90161
1246.23	3.43457
1249.6	2.02173
1252.98	1.39476
1256.35	3.83505
1259.73	3.28285
1263.1	2.16062
1266.48	3.58122
1269.85	2.22045
1273.23	0.588724
1276.6	1.66639
