Measurement: Raman, 785 nm, unoriented, Raman Data Processed
Mineral: Calcite
Rruff sample: R050009
Ideal chemistry: CaCO_3_
Locality: Amparo mine, Rodeo, Durango, Mexico
Source: Eugene Schlepp
Description: Colorless cleavage rhomb
Measured chemistry: Ca_1.00_CO_3_; trace amounts of Mn
Raman shift (cm-1)	intensity
91.6103	0
94.503	6.9673
97.3957	6.76067
100.288	14.7058
103.181	15.9393
106.074	22.1071
108.966	31.8776
111.859	18.3166
114.752	14.1818
117.645	3.66037
120.537	0.851767
123.43	1.47081
126.323	8.14765
129.215	11.5393
132.108	28.9718
135.001	61.3291
137.893	79.826
140.786	133.809
143.679	218.589
146.572	382.902
149.464	664.385
152.357	1190.67
155.25	1556.81
158.142	985.882
161.035	473.151
163.928	266.29
166.821	187.997
169.713	152.392
172.606	114.129
175.499	104.284
178.391	75.8697
181.284	64.6831
184.177	41.3117
187.069	30.9186
189.962	23.9616
192.855	26.309
195.748	16.3884
198.64	8.90881
201.533	7.93298
204.426	1.93454
207.318	5.19838
210.211	1.62808
213.104	10.8508
215.996	4.09091
218.889	0.402344
221.782	11.1572
224.674	9.34082
227.567	15.3852
230.46	18.9156
233.353	22.9608
236.245	40.695
239.138	49.6168
242.031	75.5836
244.923	121.235
247.816	144.235
250.709	181.216
253.601	247.492
256.494	294.888
259.387	399.078
262.28	539.351
265.172	731.579
268.065	1039.68
270.958	1402.37
273.85	1938.48
276.743	2703.01
279.636	3641.4
282.529	3825.48
285.421	2704.42
288.314	1486.8
291.207	842.475
294.099	532.13
296.992	362.429
299.885	259.343
302.777	200.068
305.67	140.78
308.563	116.361
311.455	92.0438
314.348	72.5432
317.241	51.5477
320.134	31.6934
323.026	10.6334
325.919	20.9921
328.812	0.931427
331.704	0.712982
334.597	5.39499
337.49	4.92795
340.382	6.1524
343.275	6.37074
346.168	4.62302
349.061	16.4402
351.953	16.2591
354.846	43.2884
357.739	34.0391
360.631	42.6756
363.524	51.0334
366.417	43.5981
369.31	46.1178
372.202	46.6309
375.095	38.6687
377.988	42.1426
380.88	28.5362
383.773	15.0474
386.666	27.6273
389.558	10.6499
392.451	5.32715
395.344	4.81784
398.236	6.54283
401.129	14.8495
404.022	0.13443
406.915	2.75056
409.807	8.23947
412.7	10.4447
415.593	1.59505
418.485	3.72012
421.378	9.15941
424.271	0.84288
427.163	7.86742
430.056	11.8789
432.949	6.5188
435.842	5.70349
438.734	18.005
441.627	12.6575
444.52	11.3344
447.412	20.7923
450.305	13.5596
453.198	14.9923
456.091	7.9668
458.983	15.4249
461.876	8.95256
464.769	10.9147
467.661	13.2564
470.554	10.8616
473.447	10.7084
476.339	14.4482
479.232	11.1086
482.125	4.0267
485.017	2.69025
487.91	5.19356
490.803	12.5005
493.696	5.25169
496.588	9.37068
499.481	5.99336
502.374	13.5551
505.266	16.3888
508.159	15.7649
511.052	23.4038
513.944	20.3936
516.837	22.6683
519.73	19.215
522.623	24.5451
525.515	12.152
528.408	16.7851
531.301	20.2422
534.193	18.7243
537.086	17.8092
539.979	16.1992
542.871	18.796
545.764	10.9558
548.657	9.08337
551.55	6.01437
554.442	15.1717
557.335	1.92255
560.228	9.86452
563.12	2.76895
566.013	11.1947
568.906	6.63769
571.798	6.75745
574.691	4.51553
577.584	0.553375
580.477	2.53628
583.369	5.27506
586.262	3.91148
589.155	0.340164
592.047	2.9427
594.94	7.97124
597.833	6.30797
600.726	2.38538
603.618	0.393723
606.511	2.24945
609.404	10.2031
612.296	11.8307
615.189	12.7059
618.082	10.3954
620.974	7.40282
623.867	5.46591
626.76	9.14889
629.653	11.6628
632.545	16.3276
635.438	13.2773
638.331	8.95095
641.223	16.6787
644.116	16.5133
647.009	15.1024
649.901	16.0875
652.794	6.96878
655.687	9.35157
658.58	4.75066
661.472	1.47362
664.365	5.84863
667.258	6.54435
670.15	1.13509
673.043	2.57104
675.936	8.84698
678.828	1.05434
681.721	5.88762
684.614	8.14658
687.506	11.9667
690.399	16.7763
693.292	25.3806
696.185	29.9918
699.077	56.8319
701.97	101.614
704.863	169.978
707.755	319.486
710.648	651.154
713.541	676.995
716.433	207.103
719.326	69.1499
722.219	35.4663
725.112	20.5336
728.004	17.6327
730.897	11.662
733.79	10.8884
736.682	2.62201
739.575	6.11251
742.468	7.81184
745.361	10.8606
748.253	6.6517
751.146	0.943474
754.039	9.79091
756.931	2.45601
759.824	4.90224
762.717	0.807709
765.609	2.31617
768.502	2.69441
771.395	1.74414
774.288	0.080513
777.18	3.40399
780.073	3.12437
782.966	6.2613
785.858	4.22753
788.751	2.15848
791.644	5.40352
794.536	5.64439
797.429	8.1337
800.322	9.50362
803.215	5.54422
806.107	4.61538
809	5.10027
811.893	1.55621
814.785	8.14731
817.678	5.90365
820.571	6.79143
823.463	13.3486
826.356	12.7461
829.249	10.7073
832.141	6.462
835.034	2.99257
837.927	5.67956
840.82	4.07491
843.712	8.05362
846.605	5.62631
849.498	7.21365
852.39	4.07569
855.283	1.79761
858.176	0.546021
861.068	6.88089
863.961	3.00218
866.854	1.02915
869.747	6.31227
872.639	0.876041
875.532	0.806778
878.425	0.779797
881.317	2.57881
884.21	2.64859
887.103	14.7165
889.995	8.83295
892.888	13.3615
895.781	6.50208
898.674	7.56386
901.566	6.37913
904.459	4.52739
907.352	13.945
910.244	19.2821
913.137	14.3141
916.03	16.5394
918.923	14.0903
921.815	15.6376
924.708	18.5054
927.601	9.21456
930.493	12.9119
933.386	14.2878
936.279	21.4729
939.171	24.5221
942.064	21.6033
944.957	25.3519
947.85	13.8843
950.742	20.5008
953.635	35.7719
956.528	34.4617
959.42	41.3474
962.313	45.5766
965.206	43.9764
968.098	39.1863
970.991	50.6883
973.884	44.1997
976.777	55.3892
979.669	50.7951
982.562	57.2079
985.455	72.7404
988.347	67.77
991.24	73.7104
994.133	91.8316
997.025	99.9117
999.918	106.114
1002.81	119.122
1005.7	124.473
1008.6	133.27
1011.49	122.928
1014.38	136.671
1017.27	128.72
1020.17	114.663
1023.06	105.364
1025.95	90.9681
1028.85	88.1702
1031.74	78.3828
1034.63	67.2398
1037.52	51.255
1040.42	42.4765
1043.31	17.9601
1046.2	24.9554
1049.09	5.40286
1051.99	5.233
1054.88	15.0266
1057.77	24.6159
1060.66	24.5075
1063.56	14.0871
1066.45	20.3108
1069.34	22.2203
1072.24	4.40942
1075.13	101.79
1078.02	675.62
1080.91	1663.4
1083.81	4759.33
1086.7	8568.54
1089.59	1966.84
1092.48	312.287
1095.38	83.072
1098.27	55.6139
1101.16	117.477
1104.06	126.882
1106.95	187.566
1109.84	246.585
1112.73	271.053
1115.63	321.486
1118.52	294.15
1121.41	337.906
1124.3	312.644
1127.2	246.015
1130.09	166.459
1132.98	98.3489
1135.88	67.4678
1138.77	56.4888
1141.66	50.9624
1144.55	35.8213
1147.45	72.1934
1150.34	75.2975
1153.23	128.796
1156.12	162.73
1159.02	236.426
1161.91	308.266
1164.8	367.248
1167.69	453.058
1170.59	520.488
1173.48	625.732
1176.37	720.193
1179.27	793.092
1182.16	843.146
1185.05	876.625
1187.94	890.421
1190.84	889.124
1193.73	818.445
1196.62	850.127
1199.51	811.523
1202.41	799.337
1205.3	840.828
1208.19	803.372
1211.09	808.806
1213.98	750.153
1216.87	693.628
1219.76	521.357
1222.66	392.613
1225.55	262.155
1228.44	202.08
1231.33	82.0962
1234.23	0.131836
1237.12	2.32104
1240.01	16.1528
