Measurement: Raman, 780 nm, unoriented, Raman Data Processed
Mineral: Calcite
Rruff sample: R050130
Ideal chemistry: CaCO_3_
Locality: Mexico
Source: Dave Bunk Minerals
Description: Colorless cleavage rhomb
Measured chemistry: Ca_1.00_CO_3_; trace amounts of Si (?)
Raman shift (cm-1)	intensity
133.583	0
136.476	26.3845
139.369	52.6614
142.261	116.367
145.154	205.469
148.047	348.197
150.939	589.408
153.832	1020.6
156.725	889.82
159.617	361.034
162.51	143.119
165.403	69.9689
168.296	34.3739
171.188	14.8151
174.081	10.6914
176.974	5.98073
179.866	0.686508
182.759	7.07402
185.652	3.74387
188.544	9.15004
191.437	7.50519
194.33	8.10564
197.222	4.70877
200.115	5.25554
203.008	15.4752
205.901	15.8991
208.793	22.9614
211.686	26.9438
214.579	30.7021
217.471	35.8774
220.364	40.9155
223.257	45.1484
226.149	50.4317
229.042	52.4775
231.935	66.1778
234.828	75.5145
237.72	89.4131
240.613	104.015
243.506	126.46
246.398	147.334
249.291	191.358
252.184	244.712
255.077	337.42
257.969	489.955
260.862	720.608
263.755	986.505
266.647	1182.82
269.54	1383.49
272.433	1649.26
275.325	1996.85
278.218	2498.71
281.111	2797.12
284.003	2177.47
286.896	1224.44
289.789	663.203
292.682	397.054
295.574	255.512
298.467	176.395
301.36	124.278
304.252	92.7232
307.145	69.2059
310.038	50.8028
312.93	38.3085
315.823	28.0953
318.716	20.1874
321.609	16.8213
324.501	11.1829
327.394	5.25378
330.287	2.5499
333.179	2.06645
336.072	3.0444
338.965	1.00826
341.858	1.56213
344.75	2.79148
347.643	1.02226
350.536	1.17261
353.428	0.419586
356.321	1.66407
359.214	0.452362
362.106	2.73256
364.999	3.18542
367.892	6.65835
370.784	3.68025
373.677	7.28689
376.57	7.05993
379.463	6.68091
382.355	2.963
385.248	6.32687
388.141	0.617386
391.033	4.16033
393.926	3.91702
396.819	1.57529
399.712	1.16196
402.604	1.09829
405.497	1.91584
408.39	0.54319
411.282	4.25827
414.175	4.5118
417.068	2.88955
419.96	1.2276
422.853	3.54307
425.746	3.8322
428.639	6.83728
431.531	7.35797
434.424	3.97561
437.317	6.07294
440.209	6.67952
443.102	5.96037
445.995	5.49049
448.887	4.75198
451.78	2.27084
454.673	3.40179
457.565	3.94517
460.458	1.76179
463.351	2.12936
466.243	3.59632
469.136	3.01135
472.029	2.80607
474.922	3.95234
477.814	3.60622
480.707	1.99737
483.6	2.19836
486.492	2.86336
489.385	5.81632
492.278	1.60105
495.171	1.85454
498.063	1.89223
500.956	3.25357
503.849	3.56572
506.741	0.098595
509.634	1.38767
512.527	1.28574
515.419	3.20904
518.312	1.93768
521.205	2.15644
524.097	1.41383
526.99	2.25667
529.883	0.358917
532.776	2.13292
535.668	2.19975
538.561	1.72518
541.454	1.31905
544.346	0.213554
547.239	2.01399
550.132	1.08264
553.024	3.23429
555.917	1.88276
558.81	2.23627
561.703	0.058846
564.595	3.19859
567.488	1.19348
570.381	2.87782
573.273	4.95401
576.166	2.16349
579.059	5.07376
581.952	4.38867
584.844	2.07726
587.737	3.89814
590.63	5.4059
593.522	3.20258
596.415	4.4539
599.308	4.73926
602.2	6.83684
605.093	5.74485
607.986	3.96705
610.879	6.58616
613.771	8.31982
616.664	5.77782
619.557	4.70322
622.449	3.80124
625.342	3.52785
628.235	4.17926
631.127	1.17244
634.02	2.09256
636.913	1.33267
639.806	1.66856
642.698	2.09944
645.591	0.230171
648.484	1.34507
651.376	0.108627
654.269	0.914478
657.162	0.075138
660.054	1.61255
662.947	1.97873
665.84	1.85801
668.732	0.450146
671.625	0.512959
674.518	2.06499
677.411	6.24627
680.303	7.97055
683.196	9.44286
686.089	13.0963
688.981	25.6329
691.874	46.2129
694.767	117.036
697.659	317.637
700.552	362.914
703.445	485.814
706.338	715.963
709.23	1383.12
712.123	2712.95
715.016	974.808
717.908	218.329
720.801	91.7472
723.694	50.4648
726.587	30.523
729.479	21.3928
732.372	14.3294
735.265	9.48535
738.157	6.26573
741.05	5.56402
743.943	3.77839
746.835	2.19965
749.728	0.106537
752.621	0.54694
755.514	0.659664
758.406	1.62209
761.299	3.75756
764.192	4.93805
767.084	0.237114
769.977	3.63253
772.87	2.61056
775.763	4.61734
778.655	6.64677
781.548	3.47013
784.441	1.80567
787.333	3.70163
790.226	2.69432
793.119	4.02527
796.011	0.186928
798.904	2.23888
801.797	2.02818
804.689	2.11432
807.582	0.477432
810.475	2.70512
813.368	3.67812
816.26	0.607349
819.153	3.34024
822.046	5.00525
824.938	2.04974
827.831	4.05236
830.724	2.32306
833.616	4.30143
836.509	3.97505
839.402	4.79821
842.294	1.88034
845.187	0.593666
848.08	1.06881
850.973	6.37289
853.865	4.4437
856.758	0.077953
859.651	2.46078
862.543	4.59175
865.436	5.09883
868.329	1.78425
871.221	4.78084
874.114	4.25592
877.007	0.863617
879.9	6.51973
882.792	4.02012
885.685	5.738
888.578	2.04381
891.47	4.46643
894.363	4.71658
897.256	3.61898
900.149	3.43303
903.041	4.99402
905.934	6.89145
908.827	1.35893
911.719	2.91159
914.612	10.3944
917.505	6.53625
920.397	7.58805
923.29	9.25786
926.183	8.4698
929.076	8.73201
931.968	10.7738
934.861	7.51683
937.754	7.80123
940.646	7.4505
943.539	7.36453
946.432	10.1656
949.324	6.2919
952.217	4.42539
955.11	1.6969
958.003	0.470444
960.895	0.265686
963.788	0.09259
966.681	2.3134
969.573	2.05678
972.466	1.36099
975.359	2.08536
978.251	1.61393
981.144	0.671101
984.037	2.59519
986.929	2.87129
989.822	5.34224
992.715	11.1266
995.608	16.1446
998.5	18.9944
1001.39	24.2073
1004.29	25.991
1007.18	30.4685
1010.07	36.1116
1012.96	38.5929
1015.86	41.5872
1018.75	38.1914
1021.64	34.4234
1024.54	28.7031
1027.43	25.447
1030.32	21.1009
1033.21	15.1906
1036.11	13.6452
1039	11.6211
1041.89	10.3913
1044.78	16.2446
1047.68	19.8233
1050.57	23.8435
1053.46	48.0797
1056.35	63.8781
1059.25	87.52
1062.14	145.2
1065.03	290.568
1067.92	410.433
1070.82	626.672
1073.71	2817.38
1076.6	3752.05
1079.5	5779.12
1082.39	9980.81
1085.28	31272.4
1088.17	16641.8
1091.07	1731.66
1093.96	563.575
1096.85	279.465
1099.74	164.411
1102.64	104.916
1105.53	73.6042
1108.42	49.9596
1111.32	31.4346
1114.21	24.1808
1117.1	18.8695
1119.99	12.5129
1122.89	9.23065
1125.78	10.4478
1128.67	7.54939
1131.56	4.42867
1134.46	3.31564
1137.35	1.29811
1140.24	0.15588
1143.13	1.76482
1146.03	0.07354
1148.92	0.741291
1151.81	2.17389
1154.71	0.5877
1157.6	0.62915
1160.49	0.00629
1163.38	0.005043
1166.28	0.366413
1169.17	1.21472
1172.06	1.76445
1174.95	3.20772
1177.85	0.684479
1180.74	3.43705
1183.63	5.88598
1186.53	4.45561
1189.42	5.86964
1192.31	8.5399
1195.2	6.74438
1198.1	10.1747
1200.99	11.1568
1203.88	11.7111
1206.78	9.59131
1209.67	11.8398
1212.56	9.83852
1215.45	12.8967
1218.35	8.6132
1221.24	8.60468
1224.13	11.6514
1227.02	12.9039
1229.92	11.581
1232.81	7.8213
1235.7	8.89883
1238.59	7.41513
1241.49	9.1731
1244.38	7.15648
1247.27	5.92441
1250.16	2.52017
1253.06	5.20357
1255.95	5.53921
1258.84	4.73366
1261.74	4.21687
1264.63	5.08959
1267.52	3.54625
1270.41	1.41821
1273.31	1.93196
1276.2	4.32573
1279.09	0.746983
1281.98	2.43431
1284.88	3.3296
