Measurement: Raman, 785 nm, unoriented, Raman Data Processed
Mineral: Calcite
Rruff sample: R050048
Ideal chemistry: CaCO_3_
Locality: Magdalena, New Mexico, USA
Source: University of Arizona Mineral Museum
Description: Colorless massive
Measured chemistry: (Ca_0.99_Zn_0.01_)CO_3_
Raman shift (cm-1)	intensity
69.4329	0
72.8077	13.1569
76.1826	0.299886
79.5574	0.149022
82.9322	8.87292
86.307	6.42774
89.6818	9.26708
93.0566	15.9033
96.4315	12.6811
99.8063	20.8472
103.181	14.2879
106.556	10.8676
109.931	4.22103
113.305	3.27077
116.68	11.253
120.055	2.55068
123.43	12.0346
126.805	30.9505
130.18	66.9337
133.554	136.203
136.929	129.149
140.304	142.833
143.679	168.673
147.054	271.98
150.429	387.998
153.803	472.959
157.178	369.559
160.553	223.94
163.928	141.274
167.303	81.2163
170.677	73.1545
174.052	53.8554
177.427	46.8494
180.802	44.9683
184.177	25.0538
187.552	35.9095
190.926	26.4946
194.301	25.6182
197.676	22.3955
201.051	17.4491
204.426	24.6994
207.8	14.0897
211.175	6.70984
214.55	3.64037
217.925	7.04985
221.3	11.6045
224.674	1.7272
228.049	2.84026
231.424	0.150925
234.799	17.0464
238.174	19.0263
241.549	25.2794
244.923	37.9461
248.298	51.4306
251.673	65.4276
255.048	85.6183
258.423	113.9
261.798	186.528
265.172	285.599
268.547	433.949
271.922	598.434
275.297	842.912
278.672	1086.06
282.046	1205.87
285.421	877.143
288.796	503.944
292.171	279.773
295.546	162.993
298.921	103.9
302.295	72.8538
305.67	48.5051
309.045	30.5513
312.42	32.224
315.795	28.454
319.169	28.2886
322.544	16.6586
325.919	27.9723
329.294	16.3437
332.669	0.998528
336.043	9.84048
339.418	2.45922
342.793	5.91044
346.168	6.0791
349.543	3.74602
352.918	0.588936
356.292	2.26493
359.667	1.7078
363.042	16.3129
366.417	17.3641
369.792	17.7108
373.166	12.8637
376.541	12.6366
379.916	8.95284
383.291	13.3208
386.666	2.77644
390.041	3.7633
393.415	8.95316
396.79	9.7505
400.165	8.8554
403.54	7.3724
406.915	13.7707
410.289	23.4587
413.664	9.98813
417.039	16.7016
420.414	9.67139
423.789	4.09709
427.163	2.2187
430.538	14.7728
433.913	2.43094
437.288	8.18768
440.663	8.16477
444.038	21.3787
447.412	0.672497
450.787	0.885056
454.162	13.1611
457.537	7.38292
460.912	19.6709
464.286	7.98259
467.661	6.56127
471.036	9.25944
474.411	1.77896
477.786	5.74261
481.161	12.453
484.535	14.3589
487.91	16.1816
491.285	19.9475
494.66	16.1329
498.035	17.2715
501.409	19.5387
504.784	28.2903
508.159	4.8651
511.534	10.4852
514.909	0.847012
518.284	8.35409
521.658	13.7593
525.033	4.96873
528.408	7.80703
531.783	11.7386
535.158	1.66486
538.533	14.5104
541.907	15.7091
545.282	24.8955
548.657	11.2053
552.032	3.43368
555.407	6.07318
558.781	9.40992
562.156	6.77578
565.531	11.1412
568.906	15.9698
572.281	15.9624
575.655	19.0823
579.03	5.55335
582.405	16.9362
585.78	19.3018
589.155	2.30773
592.529	6.33693
595.904	10.0602
599.279	16.6445
602.654	7.41822
606.029	4.24743
609.404	21.6258
612.778	24.5621
616.153	22.9937
619.528	22.6691
622.903	19.1709
626.278	26.889
629.653	16.1571
633.027	16.8132
636.402	9.2504
639.777	0.320484
643.152	4.32261
646.527	4.82704
649.901	3.08533
653.276	9.25356
656.651	13.0105
660.026	16.8108
663.401	18.5054
666.775	15.3801
670.15	16.0982
673.525	1.89085
676.9	18.243
680.275	4.3141
683.649	4.70104
687.024	4.34784
690.399	0.700466
693.774	18.5019
697.149	46.2961
700.524	96.6462
703.898	218.357
707.273	411.357
710.648	708.202
714.023	696.361
717.398	209.799
720.773	60.0333
724.147	33.0072
727.522	3.56731
730.897	13.7156
734.272	8.50851
737.647	16.2239
741.021	9.87826
744.396	19.7021
747.771	13.6435
751.146	6.57439
754.521	13.1478
757.895	13.2453
761.27	12.8098
764.645	11.0992
768.02	9.92278
771.395	10.5863
774.77	2.37422
778.144	14.7647
781.519	15.27
784.894	12.4087
788.269	7.72879
791.644	4.82173
795.019	7.00617
798.393	0.72303
801.768	0.849522
805.143	4.46007
808.518	1.18181
811.893	13.1671
815.267	5.91055
818.642	25.9062
822.017	9.67978
825.392	3.72795
828.767	12.7786
832.141	12.6116
835.516	23.658
838.891	18.988
842.266	5.29357
845.641	5.91626
849.016	2.03625
852.39	8.94905
855.765	11.9239
859.14	7.72198
862.515	22.2565
865.89	12.4677
869.264	14.2385
872.639	16.6815
876.014	8.43224
879.389	16.0236
882.764	0.968777
886.139	8.92333
889.513	18.7665
892.888	12.1349
896.263	23.5147
899.638	20.3867
903.013	22.1623
906.388	11.0448
909.762	5.89333
913.137	10.0243
916.512	14.3982
919.887	1.34489
923.261	0.49123
926.636	19.1066
930.011	18.3266
933.386	11.676
936.761	8.98461
940.136	12.1369
943.51	23.9368
946.885	25.649
950.26	5.6614
953.635	10.7156
957.01	5.34774
960.385	11.2071
963.759	5.67151
967.134	12.469
970.509	7.81115
973.884	8.43095
977.259	17.5926
980.633	22.2809
984.008	7.77636
987.383	11.306
990.758	8.87637
994.133	7.66409
997.508	0.510551
1000.88	3.20472
1004.26	1.48477
1007.63	13.935
1011.01	17.4934
1014.38	25.1627
1017.76	23.4508
1021.13	23.7229
1024.51	11.4923
1027.88	22.8565
1031.26	18.827
1034.63	1.93817
1038.01	2.6108
1041.38	5.43175
1044.76	3.3783
1048.13	7.93164
1051.51	4.92636
1054.88	16.8736
1058.25	23.8947
1061.63	33.8048
1065	61.8981
1068.38	72.9347
1071.75	120.197
1075.13	320.067
1078.5	1091.89
1081.88	2532.61
1085.25	5589.12
1088.63	4167.53
1092	878.829
1095.38	163.388
1098.75	56.0863
1102.13	38.4519
1105.5	32.7211
1108.88	18.4516
1112.25	11.1098
1115.63	15.5325
1119	13.3115
1122.38	6.75708
1125.75	3.71938
1129.12	17.932
1132.5	15.6709
1135.88	15.7086
1139.25	9.64828
1142.62	5.93034
1146	9.73726
1149.37	19.9946
1152.75	2.34596
1156.12	8.3339
1159.5	18.0396
1162.87	33.7395
1166.25	13.992
1169.62	17.368
1173	24.7283
1176.37	26.9003
1179.75	4.16104
1183.12	3.42273
1186.5	3.7813
1189.87	18.2826
1193.25	14.9373
1196.62	17.1503
1200	22.0051
1203.37	34.9651
1206.75	28.6825
1210.12	29.6072
1213.5	20.3512
1216.87	1.60948
1220.24	14.3507
1223.62	16.4189
1226.99	18.875
1230.37	23.6531
1233.74	12.533
