Measurement: Raman, 532 nm, unoriented, Raman Data Processed
Mineral: Calcite
Rruff sample: R050130
Ideal chemistry: CaCO_3_
Locality: Mexico
Source: Dave Bunk Minerals
Description: Colorless cleavage rhomb
Measured chemistry: Ca_1.00_CO_3_; trace amounts of Si (?)
Raman shift (cm-1)	intensity
144.507	0
147.882	843.787
151.257	3492.05
154.631	8311.57
158.006	5904.98
161.381	1533.8
164.756	397.613
168.131	131.965
171.506	58.9822
174.88	0.02417
178.255	13.5361
181.63	14.1735
185.005	22.5757
188.38	38.7731
191.754	39.6981
195.129	24.5028
198.504	7.05444
201.879	11.4915
205.254	72.0842
208.629	154.122
212.003	232.915
215.378	301.326
218.753	370.234
222.128	409.33
225.503	433.244
228.877	480.913
232.252	512.56
235.627	557.366
239.002	628.041
242.377	705.953
245.751	835.232
249.126	1022.25
252.501	1298.67
255.876	1782.04
259.251	2569.62
262.626	3948.28
266	5804.06
269.375	7555.01
272.75	9692.23
276.125	13075.4
279.5	17996.3
282.875	19065.7
286.249	11673.4
289.624	5625.19
292.999	2979.5
296.374	1782.34
299.748	1150.02
303.123	775.923
306.498	550.837
309.873	390.891
313.248	278.997
316.623	215.626
319.997	153.603
323.372	100.705
326.747	65.0144
330.122	32.3477
333.497	19.0259
336.872	1.25513
340.246	14.6542
343.621	2.52637
346.996	11.259
350.371	14.0666
353.746	3.02478
357.12	3.00708
360.495	2.57214
363.87	0.496826
367.245	0.756104
370.62	6.81641
373.995	0.182251
377.369	2.84741
380.744	1.91931
384.119	12.0892
387.494	27.2677
390.869	16.0795
394.243	16.8718
397.618	19.792
400.993	8.9397
404.368	6.48377
407.743	26.9709
411.118	22.9123
414.492	21.0569
417.867	21.1345
421.242	40.8922
424.617	33.2897
427.991	35.1305
431.366	36.7636
434.741	22.1299
438.116	25.0609
441.491	20.3943
444.866	34.3711
448.24	13.036
451.615	28.0205
454.99	18.7816
458.365	15.0309
461.74	20.0957
465.115	15.6569
468.489	16.7571
471.864	18.9983
475.239	12.7091
478.614	25.6371
481.989	17.3573
485.363	23.4939
488.738	5.9082
492.113	4.29883
495.488	8.80627
498.863	15.9467
502.238	11.7008
505.612	11.0851
508.987	12.9044
512.362	16.0923
515.737	7.49207
519.112	14.434
522.486	8.56885
525.861	6.09692
529.236	7.03149
532.611	2.81482
535.986	21.4839
539.361	3.20837
542.735	12.0658
546.11	4.54016
549.485	11.5338
552.86	11.4287
556.235	8.29138
559.609	9.8446
562.984	7.82825
566.359	8.10059
569.734	0.570801
573.109	2.45508
576.484	7.38477
579.858	14.4077
583.233	28.5139
586.608	25.3984
589.983	13.7986
593.357	4.6582
596.732	12.9011
600.107	7.68799
603.482	19.9287
606.857	17.7229
610.232	10.9233
613.606	18.3145
616.981	10.1553
620.356	14.1731
623.731	13.3464
627.106	8.21851
630.481	14.6663
633.855	4.71167
637.23	2.28369
640.605	4.44629
643.98	3.1333
647.355	0.119141
650.729	0.647217
654.104	6.79834
657.479	4.67163
660.854	3.84106
664.229	4.21826
667.604	21.2061
670.978	11.1165
674.353	11.6831
677.728	10.7773
681.103	28.314
684.478	17.6091
687.852	40.9888
691.227	74.4009
694.602	140.992
697.977	446.092
701.352	922.629
704.726	1265.73
708.101	3057.4
711.476	5252.87
714.851	4275.12
718.226	718.526
721.601	250.381
724.975	129.02
728.35	81.7671
731.725	43.0144
735.1	35.3914
738.475	13.2222
741.849	15.1926
745.224	8.04468
748.599	8.521
751.974	12.1956
755.349	6.30298
758.723	0.852783
762.098	5.6167
765.473	2.42432
768.848	5.20215
772.223	8.52856
775.598	10.1311
778.972	0.18042
782.347	10.4663
785.722	11.1567
789.097	24.8193
792.472	15.1882
795.846	5.75098
799.221	4.21338
802.596	1.58057
805.971	3.70581
809.346	0.180664
812.721	11.5652
816.095	8.33423
819.47	3.23731
822.845	1.25439
826.22	5.32812
829.595	10.1594
832.97	7.88501
836.344	23.364
839.719	29.0125
843.094	7.45019
846.469	5.50854
849.844	11.2808
853.218	5.20606
856.593	27.2002
859.968	14.3008
863.343	19.6519
866.718	6.69629
870.092	0.989258
873.467	5.84424
876.842	5.73193
880.217	14.6602
883.592	14.2205
886.967	22.8572
890.341	10.1379
893.716	8.58643
897.091	17.3667
900.466	9.89551
903.841	8.86035
907.216	19.51
910.59	14.3044
913.965	25.0317
917.34	30.2893
920.715	31.448
924.09	23.8923
927.464	31.2205
930.839	17.5212
934.214	27.0066
937.589	42.2261
940.964	18.0383
944.338	13.2639
947.713	19.7524
951.088	25.8013
954.463	10.8838
957.838	17.9561
961.212	10.3347
964.587	1.00171
967.962	2.32251
971.337	10.4465
974.712	8.88354
978.087	5.28223
981.461	9.30371
984.836	3.44531
988.211	16.3577
991.586	25.273
994.961	15.7217
998.335	47.7458
1001.71	69.4424
1005.09	76.51
1008.46	86.1089
1011.84	118.024
1015.21	115.642
1018.58	118.186
1021.96	113.301
1025.33	101.429
1028.71	86.9829
1032.08	77.8928
1035.46	62.2903
1038.83	62.1128
1042.21	64.7041
1045.58	73.634
1048.96	77.3413
1052.33	100.074
1055.71	144.83
1059.08	196.854
1062.46	306.779
1065.83	718.648
1069.21	856.782
1072.58	1110.49
1075.96	5636.28
1079.33	9839.27
1082.71	20577
1086.08	80890.4
1089.45	36817.4
1092.83	3441.95
1096.2	1186.52
1099.58	599.783
1102.95	353.049
1106.33	216.528
1109.7	156.351
1113.08	103.369
1116.45	74.5471
1119.83	43.4456
1123.2	31.3814
1126.58	17.9485
1129.95	15.7227
1133.33	5.60669
1136.7	15.6182
1140.08	5.15332
1143.45	3.98706
1146.83	19.8916
1150.2	7.55786
1153.58	5.69165
1156.95	12.2573
1160.33	0.804688
1163.7	1.75073
1167.08	8.05249
1170.45	9.0498
1173.83	14.6016
1177.2	16.3098
1180.58	17.4922
1183.95	19.5117
1187.33	25.3877
1190.7	29.4424
1194.08	7.36255
1197.45	24.6221
1200.82	36.7932
1204.2	28.7661
1207.57	37.4114
1210.95	23.3416
1214.32	26.7895
1217.7	16.2436
1221.07	17.1987
1224.45	11.4085
1227.82	19.6562
1231.2	10.6746
1234.57	16.5244
1237.95	8.92993
1241.32	16.3479
1244.7	4.10498
1248.07	7.28735
1251.45	20.804
1254.82	13.1352
1258.2	16.9973
1261.57	16.3418
1264.95	26.6829
1268.32	23.228
1271.7	23.4983
1275.07	16.2683
1278.44	19.3581
1281.82	28.1528
1285.19	19.6104
1288.57	18.5461
1291.94	14.1697
1295.32	1.46997
1298.69	7.58057
1302.07	14.8108
1305.44	0
