Measurement: Raman, 532 nm, unoriented, Raman Data Processed
Mineral: Calcioferrite
Rruff sample: R120092
Ideal chemistry: Ca_4_MgFe^3+^_4_(PO_4_)_6_(OH)_4_12H_2_O
Locality: Moculta quarry, Angastan, South Australia, Australia
Source: Bob Jenkins
Description: Clusters of pale yellow, micaceous crystals
Measured chemistry: (Ca_3.78_Sr_0.07_)_Σ=3.85_Mg_0.98_(Fe^3+^_2.82_Al_1.03_)_Σ=3.85_(PO_4_)_6.00_(OH)_4_·14.21H_2_O
Raman shift (cm-1)	intensity
202.659	0
205.552	0.309448
208.445	0.076294
211.337	3.36182
214.23	11.108
217.123	32.1951
220.015	46.764
222.908	71.9656
225.801	99.9342
228.693	135.469
231.586	177.022
234.479	226.637
237.371	283.183
240.264	338.92
243.157	381.643
246.05	415.159
248.942	447.139
251.835	492.365
254.728	543.957
257.62	588.347
260.513	609.442
263.406	604.087
266.298	587.303
269.191	545.571
272.084	482.58
274.977	410.574
277.869	332.195
280.762	263.166
283.655	198.911
286.547	151.647
289.44	126.665
292.333	109.487
295.226	103.549
298.118	100.543
301.011	100.695
303.904	99.429
306.796	98.5899
309.689	90.6713
312.582	80.1221
315.474	71.6645
318.367	49.8135
321.26	35.7745
324.152	28.801
327.045	21.9959
329.938	10.7794
332.831	6.12891
335.723	2.65851
338.616	0.321411
341.509	3.3092
344.401	1.60321
347.294	0.973145
350.187	3.47278
353.079	2.33106
355.972	0.373962
358.865	2.4679
361.758	4.41418
364.65	3.9704
367.543	1.17596
370.436	3.80737
373.328	4.67255
376.221	10.4037
379.114	18.2707
382.007	22.3771
384.899	26.5766
387.792	27.0394
390.685	27.773
393.577	20.2924
396.47	13.6863
399.363	10.7099
402.255	1.87323
405.148	1.59936
408.041	5.39667
410.933	2.14587
413.826	1.86572
416.719	10.7778
419.612	21.6389
422.504	34.6201
425.397	66.1621
428.29	103.528
431.182	151.215
434.075	198.165
436.968	244.088
439.861	278.924
442.753	296.487
445.646	297.69
448.539	293.866
451.431	276.723
454.324	248.243
457.217	211.889
460.109	167.937
463.002	127.393
465.895	99.1681
468.788	83.9923
471.68	86.8094
474.573	105.863
477.466	146.597
480.358	201.538
483.251	279.648
486.144	362.39
489.036	459.024
491.929	531.916
494.822	568.839
497.714	524.49
500.607	432.269
503.5	300.729
506.393	188.125
509.285	101.657
512.178	53.7487
515.071	19.1509
517.963	2.34082
520.856	12.2004
523.749	7.45606
526.641	4.43274
529.534	13.0353
532.427	26.4084
535.32	45.8148
538.212	63.015
541.105	77.8178
543.998	89.4821
546.89	102.826
549.783	124.874
552.676	128.429
555.568	136.358
558.461	146.055
561.354	157.086
564.247	167.822
567.139	183.505
570.032	195.258
572.925	199.688
575.817	203.5
578.71	202.933
581.603	208.333
584.495	195.723
587.388	183.936
590.281	160.543
593.174	137.292
596.066	106.617
598.959	78.9883
601.852	59.7054
604.744	42.4198
607.637	29.6887
610.53	19.8538
613.423	19.5098
616.315	19.8766
619.208	19.0077
622.101	20.3523
624.993	15.8913
627.886	1.80316
630.779	1.29468
633.671	5.06268
636.564	2.12842
639.457	1.53943
642.35	4.05225
645.242	2.7312
648.135	0.136353
651.028	2.63769
653.92	7.61273
656.813	9.10846
659.706	10.0043
662.598	8.30389
665.491	10.5799
668.384	8.17279
671.277	9.4931
674.169	10.7286
677.062	7.12598
679.955	8.25879
682.847	11.2419
685.74	7.45526
688.633	12.4261
691.525	13.8242
694.418	7.05518
697.311	10.2584
700.203	6.18561
703.096	3.29724
705.989	4.83844
708.882	3.27124
711.774	5.66992
714.667	4.44202
717.56	5.72436
720.452	8.05646
723.345	10.1503
726.238	8.61658
729.13	9.06067
732.023	6.04474
734.916	8.03302
737.809	7.9519
740.701	6.42682
743.594	5.83337
746.487	7.01325
749.379	6.01349
752.272	3.03095
755.165	3.40863
758.058	0.930603
760.95	0.455383
763.843	4.26257
766.736	3.85309
769.628	4.73834
772.521	3.18237
775.414	3.37842
778.306	3.42981
781.199	0.440308
784.092	1.50794
786.985	4.65771
789.877	4.04572
792.77	8.52271
795.663	9.71558
798.555	11.6544
801.448	9.21362
804.341	9.98023
807.233	13.4627
810.126	13.4178
813.019	13.2378
815.912	11.8245
818.804	15.587
821.697	15.3431
824.59	16.3003
827.482	14.0791
830.375	8.08343
833.268	13.011
836.16	11.4856
839.053	13.2322
841.946	15.669
844.838	14.9397
847.731	12.7715
850.624	6.91547
853.517	10.1942
856.409	8.62201
859.302	7.05981
862.195	7.75531
865.087	9.35181
867.98	6.00879
870.873	5.05774
873.765	4.44086
876.658	1.19696
879.551	1.84656
882.444	0.695007
885.336	0.634338
888.229	5.58875
891.122	3.40906
894.014	5.32654
896.907	1.72449
899.8	0.367371
902.692	1.65112
905.585	0.141479
908.478	1.57404
911.371	4.72424
914.263	7.06287
917.156	14.4778
920.049	23.4367
922.941	38.4269
925.834	53.5137
928.727	79.8272
931.62	107.413
934.512	153.405
937.405	194.126
940.298	232.136
943.19	254.041
946.083	264.329
948.976	248.507
951.868	229.3
954.761	210.252
957.654	214.824
960.547	228.939
963.439	248.771
966.332	266.63
969.225	281.893
972.117	291.401
975.01	306.991
977.903	335.827
980.795	369.306
983.688	406.271
986.581	431.641
989.473	423.24
992.366	384.959
995.259	337.089
998.152	301.144
1001.04	289.112
1003.94	297.268
1006.83	330.653
1009.72	335.818
1012.62	278.5
1015.51	182.97
1018.4	106.735
1021.29	59.8401
1024.19	34.4315
1027.08	30.946
1029.97	31.246
1032.86	33.3032
1035.76	27.4403
1038.65	6.68726
1041.54	5.77588
1044.43	12.9575
1047.33	10.1071
1050.22	12.1552
1053.11	3.83362
1056.01	25.0429
1058.9	55.1505
1061.79	97.3186
1064.68	141.783
1067.58	176.22
1070.47	191.125
1073.36	166.873
1076.26	147.09
1079.15	129.633
1082.04	121.022
1084.93	111.952
1087.83	93.4739
1090.72	75.9235
1093.61	68.2598
1096.5	66.0632
1099.4	69.4775
1102.29	75.1967
1105.18	79.073
1108.07	89.1988
1110.97	106.006
1113.86	124.657
1116.75	137.978
1119.64	149.516
1122.54	161.532
1125.43	160.646
1128.32	162.411
1131.22	164.92
1134.11	176.093
1137	196.761
1139.89	220.538
1142.79	239.577
1145.68	235.732
1148.57	206.841
1151.46	168.053
1154.36	130.909
1157.25	96.7566
1160.14	62.9712
1163.04	46.8435
1165.93	27.5179
1168.82	17.6768
1171.71	13.0021
1174.61	6.65601
1177.5	3.2135
1180.39	2.69592
1183.28	4.06201
1186.18	0.830322
1189.07	7.4762
1191.96	0.952637
1194.86	2.13403
1197.75	4.57117
1200.64	0.172363
1203.53	0.209595
1206.43	3.10547
1209.32	7.8772
1212.21	7.54871
1215.1	7.72034
1218	2.58862
1220.89	2.30579
1223.78	8.3269
1226.67	8.5238
1229.57	10.0558
1232.46	14.2366
1235.35	10.1818
1238.25	10.2484
1241.14	11.5175
1244.03	10.7372
1246.92	15.3427
1249.82	12.0947
1252.71	9.76062
1255.6	7.09436
1258.49	9.69617
1261.39	13.7906
1264.28	11.0857
1267.17	12.2596
1270.07	9.04138
1272.96	8.60523
1275.85	5.73926
1278.74	9.44836
1281.64	8.45776
1284.53	10.261
1287.42	4.34924
1290.31	0.56311
1293.21	8.52808
1296.1	3.01953
1298.99	1.15955
1301.88	0
