Measurement: Raman, 532 nm, unoriented, Raman Data Processed
Mineral: Calcioburbankite
Rruff sample: R070023
Ideal chemistry: Na_3_(Ca,Ce,Sr,La)_3_(CO_3_)_5_
Locality: Vuoriyarvi Massif, Murmansk region, Russia
Source: Michael Scott
Description: Pale orange vitreous massive embedded in white dolomite
Measured chemistry: (Na_2.89_Ca_0.11_)_Σ=3_(Ca_0.91_Sr_0.67_Ba_0.53_Ce_0.51_La_0.26_Nd_0.12_)_Σ=3_(CO_3_)_5_; CO_2_ estimated by difference
Raman shift (cm-1)	intensity
146.807	0
150.182	150.333
153.557	386.952
156.932	325.606
160.307	139.62
163.681	146.081
167.056	186.548
170.431	233.232
173.806	238.195
177.181	122.745
180.555	22.3013
183.93	5.83447
187.305	1.3457
190.68	10.748
194.055	7.05469
197.43	17.2876
200.804	31.8579
204.179	63.7544
207.554	56.2715
210.929	89.7827
214.304	122.946
217.679	248.3
221.053	348.929
224.428	469.878
227.803	419.288
231.178	230.35
234.553	145.83
237.927	125.639
241.302	121.967
244.677	132.929
248.052	157.353
251.427	155.1
254.801	131.974
258.176	290.796
261.551	362.248
264.926	534.325
268.301	797.702
271.675	1236.18
275.05	1750.06
278.425	2171.42
281.8	2352.24
285.175	1905.53
288.55	1449.76
291.924	1282.21
295.299	1045.37
298.674	955.327
302.049	718.273
305.424	576.495
308.798	453.363
312.173	390.403
315.548	330.967
318.923	245.724
322.298	221.514
325.673	103.85
329.047	84.1187
332.422	4.46191
335.797	2.23242
339.172	22.3438
342.546	32.7065
345.921	19.1946
349.296	12.0432
352.671	86.7751
356.046	25.791
359.421	55.0242
362.795	20.4578
366.17	118.652
369.545	121.619
372.92	139.748
376.295	158.277
379.67	169.742
383.044	224.255
386.419	178.498
389.794	211.855
393.169	183.177
396.543	214.977
399.918	226.333
403.293	230.991
406.668	257.293
410.043	236.34
413.418	252.368
416.792	185.715
420.167	85.5657
423.542	91.178
426.917	102.385
430.292	44.8247
433.666	63.9739
437.041	82.9939
440.416	66.1887
443.791	46.9243
447.166	50.9519
450.541	30.3892
453.915	41.5991
457.29	65.3291
460.665	22.6689
464.04	20.6138
467.415	54.8601
470.789	24.303
474.164	32.8782
477.539	73.071
480.914	46.9314
484.289	13.7295
487.663	85.4126
491.038	32.6035
494.413	45.2451
497.788	35.2549
501.163	72.6494
504.538	47.666
507.912	42.9302
511.287	56.0566
514.662	1.82812
518.037	68.1836
521.412	23.603
524.786	42.727
528.161	24.4546
531.536	21.9844
534.911	28.8081
538.286	43.353
541.66	28.5855
545.035	39.7803
548.41	52.7505
551.785	38.0625
555.16	28.9346
558.534	7.86231
561.909	33.6406
565.284	31.2451
568.659	87.3398
572.034	11.9951
575.409	31.5933
578.783	14.6724
582.158	11.9648
585.533	62.356
588.908	16.0884
592.283	8.96143
595.658	2.82617
599.032	48.8535
602.407	66.1577
605.782	51.4849
609.157	24.3628
612.532	44.938
615.906	46.9629
619.281	39.6738
622.656	16.6499
626.031	33.8457
629.406	25.6362
632.78	19.8408
636.155	48.9653
639.53	57.9282
642.905	19.3413
646.28	1.16992
649.654	66.124
653.029	21.4463
656.404	58.398
659.779	4.63135
663.154	10.7949
666.529	29.5239
669.903	74.5757
673.278	3.51367
676.653	14.2734
680.028	130.952
683.403	186.055
686.777	204.963
690.152	331.334
693.527	393.785
696.902	484.962
700.277	550.991
703.652	717.523
707.026	834.265
710.401	949.923
713.776	992.898
717.151	797.344
720.526	651.325
723.9	556.183
727.275	456.674
730.65	270.708
734.025	174.057
737.4	215.717
740.774	145.334
744.149	199.288
747.524	146.383
750.899	140.394
754.274	169.483
757.649	195.345
761.023	233.007
764.398	193.804
767.773	158.621
771.148	256.134
774.523	273.545
777.897	354.693
781.272	316.611
784.647	336.536
788.022	311.344
791.397	327.673
794.771	411.354
798.146	422.852
801.521	410.206
804.896	441.903
808.271	340.299
811.645	341.741
815.02	288.679
818.395	303.597
821.77	291.592
825.145	202.501
828.519	146.56
831.894	112.072
835.269	68.5107
838.644	32.5762
842.019	54.9766
845.394	10.585
848.768	44.0215
852.143	25.9521
855.518	15.5879
858.893	5.74805
862.268	19.4277
865.643	35.331
869.017	36.8838
872.392	36.3672
875.767	57.082
879.142	63.2148
882.516	44.2422
885.891	21.8916
889.266	44.7246
892.641	192.031
896.016	161.62
899.391	271.353
902.765	362.438
906.14	494.243
909.515	549.681
912.89	673.539
916.265	834.065
919.639	959.314
923.014	1121.55
926.389	1351.48
929.764	1642.44
933.139	1714.92
936.514	1996.35
939.888	2275.67
943.263	2392.21
946.638	2764.27
950.013	2851.11
953.388	3135.28
956.763	3351.61
960.137	3510.05
963.512	3490.33
966.887	3687.37
970.262	3419.92
973.636	3316.1
977.011	3214.13
980.386	3029.38
983.761	2843.88
987.136	2661.75
990.511	2313.5
993.885	2074.24
997.26	1942.56
1000.63	1665.93
1004.01	1503.64
1007.38	1316.81
1010.76	1025.54
1014.13	823.979
1017.51	746.373
1020.88	532.703
1024.26	413.656
1027.63	269.059
1031.01	186.68
1034.38	171.404
1037.76	17.1543
1041.13	89.1465
1044.51	124.346
1047.88	49.2305
1051.26	364.16
1054.63	996.861
1058.01	2463.41
1061.38	4097.29
1064.76	5529.83
1068.13	7372.95
1071.51	9299.52
1074.88	10871.7
1078.26	11710.5
1081.63	11960.1
1085.01	11182.8
1088.38	7098.39
1091.76	2226.92
1095.13	1396.31
1098.51	866.111
1101.88	320.045
1105.25	7.01758
1108.63	63.0508
1112	26.3594
1115.38	37.9707
1118.75	122.649
1122.13	81.3926
1125.5	114.624
1128.88	151.575
1132.25	233.23
1135.63	135.203
1139	225.775
1142.38	241.439
1145.75	240.053
1149.13	320.301
1152.5	387.575
1155.88	396.595
1159.25	442.08
1162.63	527.223
1166	418.78
1169.38	391.091
1172.75	424.233
1176.12	309.506
1179.5	212.197
1182.88	288.329
1186.25	314.991
1189.62	349.568
1193	349.849
1196.37	303.309
1199.75	224.481
1203.12	353.082
1206.5	379.97
1209.87	200.634
1213.25	243.426
1216.62	273.816
1220	219.102
1223.37	227.715
1226.75	190.045
1230.12	205.523
1233.5	203.748
1236.87	100.857
1240.25	168.51
1243.62	267.039
1247	58.5527
1250.37	76.3887
1253.75	110.297
1257.12	84.209
1260.5	33.1992
1263.87	29.668
1267.24	103.525
1270.62	18.1855
1273.99	58.2324
1277.37	61.4746
1280.74	63.666
1284.12	87.0332
1287.49	125.535
1290.87	77.084
1294.24	117.711
1297.62	18.8711
1300.99	85.0508
1304.37	71.7012
1307.74	114.268
1311.12	165.066
1314.49	79.7949
1317.87	0
