Measurement: Raman, 532 nm, unoriented, Raman Data Processed
Mineral: Calcite
Rruff sample: R040070
Ideal chemistry: CaCO_3_
Locality: Pryor Mountain, Big Horn County, Montana, USA
Source: University of Arizona Mineral Museum
Description: Orange scalenohedral crystals
Measured chemistry: (Ca_0.99_Mg_0.01_)CO_3_
Raman shift (cm-1)	intensity
128.796	0
132.171	10.2376
135.546	82.4528
138.921	359.723
142.296	1015.74
145.67	2499.73
149.045	5060.01
152.42	9049.42
155.795	9665.1
159.17	3978.2
162.544	1596.71
165.919	765.769
169.294	432.887
172.669	259.999
176.044	128.013
179.418	85.7936
182.793	36.3671
186.168	3.0437
189.543	23.9391
192.918	24.8295
196.292	3.89148
199.667	13.7977
203.042	1.30859
206.417	1.4259
209.792	23.1493
213.167	28.0919
216.541	64.6965
219.916	49.5361
223.291	62.1656
226.666	110.166
230.041	150.513
233.416	184.839
236.79	241.946
240.165	320.418
243.54	427.684
246.915	565.3
250.29	809.911
253.664	1057.22
257.039	1497.92
260.414	2059.39
263.789	2998.07
267.164	4562.78
270.538	7540.7
273.913	12112.3
277.288	17203.3
280.663	19916.8
284.038	14906.2
287.413	7678.76
290.787	3941.32
294.162	2264.11
297.537	1401.35
300.912	923.6
304.287	677.641
307.661	450.414
311.036	318.723
314.411	251.639
317.786	154.195
321.161	105.428
324.536	38.8243
327.91	43.6855
331.285	9.59229
334.66	1.44727
338.035	5.31824
341.41	4.60535
344.784	4.08801
348.159	3.276
351.534	0.446777
354.909	5.92481
358.284	17.8936
361.659	1.25561
365.033	8.64355
368.408	16.5888
371.783	49.7722
375.158	19.2814
378.533	26.2384
381.907	18.6288
385.282	9.82422
388.657	18.4793
392.032	0.557373
395.407	4.23474
398.781	8.70373
402.156	19.6562
405.531	15.4672
408.906	16.4498
412.281	14.782
415.656	15.3545
419.03	7.68225
422.405	36.3426
425.78	24.6445
429.155	35.5469
432.53	27.5
435.904	20.8569
439.279	33.5478
442.654	34.4841
446.029	50.089
449.404	49.8227
452.779	15.5818
456.153	28.2902
459.528	9.36719
462.903	34.225
466.278	27.2398
469.653	36.1752
473.027	39.7882
476.402	19.4125
479.777	58.2787
483.152	18.4833
486.527	25.922
489.901	8.79956
493.276	13.2227
496.651	12.6594
500.026	3.50208
503.401	29.129
506.776	38.7205
510.15	1.38257
513.525	36.8882
516.9	21.894
520.275	13.9871
523.65	9.15173
527.024	19.4014
530.399	0.697876
533.774	13.767
537.149	19.1234
540.524	4.00134
543.899	4.74658
547.273	12.7719
550.648	10.1697
554.023	31.3846
557.398	29.6287
560.773	34.5691
564.147	25.2203
567.522	5.65991
570.897	10.071
574.272	4.27661
577.647	16.3627
581.021	35.3997
584.396	29.8063
587.771	9.81213
591.146	44.5806
594.521	18.4517
597.896	23.5658
601.27	33.8967
604.645	46.1083
608.02	81.7874
611.395	37.9976
614.77	41.5198
618.144	43.6114
621.519	64.8256
624.894	40.7966
628.269	28.3622
631.644	60.5504
635.019	44.5098
638.393	1.0282
641.768	8.32312
645.143	19.9842
648.518	7.0321
651.893	3.82654
655.267	11.8107
658.642	3.10437
662.017	3.01282
665.392	22.4673
668.767	14.2367
672.141	17.6364
675.516	37.4199
678.891	39.8994
682.266	22.9043
685.641	71.1106
689.016	74.1624
692.39	85.9751
695.765	213.622
699.14	437.981
702.515	862.372
705.89	1767.14
709.264	3399.78
712.639	5379.17
716.014	1365.78
719.389	343.368
722.764	192.445
726.139	112.651
729.513	50.677
732.888	32.875
736.263	23.7517
739.638	23.1108
743.013	1.38623
746.388	29.8704
749.762	42.1252
753.137	31.7607
756.512	22.9273
759.887	45.8704
763.261	62.7471
766.636	51.2246
770.011	50.0317
773.386	43.4309
776.761	55.0149
780.136	59.3914
783.51	43.146
786.885	36.9736
790.26	77.8716
793.635	6.97754
797.01	14.544
800.385	6.88989
803.759	28.6318
807.134	8.62207
810.509	6.1145
813.884	33.084
817.259	3.05786
820.633	43.4548
824.008	69.8396
827.383	73.5825
830.758	109.718
834.133	106.14
837.507	130.495
840.882	108.245
844.257	83.8992
847.632	92.0703
851.007	81.1587
854.381	119.553
857.756	76.8191
861.131	50.7847
864.506	50.9402
867.881	64.7644
871.256	45.0386
874.63	73.042
878.005	79.2041
881.38	38.2756
884.755	65.3955
888.13	62.8227
891.505	30.8484
894.879	56.2627
898.254	39.4175
901.629	46.6208
905.004	20.519
908.379	16.8677
911.753	60.458
915.128	39.3059
918.503	27.4507
921.878	36.7156
925.253	48.4058
928.627	12.8008
932.002	29.5537
935.377	46.4507
938.752	27.0403
942.127	17.9404
945.501	65.3191
948.876	8.59375
952.251	45.4387
955.626	20.7524
959.001	24.2476
962.376	19.0884
965.75	27.3591
969.125	13.4631
972.5	9.92627
975.875	6.23071
979.25	52.7444
982.625	11.5322
985.999	21.5967
989.374	18.2109
992.749	49.7769
996.124	30.7178
999.499	55.877
1002.87	44.3105
1006.25	45.9526
1009.62	42.4878
1013	44.9121
1016.37	73.6206
1019.75	57.0752
1023.12	41.0601
1026.5	56.4658
1029.87	46.8242
1033.25	17.498
1036.62	15.0723
1040	40.5845
1043.37	1.19189
1046.75	64.1968
1050.12	47.4839
1053.5	69.2607
1056.87	129.189
1060.24	242.273
1063.62	462.547
1066.99	934.182
1070.37	730.896
1073.74	2169.29
1077.12	6444.8
1080.49	14896
1083.87	39755
1087.24	71275.8
1090.62	5447.84
1093.99	1355.26
1097.37	627.585
1100.74	351.979
1104.12	210.745
1107.49	150.538
1110.87	140.587
1114.24	154.807
1117.62	98.4658
1120.99	71.5859
1124.37	0.501953
1127.74	0.484863
1131.12	32.2153
1134.49	76.0649
1137.87	27.7739
1141.24	14.1065
1144.62	12.7065
1147.99	5.67676
1151.37	9.75391
1154.74	51.9605
1158.12	35.5762
1161.49	5.78223
1164.87	87.6846
1168.24	19.4385
1171.61	70.6269
1174.99	25.273
1178.36	79.0005
1181.74	13.124
1185.11	50.3594
1188.49	72.6338
1191.86	55.3892
1195.24	62.5107
1198.61	1.97852
1201.99	52.6401
1205.36	60.7568
1208.74	53.311
1212.11	16.4741
1215.49	23.5415
1218.86	36.1855
1222.24	50.4224
1225.61	44.4834
1228.99	25.1797
1232.36	47.1934
1235.74	1.06982
1239.11	45.5801
1242.48	59.5649
1245.86	9.09668
1249.23	45.0684
1252.61	61.835
1255.98	73.0034
1259.36	69.9048
1262.73	69.3897
1266.11	102.675
1269.48	18.853
1272.86	69.7993
1276.23	119.231
1279.61	14.6992
1282.98	10.6729
1286.36	18.1606
