Measurement: Raman, 780 nm, unoriented, Raman Data Processed
Mineral: Calcite
Rruff sample: R050127
Ideal chemistry: CaCO_3_
Locality: Rodeo, Durango, Mexico
Source: Dave Bunk Minerals
Description: Group of colorless crystals
Measured chemistry: Ca_1.00_CO_3_
Raman shift (cm-1)	intensity
129.294	0
132.669	73.5209
136.044	236.619
139.419	340.115
142.794	528.599
146.168	782.208
149.543	1160.72
152.918	1880.57
156.293	2054.51
159.668	840.228
163.043	304.962
166.417	124.273
169.792	52.8972
173.167	19.8366
176.542	2.77881
179.917	7.57585
183.291	13.0915
186.666	14.8625
190.041	10.5321
193.416	5.10492
196.791	5.6877
200.166	14.0609
203.54	25.6804
206.915	31.7082
210.29	39.9738
213.665	48.241
217.04	50.7122
220.414	58.1158
223.789	67.5196
227.164	79.197
230.539	93.9248
233.914	112.756
237.288	133.915
240.663	158.627
244.038	196.632
247.413	249.372
250.788	335.918
254.163	486.217
257.537	746.223
260.912	1155.04
264.287	1580.2
267.662	1938.75
271.037	2405.55
274.411	2988.17
277.786	3739.78
281.161	4264.87
284.536	3164.93
287.911	1587.04
291.286	805.196
294.66	457.277
298.035	287.118
301.41	188.984
304.785	125.005
308.16	89.0898
311.534	60.3399
314.909	39.2806
318.284	28.0058
321.659	19.3609
325.034	9.8782
328.409	2.16154
331.783	0.354187
335.158	9.10434
338.533	3.52829
341.908	4.82143
345.283	2.74664
348.657	1.99277
352.032	1.37778
355.407	1.6549
358.782	0.870712
362.157	0.762939
365.531	0.172066
368.906	2.13631
372.281	3.37698
375.656	2.86801
379.031	3.44781
382.406	2.76601
385.78	2.30282
389.155	2.30193
392.53	2.77394
395.905	2.3113
399.28	2.52389
402.654	3.0883
406.029	2.26757
409.404	4.09356
412.779	8.08379
416.154	3.85445
419.529	4.02315
422.903	6.45067
426.278	6.14688
429.653	6.42325
433.028	7.01627
436.402	6.70686
439.777	7.70181
443.152	8.9658
446.527	6.08896
449.902	6.26923
453.277	4.14016
456.651	3.97939
460.026	4.66296
463.401	3.1667
466.776	2.5154
470.151	1.75106
473.526	3.86656
476.9	2.73877
480.275	2.26486
483.65	1.54287
487.025	1.13326
490.4	2.93704
493.774	2.30306
497.149	1.73692
500.524	0.301437
503.899	3.72643
507.274	3.72549
510.649	4.54547
514.023	3.11545
517.398	5.96455
520.773	22.2136
524.148	1.26449
527.523	0.446297
530.897	2.12186
534.272	0.476685
537.647	1.68229
541.022	1.63127
544.397	1.57439
547.771	0.873146
551.146	0.273594
554.521	0.522278
557.896	0.839935
561.271	0.362202
564.645	0.485542
568.02	1.07058
571.395	1.21874
574.77	0.511414
578.145	1.46033
581.52	1.62847
584.894	1.24954
588.269	1.57306
591.644	3.07937
595.019	1.93449
598.394	3.22138
601.768	3.38795
605.143	3.56636
608.518	2.56863
611.893	3.32614
615.268	2.54143
618.643	2.64513
622.017	1.43056
625.392	2.33138
628.767	1.42844
632.142	1.5431
635.517	0.15263
638.891	0.404198
642.266	1.21919
645.641	1.26452
649.016	1.05097
652.391	0.235455
655.765	0.719711
659.14	0.286884
662.515	0.269886
665.89	0.188103
669.265	1.12543
672.64	0.935318
676.014	1.46948
679.389	2.29683
682.764	2.36193
686.139	7.10664
689.514	8.5377
692.888	24.4175
696.263	82.059
699.638	120.096
703.013	161.416
706.388	240.084
709.763	391.189
713.137	517.069
716.512	120.17
719.887	29.2941
723.262	14.454
726.637	6.62263
730.011	4.6466
733.386	3.73843
736.761	1.63398
740.136	0.141994
743.511	0.758961
746.885	1.12323
750.26	0.472519
753.635	1.01282
757.01	0.552471
760.385	0.879223
763.76	1.28498
767.134	0.31319
770.509	1.71001
773.884	1.68902
777.259	0.866505
780.634	1.71818
784.008	2.70443
787.383	3.01643
790.758	0.538349
794.133	2.16703
797.508	1.63453
800.883	1.59511
804.257	0.687237
807.632	0.02483
811.007	0.888123
814.382	1.94307
817.757	1.4086
821.131	1.65322
824.506	1.07545
827.881	2.09935
831.256	2.89896
834.631	2.93914
838.005	2.42931
841.38	1.04317
844.755	1.68504
848.13	3.49307
851.505	2.41002
854.88	2.75866
858.254	2.50137
861.629	2.63538
865.004	2.38024
868.379	1.50357
871.754	2.77734
875.128	1.51391
878.503	2.70226
881.878	2.00259
885.253	0.930607
888.628	0.584648
892.003	0.812016
895.377	0.461048
898.752	0.370693
902.127	1.04444
905.502	0.123924
908.877	0.842453
912.251	1.73715
915.626	2.1092
919.001	1.4166
922.376	3.09103
925.751	0.792892
929.125	3.1183
932.5	3.86547
935.875	2.47065
939.25	1.95251
942.625	1.45236
946	1.39679
949.374	1.20237
952.749	0.327374
956.124	1.24642
959.499	0.630722
962.874	1.22081
966.248	1.17968
969.623	0.327705
972.998	0.145298
976.373	0.525082
979.748	0.601986
983.122	0.68475
986.497	1.68107
989.872	4.61225
993.247	4.46833
996.622	4.32817
999.997	7.39082
1003.37	8.0282
1006.75	9.40716
1010.12	11.6693
1013.5	13.1373
1016.87	12.8285
1020.25	11.4418
1023.62	9.01174
1026.99	8.10637
1030.37	6.18239
1033.74	4.98667
1037.12	3.59603
1040.49	4.11607
1043.87	3.16205
1047.24	3.27895
1050.62	5.29847
1053.99	14.3343
1057.37	18.7594
1060.74	33.2362
1064.12	56.5602
1067.49	120.475
1070.87	237.563
1074.24	999.901
1077.62	1277.81
1080.99	2314.99
1084.37	4103.81
1087.74	6760.65
1091.12	523.801
1094.49	130.6
1097.87	61.0813
1101.24	36.6478
1104.62	24.1594
1107.99	16.2579
1111.37	11.3554
1114.74	9.01113
1118.12	7.01917
1121.49	5.27858
1124.87	4.50945
1128.24	2.78696
1131.61	2.12359
1134.99	1.45453
1138.36	0.034496
1141.74	0.827381
1145.11	0.492195
1148.49	1.6404
1151.86	0.340252
1155.24	0.390221
1158.61	1.928
1161.99	0.945831
1165.36	0.936745
1168.74	1.22956
1172.11	1.07891
1175.49	2.6077
1178.86	2.96094
1182.24	4.72385
1185.61	3.9823
1188.99	7.06348
1192.36	6.74998
1195.74	8.84819
1199.11	24.1408
1202.48	8.50926
1205.86	8.1658
1209.23	9.14011
1212.61	9.23364
1215.98	9.67546
1219.36	12.0241
1222.73	12.3278
1226.11	14.8151
1229.48	15.4325
1232.86	17.908
1236.23	17.5138
1239.61	19.0882
1242.98	22.3727
1246.36	20.8524
1249.73	27.2143
1253.11	21.8081
1256.48	19.5206
1259.86	19.5561
1263.23	15.5232
1266.61	11.2193
1269.98	8.71088
1273.36	5.83045
1276.73	3.46208
1280.11	2.28554
1283.48	0.366425
1286.86	0
