Measurement: Raman, 532 nm, unoriented, Raman Data Processed
Mineral: Calcioancylite-(Ce)
Rruff sample: R060205
Ideal chemistry: (Ce,Ca,Sr)CO_3_(OH,H_2_O)
Locality: Mont Saint-Hilaire, Rouville County, Quebec, Canada
Source: Royal Ontario Museum
Description: Aggregate of coarse, poorly formed pink crystals, color is pale green under fluorescent lights
Measured chemistry: (Ce_0.57_La_0.35_Nd_0.12_Pr_0.05_)_Σ=1.09_(Ca_0.44_Sr_0.36_Ba_0.04_)_Σ=0.84_(CO_3_)_1.97_(OH_0.83_F_0.17_)_Σ=1.00_·H_2_O
Raman shift (cm-1)	intensity
145.111	0
148.486	1.32538
151.861	31.6039
155.235	78.2489
158.61	82.7944
161.985	89.9723
165.36	96.7808
168.735	117.177
172.109	141.226
175.484	161.813
178.859	184.399
182.234	206.266
185.609	222.063
188.984	232.662
192.358	232.002
195.733	225.658
199.108	230.202
202.483	256.462
205.858	282.44
209.232	333.603
212.607	392.389
215.982	460.858
219.357	534.079
222.732	593.986
226.107	634.264
229.481	654.606
232.856	657.944
236.231	662.069
239.606	637.42
242.981	604.235
246.355	553.246
249.73	476.15
253.105	380.219
256.48	292.945
259.855	211.242
263.229	147.402
266.604	100.29
269.979	62.1925
273.354	38.4786
276.729	22.5351
280.104	7.84735
283.478	0.47406
286.853	3.81964
290.228	2.15704
293.603	5.9372
296.978	5.45111
300.353	3.50769
303.727	4.71258
307.102	2.41229
310.477	0.605347
313.852	0.021851
317.227	1.72607
320.601	0.636963
323.976	5.05322
327.351	8.20474
330.726	10.5569
334.101	14.9615
337.476	20.2151
340.85	21.773
344.225	26.0982
347.6	31.164
350.975	42.169
354.349	45.4047
357.724	51.473
361.099	54.7762
364.474	62.2768
367.849	67.7182
371.224	68.1455
374.598	67.3743
377.973	62.2484
381.348	53.9571
384.723	43.9943
388.098	37.4786
391.473	29.4714
394.847	23.2856
398.222	17.3435
401.597	14.7335
404.972	12.0516
408.347	8.9317
411.721	6.63782
415.096	7.28503
418.471	5.68487
421.846	3.27283
425.221	4.88794
428.596	3.3714
431.97	2.90781
435.345	2.01135
438.72	0.94812
442.095	2.83926
445.469	2.73883
448.844	2.34512
452.219	2.6409
455.594	2.73837
458.969	3.90192
462.344	5.40494
465.718	5.52997
469.093	4.45081
472.468	3.92432
475.843	2.14856
479.218	4.09512
482.592	2.89181
485.967	4.48578
489.342	0.891815
492.717	4.68259
496.092	2.37369
499.467	4.42667
502.841	1.2735
506.216	6.68216
509.591	2.53748
512.966	0.147583
516.341	0.851196
519.716	0.154144
523.09	0.807037
526.465	0.163055
529.84	0.814575
533.215	1.28839
536.59	1.0307
539.964	0.364288
543.339	1.43134
546.714	2.98935
550.089	2.08322
553.464	1.56061
556.838	0.130768
560.213	1.09875
563.588	0.119446
566.963	1.22659
570.338	1.76446
573.713	2.19318
577.087	1.6882
580.462	0.715332
583.837	0.085236
587.212	0.843903
590.587	0.093933
593.961	0.628357
597.336	0.026855
600.711	1.81943
604.086	2.77624
607.461	2.63791
610.836	3.2229
614.21	1.18079
617.585	0.325806
620.96	1.06503
624.335	0.993103
627.71	1.33859
631.084	0.360321
634.459	1.72208
637.834	1.05897
641.209	1.96628
644.584	1.82953
647.958	3.56935
651.333	3.57423
654.708	3.36677
658.083	4.23606
661.458	5.23379
664.833	4.85397
668.207	7.09308
671.582	8.06375
674.957	6.24475
678.332	6.73782
681.707	10.4181
685.082	17.5478
688.456	32.6114
691.831	55.5583
695.206	92.5073
698.581	126.559
701.956	106.412
705.33	67.2549
708.705	54.2631
712.08	64.9525
715.455	82.7827
718.83	116.554
722.205	151.338
725.579	174.954
728.954	150.795
732.329	86.2844
735.704	44.4374
739.079	26.9453
742.453	15.1466
745.828	8.03986
749.203	5.20035
752.578	0.46698
755.953	0.383972
759.327	0.566925
762.702	1.46445
766.077	0.055115
769.452	0.412964
772.827	0.95752
776.202	0.572113
779.576	0.259308
782.951	2.70148
786.326	0.968262
789.701	0.959259
793.076	1.57355
796.45	4.2652
799.825	1.78696
803.2	4.05515
806.575	3.20373
809.95	4.4469
813.324	2.76108
816.699	3.07062
820.074	1.58554
823.449	1.82315
826.824	2.2735
830.198	2.94675
833.573	3.31882
836.948	2.96756
840.323	4.43649
843.698	6.33469
847.073	10.3991
850.447	14.8333
853.822	29.4191
857.197	34.7179
860.572	19.8944
863.947	11.1751
867.322	8.49097
870.696	8.88528
874.071	6.25757
877.446	4.01114
880.821	2.17267
884.196	0.454559
887.57	3.04263
890.945	2.24844
894.32	2.34186
897.695	1.06506
901.07	0.963745
904.444	0.323517
907.819	0.07547
911.194	0.770477
914.569	1.18109
917.944	0.039124
921.319	1.15301
924.693	0.055084
928.068	0.063934
931.443	1.20282
934.818	4.13663
938.193	3.04099
941.567	4.50925
944.942	5.18588
948.317	8.01633
951.692	9.2283
955.067	9.77927
958.442	14.108
961.816	14.3439
965.191	14.9223
968.566	17.8174
971.941	19.9288
975.316	21.4376
978.691	22.7679
982.065	21.997
985.44	20.455
988.815	20.3544
992.19	17.2927
995.564	15.4983
998.939	13.7656
1002.31	11.4698
1005.69	8.59232
1009.06	7.92453
1012.44	5.86615
1015.81	1.76886
1019.19	4.90622
1022.56	1.73795
1025.94	0.30481
1029.31	0.882141
1032.69	1.01831
1036.06	0.241699
1039.44	0.980194
1042.81	1.09451
1046.19	3.98718
1049.56	10.5617
1052.94	20.4264
1056.31	38.9073
1059.69	76.9435
1063.06	149.33
1066.44	276.721
1069.81	475.374
1073.18	729.9
1076.56	977.76
1079.93	1296.76
1083.31	1578.67
1086.68	1019.7
1090.06	298.133
1093.43	71.8383
1096.81	28.5397
1100.18	12.6513
1103.56	5.10284
1106.93	4.98535
1110.31	3.10794
1113.68	2.98935
1117.06	3.61707
1120.43	2.10889
1123.81	1.98758
1127.18	1.8446
1130.56	2.73019
1133.93	5.10489
1137.31	5.78137
1140.68	5.97455
1144.06	6.35776
1147.43	7.12518
1150.81	5.78104
1154.18	7.56229
1157.56	4.62476
1160.93	4.71429
1164.31	4.45075
1167.68	2.95279
1171.06	3.13516
1174.43	1.84378
1177.81	2.405
1181.18	1.32956
1184.55	2.34259
1187.93	2.85925
1191.3	0.526642
1194.68	0.851044
1198.05	0.644806
1201.43	0.354919
1204.8	0.476257
1208.18	6.86179
1211.55	0.16449
1214.93	2.38266
1218.3	2.15778
1221.68	2.41232
1225.05	1.69266
1228.43	0.870514
1231.8	0.109741
1235.18	1.23187
1238.55	0.076294
1241.93	2.77069
1245.3	0.753418
1248.68	0.822083
1252.05	3.19522
1255.42	2.78021
1258.8	3.76828
1262.17	3.28616
1265.55	3.39181
1268.92	3.95551
1272.3	2.39374
1275.67	3.2117
1279.05	2.93646
1282.42	1.45813
1285.8	1.6824
1289.17	1.8486
1292.55	2.42633
1295.92	2.38672
1299.3	1.54343
1302.67	1.63138
