Measurement: Raman, 514 nm, unoriented, Raman Data Processed
Mineral: Calcite
Rruff sample: R050130
Ideal chemistry: CaCO_3_
Locality: Mexico
Source: Dave Bunk Minerals
Description: Colorless cleavage rhomb
Measured chemistry: Ca_1.00_CO_3_; trace amounts of Si (?)
Raman shift (cm-1)	intensity
103.124	0
107.3	38.071
111.473	44.515
115.644	145.581
119.813	191.229
123.981	218.355
128.146	347.726
132.309	486.343
136.47	1098.98
140.63	1516.81
144.787	1492.23
148.942	1414.76
153.096	1925.91
157.247	1396.41
161.396	628.177
165.544	303.141
169.689	227.174
173.833	203.132
177.974	131.733
182.114	94.958
186.251	159.124
190.387	138.411
194.52	149.698
198.652	145.134
202.782	98.815
206.909	131.821
211.035	136.209
215.159	121.941
219.281	99.073
223.4	62.5
227.518	77.259
231.634	143.107
235.748	98.974
239.86	80.756
243.97	163.595
248.079	73.006
252.185	204.583
256.289	250.49
260.391	276.024
264.492	423.719
268.59	645.368
272.687	989.788
276.781	1936.37
280.874	2569.2
284.964	1663.63
289.053	767.614
293.14	389.347
297.225	262.217
301.308	188.49
305.389	103.459
309.468	162.05
313.545	18.926
317.62	39.714
321.693	106.854
325.765	46.254
329.834	22.546
333.902	14.851
337.967	5.889
342.031	29.007
346.093	13.893
350.153	54.875
354.21	61.679
358.267	8.512
362.321	51.374
366.373	84.258
370.423	59.64
374.471	17.415
378.518	155.424
382.563	136.565
386.605	179.809
390.646	88.008
394.685	112.036
398.722	119.055
402.757	105.254
406.79	49.629
410.821	149.555
414.851	51.618
418.878	97.151
422.904	40.961
426.927	48.729
430.949	43.312
434.969	92.849
438.987	148.213
443.003	13.573
447.018	163.108
451.03	22.562
455.041	26.158
459.049	36.604
463.056	124.952
467.061	123.243
471.064	69.707
475.065	20.13
479.064	72.878
483.062	76.792
487.057	63.623
491.051	16.544
495.043	81.024
499.032	62.411
503.02	86.85
507.007	232.352
510.991	134.395
514.973	225.645
518.954	277.462
522.933	142.463
526.91	40.032
530.885	26.386
534.858	176.005
538.829	80.012
542.799	79.933
546.766	88.645
550.732	91.425
554.696	0.059
558.658	220.486
562.618	139.674
566.576	80.773
570.533	162.693
574.488	125.243
578.44	62.284
582.391	55.794
586.341	46.115
590.288	193.668
594.233	150.063
598.177	141.43
602.119	155.026
606.059	123.574
609.997	249.022
613.933	247.31
617.868	187.684
621.801	145.633
625.731	340.829
629.66	213.578
633.588	211.58
637.513	407.972
641.437	335.308
645.358	195.556
649.278	117.938
653.196	303.311
657.113	104.461
661.027	210.437
664.94	256.352
668.851	115.713
672.76	163.796
676.667	110.822
680.572	139.815
684.476	257.967
688.378	147.696
692.278	90.574
696.176	4.57
700.072	158.417
703.967	139.901
707.86	548.413
711.751	1488.39
715.64	631.267
719.527	270.13
723.413	146.532
727.297	164.59
731.179	182.446
735.059	72.812
738.937	148.145
742.814	209.319
746.689	137.519
750.562	49.133
754.433	150.396
758.303	274.558
762.17	88.282
766.036	71.963
769.901	135.369
773.763	181.725
777.624	158.986
781.482	195.262
785.339	134.038
789.195	199.921
793.048	146.738
796.9	172.469
800.75	71.112
804.598	237.571
808.445	16.885
812.289	132.119
816.132	203.855
819.973	259.985
823.813	195.097
827.65	116.632
831.486	149.721
835.32	165.247
839.152	101.694
842.983	181.863
846.812	7.458
850.639	169.894
854.464	101.132
858.288	113.306
862.11	119.482
865.93	109.638
869.748	156.796
873.564	242.01
877.379	56.099
881.192	73.18
885.004	237.252
888.813	266.199
892.621	273.443
896.427	96.534
900.232	56.461
904.034	192.854
907.835	291.75
911.634	136.711
915.432	259.699
919.227	184.254
923.021	85.738
926.813	195.573
930.604	191.592
934.393	95.776
938.18	313.862
941.965	297.979
945.749	159.774
949.53	79.734
953.311	140.51
957.089	213.045
960.866	229.697
964.641	116.932
968.414	175.439
972.185	80.223
975.955	160.398
979.723	99.789
983.49	330.623
987.254	253.143
991.017	152.037
994.779	234.396
998.538	289.881
1002.3	5.127
1006.05	176.273
1009.81	116.391
1013.56	297.316
1017.31	363.699
1021.06	227.127
1024.81	220.172
1028.55	181.967
1032.3	153.297
1036.04	125.93
1039.78	371.611
1043.52	213.277
1047.26	157.281
1050.99	286.885
1054.73	324.123
1058.46	290.318
1062.19	436.705
1065.92	525.76
1069.65	470.326
1073.37	527.635
1077.1	683.359
1080.82	1876.96
1084.54	20373.5
1088.26	22635.6
1091.97	2789.69
1095.69	890.801
1099.4	390.355
1103.12	252.799
1106.83	218.707
1110.54	187.068
1114.24	244.131
1117.95	106.504
1121.65	104.199
1125.35	16.896
1129.06	13.289
1132.75	162.211
1136.45	285.178
1140.15	64.328
1143.84	59.236
1147.53	87.039
1151.22	2.377
1154.91	24.523
1158.6	93.713
1162.28	123.268
1165.97	242.205
1169.65	172.721
1173.33	110.354
1177.01	130.922
1180.69	161.992
1184.36	237.834
1188.04	175.307
1191.71	242.74
1195.38	275.68
1199.05	39.072
1202.71	445.26
1206.38	169.832
1210.04	60.232
1213.71	227.037
1217.37	150.432
1221.03	341.584
1224.68	317.838
1228.34	397.344
1231.99	305.975
1235.65	336.682
1239.3	129.975
1242.95	183.609
1246.59	50.264
1250.24	101.311
1253.88	179.424
1257.53	84.652
1261.17	16.34
1264.81	231.508
1268.45	62.945
1272.08	93.66
1275.72	68.039
1279.35	187.838
1282.98	172.729
1286.61	31.654
1290.24	56.623
1293.87	94.598
1297.49	164.648
1301.11	220.199
1304.73	184.875
1308.36	156.549
1311.97	6.764
1315.59	239.594
1319.2	122.098
1322.82	126.857
1326.43	253.547
1330.04	118.035
1333.65	14.357
1337.26	20.389
1340.86	225.787
1344.47	22.9
1348.07	151.326
1351.67	171.195
1355.27	278.748
1358.87	472.082
1362.46	230.154
1366.06	356.139
1369.65	256.162
1373.24	211.07
1376.83	216.787
1380.42	325.633
1384	210.6
1387.59	82.947
1391.17	375.896
1394.75	284.91
1398.33	232.436
1401.91	279.855
1405.49	214.842
1409.06	252.793
1412.64	404.129
1416.21	282.129
1419.78	230.375
1423.35	215.811
1426.91	206.148
1430.48	288.635
1434.05	477.82
1437.61	500.807
1441.17	479.641
1444.73	387.389
1448.29	352.324
1451.84	407.801
1455.4	504.385
1458.95	383.604
1462.5	66.338
1466.05	17.549
1469.6	197.422
1473.15	71.088
1476.69	13.592
1480.24	78.41
1483.78	287.604
1487.32	49.066
1490.86	15.055
1494.39	117.424
