Measurement: Raman, 785 nm, unoriented, Raman Data Processed
Mineral: Calcurmolite
Rruff sample: R070028
Ideal chemistry: (Ca_1-x_Na_x_)_2_(UO_2_)_3_(MoO_4_)_2_(OH)_6-x_nH_2_O
Locality: Gornoe, Transbaikal region, Russia
Source: Michael Scott
Description: Lemon-yellow massive
Raman shift (cm-1)	intensity
178.2	0
181.092	45.4556
183.985	16.228
186.878	44.352
189.77	71.4487
192.663	50.5083
195.556	111.62
198.448	155.183
201.341	178.396
204.234	150.566
207.126	120.938
210.019	42.8135
212.912	100.484
215.805	40.8667
218.697	9.84863
221.59	16.7256
224.483	6.18457
227.375	3.7251
230.268	23.8311
233.161	50.6543
236.054	141.734
238.946	219.111
241.839	328.082
244.732	442.654
247.624	547.548
250.517	637.117
253.41	721.293
256.302	747.217
259.195	707.614
262.088	678.342
264.981	669.242
267.873	624.678
270.766	553.713
273.659	492.731
276.551	436.117
279.444	336.289
282.337	379.909
285.229	271.119
288.122	238.415
291.015	130.907
293.908	127.078
296.8	44.7036
299.693	24.4614
302.586	18.8242
305.478	9.61865
308.371	37.6909
311.264	16.002
314.156	51.8628
317.049	46.3374
319.942	98.6782
322.835	156.31
325.727	267.017
328.62	387.313
331.513	468.353
334.405	583.021
337.298	660.549
340.191	742.128
343.084	838.161
345.976	927.321
348.869	1042.94
351.762	1098.98
354.654	1194.47
357.547	1285.62
360.44	1421.31
363.332	1522.62
366.225	1515.12
369.118	1593.2
372.01	1633.64
374.903	1637.76
377.796	1556.26
380.689	1462.3
383.581	1319.9
386.474	1145.63
389.367	995.019
392.259	792.893
395.152	637.639
398.045	503.243
400.938	341.202
403.83	248.625
406.723	183.229
409.616	141.007
412.508	78.2407
415.401	26.9292
418.294	17.373
421.186	14.0293
424.079	7.25977
426.972	54.6938
429.865	22.9141
432.757	0.350098
435.65	4.38769
438.543	35.3267
441.435	38.9697
444.328	137.948
447.221	118.503
450.113	177.71
453.006	280.981
455.899	373.502
458.791	418.644
461.684	567.764
464.577	701.932
467.47	842.02
470.362	968.362
473.255	1118
476.148	1228.19
479.04	1416.25
481.933	1472.25
484.826	1595.41
487.719	1649.2
490.611	1732.86
493.504	1706.17
496.397	1661.61
499.289	1550.28
502.182	1469.6
505.075	1338.5
507.967	1207.44
510.86	1132.81
513.753	1002.87
516.645	903.622
519.538	752.11
522.431	639.145
525.324	578.065
528.216	498.592
531.109	435.4
534.002	437.503
536.894	382.065
539.787	303.702
542.68	273.027
545.572	302.643
548.465	257.765
551.358	234.247
554.251	194.393
557.143	142.388
560.036	180.485
562.929	93.5681
565.822	93.1873
568.714	65.1585
571.607	31.0901
574.5	38.8477
577.392	25.5488
580.285	4.36401
583.178	24.4587
586.07	39.7302
588.963	16.6985
591.856	66.1462
594.749	2.80493
597.641	55.9805
600.534	12.4463
603.427	54.5847
606.319	23.1702
609.212	21.1025
612.105	54.7439
614.997	163.265
617.89	171.7
620.783	276.321
623.676	374.203
626.568	489.045
629.461	662.128
632.354	827.544
635.246	1002.56
638.139	1103.73
641.032	1266.59
643.924	1344.64
646.817	1399.02
649.71	1366.89
652.602	1279.15
655.495	1154.26
658.388	1030.13
661.281	894.299
664.173	792.61
667.066	727.082
669.959	670.385
672.851	628.569
675.744	601.693
678.637	660.248
681.529	702.506
684.422	760.409
687.315	829.912
690.208	948.155
693.1	1015.24
695.993	1090.01
698.886	1124.22
701.778	1067.21
704.671	1111.28
707.564	1026
710.457	924.011
713.349	866.678
716.242	690.683
719.135	633.024
722.027	542.174
724.92	379.679
727.813	317.59
730.705	251.629
733.598	103.685
736.491	16.2124
739.384	29.9707
742.276	33.6777
745.169	35.4605
748.062	24.6914
750.954	19.8164
753.847	36.2124
756.74	2.36523
759.632	179.92
762.525	312.539
765.418	521.319
768.311	837.644
771.203	1126.26
774.096	1485.46
776.989	2031
779.881	2641.82
782.774	3414.14
785.667	4241.12
788.559	5013.15
791.452	5618.44
794.345	6101.32
797.237	6091.51
800.13	5753.36
803.023	5123.54
805.916	4576.76
808.808	3855.51
811.701	3290.23
814.594	2814.96
817.486	2337.29
820.379	2068.7
823.272	1750.76
826.165	1485.35
829.057	1107.11
831.95	744.968
834.843	308.839
837.735	104.587
840.628	32.2998
843.521	42.9531
846.413	45.6953
849.306	29.0225
852.199	135.798
855.092	262.258
857.984	444.327
860.877	653.403
863.77	737.61
866.662	878.008
869.555	887.848
872.448	851.844
875.341	839.158
878.233	748.26
881.126	545.307
884.019	454.956
886.911	313.223
889.804	283.499
892.697	236.936
895.589	352.987
898.482	374.835
901.375	459.361
904.268	630.736
907.16	715.95
910.053	842.225
912.946	901.89
915.838	951.466
918.731	1045.79
921.624	1068.16
924.516	1297.36
927.409	1367.28
930.302	1406.18
933.194	1491.16
936.087	1439.59
938.98	1451.29
941.873	1383.29
944.765	1261.71
947.658	1154.3
950.551	1073.21
953.443	882.64
956.336	784.891
959.229	629.251
962.121	447.075
965.014	293.403
967.907	116.552
970.8	39.5198
973.692	15.1021
976.585	38.5276
979.478	45.8831
982.37	53.6062
985.263	47.6103
988.156	1.90796
991.048	0.455322
993.941	42.3892
996.834	42.9075
999.727	14.2827
1002.62	61.791
1005.51	75.5889
1008.4	66.4033
1011.3	91.5596
1014.19	114.66
1017.08	131.858
1019.98	136.491
1022.87	168.093
1025.76	159.047
1028.65	167.757
1031.55	201.895
1034.44	131.238
1037.33	130.773
1040.22	132.157
1043.12	118.806
1046.01	86.7976
1048.9	62.4807
1051.8	39.3977
1054.69	84.354
1057.58	61.2029
1060.47	50.3857
1063.37	57.9915
1066.26	50.7607
1069.15	40.5471
1072.04	40.8328
1074.94	58.0823
1077.83	73.3166
1080.72	41.8943
1083.62	29.7197
1086.51	78.8911
1089.4	30.9153
1092.29	32.8176
1095.19	25.2393
1098.08	43.8169
1100.97	35.2786
1103.86	43.5706
1106.76	45.2109
1109.65	37.4429
1112.54	26.175
1115.43	4.75537
1118.33	11.5591
1121.22	52.2373
1124.11	14.2376
1127.01	32.6865
1129.9	42.1587
1132.79	7.59106
1135.68	14.1936
1138.58	27.7302
1141.47	13.6121
1144.36	19.8691
1147.25	23.5098
1150.15	3.13354
1153.04	25.7285
1155.93	29.8689
1158.83	7.40454
1161.72	15.1272
1164.61	25.5857
1167.5	9.19116
1170.4	12.8545
1173.29	29.0886
1176.18	57.0818
1179.07	52.9602
1181.97	36.9807
1184.86	50.7007
1187.75	19.3103
1190.64	28.4702
1193.54	14.0237
1196.43	42.1868
1199.32	22.4277
1202.22	56.0076
1205.11	11.9876
1208	46.3601
1210.89	53.0815
1213.79	16.1934
1216.68	3.8811
1219.57	24.5
1222.46	25.9004
1225.36	1.6106
1228.25	43.6719
1231.14	51.1262
1234.04	19.5276
1236.93	20.6277
1239.82	90.1506
