Measurement: Raman, 532 nm, unoriented, Raman Data Processed
Mineral: Calcioaravaipaite
Rruff sample: R100033
Ideal chemistry: PbCa_2_AlF_9_
Locality: Grand Reef mine, Klondyke, Aravaipa District, Graham County, Arizona, USA
Source: Natural History Museum of Los Angeles County
Description: Colorless fragments from type specimen, associated with artroeite R100034.  Photos of type specimen are courtesy of LACMNH. Same sample as used in the Kampf et al (2011) study.
Raman shift (cm-1)	intensity
129.061	0
132.436	1.42865
135.811	1.08934
139.186	5.27678
142.561	7.89187
145.936	16.5608
149.31	40.9191
152.685	59.1172
156.06	71.1067
159.435	81.0902
162.81	112.166
166.185	134.007
169.559	124.27
172.934	117.876
176.309	124.919
179.684	120.435
183.059	101.292
186.433	98.9037
189.808	93.1401
193.183	87.6215
196.558	76.7628
199.933	75.9857
203.308	79.91
206.682	74.8924
210.057	64.6107
213.432	63.9916
216.807	59.6291
220.182	72.0299
223.556	90.3906
226.931	106.578
230.306	116.369
233.681	121.999
237.056	121.573
240.43	109.704
243.805	87.3059
247.18	61.9446
250.555	56.4017
253.93	47.8546
257.305	45.8866
260.679	47.3475
264.054	49.6391
267.429	39.8764
270.804	28.7499
274.179	17.9926
277.553	16.8148
280.928	13.0448
284.303	3.20808
287.678	1.52452
291.053	7.26088
294.428	8.13734
297.802	3.69315
301.177	3.47015
304.552	7.30453
307.927	16.7885
311.302	28.2195
314.676	36.2352
318.051	48.1016
321.426	59.9383
324.801	66.4562
328.176	56.4792
331.55	35.3377
334.925	34.8069
338.3	38.1714
341.675	39.1725
345.05	41.8488
348.425	42.8693
351.799	42.1768
355.174	45.1834
358.549	44.2864
361.924	53.4002
365.299	56.4556
368.673	56.093
372.048	43.8117
375.423	28.1568
378.798	26.3683
382.173	29.1383
385.548	31.6039
388.922	30.9255
392.297	31.5282
395.672	32.3023
399.047	31.5241
402.422	23.0508
405.796	16.8906
409.171	12.6704
412.546	15.8841
415.921	17.793
419.296	19.8616
422.671	17.0698
426.045	10.7736
429.42	7.91019
432.795	8.16379
436.17	7.6863
439.545	4.20206
442.92	3.49857
446.294	1.36285
449.669	0.452972
453.044	0.324966
456.419	3.10564
459.793	0.637039
463.168	0.238647
466.543	0.443268
469.918	1.2003
473.293	0.264252
476.668	1.80875
480.042	1.51917
483.417	3.78041
486.792	4.54303
490.167	8.74327
493.542	9.46675
496.916	12.6837
500.291	19.7696
503.666	24.9965
507.041	30.5164
510.416	43.3582
513.791	55.6587
517.165	72.1341
520.54	102.658
523.915	135.405
527.29	173.641
530.665	210.17
534.04	240.223
537.414	249.63
540.789	241.177
544.164	220.712
547.539	204.156
550.914	218.161
554.288	242.95
557.663	267.7
561.038	271.506
564.413	232.815
567.788	171.171
571.163	113.085
574.537	80.0515
577.912	57.8682
581.287	48.0686
584.662	40.3153
588.037	29.3516
591.411	22.7478
594.786	13.1065
598.161	5.7216
601.536	2.13249
604.911	1.30543
608.285	3.54375
611.66	1.04094
615.035	1.03445
618.41	0.273071
621.785	0.041794
625.159	7.28049
628.534	7.26295
631.909	15.7543
635.284	26.6554
638.659	42.0821
642.034	56.8472
645.408	79.1762
648.783	95.3829
652.158	97.2314
655.533	83.3607
658.908	52.92
662.283	34.3329
665.657	21.1016
669.032	12.0716
672.407	8.90067
675.782	6.35889
679.157	4.34781
682.531	1.27101
685.906	3.19063
689.281	1.49666
692.656	1.9818
696.031	0.358704
699.405	3.70042
702.78	2.38046
706.155	1.95009
709.53	0.48616
712.905	3.26628
716.28	0.73764
719.654	5.67743
723.029	1.7117
726.404	6.28189
729.779	2.58894
733.154	6.46426
736.529	7.27199
739.903	7.17616
743.278	10.7487
746.653	9.29974
750.028	7.45075
753.403	6.17795
756.777	5.46541
760.152	5.51176
763.527	6.10077
766.902	3.91602
770.277	4.21074
773.652	3.78226
777.026	2.39085
780.401	0.20607
783.776	1.64047
787.151	3.92485
790.526	3.78319
793.9	1.76993
797.275	0.889786
800.65	3.87038
804.025	2.17014
807.4	1.93173
810.774	2.65237
814.149	1.08643
817.524	0.595215
820.899	3.26909
824.274	2.49811
827.649	2.11
831.023	2.25201
834.398	0.540955
837.773	0.586075
841.148	0.935028
844.523	2.97984
847.898	1.52457
851.272	3.11107
854.647	0.027069
858.022	2.09553
861.397	0.118332
864.771	0.169006
868.146	1.09145
871.521	1.74117
874.896	4.88603
878.271	3.94981
881.646	4.4894
885.02	7.83754
888.395	7.81284
891.77	9.55295
895.145	10.8281
898.52	8.13234
901.894	8.67535
905.269	7.91469
908.644	10.5561
912.019	8.48285
915.394	9.25969
918.769	9.13132
922.143	9.39385
925.518	8.35529
928.893	8.30945
932.268	7.39619
935.643	6.12558
939.018	6.64684
942.392	6.54909
945.767	7.43231
949.142	3.89218
952.517	6.2654
955.892	6.49979
959.266	4.88469
962.641	3.60509
966.016	3.99332
969.391	5.28363
972.766	2.91333
976.14	5.14209
979.515	4.10957
982.89	3.29784
986.265	4.09094
989.64	2.703
993.015	1.15897
996.389	1.74817
999.764	0.025284
1003.14	0.16803
1006.51	0.516891
1009.89	1.13294
1013.26	2.9052
1016.64	2.01756
1020.01	0.682709
1023.39	1.77133
1026.76	1.20196
1030.14	3.04156
1033.51	4.53162
1036.89	6.18835
1040.26	4.68242
1043.64	3.56303
1047.01	4.66808
1050.39	2.91981
1053.76	5.83365
1057.14	4.40753
1060.51	1.99361
1063.89	6.6797
1067.26	2.75325
1070.63	2.98445
1074.01	3.25923
1077.38	4.85294
1080.76	4.63748
1084.13	2.5154
1087.51	0.328568
1090.88	1.35632
1094.26	0.080994
1097.63	2.69891
1101.01	1.81004
1104.38	3.52856
1107.76	2.64825
1111.13	3.01887
1114.51	7.27132
1117.88	3.58179
1121.26	5.34729
1124.63	3.13725
1128.01	5.23044
1131.38	5.06374
1134.76	7.68634
1138.13	7.1364
1141.51	7.10223
1144.88	5.43965
1148.26	6.98323
1151.63	2.9238
1155.01	4.47983
1158.38	4.95154
1161.76	3.72911
1165.13	0.237701
1168.51	2.33636
1171.88	3.56201
1175.26	3.8082
1178.63	3.32736
1182	1.8974
1185.38	1.9556
1188.75	0.242279
1192.13	1.53409
1195.5	2.60931
1198.88	1.24582
1202.25	2.77902
1205.63	2.2027
1209	2.54874
1212.38	3.6626
1215.75	3.20331
1219.13	0.874969
1222.5	2.21619
1225.88	1.8399
1229.25	4.1839
1232.63	2.82156
1236	0.657379
1239.38	4.02567
1242.75	3.97879
1246.13	0.954224
1249.5	2.81778
1252.88	5.12198
1256.25	3.6275
1259.62	6.87512
1263	6.07956
1266.38	2.47305
1269.75	2.53125
1273.12	3.67557
1276.5	4.32938
1279.87	1.78836
1283.25	2.01172
1286.62	2.42377
1290	0.467712
1293.37	2.46866
1296.75	1.70627
1300.12	3.64926
