Measurement: Raman, 532 nm, unoriented, Raman Data Processed
Mineral: Calcurmolite
Rruff sample: R070028
Ideal chemistry: (Ca_1-x_Na_x_)_2_(UO_2_)_3_(MoO_4_)_2_(OH)_6-x_nH_2_O
Locality: Gornoe, Transbaikal region, Russia
Source: Michael Scott
Description: Lemon-yellow massive
Raman shift (cm-1)	intensity
200.322	0
203.215	1.24609
206.108	77.9609
209	8.99219
211.893	11.0039
214.786	134.035
217.679	69.7344
220.571	301.367
223.464	172.551
226.357	178.539
229.249	344.004
232.142	300.445
235.035	584.152
237.927	545.59
240.82	674.805
243.713	828.035
246.606	821.445
249.498	1020.91
252.391	958.906
255.284	1127.7
258.176	943.965
261.069	1079.73
263.962	1052.79
266.854	906.734
269.747	886.922
272.64	943.664
275.532	739.723
278.425	678.84
281.318	444.219
284.211	589.848
287.103	477.269
289.996	222.566
292.889	255.176
295.781	195.391
298.674	104.602
301.567	99.0508
304.459	136.043
307.352	134.098
310.245	19.2969
313.137	6.98438
316.03	37.5391
318.923	133.269
321.816	123.055
324.708	247.344
327.601	239.414
330.494	316.445
333.386	353.125
336.279	495.309
339.172	445.727
342.065	740.309
344.957	595.812
347.85	685.059
350.743	766.863
353.635	735.418
356.528	1090.52
359.421	958.086
362.313	1114.44
365.206	1343.07
368.099	1115.21
370.991	1205.89
373.884	1223.43
376.777	1055.03
379.67	1050.72
382.562	1001.23
385.455	648.918
388.348	505.234
391.24	513.637
394.133	465.754
397.026	286.055
399.918	297.828
402.811	157.484
405.704	44.4375
408.596	138.84
411.489	40.2148
414.382	61.9531
417.275	82.793
420.167	35.4766
423.06	89.6094
425.953	48.0039
428.845	39.6797
431.738	41.8438
434.631	54.3086
437.524	8.46094
440.416	202.008
443.309	31.0664
446.202	132.609
449.094	112.715
451.987	328.938
454.88	356.812
457.772	394.023
460.665	584.164
463.558	621.496
466.45	1128.89
469.343	918.664
472.236	1100.51
475.129	1074.72
478.021	1480.62
480.914	1565.43
483.807	1548.38
486.699	1717.66
489.592	1774.43
492.485	1609.89
495.377	1586.57
498.27	1592.81
501.163	1356.04
504.055	1329.5
506.948	1310.74
509.841	1127.75
512.734	1043.74
515.626	927.008
518.519	823.367
521.412	743.613
524.304	515.18
527.197	528.816
530.09	535.043
532.982	431.602
535.875	113.016
538.768	444.512
541.661	199.512
544.553	234.785
547.446	298.996
550.339	200.988
553.231	258.66
556.124	128.625
559.017	177.551
561.909	87.9062
564.802	89.3633
567.695	88.2852
570.588	38.4453
573.48	156.043
576.373	21.0078
579.266	64.6875
582.158	57.9648
585.051	21.2344
587.944	59.6602
590.837	51.1523
593.729	72.9688
596.622	16.9648
599.514	39.3828
602.407	183.801
605.3	13.7422
608.193	89.9414
611.085	126.613
613.978	344.996
616.871	278.496
619.763	420.492
622.656	340.996
625.549	621.531
628.442	684.453
631.334	985.891
634.227	1076.39
637.12	1336.96
640.012	1372.54
642.905	1703.33
645.798	1486.92
648.69	1666.16
651.583	1453.84
654.476	1355.79
657.369	1262.71
660.261	1393.41
663.154	1128.67
666.047	1158.46
668.939	1013.8
671.832	829.113
674.725	924.234
677.617	898.106
680.51	890.371
683.403	1055.17
686.295	1098.91
689.188	1245.75
692.081	1370.03
694.974	1461.01
697.866	1607.08
700.759	1374.18
703.652	1365.47
706.544	1293.89
709.437	1041.62
712.33	1135.43
715.222	1026.48
718.115	665.676
721.008	660.379
723.901	343.109
726.793	204.734
729.686	166.34
732.579	171.523
735.471	0.109375
738.364	26.6602
741.257	72.6562
744.149	15.1523
747.042	71.0273
749.935	30.1211
752.827	87.0586
755.72	136.512
758.613	501.481
761.506	580.621
764.398	978.922
767.291	1446.86
770.184	1937.54
773.076	2542.28
775.969	3501.5
778.862	4766.77
781.755	5984.86
784.647	7370.68
787.54	9090.03
790.433	10351.7
793.325	10887.6
796.218	11140.3
799.111	10693.1
802.003	9760.49
804.896	8743.23
807.789	7743.76
810.682	6556.06
813.574	5838.74
816.467	5021.93
819.36	4417.56
822.252	3836.51
825.145	3306.14
828.038	2238.67
830.93	1499.03
833.823	619.148
836.716	233.402
839.609	29.6836
842.501	122.062
845.394	172.559
848.287	91.2188
851.179	88.125
854.072	585.144
856.965	628.504
859.857	923.223
862.75	1104.11
865.643	1401.55
868.535	1459.57
871.428	1552.96
874.321	1144.7
877.213	1101.66
880.106	979.387
882.999	602.141
885.892	421.891
888.784	309.074
891.677	111.742
894.57	128.086
897.462	342.25
900.355	325.144
903.248	519.164
906.14	563.691
909.033	780.824
911.926	758.754
914.819	1279.82
917.711	1188.94
920.604	1453.5
923.497	1963.6
926.389	2156.18
929.282	2241.93
932.175	2396.27
935.067	2475.28
937.96	2489.25
940.853	2188.21
943.745	2014.32
946.638	1800.31
949.531	1475.93
952.424	1251.04
955.316	972.777
958.209	723.57
961.102	537.113
963.994	341.141
966.887	84.4727
969.78	94.0117
972.673	64.8398
975.565	47.2578
978.458	71.7109
981.351	91.7812
984.243	103.394
987.136	93.7344
990.029	91.7578
992.921	147.617
995.814	184.793
998.707	117.637
1001.6	1.64844
1004.49	226.965
1007.38	143.586
1010.28	162.16
1013.17	191.344
1016.06	255.812
1018.96	244.691
1021.85	77.7539
1024.74	146.789
1027.63	256.836
1030.53	348.289
1033.42	345.152
1036.31	102.668
1039.2	278.539
1042.1	286.465
1044.99	84.4609
1047.88	247.211
1050.78	243.68
1053.67	89.1055
1056.56	173.387
1059.45	203.481
1062.35	36.6797
1065.24	18.4297
1068.13	227.773
1071.02	276.938
1073.92	306.801
1076.81	205.031
1079.7	19.6094
1082.6	99.0273
1085.49	14.3008
1088.38	123.461
1091.27	145.578
1094.17	3.88281
1097.06	120.312
1099.95	74.6328
1102.84	93.9141
1105.74	70.1484
1108.63	25.7656
1111.52	119.41
1114.41	204.152
1117.31	93.6445
1120.2	98.7695
1123.09	233.738
1125.98	9.31641
1128.88	194.781
1131.77	93.6758
1134.66	128.582
1137.56	167.766
1140.45	35.2773
1143.34	163.246
1146.23	115.246
1149.13	216.801
1152.02	169.129
1154.91	213.516
1157.81	133.957
1160.7	165.949
1163.59	86.3398
1166.48	127.519
1169.38	116.211
1172.27	144.852
1175.16	144.625
1178.05	123.211
1180.95	51.6016
1183.84	72.4023
1186.73	62.6992
1189.62	183.023
1192.52	39.8477
1195.41	155.766
1198.3	51.9922
1201.2	48.7891
1204.09	36.4531
1206.98	60.3984
1209.87	54.3555
1212.77	195.562
1215.66	91.0234
1218.55	107.918
1221.44	109.777
1224.34	251.629
1227.23	50.3711
1230.12	273.816
1233.02	135.449
1235.91	68.9258
1238.8	65.2031
1241.69	88.3242
1244.59	206.676
1247.48	1.19531
1250.37	132.152
1253.26	222.356
1256.16	142.688
1259.05	102.789
1261.94	101.453
1264.84	208.477
1267.73	84.6289
1270.62	99.4883
1273.51	148.566
1276.41	267.754
1279.3	139.945
1282.19	249.828
1285.08	225.473
1287.98	165.004
1290.87	300.113
1293.76	114.387
1296.65	328.305
1299.55	270.023
1302.44	232.719
1305.33	90.8477
1308.22	57.7734
