Measurement: Raman, 532 nm, unoriented, Raman Data Processed
Mineral: Calcite
Rruff sample: R150075
Ideal chemistry: CaCO_3_
Locality: Montana, USA
Source: Michael Scott
Description: Colorless cleavage rhomb
Raman shift (cm-1)	intensity
93.158	0
96.5328	133.58
99.9077	5.94507
103.282	5.76831
106.657	143.79
110.032	422.955
113.407	589.466
116.782	804.408
120.157	897.043
123.531	1015.74
126.906	1116.44
130.281	1360.25
133.656	1799.92
137.031	2868.6
140.405	4251.63
143.78	5283.68
147.155	7273.26
150.53	12035.6
153.905	24775.6
157.28	34824.2
160.654	14809.2
164.029	5782.79
167.404	2902.09
170.779	1716.11
174.154	1079.67
177.528	728.385
180.903	494.81
184.278	353.692
187.653	242.754
191.028	146.852
194.403	50.8716
197.777	42.5884
201.152	18.6216
204.527	32.0347
207.902	52.6519
211.277	38.3101
214.651	29.5654
218.026	12.7437
221.401	19.9263
224.776	52.7041
228.151	152.796
231.525	227.141
234.9	373.938
238.275	565.336
241.65	820.677
245.025	1185.3
248.4	1603.26
251.774	2261.98
255.149	3272.03
258.524	4985.47
261.899	7949.52
265.274	12738.5
268.649	16821.1
272.023	19295.2
275.398	23371.5
278.773	31919.9
282.148	42132.7
285.523	33814.4
288.897	16774.3
292.272	8260.52
295.647	4616.42
299.022	2836.49
302.397	1893.41
305.772	1277.73
309.146	914.89
312.521	640.02
315.896	456.868
319.271	267.107
322.646	190.569
326.02	116.168
329.395	68.4878
332.77	29.7671
336.145	8.51807
339.52	5.17285
342.894	10.2988
346.269	26.1426
349.644	16.2046
353.019	5.77441
356.394	8.31494
359.769	1.25586
363.143	23.7017
366.518	25.9253
369.893	40.4634
373.268	43.2173
376.643	47.4111
380.017	82.165
383.392	73.8154
386.767	82.1602
390.142	51.5137
393.517	39.3174
396.892	52.5288
400.266	63.9116
403.641	61.9351
407.016	52.0254
410.391	1.39697
413.766	26.6616
417.14	49.2075
420.515	81.9731
423.89	44.9815
427.265	47.4692
430.64	21.4233
434.014	14.8467
437.389	41.9805
440.764	30.2393
444.139	5.66406
447.514	22.6274
450.889	8.21924
454.263	21.1265
457.638	19.6748
461.013	30.4311
464.388	41.4761
467.763	23.3096
471.137	32.3765
474.512	20.9199
477.887	11.582
481.262	26.2446
484.637	59.8975
488.012	67.6997
491.386	49.1738
494.761	45.5317
498.136	18.5161
501.511	12.4209
504.886	38.6499
508.26	35.3335
511.635	52.937
515.01	27.6948
518.385	48.2671
521.76	20.4858
525.135	6.78662
528.509	1.27783
531.884	19.3052
535.259	8.19824
538.634	5.22949
542.009	0.210449
545.384	33.418
548.758	3.35059
552.133	22.0479
555.508	8.21191
558.883	15.23
562.258	17.2222
565.632	47.8516
569.007	33.6626
572.382	32.3911
575.757	16.2051
579.132	41.6138
582.506	57.6997
585.881	47.9145
589.256	44.9956
592.631	30.585
596.006	33.293
599.381	18.1489
602.755	43.3721
606.13	67.7783
609.505	52.9595
612.88	35.834
616.255	27.1348
619.63	30.5005
623.004	31.4443
626.379	57.3369
629.754	16.2427
633.129	26.2842
636.504	29.4893
639.878	54.2705
643.253	21.9648
646.628	2.08691
650.003	2.81738
653.378	24.1035
656.752	12.6411
660.127	18.2188
663.502	6.12158
666.877	20.043
670.252	32.8335
673.626	60.1987
677.001	8.10352
680.376	37.3887
683.751	43.1787
687.126	65.1499
690.501	126.767
693.875	208.579
697.25	768.424
700.625	2989.29
704	2614.18
707.375	2224.24
710.75	2737.12
714.124	3427.93
717.499	731.503
720.874	230.628
724.249	125.138
727.624	88.9111
730.998	67.0435
734.373	63.1065
737.748	51.1011
741.123	31.8657
744.498	45.0488
747.872	52.4653
751.247	70.6216
754.622	68.9937
757.997	58.6191
761.372	53.918
764.747	31.71
768.121	3.94043
771.496	42.8428
774.871	9.27246
778.246	18.7549
781.621	4.14453
784.995	15.0879
788.37	6.06641
791.745	9.08203
795.12	2.22656
798.495	0.541992
801.87	27.083
805.244	57.2812
808.619	58.7891
811.994	59.831
815.369	66.8008
818.744	82.8467
822.119	141.219
825.493	99.2627
828.868	82.0518
832.243	71.5723
835.618	86.8408
838.993	68.2109
842.367	79.1269
845.742	98.0801
849.117	81.3506
852.492	57.7236
855.867	65.3281
859.241	84.0283
862.616	70.6445
865.991	68.8555
869.366	45.3301
872.741	71.5029
876.115	8.48535
879.49	31.2207
882.865	10.6719
886.24	30.1602
889.615	23.373
892.99	42.0029
896.364	18.2637
899.739	45.5449
903.114	36.1641
906.489	15.1328
909.864	20.8154
913.239	20.1143
916.613	7.57129
919.988	5.7207
923.363	38.5674
926.738	43.5322
930.113	18.5518
933.487	35.6719
936.862	8.38477
940.237	13.9131
943.612	49.6318
946.987	32.4121
950.361	13.0059
953.736	29.5322
957.111	8.33887
960.486	7.68555
963.861	7.44922
967.236	22.9521
970.61	7.85156
973.985	18.5186
977.36	8.19434
980.735	33.4131
984.11	14.792
987.485	5.40234
990.859	6.25684
994.234	28.9033
997.609	39.9375
1000.98	79.6035
1004.36	96.8525
1007.73	105.829
1011.11	140.142
1014.48	202.984
1017.86	186.515
1021.23	196.293
1024.61	146.836
1027.98	127.697
1031.36	107.333
1034.73	87.0625
1038.11	101.716
1041.48	114.377
1044.86	106.258
1048.23	105.554
1051.61	140.192
1054.98	185.674
1058.36	278.944
1061.73	316.843
1065.11	595.158
1068.48	1602.02
1071.86	993.156
1075.23	2787.61
1078.6	8601.78
1081.98	15665.6
1085.35	54960.6
1088.73	137984
1092.1	12140
1095.48	2455.26
1098.85	1030.74
1102.23	557.538
1105.6	370.853
1108.98	267.941
1112.35	204.885
1115.73	165.822
1119.1	114.731
1122.48	74.2051
1125.85	40.0107
1129.23	6.19531
1132.6	22.9316
1135.98	15.0605
1139.35	11.375
1142.73	13.1094
1146.1	10.0254
1149.48	11.3398
1152.85	10.6357
1156.22	37.7588
1159.6	18.5225
1162.97	8.75293
1166.35	21.4434
1169.72	2.92871
1173.1	32.9482
1176.47	28.1729
1179.85	54.3799
1183.22	70.4228
1186.6	107.878
1189.97	95.0967
1193.35	94.4316
1196.72	45.626
1200.1	54.957
1203.47	39.5996
1206.85	44.1934
1210.22	44.6191
1213.6	46.3945
1216.97	54.1065
1220.35	47.8525
1223.72	51.8799
1227.1	41.208
1230.47	55.9228
1233.85	77.166
1237.22	69.5381
1240.6	34.043
1243.97	77.8877
1247.35	51.3662
1250.72	38.9326
1254.1	35.4932
1257.47	70.5098
1260.85	41.46
1264.22	8.11914
1267.59	40.4277
1270.97	13.5781
1274.34	26.5859
1277.72	0.461914
1281.09	16.4902
1284.47	27.4951
1287.84	42.3525
1291.22	30.2305
1294.59	26.2012
1297.97	14.1982
1301.34	14.0146
