Measurement: Raman, 514 nm, unoriented, Raman Data Processed
Mineral: Calcioancylite-(Ce)
Rruff sample: R060205
Ideal chemistry: (Ce,Ca,Sr)CO_3_(OH,H_2_O)
Locality: Mont Saint-Hilaire, Rouville County, Quebec, Canada
Source: Royal Ontario Museum
Description: Aggregate of coarse, poorly formed pink crystals, color is pale green under fluorescent lights
Measured chemistry: (Ce_0.57_La_0.35_Nd_0.12_Pr_0.05_)_Σ=1.09_(Ca_0.44_Sr_0.36_Ba_0.04_)_Σ=0.84_(CO_3_)_1.97_(OH_0.83_F_0.17_)_Σ=1.00_·H_2_O
Raman shift (cm-1)	intensity
96.858	0
101.036	61.251
105.212	398.812
109.387	818.478
113.559	1299.02
117.729	1591.11
121.897	1670.13
126.063	1811.85
130.228	1764.07
134.39	1697.81
138.55	1483.16
142.709	1530.8
146.865	1667.19
151.019	1939.86
155.171	2032.64
159.322	2392.9
163.47	2500.55
167.617	2776.39
171.761	3217.42
175.904	3444.51
180.044	4017.05
184.183	4395.41
188.319	4531.08
192.454	4295.09
196.586	3965.39
200.717	3549.59
204.846	3624.47
208.972	3719.29
213.097	4117.56
217.22	4566.28
221.341	4897.04
225.46	5281.41
229.577	5310.99
233.692	5233.36
237.805	4985.76
241.916	4742.06
246.025	4404.82
250.132	3797.75
254.237	3154.92
258.34	2421.44
262.442	1898.9
266.541	1517.08
270.639	1209.85
274.734	950.04
278.828	760.484
282.919	505.498
287.009	390.627
291.097	374.56
295.183	101.005
299.266	0.724
303.348	133.567
307.428	230.238
311.507	200.558
315.583	223.722
319.657	124.911
323.729	92.042
327.8	33.981
331.868	54.348
335.935	201.555
339.999	139.554
344.062	52.617
348.123	88.339
352.182	74.742
356.239	3.827
360.294	71.381
364.347	21.034
368.398	179.561
372.448	225.601
376.495	396.195
380.54	350.025
384.584	362.635
388.626	216.934
392.666	98.685
396.704	195.9
400.74	174.932
404.774	232.917
408.806	393.844
412.836	458.673
416.865	651.479
420.891	873.409
424.916	994.58
428.939	1134.95
432.959	1164.52
436.978	1323.55
440.996	1521.95
445.011	1349.73
449.024	1446.51
453.036	1531.65
457.045	1583.26
461.053	1460.96
465.059	1641.48
469.063	1634.8
473.065	1635.46
477.065	1671.24
481.063	1544.12
485.06	1479.65
489.054	1581.76
493.047	1658
497.038	1659.26
501.027	1548.16
505.014	1484.14
508.999	1697.87
512.982	1510.92
516.964	1436.07
520.944	1280.85
524.921	1266.49
528.897	1287.66
532.871	1339.79
536.844	1352.68
540.814	1236.37
544.783	1131.25
548.749	1099.75
552.714	1076.18
556.677	892.66
560.638	798.331
564.597	733.99
568.555	731.657
572.511	730.906
576.464	681.376
580.416	693.229
584.366	639.701
588.315	551.077
592.261	550.699
596.206	594.652
600.148	481.757
604.089	549.657
608.028	444.414
611.965	441.856
615.901	470.14
619.834	472.275
623.766	392.354
627.696	382.689
631.624	372.959
635.551	283.506
639.475	193.364
643.398	343.253
647.318	310.188
651.237	222.937
655.155	212.336
659.07	181.416
662.984	170.211
666.895	288.764
670.805	217.086
674.713	305.24
678.62	213.412
682.524	151.467
686.427	349.342
690.328	447.012
694.227	1294.47
698.124	2601.7
702.02	2528.72
705.913	1205.54
709.805	832.211
713.695	778.76
717.584	945.184
721.47	1721.49
725.355	2437.66
729.238	1673.66
733.119	729.49
736.998	215.123
740.876	140.527
744.752	34.318
748.626	149.812
752.498	66.4
756.368	123.883
760.237	72.348
764.104	91.426
767.969	101.195
771.832	21.803
775.693	117.01
779.553	165.33
783.411	56.299
787.267	11.461
791.122	268.594
794.974	345.002
798.825	151.977
802.674	158.557
806.522	253.588
810.367	378.57
814.211	323.891
818.053	308.496
821.893	263.977
825.732	298.521
829.568	244.248
833.403	389.139
837.236	484.016
841.068	369.195
844.898	425.467
848.726	551.721
852.552	507.955
856.376	824.221
860.199	650.449
864.02	646.725
867.839	702.977
871.656	819.211
875.472	505.395
879.286	661.533
883.098	767.635
886.909	813.824
890.717	779.697
894.524	774.158
898.33	869.971
902.133	806.393
905.935	865.213
909.735	561.637
913.533	583.723
917.33	774.143
921.124	710.885
924.918	654.502
928.709	559.908
932.499	835.404
936.286	546.494
940.073	645.906
943.857	802.76
947.64	659.975
951.421	677.342
955.2	735.021
958.978	532.703
962.753	590.766
966.527	519.023
970.3	617.484
974.071	669.809
977.84	628.676
981.607	413.215
985.372	644.129
989.136	613.621
992.898	553.41
996.659	491.168
1000.42	671.492
1004.17	774.045
1007.93	645.502
1011.68	494.256
1015.43	650.055
1019.18	365.443
1022.93	567.123
1026.68	829.012
1030.42	961.104
1034.17	642.984
1037.91	725.471
1041.65	748.148
1045.39	901.031
1049.12	884.154
1052.86	1047.8
1056.59	662.072
1060.33	1306.96
1064.06	2322.46
1067.78	4658.4
1071.51	7625.48
1075.23	10841.8
1078.96	15479.1
1082.68	25856.8
1086.4	19054.7
1090.12	4923.01
1093.83	1471.47
1097.55	800.174
1101.26	718.975
1104.97	337.777
1108.68	476.592
1112.39	155.506
1116.1	214.641
1119.8	115.979
1123.5	13.309
1127.2	82.811
1130.9	323.018
1134.6	322.93
1138.3	302.951
1141.99	144.721
1145.69	279.799
1149.38	37.475
1153.07	26.076
1156.76	170.295
1160.44	108.527
1164.13	172.486
1167.81	143.785
1171.49	34.873
1175.17	55.475
1178.85	14.402
1182.52	255.217
1186.2	164.744
1189.87	394.299
1193.54	114.883
1197.21	332.445
1200.88	292.184
1204.55	265.453
1208.21	189.082
1211.88	423.047
1215.54	377.32
1219.2	341.891
1222.86	306.75
1226.51	311.914
1230.17	107.398
1233.82	508.379
1237.47	516.902
1241.12	320.652
1244.77	525.332
1248.42	431.598
1252.06	344.148
1255.71	374.578
1259.35	398.5
1262.99	55.367
1266.63	518.902
1270.26	192.668
1273.9	326.738
1277.53	540.723
1281.16	394.492
1284.8	157.922
1288.42	209.09
1292.05	483.836
1295.68	136.965
1299.3	12.285
1302.92	179.152
1306.55	367.016
1310.16	484.152
1313.78	343.781
1317.4	174.398
1321.01	368.965
1324.62	347.879
1328.24	117.738
1331.85	60.422
1335.45	420.547
1339.06	526.887
1342.66	0
