Measurement: Raman, 532 nm, unoriented, Raman Data Processed
Mineral: Calcite
Rruff sample: R050048
Ideal chemistry: CaCO_3_
Locality: Magdalena, New Mexico, USA
Source: University of Arizona Mineral Museum
Description: Colorless massive
Measured chemistry: (Ca_0.99_Zn_0.01_)CO_3_
Raman shift (cm-1)	intensity
128.931	0
132.306	2.85809
135.68	10.2464
139.055	21.7576
142.43	36.0625
145.805	57.6646
149.18	90.881
152.554	145.779
155.929	157.089
159.304	102.725
162.679	47.8681
166.054	21.8677
169.429	13.7987
172.803	12.8891
176.178	8.75668
179.553	8.25784
182.928	6.00044
186.303	3.24518
189.678	6.83561
193.052	2.52339
196.427	0.938404
199.802	5.46133
203.177	0.554428
206.552	0.172508
209.926	2.29169
213.301	9.69407
216.676	4.60403
220.051	0.748722
223.426	0.237
226.8	2.97895
230.175	2.93102
233.55	1.21844
236.925	6.48375
240.3	10.3387
243.675	13.3786
247.049	21.0642
250.424	24.901
253.799	33.9267
257.174	47.5871
260.549	65.8157
263.923	106.147
267.298	164.061
270.673	218.733
274.048	324.821
277.423	447.723
280.798	508.412
284.173	406.037
287.547	236.828
290.922	127.791
294.297	78.3061
297.672	48.3694
301.046	38.2917
304.421	21.8273
307.796	17.6047
311.171	13.171
314.546	10.3451
317.921	6.31654
321.295	0.103657
324.67	4.03762
328.045	1.74942
331.42	2.91095
334.795	1.98304
338.17	0.692093
341.544	1.68488
344.919	1.14606
348.294	1.74403
351.669	3.18764
355.044	5.86027
358.418	3.46229
361.793	1.10817
365.168	3.70754
368.543	4.60195
371.918	4.46615
375.293	3.48312
378.667	3.12499
382.042	7.09164
385.417	2.5389
388.792	1.96221
392.167	7.62872
395.541	1.47696
398.916	2.56764
402.291	4.48
405.666	4.27754
409.041	2.59952
412.416	1.1305
415.79	6.1939
419.165	2.68956
422.54	8.5455
425.915	5.72909
429.29	1.27649
432.664	5.79623
436.039	4.73102
439.414	2.93074
442.789	4.36252
446.164	4.50101
449.538	6.10899
452.913	6.87973
456.288	8.8911
459.663	5.04248
463.038	11.9614
466.413	9.95597
469.787	6.41176
473.162	5.68993
476.537	4.04791
479.912	7.46239
483.287	7.29396
486.661	1.6427
490.036	8.90139
493.411	6.44818
496.786	2.87425
500.161	5.37392
503.536	2.77067
506.911	0.979164
510.285	2.12163
513.66	8.66897
517.035	0.923332
520.41	13.5274
523.784	2.51479
527.159	2.20424
530.534	9.59383
533.909	5.2105
537.284	6.66129
540.659	7.90022
544.033	4.14509
547.408	1.51293
550.783	6.965
554.158	6.12975
557.533	7.97853
560.908	4.30593
564.282	1.37662
567.657	3.37351
571.032	4.85659
574.407	4.63991
577.782	0.241646
581.156	3.68075
584.531	2.11324
587.906	4.15043
591.281	2.05283
594.656	3.03619
598.031	4.78296
601.405	5.40171
604.78	4.00726
608.155	0.647591
611.53	7.79786
614.905	6.20449
618.279	6.41331
621.654	4.66238
625.029	8.50561
628.404	3.56612
631.779	0.869827
635.154	7.75566
638.528	1.38485
641.903	3.19287
645.278	9.10844
648.653	1.53313
652.028	7.70418
655.403	3.73095
658.777	1.09464
662.152	0.895477
665.527	1.35164
668.902	2.4
672.277	6.42767
675.651	5.3792
679.026	5.17228
682.401	2.48876
685.776	9.34128
689.151	11.219
692.525	11.9277
695.9	26.8945
699.275	53.7111
702.65	147.068
706.025	229.788
709.399	348.803
712.774	458.158
716.149	137.525
719.524	33.281
722.899	22.3078
726.274	11.4498
729.648	12.9468
733.023	7.64331
736.398	8.17395
739.773	5.61011
743.148	7.66063
746.523	0.390701
749.897	0.778656
753.272	0.376297
756.647	0.28326
760.022	3.85866
763.397	3.24741
766.771	2.3112
770.146	2.5293
773.521	5.39986
776.896	1.68011
780.271	3.05543
783.646	2.75502
787.02	4.15198
790.395	4.06399
793.77	0.598186
797.145	2.38972
800.52	0.265862
803.894	8.34714
807.269	8.84779
810.644	5.44672
814.019	3.72986
817.394	0.507133
820.769	3.47593
824.143	5.10187
827.518	2.51347
830.893	7.05724
834.268	2.08969
837.643	7.76395
841.018	5.53693
844.392	5.36569
847.767	7.82541
851.142	1.26252
854.517	4.29454
857.891	8.13058
861.266	7.02518
864.641	3.62389
868.016	9.43059
871.391	3.86751
874.766	9.62546
878.14	1.17762
881.515	1.83261
884.89	2.13321
888.265	1.21639
891.64	7.1135
895.015	9.50369
898.389	3.02029
901.764	6.33313
905.139	9.24212
908.514	5.28978
911.889	2.58371
915.264	3.66994
918.638	8.52782
922.013	9.2387
925.388	6.58275
928.763	5.66852
932.138	4.47147
935.512	10.7366
938.887	7.21225
942.262	5.32414
945.637	6.14246
949.012	4.26792
952.386	12.5514
955.761	0.84716
959.136	4.49726
962.511	0.36924
965.886	5.91779
969.261	2.14546
972.635	0.69487
976.01	3.10754
979.385	2.62264
982.76	1.26224
986.135	0.301811
989.51	2.22275
992.884	3.61618
996.259	8.99957
999.634	1.4033
1003.01	0.280251
1006.38	15.2276
1009.76	13.2516
1013.13	8.9875
1016.51	5.82164
1019.88	4.77485
1023.26	9.73289
1026.63	6.17075
1030.01	3.81576
1033.38	6.27576
1036.76	0.855186
1040.13	8.14969
1043.51	8.89245
1046.88	8.30496
1050.26	1.62988
1053.63	14.3798
1057.01	14.8537
1060.38	25.6627
1063.76	44.0285
1067.13	62.8835
1070.51	80.6457
1073.88	210.447
1077.26	787.96
1080.63	2068.66
1084	3454.3
1087.38	3718.54
1090.75	795.794
1094.13	126.76
1097.5	56.1216
1100.88	27.6057
1104.25	15.9227
1107.63	16.2427
1111	4.48738
1114.38	5.23476
1117.75	5.56689
1121.13	4.94689
1124.5	10.4428
1127.88	4.31914
1131.25	0.461853
1134.63	8.80001
1138	0.936813
1141.38	3.19458
1144.75	4.02548
1148.13	6.37043
1151.5	7.23209
1154.88	0.684906
1158.25	7.50841
1161.62	3.787
1165	2.96183
1168.38	4.64043
1171.75	6.22763
1175.12	0.363815
1178.5	9.47213
1181.87	7.10776
1185.25	2.88145
1188.62	6.88029
1192	6.83675
1195.37	8.46797
1198.75	10.7017
1202.12	4.06316
1205.5	5.13857
1208.87	7.79205
1212.25	7.3697
1215.62	11.6631
1219	3.78181
1222.37	10.7136
1225.75	7.99189
1229.12	2.94213
1232.5	4.62641
1235.87	1.25652
1239.25	6.26804
1242.62	5.75098
1246	0.430809
1249.37	6.34359
1252.74	11.97
1256.12	3.82618
1259.49	11.3197
1262.87	0.010399
1266.24	0.079895
1269.62	0.165962
1272.99	0.739662
1276.37	8.30226
1279.74	9.28415
1283.12	4.50883
1286.49	11.4793
1289.87	10.1849
1293.24	6.74132
1296.62	8.65617
1299.99	1.95556
1303.37	4.14114
1306.74	0.525826
