Measurement: Raman, 532 nm, unoriented, Raman Data Processed
Mineral: Calcite
Rruff sample: R050128
Ideal chemistry: CaCO_3_
Locality: Tie Siding, Albany County, Wyoming, USA
Source: Dave Bunk Minerals
Description: Pseudomorph after aragonite, not single crystal. Trace of aragonite still present.
Measured chemistry: Ca_1.00_CO_3_
Raman shift (cm-1)	intensity
162.827	0
165.72	79.7412
168.613	31.6367
171.506	6.98633
174.398	113.198
177.291	419.753
180.184	877.045
183.076	850.646
185.969	695.876
188.862	1174.48
191.754	1647.24
194.647	1346.1
197.54	1201.88
200.433	1470.69
203.325	2129.18
206.218	3329.52
209.111	3225.93
212.003	2092.94
214.896	1967.67
217.789	1419.03
220.681	669.347
223.574	290.998
226.467	132.869
229.359	5.85596
232.252	29.7471
235.145	13.6074
238.038	16.3877
240.93	79.8481
243.823	175.737
246.716	300.942
249.608	359.305
252.501	376.775
255.394	415.464
258.286	555.36
261.179	703.342
264.072	842.456
266.965	1049.96
269.857	1385.11
272.75	1689.77
275.643	1806.3
278.535	1879.9
281.428	2072.12
284.321	1857.64
287.214	1275.62
290.106	762.997
292.999	456.344
295.892	299.775
298.784	200.297
301.677	141.022
304.57	89.0005
307.462	67.0454
310.355	61.6626
313.248	45.8032
316.14	52.7544
319.033	57.3618
321.926	47.9853
324.819	15.1465
327.711	11.6148
330.604	37.479
333.497	32.397
336.389	18.0405
339.282	5.24365
342.175	12.751
345.067	18.2246
347.96	18.3223
350.853	14.2051
353.746	26.313
356.638	31.9561
359.531	50.3897
362.424	46.6201
365.316	2.94043
368.209	11.7046
371.102	5.73828
373.995	1.91309
376.887	2.68164
379.78	10.7944
382.673	9.0127
385.565	10.6553
388.458	14.1294
391.351	31.7549
394.243	30.8076
397.136	11.2456
400.029	20.6997
402.921	21.9878
405.814	10.5005
408.707	17.0269
411.6	12.918
414.492	25.1553
417.385	12.6001
420.278	17.6064
423.17	35.8042
426.063	38.8603
428.956	27.2734
431.849	15.1626
434.741	10.8618
437.634	7.93945
440.527	15.1392
443.419	24.3843
446.312	4.01172
449.205	0.966797
452.097	20.9277
454.99	6.71143
457.883	5.7666
460.776	12.7559
463.668	17.9204
466.561	5.77295
469.454	10.0732
472.346	4.91113
475.239	23.7856
478.132	11.2197
481.024	29.6636
483.917	23.6665
486.81	12.706
489.702	31.0278
492.595	15.2656
495.488	2.36914
498.381	3.1831
501.273	19.7749
504.166	1.10547
507.059	6.80957
509.951	5.93945
512.844	3.45361
515.737	12.4898
518.63	25.645
521.522	11.1172
524.415	11.3721
527.308	23.7827
530.2	13.2646
533.093	8.59668
535.986	10.6773
538.878	12.9243
541.771	5.99023
544.664	16.7573
547.557	18.71
550.449	37.5137
553.342	31.6538
556.235	23.7002
559.127	20.499
562.02	34.2163
564.913	6.43604
567.805	25.0723
570.698	3.08594
573.591	9.6792
576.484	27.9678
579.376	40.7129
582.269	35.7031
585.162	64.3257
588.054	40.9429
590.947	32.9565
593.84	17.6206
596.732	13.5776
599.625	5.61572
602.518	26.0791
605.41	14.3687
608.303	20.3804
611.196	10.9458
614.089	3.39356
616.981	16.2427
619.874	22.7681
622.767	28.3247
625.659	37.9424
628.552	25.2344
631.445	0.174805
634.337	20.9888
637.23	0.354492
640.123	0.479492
643.016	9.77539
645.908	20.4375
648.801	25.1602
651.694	41.3818
654.586	31.1577
657.479	40.5181
660.372	33.6592
663.264	21.3872
666.157	37.8672
669.05	11.124
671.943	19.2178
674.835	24.9644
677.728	32.8023
680.621	35.561
683.513	64.5864
686.406	123.369
689.299	387.978
692.192	671.14
695.084	1065.72
697.977	1934.78
700.87	3173.53
703.762	4229.23
706.655	3584.45
709.548	1409.67
712.44	629.932
715.333	419.65
718.226	191.406
721.118	73.5781
724.011	52.2124
726.904	37.293
729.797	27.4629
732.689	13.52
735.582	36.6929
738.475	27.7637
741.367	14.1484
744.26	1.72314
747.153	1.01709
750.045	12.3081
752.938	15.6143
755.831	40.085
758.723	29.5898
761.616	0.207031
764.509	3.24951
767.402	21.9287
770.294	38.9668
773.187	2.3833
776.08	26.376
778.972	8.3501
781.865	9.72412
784.758	26.9712
787.65	19.9634
790.543	55.7256
793.436	41.3306
796.329	29.9145
799.221	15.0498
802.114	2.76807
805.007	19.6606
807.899	5.63037
810.792	12.1885
813.685	5.8999
816.577	8.86035
819.47	10.2026
822.363	9.28125
825.256	13.978
828.148	3.07178
831.041	2.59228
833.934	9.63623
836.826	34.4868
839.719	39.1836
842.612	40.5366
845.505	35.6533
848.397	28.6509
851.29	49.728
854.183	117.158
857.075	54.3794
859.968	35.8008
862.861	19.9229
865.753	37.5151
868.646	13.7812
871.539	18.4731
874.432	32.6138
877.324	36.0835
880.217	54.8677
883.11	61.3565
886.002	96.5664
888.895	82.4399
891.788	68.0576
894.68	75.3364
897.573	60.9522
900.466	73.7363
903.359	84.3818
906.251	73.8101
909.144	64.4536
912.037	65.4941
914.929	69.5181
917.822	35.1934
920.715	53.8345
923.607	40.0698
926.5	18.2656
929.393	3.43408
932.285	23.415
935.178	21.6221
938.071	9.94482
940.964	1.79248
943.856	2.7915
946.749	14.0049
949.642	26.0215
952.534	3.5083
955.427	15.0474
958.32	20.3774
961.212	17.3242
964.105	1.50098
966.998	17.7778
969.891	1.25488
972.783	8.50928
975.676	27.2852
978.569	9.61963
981.461	20.5928
984.354	34.2485
987.247	69.0688
990.139	79.6528
993.032	54.2398
995.925	48.7109
998.818	78.2334
1001.71	88.2627
1004.6	75.2183
1007.5	58.3818
1010.39	54.6304
1013.28	30.123
1016.17	55.416
1019.07	30.5703
1021.96	30.1226
1024.85	36.418
1027.74	18.4053
1030.64	32.21
1033.53	7.13867
1036.42	1.1958
1039.32	13.2349
1042.21	19.7637
1045.1	31.958
1047.99	16.2188
1050.89	14.9385
1053.78	48.6084
1056.67	73.9575
1059.56	147.036
1062.46	154.327
1065.35	99.6904
1068.24	159.347
1071.13	322.904
1074.03	1689.66
1076.92	5783.3
1079.81	7709.95
1082.71	14206
1085.6	37897.9
1088.49	23774.4
1091.38	2047.59
1094.28	550.236
1097.17	256.669
1100.06	136.226
1102.95	89.5884
1105.85	37.0879
1108.74	48.2051
1111.63	18.1645
1114.53	15.3247
1117.42	5.53711
1120.31	6.82178
1123.2	11.6851
1126.1	9.95215
1128.99	9.7456
1131.88	30.2158
1134.77	8.13184
1137.67	6.30127
1140.56	16.1279
1143.45	15.79
1146.35	18.1489
1149.24	34.1118
1152.13	31.7466
1155.02	10.709
1157.92	35.9341
1160.81	36.5054
1163.7	27.8374
1166.59	34.9868
1169.49	28.4072
1172.38	37.1338
1175.27	35.8608
1178.16	29.748
1181.06	31.2432
1183.95	28.0361
1186.84	29.4717
1189.74	17.7646
1192.63	29.7871
1195.52	5.37305
1198.41	16.0244
1201.31	72.3603
1204.2	30.1152
1207.09	26.6025
1209.98	1.71289
1212.88	23.0186
1215.77	1.65625
1218.66	31.3262
1221.56	10.8379
1224.45	42.2324
1227.34	39.1758
1230.23	18.5693
1233.13	26.9912
1236.02	33.5088
1238.91	0.80957
1241.8	6.32324
1244.7	0.186523
1247.59	0.359375
1250.48	10.5283
1253.38	10.5869
1256.27	24.7314
1259.16	7.0293
1262.05	17.2393
1264.95	45.3926
1267.84	33.043
1270.73	18.0195
1273.62	19.2402
1276.52	12.1934
1279.41	39.665
1282.3	51.9092
1285.19	48.377
1288.09	20.707
1290.98	48.2754
1293.87	30.3564
1296.77	29.5303
1299.66	19.8877
1302.55	17.668
1305.44	0
