Measurement: Raman, 780 nm, unoriented, Raman Data Processed
Mineral: Calcite
Rruff sample: R150020
Ideal chemistry: CaCO_3_
Locality: Creel, Chihuahua, Mexico
Source: Canan D'Avela
Description: Transparent colorless cleavage fragments of Iceland spar obtained through Wards
Measured chemistry: Ca_0.993_CO_3_; trace amount of Sr
Raman shift (cm-1)	intensity
90.5957	0
93.9705	3.95739
97.3453	0.677635
100.72	0.309315
104.095	0.281414
107.47	2.08136
110.845	0.935265
114.219	0.773193
117.594	2.42886
120.969	0.828852
124.344	0.914598
127.719	0.777779
131.094	1.90197
134.468	3.39236
137.843	9.01876
141.218	13.192
144.593	16.9839
147.968	22.9731
151.342	33.8552
154.717	56.4211
158.092	58.7552
161.467	24.4078
164.842	10.6763
168.216	5.63859
171.591	3.21019
174.966	1.73291
178.341	0.983202
181.716	0.364084
185.09	0.234188
188.465	0.152889
191.84	0.308239
195.215	0.477062
198.59	0.098072
201.965	0.008894
205.339	0.021986
208.714	0.090017
212.089	0.73583
215.464	1.34747
218.839	0.851635
222.214	0.213522
225.588	1.2923
228.963	1.51014
232.338	2.43985
235.713	3.02629
239.088	3.80873
242.462	5.25435
245.837	8.18848
249.212	10.0365
252.587	13.8479
255.962	19.6333
259.336	29.6505
262.711	48.3636
266.086	74.0216
269.461	93.0607
272.836	109.264
276.211	126.11
279.585	147.614
282.96	164.377
286.335	117.563
289.71	59.4541
293.085	30.7533
296.459	18.5439
299.834	10.7824
303.209	7.79076
306.584	5.37543
309.959	4.38723
313.334	3.10393
316.708	2.40806
320.083	1.78712
323.458	1.21314
326.833	0.309858
330.207	0.428926
333.582	0.012389
336.957	0.384604
340.332	0.093059
343.707	0.073284
347.082	0.185757
350.456	0.046753
353.831	0.122777
357.206	0.16532
360.581	0.24293
363.956	0.642235
367.33	0.126165
370.705	0.616666
374.08	0.354023
377.455	0.7682
380.83	1.0024
384.205	1.2208
387.579	0.218654
390.954	0.486547
394.329	0.792347
397.704	0.356106
401.079	0.411752
404.453	0.028338
407.828	1.02222
411.203	0.599934
414.578	0.543544
417.953	0.162664
421.327	0.045372
424.702	0.674593
428.077	0.261152
431.452	0.094811
434.827	0.539228
438.202	0.658862
441.576	0.848244
444.951	1.0056
448.326	0.591096
451.701	0.516418
455.076	0.567003
458.45	0.535924
461.825	0.96706
465.2	0.910254
468.575	1.12107
471.95	2.05528
475.325	1.9401
478.699	0.701335
482.074	0.675868
485.449	0.593676
488.824	0.674194
492.199	0.48612
495.573	0.834663
498.948	0.847367
502.323	0.950153
505.698	0.350378
509.073	0.845796
512.447	0.529472
515.822	0.872619
519.197	0.580704
522.572	0.688975
525.947	0.075767
529.322	0.271233
532.696	0.715851
536.071	2.21866
539.446	1.61905
542.821	2.05383
546.196	1.82319
549.57	1.19867
552.945	0.705955
556.32	0.436135
559.695	0.098797
563.07	0.495762
566.444	1.61528
569.819	1.5662
573.194	1.50271
576.569	0.89166
579.944	0.88302
583.319	0.443423
586.693	0.032046
590.068	1.07143
593.443	0.556882
596.818	0.032079
600.193	0.3205
603.567	1.10477
606.942	1.12138
610.317	1.59436
613.692	0.604361
617.067	0.839184
620.442	0.855
623.816	0.174037
627.191	0.07882
630.566	0.460776
633.941	0.393299
637.316	0.428501
640.69	0.543678
644.065	0.424447
647.44	0.058114
650.815	0.047327
654.19	0.35375
657.564	0.39567
660.939	0.690521
664.314	0.352412
667.689	0.559237
671.064	0.060126
674.439	0.176026
677.813	0.175872
681.188	0.533307
684.563	0.776576
687.938	0.886991
691.313	0.612537
694.688	2.60861
698.062	7.05671
701.437	16.1964
704.812	21.6874
708.187	35.338
711.562	79.1126
714.936	113.317
718.311	22.4782
721.686	5.76047
725.061	2.73606
728.436	1.71669
731.81	0.669038
735.185	0.263653
738.56	0.050179
741.935	0.098511
745.31	0.135695
748.684	0.066688
752.059	0.005553
755.434	0.295213
758.809	0.190563
762.184	0.15648
765.559	1.30492
768.933	1.66194
772.308	1.69665
775.683	0.334352
779.058	0.668329
782.433	0.189729
785.808	0.554519
789.182	0.210706
792.557	0.210753
795.932	0.871157
799.307	2.07278
802.682	2.28274
806.056	1.48223
809.431	0.93713
812.806	0.49443
816.181	0.010646
819.556	0.230771
822.93	0.151725
826.305	0.711164
829.68	0.560681
833.055	0.69802
836.43	0.089456
839.804	0.059417
843.179	0.278008
846.554	0.669547
849.929	0.603342
853.304	0.626909
856.679	0.961369
860.053	0.618793
863.428	0.286337
866.803	0.31761
870.178	0.877939
873.553	1.02676
876.927	0.651483
880.302	0.48968
883.677	0.564111
887.052	0.042235
890.427	0.894071
893.802	0.612724
897.176	0.221346
900.551	0.724319
903.926	0.532443
907.301	0.380515
910.676	0.756579
914.05	0.106436
917.425	0.105082
920.8	0.668063
924.175	0.866422
927.55	0.488273
930.924	0.531067
934.299	0.816926
937.674	1.1532
941.049	1.03585
944.424	1.37095
947.799	0.411531
951.173	0.787723
954.548	0.011408
957.923	0.287706
961.298	0.420648
964.673	0.653806
968.047	0.158185
971.422	0.260772
974.797	0.119535
978.172	0.330188
981.547	0.117921
984.922	0.147626
988.296	0.526399
991.671	0.445379
995.046	0.301519
998.421	0.072583
1001.8	1.13461
1005.17	1.20632
1008.54	1.27262
1011.92	1.65187
1015.29	1.61486
1018.67	1.7808
1022.04	1.46341
1025.42	0.321973
1028.79	1.71965
1032.17	0.957168
1035.54	0.898915
1038.92	0.978247
1042.29	0.811859
1045.67	1.35007
1049.04	1.11292
1052.42	1.10193
1055.79	1.60543
1059.17	2.29515
1062.54	3.62597
1065.92	7.81285
1069.29	15.0604
1072.67	13.4936
1076.04	49.413
1079.42	92.4405
1082.79	234.107
1086.17	961.045
1089.54	1047.59
1092.92	102.881
1096.29	22.8006
1099.66	10.0677
1103.04	5.64382
1106.41	3.14251
1109.79	2.36219
1113.16	1.04596
1116.54	1.12833
1119.91	1.04822
1123.29	0.184876
1126.66	0.091479
1130.04	0.017564
1133.41	0.575055
1136.79	0.50412
1140.16	0.052196
1143.54	0.06907
1146.91	0.400132
1150.29	0.24607
1153.66	0.026142
1157.04	0.367887
1160.41	0.057241
1163.79	0.203367
1167.16	0.192094
1170.54	0.761775
1173.91	0.360173
1177.29	0.792517
1180.66	0.059526
1184.04	0.345885
1187.41	0.573629
1190.79	0.441517
1194.16	0.928061
1197.54	0.482278
1200.91	0.909942
1204.28	0.487406
1207.66	0.775993
1211.03	1.57244
1214.41	0.077468
1217.78	0.80489
1221.16	0.968253
1224.53	0.992566
1227.91	0.518009
1231.28	1.30447
1234.66	0.625125
1238.03	0.310683
1241.41	0.349481
1244.78	0.270653
1248.16	0.481163
1251.53	0.430581
1254.91	0.805356
1258.28	0.701231
1261.66	0.496842
1265.03	0.218132
1268.41	0.27962
1271.78	0.705928
1275.16	0.339658
1278.53	0.892646
1281.9	0.45774
