Measurement: Raman, 532 nm, unoriented, Raman Data Processed
Mineral: Calcite
Rruff sample: R050307
Ideal chemistry: CaCO_3_
Locality: Zaire
Source: Eugene Schlepp
Description: Group of pink prismatic crystals
Measured chemistry: Ca_1.00_CO_3_
Raman shift (cm-1)	intensity
93.7999	0
97.1747	1.8033
100.549	0.103385
103.924	0.880293
107.299	2.39949
110.674	4.93352
114.049	16.0103
117.424	31.3632
120.798	45.5478
124.173	64.8179
127.548	72.2229
130.923	106.869
134.298	167.492
137.673	256.491
141.047	334.065
144.422	425.494
147.797	575.869
151.172	870.602
154.547	1296.49
157.921	910.072
161.296	378.594
164.671	178.557
168.046	105.032
171.421	70.1436
174.796	44.6368
178.17	33.2548
181.545	24.5419
184.92	19.2411
188.295	11.8239
191.67	5.16568
195.044	1.47299
198.419	0.016602
201.794	0.361496
205.169	1.78813
208.544	0.184677
211.918	4.84285
215.293	0.760742
218.668	0.848587
222.043	0.727493
225.418	2.5343
228.792	10.5182
232.167	16.0751
235.542	31.8171
238.917	48.894
242.292	64.7478
245.667	94.9314
249.041	140.309
252.416	201.442
255.791	297.552
259.166	441.68
262.541	688.391
265.916	1012.59
269.29	1386.15
272.665	1856.18
276.04	2551.77
279.415	3375.21
282.79	3366.11
286.164	2081.59
289.539	1044.92
292.914	564.559
296.289	336.892
299.664	216.109
303.038	145.906
306.413	101.052
309.788	74.7753
313.163	53.7128
316.538	39.1508
319.913	25.4737
323.287	17.0522
326.662	10.4498
330.037	4.26228
333.412	3.93089
336.787	0.434082
340.161	0.389816
343.536	1.22624
346.911	1.71573
350.286	3.44174
353.661	0.567932
357.036	0.13382
360.41	0.548538
363.785	1.03474
367.16	2.46095
370.535	1.82979
373.91	3.3817
377.284	4.35001
380.659	6.66043
384.034	4.95822
387.409	4.27208
390.784	2.24701
394.159	3.61054
397.533	3.67227
400.908	4.65645
404.283	2.76971
407.658	4.70348
411.033	4.52856
414.407	4.45816
417.782	5.12689
421.157	6.79436
424.532	2.19975
427.907	3.77957
431.281	4.76163
434.656	4.50238
438.031	5.62277
441.406	5.04674
444.781	3.40123
448.156	5.7821
451.53	1.61649
454.905	2.86136
458.28	1.51518
461.655	6.0379
465.03	0.90892
468.404	0.72998
471.779	1.17191
475.154	2.13362
478.529	3.3856
481.904	1.04146
485.279	2.96011
488.653	2.41284
492.028	3.93141
495.403	2.78154
498.778	3.46374
502.153	2.64923
505.527	0.823013
508.902	4.58377
512.277	2.20279
515.652	3.78477
519.027	3.06805
522.402	2.51338
525.776	1.92864
529.151	3.7432
532.526	0.765549
535.901	2.40045
539.276	3.68697
542.65	2.72256
546.025	3.33652
549.4	1.55337
552.775	1.58095
556.15	2.30028
559.525	2.36459
562.899	3.71761
566.274	1.91785
569.649	0.236694
573.024	1.36119
576.399	3.59598
579.774	1.98816
583.148	2.19289
586.523	5.06389
589.898	1.54939
593.273	4.54149
596.648	6.05481
600.022	5.6364
603.397	4.14177
606.772	7.5649
610.147	2.70543
613.522	2.79719
616.896	3.88675
620.271	1.14369
623.646	2.5098
627.021	0.486435
630.396	3.7769
633.77	1.21124
637.145	1.91615
640.52	0.454483
643.895	1.27483
647.27	0.207626
650.645	0.775284
654.019	0.765808
657.394	0.020111
660.769	2.14609
664.144	1.84454
667.519	3.73189
670.894	1.31616
674.268	0.04892
677.643	5.91951
681.018	5.74625
684.393	5.1272
687.768	8.66179
691.142	19.5543
694.517	40.5082
697.892	120.83
701.267	203.811
704.642	346.371
708.016	699.415
711.391	1297.84
714.766	817.287
718.141	180.27
721.516	60.8144
724.891	27.444
728.265	21.3677
731.64	16.2326
735.015	6.39288
738.39	4.38
741.765	4.91232
745.139	3.14642
748.514	4.15305
751.889	2.09662
755.264	1.33426
758.639	6.43912
762.014	3.75442
765.388	7.43939
768.763	3.62677
772.138	2.9263
775.513	6.7912
778.888	4.84277
782.263	2.88971
785.637	4.59006
789.012	7.34595
792.387	5.19293
795.762	3.71902
799.136	5.75949
802.511	2.13266
805.886	1.41949
809.261	3.103
812.636	5.85172
816.011	3.10565
819.385	2.65283
822.76	0.088348
826.135	3.01196
829.51	1.16708
832.885	0.260254
836.26	0.493988
839.634	2.06802
843.009	3.8967
846.384	1.37805
849.759	3.95523
853.134	2.33695
856.508	2.08813
859.883	0.692383
863.258	0.519958
866.633	5.63879
870.008	3.94873
873.383	4.15616
876.757	5.4733
880.132	5.10297
883.507	1.68561
886.882	5.24069
890.257	5.50006
893.631	12.9929
897.006	9.08954
900.381	7.61069
903.756	5.05847
907.131	7.86081
910.505	6.00613
913.88	8.15137
917.255	6.40121
920.63	7.89389
924.005	11.2521
927.38	10.4363
930.754	9.23578
934.129	9.17572
937.504	7.14496
940.879	4.10663
944.254	9.88251
947.629	5.08643
951.003	6.81976
954.378	6.62381
957.753	3.18112
961.128	3.13373
964.503	0.571594
967.877	2.87399
971.252	0.501923
974.627	0.168549
978.002	1.10175
981.377	1.94647
984.751	1.21738
988.126	1.67404
991.501	6.31155
994.876	9.14459
998.251	12.2005
1001.63	13.7604
1005	12.591
1008.38	19.8401
1011.75	27.0922
1015.12	22.4551
1018.5	23.9234
1021.87	21.7671
1025.25	20.6768
1028.62	15.6005
1032	11.5226
1035.37	8.83722
1038.75	10.7667
1042.12	13.1121
1045.5	13.1244
1048.87	8.16101
1052.25	21.9925
1055.62	33.5811
1059	50.7595
1062.37	79.0774
1065.75	176.619
1069.12	191.361
1072.5	421.273
1075.87	1706.59
1079.25	2893.54
1082.62	6457.57
1086	18412.5
1089.37	5754.65
1092.75	824.973
1096.12	236.459
1099.49	123.63
1102.87	67.9091
1106.24	49.879
1109.62	31.3104
1112.99	22.9616
1116.37	16.6955
1119.74	12.9891
1123.12	6.43732
1126.49	0.518555
1129.87	11.4697
1133.24	1.5788
1136.62	3.37366
1139.99	2.23083
1143.37	1.6098
1146.74	1.36054
1150.12	3.62012
1153.49	4.79578
1156.87	0.401306
1160.24	3.67389
1163.62	4.40888
1166.99	0.423401
1170.37	3.21539
1173.74	3.43256
1177.12	5.69574
1180.49	4.15314
1183.87	6.35413
1187.24	6.40851
1190.62	13.8696
1193.99	10.7654
1197.37	4.66479
1200.74	4.81574
1204.12	6.11865
1207.49	7.92645
1210.86	6.44464
1214.24	5.91711
1217.61	1.86176
1220.99	4.06097
1224.36	11.1577
1227.74	5.78314
1231.11	6.52393
1234.49	8.49158
1237.86	6.47821
1241.24	4.02344
1244.61	6.19739
1247.99	6.99207
1251.36	11.3257
1254.74	2.74353
1258.11	6.73688
1261.49	1.13269
1264.86	7.7774
1268.24	7.58856
1271.61	6.30872
1274.99	0.526489
1278.36	7.20892
