Measurement: Raman, 532 nm, unoriented, Raman Data Processed
Mineral: Calcite
Rruff sample: R050009
Ideal chemistry: CaCO_3_
Locality: Amparo mine, Rodeo, Durango, Mexico
Source: Eugene Schlepp
Description: Colorless cleavage rhomb
Measured chemistry: Ca_1.00_CO_3_; trace amounts of Mn
Raman shift (cm-1)	intensity
120.253	0
123.627	2.53207
127.002	37.3174
130.377	183.432
133.752	337.431
137.127	642.941
140.502	939.38
143.876	1153.16
147.251	1683.27
150.626	2980.01
154.001	4851.53
157.376	3885.28
160.75	1706.34
164.125	996.119
167.5	753.371
170.875	664.777
174.25	556.87
177.625	481.563
180.999	398.305
184.374	352.789
187.749	268.25
191.124	236.843
194.499	189.905
197.874	162.07
201.248	131.367
204.623	108.775
207.998	36.8562
211.373	57.9277
214.748	34.7473
218.122	31.6709
221.497	18.2617
224.872	9.46729
228.247	48.4448
231.622	29.6094
234.996	28.9023
238.371	51.3694
241.746	175.517
245.121	240.74
248.496	348.837
251.871	614.735
255.245	886.381
258.62	1321.32
261.995	2060.95
265.37	3152.4
268.745	4869.68
272.12	7791.66
275.494	12306.9
278.869	17318.4
282.244	16799.5
285.619	9653.08
288.994	4575.85
292.368	2470.13
295.743	1348.76
299.118	843.838
302.493	603.229
305.868	413.002
309.243	275.491
312.617	193.416
315.992	93.1797
319.367	124.873
322.742	17.5913
326.117	39.5576
329.491	18.9722
332.866	39.1099
336.241	13.5098
339.616	14.2773
342.991	34.4409
346.365	28.3633
349.74	8.90185
353.115	86.0908
356.49	22.5933
359.865	36.5395
363.24	30.3198
366.614	76.6255
369.989	99.8852
373.364	29.1357
376.739	58.4399
380.114	81.2842
383.488	49.0259
386.863	96.0933
390.238	90.7505
393.613	71.3477
396.988	99.9814
400.363	50.6069
403.737	48.4219
407.112	41.728
410.487	67.6269
413.862	31.646
417.237	8.54248
420.611	70.668
423.986	34.5147
427.361	90.0947
430.736	45.959
434.111	55.9302
437.486	88.2578
440.86	32.2275
444.235	63.1465
447.61	26.604
450.985	18.7144
454.36	39.9668
457.735	16.6084
461.109	22.812
464.484	56.6123
467.859	36.9062
471.234	76.3232
474.609	41.0225
477.983	6.24414
481.358	52.2529
484.733	44.3281
488.108	14.542
491.483	36.292
494.858	53.3203
498.232	56.9629
501.607	71.4033
504.982	36.207
508.357	46.125
511.732	80.3311
515.106	70.4541
518.481	11.251
521.856	3.42383
525.231	42.6777
528.606	23.8281
531.981	21.3398
535.355	89.3516
538.73	87.2148
542.105	112.178
545.48	86.7197
548.855	58.0322
552.229	52.124
555.604	52.1758
558.979	71.3545
562.354	120.691
565.729	78.6699
569.104	66.2305
572.478	77.9356
575.853	15.3018
579.228	63.0684
582.603	74.0791
585.978	90.5723
589.352	111.316
592.727	36.9658
596.102	22.6963
599.477	36.1387
602.852	82.4609
606.227	34.3779
609.601	34.0801
612.976	83.3213
616.351	57.7051
619.726	139.243
623.101	141.903
626.476	54.9062
629.85	57.0947
633.225	163.209
636.6	47.0381
639.975	47.957
643.35	94.6445
646.724	93.7578
650.099	49.6006
653.474	35.8799
656.849	24.7363
660.224	65.2598
663.598	64.0137
666.973	49.8613
670.348	74.3408
673.723	48.8301
677.098	22.959
680.472	69.8535
683.847	34.0645
687.222	30.043
690.597	58.4785
693.972	185.119
697.347	252.066
700.721	683.592
704.096	1783.27
707.471	3798.1
710.846	7185.89
714.221	3584.44
717.596	774.455
720.97	336.451
724.345	185.873
727.72	206.24
731.095	88.9922
734.47	149.484
737.844	73.4844
741.219	146.293
744.594	63.7617
747.969	41.3242
751.344	56.209
754.719	7.00977
758.093	7.32422
761.468	73.3066
764.843	42.9551
768.218	16.1934
771.593	152.533
774.967	112.918
778.342	180.973
781.717	5.38086
785.092	62.6406
788.467	25.4141
791.842	124.996
795.216	99.5059
798.591	155.078
801.966	55.8535
805.341	83.3477
808.716	159.754
812.091	90.1211
815.465	179.981
818.84	118.074
822.215	103.603
825.59	165.111
828.965	45.1719
832.339	95.0781
835.714	140.002
839.089	24.2012
842.464	63.0176
845.839	143.801
849.213	98.8457
852.588	58.6367
855.963	186.691
859.338	165.225
862.713	56.1758
866.087	340.582
869.462	120.133
872.837	180.545
876.212	99.1016
879.587	19.9004
882.962	138.812
886.337	166.455
889.711	53.9336
893.086	170.467
896.461	79.6426
899.836	190.83
903.211	161.736
906.585	73.5801
909.96	115.068
913.335	42.7207
916.71	194.065
920.085	147.684
923.46	174.461
926.834	26.8262
930.209	35.9805
933.584	191.094
936.959	36.4492
940.334	13.457
943.708	24.875
947.083	99.7383
950.458	112.41
953.833	66.0547
957.208	172.594
960.582	82.0508
963.957	72.4023
967.332	149.613
970.707	235.051
974.082	29.7617
977.457	210.852
980.831	158.769
984.206	126.824
987.581	293.984
990.956	152.856
994.331	201.082
997.705	218.137
1001.08	269.043
1004.46	296.93
1007.83	178.656
1011.21	210.551
1014.58	163.547
1017.95	242.445
1021.33	181.93
1024.7	271.352
1028.08	222.371
1031.45	9.30469
1034.83	61.5859
1038.2	47.9688
1041.58	122.234
1044.95	179.129
1048.33	8.71484
1051.7	162.562
1055.08	180.195
1058.45	44.7266
1061.83	357.254
1065.2	499.035
1068.58	443.129
1071.95	722.938
1075.33	2019.85
1078.7	9026
1082.08	22056.6
1085.45	64499.4
1088.83	17665.8
1092.2	2153.57
1095.58	685.926
1098.95	420.066
1102.33	307.848
1105.7	206.066
1109.07	48.75
1112.45	50.3867
1115.82	25.4062
1119.2	65.9727
1122.57	205.793
1125.95	214.902
1129.32	121.805
1132.7	89.5
1136.07	290.269
1139.45	187.734
1142.82	66.8281
1146.2	109.281
1149.57	214.574
1152.95	125.293
1156.32	20.9453
1159.7	39.5781
1163.07	202.519
1166.45	193.269
1169.82	48.832
1173.2	91.7812
1176.57	165.664
1179.95	186.82
1183.32	324.508
1186.69	273.477
1190.07	155.871
1193.44	161.289
1196.82	195.168
1200.19	95.6562
1203.57	11.082
1206.94	144.547
1210.32	181.473
1213.69	169.668
1217.07	49.7148
1220.44	76.5312
1223.82	49.8984
1227.19	46.6172
1230.57	141.008
1233.94	48.75
1237.32	206.109
1240.69	55.4609
1244.07	75.0625
1247.44	43.0938
1250.82	24.6797
1254.19	75.5469
1257.57	8.48438
1260.94	271.211
1264.32	169.969
1267.69	263.852
1271.07	215.32
1274.44	209.695
1277.82	157.398
1281.19	4.35156
1284.57	236.68
1287.94	177.641
1291.32	318.438
1294.69	193.719
1298.06	374.172
1301.44	67.9688
1304.81	110.523
1308.19	91.3594
