Measurement: Raman, 532 nm, unoriented, Raman Data Processed
Mineral: Calderonite
Rruff sample: R050538
Ideal chemistry: Pb_2_Fe^3+^(VO_4_)_2_(OH)
Locality: Tres de Mayo, Santa Cruz County, Arizona, USA
Source: Andy Anderson
Description: Lathlike brown crystals.
Measured chemistry: Pb_2.00_(Fe^3+^_0.96_Mn^3+^_0.02_Mg_0.02_)_Î£=1_(V_1.00_O_4_)_2_(OH)
Raman shift (cm-1)	intensity
103.399	0
106.774	61.234
110.149	47.594
113.524	4.796
116.899	1.652
120.274	3.276
123.648	3.35
127.023	3.911
130.398	52.901
133.773	88.518
137.148	184.77
140.523	220.586
143.897	335.763
147.272	423.273
150.647	623.001
154.022	722.48
157.397	890.986
160.771	879.28
164.146	847.404
167.521	787.705
170.896	682.961
174.271	594.838
177.645	445.798
181.02	409.355
184.395	210.976
187.77	145.28
191.145	120.305
194.52	131.006
197.894	111.906
201.269	169.699
204.644	190.526
208.019	255.072
211.394	343.182
214.768	311.274
218.143	305.765
221.518	266.878
224.893	190.173
228.268	94.016
231.643	52.017
235.017	25.631
238.392	11.142
241.767	16.149
245.142	17.72
248.517	18.122
251.891	6.517
255.266	12.964
258.641	37.85
262.016	62.182
265.391	94.327
268.766	94.734
272.14	61.518
275.515	31.248
278.89	15.434
282.265	19.651
285.64	73.577
289.014	139.633
292.389	225.246
295.764	293.908
299.139	329.659
302.514	316.35
305.889	322.128
309.263	365.036
312.638	465.076
316.013	619.711
319.388	825.868
322.763	1079.4
326.138	1309.84
329.512	1446.92
332.887	1492.12
336.262	1501.34
339.637	1440.59
343.012	1283.46
346.386	1014.46
349.761	749.263
353.136	528.442
356.511	433.722
359.886	394.297
363.26	341.833
366.635	332.758
370.01	315.354
373.385	346.192
376.76	348.026
380.135	359.263
383.509	323.703
386.884	272.218
390.259	194.329
393.634	136.593
397.009	87.558
400.384	40.869
403.758	11.569
407.133	11.235
410.508	15.452
413.883	13.039
417.258	20.34
420.632	23.335
424.007	8.71
427.382	25.805
430.757	30.394
434.132	64.853
437.506	90.335
440.881	127.86
444.256	169.638
447.631	219.065
451.006	259.928
454.38	256.098
457.755	236.36
461.13	192.433
464.505	162.644
467.88	130.632
471.255	106.968
474.629	76.2
478.004	65.103
481.379	60.992
484.754	59.631
488.129	57.509
491.504	52.624
494.878	46.392
498.253	48.437
501.628	29.621
505.003	36.088
508.378	19.962
511.752	10.42
515.127	8.073
518.502	12.558
521.877	3.045
525.252	2.034
528.627	13.857
532.001	3.319
535.376	9.543
538.751	4.082
542.126	1.168
545.501	1.248
548.875	17.59
552.25	0.08
555.625	10.047
559	25.767
562.375	17.858
565.75	22.671
569.124	15.1
572.499	21.265
575.874	17.485
579.249	23.396
582.624	18.792
585.998	22.619
589.373	23.245
592.748	32.504
596.123	26.721
599.498	29.533
602.872	14.984
606.247	11.402
609.622	10.17
612.997	5.895
616.372	0.181
619.747	1.461
623.121	2.921
626.496	9.765
629.871	2.265
633.246	6.348
636.621	7.25
639.995	7.02
643.37	13.493
646.745	8.646
650.12	37.345
653.495	27.865
656.87	58.191
660.244	89.31
663.619	122.517
666.994	176.727
670.369	224.289
673.744	262.283
677.119	337.039
680.493	390.258
683.868	417.114
687.243	382.781
690.618	356.393
693.993	287.896
697.367	234.965
700.742	184.881
704.117	164.141
707.492	122.763
710.867	99.424
714.242	83.277
717.616	75.985
720.991	55.929
724.366	33.002
727.741	52.711
731.115	38.646
734.49	39.807
737.865	52.758
741.24	44.314
744.615	54.765
747.99	38.564
751.364	21.773
754.739	19.273
758.114	8.082
761.489	9.239
764.864	22.916
768.239	37.877
771.613	36.068
774.988	17.095
778.363	4.325
781.738	5.212
785.113	28.946
788.487	65.103
791.862	112.444
795.237	143.579
798.612	194.257
801.987	228.331
805.362	320.9
808.736	448.293
812.111	551.895
815.486	760.964
818.861	944.82
822.236	1211.62
825.61	1589.23
828.985	1899.22
832.36	2186.04
835.735	2445.52
839.11	2642.28
842.485	2789.91
845.859	2986.36
849.234	3213.99
852.609	3490.15
855.984	3762.98
859.359	3838.42
862.734	3685.28
866.108	3331.44
869.483	2844.1
872.858	2362.81
876.233	1967.78
879.607	1613.66
882.982	1346.2
886.357	1113.77
889.732	927.888
893.107	774.296
896.482	624.618
899.856	485.508
903.231	372.845
906.606	269.184
909.981	212.642
913.356	162.605
916.731	125.11
920.105	92.63
923.48	55.742
926.855	13.136
930.23	4.43
933.605	16.075
936.979	30.109
940.354	29.039
943.729	24.524
947.104	10.746
950.479	5.515
953.854	2.287
957.228	17.509
960.603	16.049
963.978	24.707
967.353	34.694
970.728	61.174
974.102	54.265
977.477	56.616
980.852	68.644
984.227	75.932
987.602	67.679
990.977	69.201
994.351	78.707
997.726	73.219
1001.1	60.591
1004.48	65.843
1007.85	40.549
1011.23	34.281
1014.6	28.714
1017.98	25.192
1021.35	39.449
1024.72	29.423
1028.1	32.293
1031.47	26.591
1034.85	33.541
1038.22	29.53
1041.6	33.728
1044.97	30.47
1048.35	24.085
1051.72	20.373
1055.1	30.007
1058.47	6.049
1061.85	17.752
1065.22	21.194
1068.6	9.178
1071.97	18.304
1075.35	11.403
1078.72	0.919
1082.1	7.101
1085.47	11.914
1088.85	1.206
1092.22	12.78
1095.6	1.344
1098.97	9.253
1102.35	1.012
1105.72	3.664
1109.1	3.059
1112.47	0.737
1115.85	8.66
1119.22	10.404
1122.59	6.321
1125.97	10.651
1129.34	4.55
1132.72	11.485
1136.09	0.595
1139.47	3.981
1142.84	8.385
1146.22	5.293
1149.59	5.711
1152.97	7.98
1156.34	4.464
1159.72	4.534
1163.09	3.146
1166.47	4.934
1169.84	1.554
1173.22	8.079
1176.59	4.678
1179.97	11.463
1183.34	3.112
1186.72	7.682
1190.09	13.603
1193.47	11.101
1196.84	13.997
1200.21	11.789
1203.59	3.282
1206.96	5.152
1210.34	0.073
1213.71	10.001
1217.09	14.658
1220.46	10.213
1223.84	20.45
1227.21	11.968
1230.59	8.178
1233.96	10.759
1237.34	19.465
1240.71	6.227
1244.09	12.45
1247.46	4.218
1250.84	13.567
1254.21	8.498
1257.59	2.745
1260.96	12.462
1264.34	9.315
1267.71	7.2
1271.09	6.358
1274.46	6.929
1277.84	2.215
1281.21	5.229
1284.59	10.452
1287.96	6.932
1291.34	15.085
1294.71	12.812
