Measurement: Raman, 780 nm, unoriented, Raman Data Processed
Mineral: Calderonite
Rruff sample: R060427
Ideal chemistry: Pb_2_Fe^3+^(VO_4_)_2_(OH)
Locality: Las Colmenitas mine, Santa Marta, Badajoz, Extremadura, Spain
Source: Michael Scott
Description: Sheaf of brown bladed crystals
Measured chemistry: (Pb_1.90_Cu_0.08_Zn_0.02_)_Σ=2_(Fe^3+^_0.84_Cr_0.14_Al_0.02_)_Σ=1_((V_0.98_As_0.01_P_0.01_)_Σ=1_O_4_)_2_(OH); OH estimated by difference and charge balance
Raman shift (cm-1)	intensity
170.155	0
173.047	10.5466
175.94	17.6732
178.833	19.8621
181.726	9.42218
184.618	1.12152
187.511	0.60144
190.404	14.7653
193.296	35.8712
196.189	58.8072
199.082	82.0359
201.974	118.487
204.867	159.854
207.76	196.173
210.652	206.835
213.545	201.53
216.438	176.753
219.331	137.546
222.223	88.0084
225.116	48.8817
228.009	21.4447
230.901	4.08371
233.794	7.76413
236.687	10.2099
239.579	11.2098
242.472	10.879
245.365	6.92825
248.257	0.261475
251.15	0.099091
254.043	5.40829
256.936	9.91782
259.828	17.6212
262.721	22.2487
265.614	26.9347
268.506	34.9589
271.399	44.2191
274.292	69.5993
277.185	101.289
280.077	148.214
282.97	193.215
285.863	241.347
288.755	297.881
291.648	341.803
294.541	367.225
297.433	366.354
300.326	367.314
303.219	381.466
306.111	422.14
309.004	494.555
311.897	576.203
314.79	679.601
317.682	781.652
320.575	891.951
323.468	968.896
326.36	1004.43
329.253	976.538
332.146	909.027
335.038	823.602
337.931	743.876
340.824	644.917
343.717	536.949
346.609	438.067
349.502	363.998
352.395	323.857
355.287	310.791
358.18	305.696
361.073	312.85
363.965	301.456
366.858	280.233
369.751	244.848
372.644	208.253
375.536	184.747
378.429	158.988
381.322	132.934
384.214	103.493
387.107	75.7219
390	47.8564
392.892	23.8485
395.785	11.1279
398.678	2.52405
401.57	7.42845
404.463	10.8544
407.356	11.2161
410.249	9.09039
413.141	4.09776
416.034	1.33441
418.927	6.89874
421.819	15.3669
424.712	19.7474
427.605	28.3753
430.498	34.2746
433.39	42.385
436.283	49.0718
439.176	59.0323
442.068	67.1024
444.961	73.908
447.854	77.4655
450.746	73.6787
453.639	71.628
456.532	59.7345
459.425	46.7113
462.317	33.3278
465.21	24.095
468.103	11.8615
470.995	6.98114
473.888	2.03812
476.781	2.73333
479.673	0.550056
482.566	1.18823
485.459	1.84605
488.351	0.720963
491.244	0.101547
494.137	1.07494
497.029	1.29435
499.922	2.28273
502.815	0.679783
505.708	1.30238
508.6	0.34454
511.493	0.10659
514.386	0.274479
517.278	0.482777
520.171	1.13698
523.064	0.206554
525.957	1.93631
528.849	0.402809
531.742	2.11804
534.635	1.60481
537.527	2.41091
540.42	2.64946
543.313	2.40591
546.205	1.03619
549.098	1.57831
551.991	2.67231
554.884	1.31001
557.776	2.51554
560.669	2.53182
563.562	1.64197
566.454	0.75074
569.347	1.99094
572.24	1.6032
575.132	1.82543
578.025	1.51564
580.918	2.41605
583.811	1.50384
586.703	2.21719
589.596	1.31994
592.489	2.61435
595.381	3.68861
598.274	2.84738
601.167	2.27896
604.059	2.24463
606.952	2.25767
609.845	1.09163
612.737	0.972466
615.63	2.15865
618.523	1.78046
621.416	4.73622
624.308	2.11415
627.201	2.37037
630.094	2.23513
632.986	3.12058
635.879	3.44592
638.772	6.89525
641.664	8.74419
644.557	9.21339
647.45	13.229
650.342	17.8597
653.235	22.1287
656.128	26.7147
659.021	33.7223
661.913	43.0279
664.806	53.2729
667.699	65.1819
670.591	75.5498
673.484	87.2485
676.377	96.7758
679.269	105.029
682.162	108.871
685.055	104.603
687.948	97.7032
690.84	88.3351
693.733	77.994
696.626	67.1993
699.518	55.9002
702.411	47.5299
705.304	41.7015
708.197	35.644
711.089	29.7877
713.982	25.5449
716.875	20.7571
719.767	15.4769
722.66	11.6434
725.553	6.79853
728.445	4.82369
731.338	1.56667
734.231	0.965218
737.124	2.39318
740.016	2.25269
742.909	3.20025
745.802	3.86928
748.694	2.59555
751.587	5.6991
754.48	6.36765
757.372	6.30295
760.265	6.30142
763.158	3.14598
766.051	0.846771
768.943	7.74516
771.836	17.2985
774.729	25.8813
777.621	34.8751
780.514	46.1881
783.407	54.3914
786.299	59.056
789.192	63.6418
792.085	70.1313
794.977	78.2919
797.87	83.3399
800.763	97.7915
803.655	114.915
806.548	144.724
809.441	176.492
812.334	217.708
815.226	270.03
818.119	333.545
821.012	406.428
823.904	481.994
826.797	558.099
829.69	635.163
832.582	702.561
835.475	760.598
838.368	814.29
841.261	864.445
844.153	924.642
847.046	990.183
849.939	1058.85
852.831	1109.94
855.724	1152.75
858.617	1144.54
861.51	1089.76
864.402	981.111
867.295	851.155
870.188	718.052
873.08	597.003
875.973	491.983
878.866	409.874
881.758	333.431
884.651	276.808
887.544	227.235
890.437	181.849
893.329	148.775
896.222	118.102
899.115	92.6494
902.007	70.8541
904.9	51.5843
907.793	36.2423
910.685	25.1592
913.578	13.628
916.471	8.51166
919.364	3.08522
922.256	3.61536
925.149	5.12614
928.042	6.5073
930.934	9.44119
933.827	7.81133
936.72	7.10253
939.612	4.17977
942.505	4.02413
945.398	0.633469
948.29	0.096485
951.183	4.48482
954.076	7.21964
956.968	9.07191
959.861	12.2001
962.754	14.5049
965.647	17.1274
968.539	19.7079
971.432	21.6944
974.325	23.9143
977.217	26.2045
980.11	27.2209
983.003	28.1821
985.895	28.0869
988.788	27.3761
991.681	26.6656
994.574	25.8707
997.466	23.856
1000.36	21.0239
1003.25	18.4481
1006.14	18.4859
1009.04	18.0053
1011.93	16.4628
1014.82	15.2162
1017.72	15.0543
1020.61	14.9243
1023.5	14.1021
1026.39	13.5282
1029.29	13.8647
1032.18	12.6779
1035.07	13.0956
1037.96	11.7986
1040.86	10.8579
1043.75	10.6687
1046.64	9.05457
1049.54	9.08143
1052.43	8.36595
1055.32	7.12765
1058.21	6.88374
1061.11	6.47903
1064	6.62803
1066.89	4.8518
1069.78	5.36847
1072.68	4.79675
1075.57	3.03341
1078.46	4.26894
1081.35	3.81356
1084.25	4.15419
1087.14	3.44438
1090.03	3.18202
1092.92	2.52778
1095.82	2.70888
1098.71	2.40333
1101.6	2.05765
1104.5	1.59747
1107.39	2.45282
1110.28	2.26642
1113.17	0.976242
1116.07	1.10096
1118.96	0.063322
1121.85	1.83012
1124.74	0.480127
1127.64	0.680405
1130.53	0.548723
1133.42	0.263554
1136.32	0.159365
1139.21	1.21927
1142.1	0.504702
1144.99	1.1759
1147.89	0.444347
1150.78	0.507423
1153.67	0.187222
1156.57	0.254047
1159.46	1.53244
1162.35	0.898266
1165.24	0.359806
1168.13	0.728539
1171.03	0.209385
1173.92	0.37966
1176.81	1.36682
1179.71	2.09049
1182.6	0.547035
1185.49	0.665827
1188.38	1.69875
1191.28	0.463827
1194.17	1.34473
1197.06	0.013447
1199.95	1.50741
1202.85	1.07332
1205.74	0.372774
1208.63	1.12964
1211.53	0.959568
1214.42	1.40744
1217.31	1.22678
1220.2	1.19057
1223.1	1.25353
1225.99	1.07134
1228.88	1.44375
1231.78	0.892009
1234.67	1.23397
1237.56	0.851441
1240.45	0.214504
1243.35	0.263111
1246.24	0.03392
1249.13	0.993954
1252.02	1.15491
1254.92	2.01874
1257.81	0.723204
1260.7	0.156773
1263.59	1.38702
1266.49	0.795413
1269.38	1.08321
1272.27	2.22878
1275.16	1.13455
1278.06	1.23894
1280.95	1.39346
1283.84	0.651387
