Measurement: Raman, 532 nm, unoriented, Raman Data Processed
Mineral: Calderonite
Rruff sample: R060427
Ideal chemistry: Pb_2_Fe^3+^(VO_4_)_2_(OH)
Locality: Las Colmenitas mine, Santa Marta, Badajoz, Extremadura, Spain
Source: Michael Scott
Description: Sheaf of brown bladed crystals
Measured chemistry: (Pb_1.90_Cu_0.08_Zn_0.02_)_Σ=2_(Fe^3+^_0.84_Cr_0.14_Al_0.02_)_Σ=1_((V_0.98_As_0.01_P_0.01_)_Σ=1_O_4_)_2_(OH); OH estimated by difference and charge balance
Raman shift (cm-1)	intensity
172.513	0
175.406	14.2527
178.298	15.4266
181.191	12.3706
184.084	9.44342
186.976	3.58401
189.869	1.38471
192.762	0.364746
195.655	7.94385
198.547	15.4852
201.44	26.0777
204.333	43.3629
207.225	66.4735
210.118	76.257
213.011	87.9643
215.904	85.105
218.796	69.2537
221.689	46.9723
224.582	30.6501
227.474	14.9567
230.367	1.10092
233.26	1.88454
236.152	3.31499
239.045	2.95195
241.938	3.12706
244.831	3.86914
247.723	5.94745
250.616	6.03964
253.509	7.22226
256.401	6.25382
259.294	4.90167
262.187	0.307861
265.079	5.64386
267.972	7.33014
270.865	9.94733
273.758	12.3717
276.65	22.3901
279.543	42.666
282.436	71.2141
285.328	106.668
288.221	152.971
291.114	210.705
294.007	265.893
296.899	313.228
299.792	335.928
302.685	346.963
305.577	366.778
308.47	425.553
311.363	524.209
314.255	667.808
317.148	852.21
320.041	1094.67
322.933	1358.17
325.826	1588.45
328.719	1737.03
331.612	1769.98
334.504	1768.05
337.397	1777.88
340.29	1762.97
343.183	1634.2
346.075	1337.56
348.968	999.277
351.861	736.341
354.753	581.825
357.646	478.936
360.539	424.024
363.431	383.923
366.324	369.361
369.217	355.497
372.11	352.706
375.002	371.017
377.895	409.534
380.788	433.318
383.68	420.003
386.573	357.209
389.466	280.179
392.358	199.159
395.251	125.849
398.144	72.251
401.036	32.946
403.929	5.57318
406.822	8.09772
409.715	16.6113
412.607	17.4779
415.5	15.8365
418.393	4.63373
421.285	7.28644
424.178	27.4225
427.071	45.5232
429.964	60.4041
432.856	75.6438
435.749	92.5633
438.642	104.542
441.534	118.179
444.427	139.831
447.32	163.829
450.212	188.806
453.105	211.037
455.998	217.391
458.891	202.291
461.783	170.576
464.676	132.141
467.569	102.562
470.461	70.902
473.354	51.907
476.247	35.9341
479.139	29.4731
482.032	23.4245
484.925	22.3168
487.818	22.0791
490.71	19.2397
493.603	15.3954
496.496	13.8003
499.388	7.75714
502.281	5.72702
505.174	1.72108
508.067	2.07188
510.959	0.249893
513.852	1.25987
516.745	3.33272
519.637	0.592697
522.53	2.58689
525.423	0.81208
528.316	1.51731
531.208	1.67535
534.101	2.17844
536.994	1.74662
539.886	0.662361
542.779	3.41924
545.672	5.17582
548.564	4.73354
551.457	5.51798
554.35	8.70573
557.242	6.82781
560.135	11.5047
563.028	12.9103
565.921	11.9018
568.813	10.2113
571.706	12.2895
574.599	13.8968
577.491	14.8976
580.384	11.7651
583.277	14.679
586.17	12.2656
589.062	14.0393
591.955	12.5305
594.848	16.0428
597.74	17.5255
600.633	16.0512
603.526	19.0919
606.418	17.1224
609.311	19.0527
612.204	15.3114
615.097	16.8408
617.989	17.1563
620.882	18.3719
623.775	16.1269
626.667	15.9908
629.56	14.6597
632.453	13.803
635.346	12.4338
638.238	10.9179
641.131	14.8453
644.024	14.2231
646.916	12.3295
649.809	15.3642
652.702	16.1988
655.594	18.6033
658.487	22.7327
661.38	28.0013
664.273	33.4978
667.165	41.4536
670.058	54.8036
672.951	68.886
675.843	85.9702
678.736	106.344
681.629	128.52
684.521	151.444
687.414	164.762
690.307	160.318
693.199	151.474
696.092	133.04
698.985	115.196
701.878	95.1849
704.77	81.3812
707.663	72.1311
710.556	58.6077
713.448	46.7367
716.341	40.1406
719.234	32.8596
722.127	24.6127
725.019	19.3184
727.912	14.4121
730.805	10.3677
733.697	3.81232
736.59	0.886078
739.483	0.878998
742.375	3.90881
745.268	6.67932
748.161	4.25409
751.054	6.00326
753.946	10.9196
756.839	15.6714
759.732	18.5065
762.625	18.8919
765.517	15.3572
768.41	2.6713
771.303	19.3586
774.195	52.5432
777.088	101.376
779.981	151.59
782.873	208.9
785.766	259.026
788.659	291.654
791.552	303.577
794.444	301.601
797.337	296.624
800.23	292.579
803.122	290.205
806.015	311.438
808.908	336.879
811.8	376.9
814.693	425.381
817.586	475.37
820.479	543.722
823.371	648.966
826.264	776.659
829.157	956.305
832.049	1149.99
834.942	1341.03
837.835	1487.31
840.727	1577.8
843.62	1600.18
846.513	1586.04
849.405	1581.82
852.298	1625.52
855.191	1704.94
858.084	1807.94
860.976	1888.88
863.869	1903.11
866.762	1801.51
869.654	1620.33
872.547	1403.32
875.44	1198.82
878.333	1023.5
881.225	875.846
884.118	738.94
887.011	624.038
889.903	526.317
892.796	444.388
895.689	370.449
898.582	303.16
901.474	244.507
904.367	191.303
907.26	142.816
910.152	107.589
913.045	73.021
915.938	50.1077
918.83	24.936
921.723	11.4281
924.616	1.48853
927.509	11.2498
930.401	14.8834
933.294	18.3756
936.187	18.9527
939.079	17.1765
941.972	14.2262
944.865	8.25754
947.757	4.56343
950.65	1.88551
953.543	11.6994
956.436	15.7432
959.328	24.5058
962.221	32.2859
965.114	39.8723
968.006	50.1195
970.899	53.7232
973.792	64.4141
976.684	68.072
979.577	71.1277
982.47	74.576
985.362	74.6936
988.255	77.9779
991.148	74.2374
994.041	70.8795
996.933	66.0481
999.826	58.1002
1002.72	51.9891
1005.61	45.5409
1008.5	40.8509
1011.4	34.8785
1014.29	34.4485
1017.18	33.6418
1020.08	30.267
1022.97	30.4841
1025.86	30.4181
1028.75	28.9117
1031.65	27.5275
1034.54	28.359
1037.43	24.599
1040.32	25.4834
1043.22	23.3873
1046.11	23.3545
1049	20.9892
1051.89	18.7711
1054.79	19.2962
1057.68	14.8054
1060.57	15.5858
1063.47	15.7221
1066.36	12.9482
1069.25	11.3316
1072.14	11.2368
1075.04	11.3469
1077.93	9.19735
1080.82	9.39146
1083.71	10.4002
1086.61	7.09545
1089.5	7.33733
1092.39	8.62775
1095.29	6.74789
1098.18	6.83863
1101.07	5.03873
1103.96	7.15155
1106.86	5.8148
1109.75	7.42349
1112.64	3.21569
1115.53	2.47347
1118.43	3.13653
1121.32	0.809158
1124.21	0.485428
1127.11	1.73683
1130	0.725449
1132.89	1.66277
1135.78	0.931793
1138.68	1.15408
1141.57	1.54538
1144.46	0.159233
1147.35	3.37653
1150.25	0.829544
1153.14	0.815163
1156.03	0.064774
1158.92	1.01653
1161.82	1.34017
1164.71	1.36935
1167.6	1.33637
1170.5	1.35017
1173.39	0.465179
1176.28	3.31661
1179.17	1.63939
1182.07	3.58298
1184.96	4.54837
1187.85	6.01961
1190.74	7.19865
1193.64	8.0254
1196.53	9.08321
1199.42	11.5503
1202.32	11.6726
1205.21	14.7429
1208.1	12.6194
1210.99	13.1315
1213.89	16.3474
1216.78	14.1366
1219.67	14.7223
1222.56	16.5281
1225.46	15.524
1228.35	13.2608
1231.24	13.3025
1234.13	16.2536
1237.03	13.353
1239.92	12.612
1242.81	11.621
1245.71	11.9222
1248.6	10.2782
1251.49	8.67828
1254.38	8.68002
1257.28	6.56591
1260.17	5.67723
1263.06	5.21755
1265.95	4.25375
1268.85	3.86243
1271.74	4.31551
1274.63	3.37341
1277.53	4.04266
1280.42	2.51878
1283.31	0.342297
1286.2	1.76635
1289.1	1.97383
1291.99	1.33383
1294.88	0.16013
1297.78	1.71631
1300.67	1.71776
