Measurement: Raman, 780 nm, unoriented, Raman Data Processed
Mineral: Calderonite
Rruff sample: R050538
Ideal chemistry: Pb^2+^_2_Fe^3+^(V^5+^O_4_)_2_(OH)
Locality: Tres de Mayo, Santa Cruz County, Arizona, USA
Source: Andy Anderson
Description: Lathlike brown crystals.
Measured chemistry: Pb_2.00_(Fe^3+^_0.96_Mn^3+^_0.02_Mg_0.02_)_Î£=1_(V_1.00_O_4_)_2_(OH)
Raman shift (cm-1)	intensity
98.7917	0
102.166	10.5177
105.541	21.5602
108.916	31.6708
112.291	22.9594
115.666	10.389
119.041	2.33176
122.415	1.79782
125.79	6.85477
129.165	16.7408
132.54	32.7569
135.915	55.5238
139.29	79.1703
142.664	90.81
146.039	99.5312
149.414	102.034
152.789	107.836
156.163	110.288
159.538	109.122
162.913	96.738
166.288	86.8002
169.663	77.529
173.038	68.7995
176.412	49.2591
179.787	24.5912
183.162	7.34206
186.537	0.348969
189.912	0.427979
193.286	4.9071
196.661	15.3623
200.036	29.2337
203.411	53.2122
206.786	72.0472
210.161	92.7387
213.535	106.762
216.91	99.7523
220.285	84.7167
223.66	60.7518
227.035	35.6765
230.409	20.1534
233.784	9.64281
237.159	3.40236
240.534	2.7478
243.909	1.48593
247.284	4.04382
250.658	0.717621
254.033	1.73628
257.408	7.62074
260.783	5.15924
264.158	2.47406
267.532	2.60339
270.907	5.44424
274.282	6.09143
277.657	10.0977
281.032	24.1396
284.406	44.621
287.781	75.9317
291.156	117.921
294.531	163.035
297.906	210.895
301.281	232.34
304.655	234.784
308.03	244.494
311.405	275.947
314.78	340.146
318.155	428.523
321.529	552.049
324.904	687.948
328.279	788.644
331.654	813.341
335.029	796.339
338.404	763.123
341.778	707.761
345.153	594.338
348.528	436.865
351.903	311.747
355.278	242.418
358.652	203.086
362.027	186.482
365.402	182.972
368.777	172.862
372.152	157.7
375.526	145.823
378.901	146.185
382.276	147.567
385.651	137.304
389.026	110.293
392.401	70.5644
395.775	41.1349
399.15	17.6354
402.525	1.93711
405.9	3.60416
409.275	7.86598
412.649	6.76747
416.024	3.23887
419.399	1.13834
422.774	8.17114
426.149	13.1333
429.524	17.9707
432.898	23.6483
436.273	27.3365
439.648	28.3406
443.023	32.1661
446.398	35.3758
449.772	42.8692
453.147	46.1245
456.522	52.4704
459.897	49.0447
463.272	40.3218
466.647	28.2729
470.021	17.6502
473.396	10.3186
476.771	5.92565
480.146	7.29317
483.521	8.19899
486.895	8.33888
490.27	10.6006
493.645	11.7657
497.02	10.1808
500.395	11.7635
503.769	10.5505
507.144	7.52066
510.519	4.46312
513.894	4.18774
517.269	1.94036
520.644	0.860222
524.018	0.875458
527.393	0.976719
530.768	0.019352
534.143	1.23293
537.518	0.986786
540.892	0.08791
544.267	1.39326
547.642	0.571747
551.017	0.697289
554.392	1.04145
557.766	1.64565
561.141	3.01069
564.516	4.65754
567.891	4.83996
571.266	4.71697
574.64	5.39109
578.015	6.75352
581.39	5.76785
584.765	5.04159
588.14	5.58625
591.515	4.83991
594.889	5.34964
598.264	6.70459
601.639	5.78553
605.014	6.26858
608.389	5.07762
611.764	5.30443
615.138	4.56464
618.513	5.03613
621.888	3.12271
625.263	2.88087
628.638	3.76243
632.012	2.87738
635.387	3.20453
638.762	3.69179
642.137	3.40354
645.512	1.42228
648.886	2.56625
652.261	2.01809
655.636	2.6285
659.011	3.82514
662.386	4.92166
665.76	6.55771
669.135	9.3321
672.51	10.9254
675.885	14.1482
679.26	16.8324
682.635	22.4673
686.009	24.451
689.384	28.0126
692.759	27.6028
696.134	27.2399
699.509	23.7143
702.884	20.5171
706.258	17.925
709.633	15.161
713.008	14.0913
716.383	14.2345
719.758	12.3906
723.132	9.87894
726.507	7.78174
729.882	6.8455
733.257	3.7985
736.632	1.54577
740.006	1.26121
743.381	0.1035
746.756	1.74175
750.131	0.092567
753.506	0.693634
756.88	3.21695
760.255	4.45507
763.63	6.4035
767.005	5.49045
770.38	2.32346
773.755	3.88092
777.129	15.0506
780.504	30.2894
783.879	47.6209
787.254	61.3656
790.629	73.9708
794.003	76.561
797.378	75.2054
800.753	70.3626
804.128	67.4593
807.503	69.0571
810.878	76.7707
814.252	83.1936
817.627	96.0537
821.002	114.223
824.377	142.5
827.752	181.051
831.126	234.436
834.501	298.132
837.876	356.005
841.251	403.058
844.626	427.795
848	443.58
851.375	459.549
854.75	484.095
858.125	517.542
861.5	543.97
864.875	540.517
868.249	491.591
871.624	419
874.999	348.138
878.374	279.415
881.749	235.131
885.123	198.697
888.498	167.236
891.873	142.968
895.248	116.58
898.623	93.2812
901.997	76.456
905.372	56.6124
908.747	43.1231
912.122	29.8138
915.497	21.0485
918.872	15.2472
922.246	9.26047
925.621	4.37631
928.996	0.720131
932.371	3.87825
935.746	6.03151
939.12	6.80587
942.495	4.96893
945.87	3.75459
949.245	1.71868
952.62	0.519661
955.995	2.80803
959.369	5.16014
962.744	6.91001
966.119	8.94457
969.494	11.5722
972.869	13.6589
976.243	15.1079
979.618	17.001
982.993	17.7914
986.368	17.8446
989.743	20.2277
993.117	19.2129
996.492	18.2763
999.867	15.9666
1003.24	15.7998
1006.62	12.8817
1009.99	12.2839
1013.37	10.5231
1016.74	9.18713
1020.12	7.97686
1023.49	8.61671
1026.87	7.70328
1030.24	8.64628
1033.62	7.5994
1036.99	6.17696
1040.37	6.31465
1043.74	6.57648
1047.12	6.92254
1050.49	6.20378
1053.86	6.08691
1057.24	4.51944
1060.61	3.91461
1063.99	3.91318
1067.36	3.42248
1070.74	3.2456
1074.11	4.35046
1077.49	3.13806
1080.86	1.9893
1084.24	3.6817
1087.61	2.92525
1090.99	2.4364
1094.36	1.4588
1097.74	1.41693
1101.11	0.92148
1104.49	0.106548
1107.86	1.16943
1111.24	0.764389
1114.61	1.03639
1117.99	0.678802
1121.36	0.10854
1124.73	1.56358
1128.11	0.365667
1131.48	0.184652
1134.86	0.797176
1138.23	0.558602
1141.61	0.147161
1144.98	0.392875
1148.36	0.166812
1151.73	0.494205
1155.11	1.42417
1158.48	1.27252
1161.86	0.548053
1165.23	0.853746
1168.61	1.16802
1171.98	1.74104
1175.36	0.68566
1178.73	0.666014
1182.11	0.222218
1185.48	1.22527
1188.86	0.841171
1192.23	0.554686
1195.61	1.50452
1198.98	1.14762
1202.36	1.84821
1205.73	1.39185
1209.11	1.48727
1212.48	1.29657
1215.86	0.792589
1219.23	1.26953
1222.61	1.19173
1225.98	2.45248
1229.35	2.61993
1232.73	1.4264
1236.1	2.4822
1239.48	1.96306
1242.85	1.37155
1246.23	1.65852
1249.6	1.30357
1252.98	0.73327
1256.35	1.07685
1259.73	2.91588
1263.1	1.79972
1266.48	2.48315
1269.85	0.92574
1273.23	1.75618
1276.6	1.79939
1279.98	1.13478
1283.35	0.561265
