Measurement: Raman, 532 nm, unoriented, Raman Data Processed
Mineral: Calderite
Rruff sample: R070722
Ideal chemistry: Mn^2+^_3_Fe^3+^_2_(SiO_4_)_3_
Locality: Otjosondu, Namibia
Source: Royal Ontario Museum
Description: Dark red-brown to orange semi-transparent druse of crystals associated with quartz.
Raman shift (cm-1)	intensity
161.107	0
164	234.818
166.893	34.1865
169.785	124.804
172.678	128.139
175.571	98.8232
178.463	244.208
181.356	203.35
184.249	137.776
187.142	439.621
190.034	81.1514
192.927	138.457
195.82	282.275
198.712	245.493
201.605	268.19
204.498	330.045
207.39	573.198
210.283	658.377
213.176	735.49
216.069	980.912
218.961	1206.78
221.854	1659.75
224.747	1780.1
227.639	1862.84
230.532	1726.38
233.425	1458.7
236.317	1052.55
239.21	731.251
242.103	471.636
244.995	361.907
247.888	215.309
250.781	199.881
253.674	80.7734
256.566	21.8291
259.459	112.039
262.352	56.2344
265.244	67.3984
268.137	31.3447
271.03	26.4404
273.923	42.0986
276.815	4.85547
279.708	74.1455
282.601	83.2637
285.493	130.666
288.386	372.65
291.279	617.889
294.171	822.857
297.064	1186.29
299.957	1720.2
302.849	1931.77
305.742	2258.6
308.635	2448.22
311.528	2397.87
314.42	2173.71
317.313	2022.53
320.206	2035.12
323.098	2048.87
325.991	2411.72
328.884	2776.3
331.776	3069.85
334.669	3302.01
337.562	3658.43
340.455	4005.39
343.347	4585.54
346.24	5481.91
349.133	6880.31
352.025	8808.1
354.918	11128.4
357.811	13938.8
360.704	17474.3
363.596	20634.8
366.489	21056.3
369.382	17965.4
372.274	13080
375.167	8972.71
378.06	5748.61
380.952	3857.25
383.845	2677.9
386.738	1787.94
389.63	1124.03
392.523	805.264
395.416	605.146
398.308	261.571
401.201	269.312
404.094	56.2051
406.987	22.6582
409.879	7.27148
412.772	25.9297
415.665	30.4893
418.557	86.3799
421.45	8.17871
424.343	68.5791
427.236	42.9121
430.128	3.83301
433.021	34.6357
435.914	72.1992
438.806	42.498
441.699	99.2803
444.592	176.002
447.484	273.156
450.377	261.515
453.27	336.362
456.163	249.259
459.055	84.1475
461.948	47.2685
464.841	53.1328
467.733	88.542
470.626	401.415
473.519	435.926
476.411	541.506
479.304	782.943
482.197	1213.05
485.089	2005.66
487.982	2032.7
490.875	2324.44
493.768	2490.87
496.66	2453.55
499.553	2319.08
502.446	2298.83
505.338	2501.31
508.231	2992.83
511.124	4010.38
514.016	5663.24
516.909	7849.88
519.802	10374.8
522.695	12183.8
525.587	10425.4
528.48	7241.9
531.373	4455.6
534.265	2716.67
537.158	1825.62
540.051	1247.7
542.943	1229.56
545.836	843.551
548.729	672.358
551.622	616.602
554.514	569.602
557.407	549.952
560.3	291.111
563.192	213.371
566.085	37.043
568.978	21.875
571.87	84.5977
574.763	149.565
577.656	460.285
580.549	567.88
583.441	437.566
586.334	276.529
589.227	537.427
592.119	258.066
595.012	373.982
597.905	394.626
600.798	382.843
603.69	386.519
606.583	337.613
609.476	362.997
612.368	252.632
615.261	261.735
618.154	187.941
621.046	231.455
623.939	38.876
626.832	88.1484
629.725	77.6133
632.617	27.5889
635.51	90.7725
638.403	12.4053
641.295	49.1826
644.188	60.0156
647.081	18.1914
649.973	50.9346
652.866	65.0156
655.759	52.291
658.651	125.631
661.544	91.6475
664.437	128.007
667.33	82.3643
670.222	130.047
673.115	76.5957
676.008	62.707
678.9	153.845
681.793	108.606
684.686	142.065
687.578	149.944
690.471	173.398
693.364	8.32129
696.256	107.369
699.149	185.637
702.042	244.158
704.935	262.573
707.827	312.205
710.72	264.758
713.613	365.567
716.505	284.841
719.398	262.881
722.291	350.753
725.183	336.226
728.076	272.062
730.969	271.151
733.862	153.967
736.754	125.083
739.647	80.459
742.54	68.3652
745.432	57.2461
748.325	50.7578
751.218	44.9785
754.111	13.3232
757.003	124.498
759.896	43.2344
762.789	59.6367
765.681	38.1084
768.574	6.5918
771.467	97.1172
774.359	33.334
777.252	85.2988
780.145	43.8086
783.038	49.957
785.93	50.248
788.823	95.3789
791.716	126.019
794.608	255.123
797.501	260.938
800.394	611.691
803.286	807.453
806.179	1146.69
809.072	1603.58
811.965	2007.76
814.857	2484.49
817.75	2985.23
820.643	3430.42
823.535	3680.33
826.428	3520.95
829.321	3258.93
832.213	2846.66
835.106	2494.18
837.999	2230.09
840.891	2254.33
843.784	2359.58
846.677	2801.03
849.57	3183.66
852.462	3613.42
855.355	3653.85
858.248	3246.7
861.14	2760.97
864.033	2475.17
866.926	2176.81
869.818	2448.55
872.711	2630.09
875.604	3451.69
878.497	4861.27
881.389	6667.81
884.282	8883.95
887.175	10215.1
890.067	8762.8
892.96	5836.15
895.853	3658.47
898.745	2280.73
901.638	1354.86
904.531	824.162
907.424	520.835
910.316	362.996
913.209	228.785
916.102	5.59863
918.994	6.18359
921.887	57.8565
924.78	103.289
927.673	103.34
930.565	71.9248
933.458	9.85547
936.351	130.217
939.243	161.454
942.136	229.922
945.029	102.002
947.921	61.4268
950.814	64.8047
953.707	31.4863
956.6	120.253
959.492	127.451
962.385	247.487
965.278	360.549
968.17	446.981
971.063	555.796
973.956	635.014
976.848	729.733
979.741	763.636
982.634	700.104
985.526	874.159
988.419	857.518
991.312	864.191
994.205	959.812
997.097	1255.96
999.99	1338.1
1002.88	1427.66
1005.77	1259.42
1008.67	962.368
1011.56	590.229
1014.45	283.669
1017.35	262.492
1020.24	210.012
1023.13	86.7764
1026.02	35.8242
1028.92	63.5713
1031.81	20.3135
1034.7	51.5879
1037.6	86.0644
1040.49	69.1221
1043.38	26.4482
1046.27	28.4062
1049.17	8.85352
1052.06	44.5293
1054.95	12.4121
1057.84	60.4727
1060.74	115.902
1063.63	149.887
1066.52	71.7051
1069.41	79.0869
1072.31	21.1494
1075.2	22.4756
1078.09	214.87
1080.98	53.7754
1083.88	99.2978
1086.77	129.745
1089.66	416.465
1092.56	82.4941
1095.45	110.868
1098.34	111.375
1101.23	75.6602
1104.13	148.228
1107.02	66.5478
1109.91	145.65
1112.81	214.046
1115.7	60.1299
1118.59	61.8145
1121.48	16.2334
1124.38	60.7549
1127.27	45.3135
1130.16	113.213
1133.05	55.3682
1135.95	149.481
1138.84	113.933
1141.73	80.7598
1144.62	71.5322
1147.52	78.8936
1150.41	78.0273
1153.3	47.8721
1156.2	52.1397
1159.09	45.0117
1161.98	30.1914
1164.87	25.6201
1167.77	44.959
1170.66	53.1973
1173.55	82.332
1176.44	159.545
1179.34	74.7344
1182.23	117.974
1185.12	243.392
1188.02	244.357
1190.91	164.56
1193.8	129.522
1196.69	216.142
1199.59	169.017
1202.48	205.017
1205.37	125.974
1208.26	213.71
1211.16	185.199
1214.05	171.675
1216.94	206.971
1219.84	259.658
1222.73	92.3057
1225.62	407.58
1228.51	135.535
1231.41	61.3047
1234.3	92.0088
1237.19	117.367
1240.08	130.741
1242.98	84.2734
1245.87	0.677734
1248.76	93.4434
1251.65	118.044
1254.55	111.066
1257.44	44.0898
1260.33	94.7188
1263.23	92.5586
