Measurement: Raman, 780 nm, unoriented, Raman Data Processed
Mineral: Calderite
Rruff sample: R070722
Ideal chemistry: Mn^2+^_3_Fe^3+^_2_(SiO_4_)_3_
Locality: Otjosondu, Namibia
Source: Royal Ontario Museum
Description: Dark red-brown to orange semi-transparent druse of crystals associated with quartz.
Raman shift (cm-1)	intensity
127.237	0
130.13	34.2451
133.023	19.7441
135.915	21.9102
138.808	29.4668
141.701	133.509
144.594	25.8555
147.486	29.6211
150.379	12.3096
153.272	150.357
156.164	249.536
159.057	336.542
161.95	447.716
164.842	538.129
167.735	592.362
170.628	703.014
173.52	698.657
176.413	930.468
179.306	830.622
182.199	1161.14
185.091	934.214
187.984	888.553
190.877	1000.69
193.769	1009.57
196.662	1159.81
199.555	1551.4
202.447	1670.81
205.34	1951.84
208.233	2302.33
211.126	2841.54
214.018	3375.05
216.911	3898.05
219.804	4640.34
222.696	5458.6
225.589	5920.09
228.482	6039.88
231.375	5508.05
234.267	4713.03
237.16	3609.07
240.053	2695.65
242.945	2319.84
245.838	1426.02
248.731	1035.55
251.623	646.73
254.516	453.949
257.409	194.625
260.301	1.5918
263.194	52.21
266.087	131.605
268.98	50.1826
271.872	154.795
274.765	125.927
277.658	58.8926
280.55	102.243
283.443	305.893
286.336	755.815
289.228	1151.01
292.121	1718.66
295.014	2520.3
297.907	3412.06
300.799	4056.23
303.692	4998.83
306.585	5441.41
309.477	5847.47
312.37	5695.98
315.263	5204.36
318.156	4945.01
321.048	4908.3
323.941	5146.54
326.834	5652.44
329.726	6281.24
332.619	6881.31
335.512	7327.88
338.404	7987.1
341.297	8889.78
344.19	10039.7
347.082	11898
349.975	14672.4
352.868	18185.5
355.761	22495.5
358.653	27364.5
361.546	32482.5
364.439	36567.9
367.331	36599.7
370.224	31092.1
373.117	23314
376.01	15976.2
378.902	10660.5
381.795	6987.73
384.688	4620.17
387.58	2997.91
390.473	2173.87
393.366	1395.34
396.258	886.067
399.151	534.509
402.044	282.607
404.937	85.6328
407.829	2.1875
410.722	27.9316
413.615	82.9326
416.507	60.5264
419.4	140.219
422.293	122.759
425.185	17.4023
428.078	30.3896
430.971	5.58984
433.863	4.48633
436.756	84.4268
439.649	135.392
442.542	239.815
445.434	389.802
448.327	537.893
451.22	766.389
454.112	841.16
457.005	747.599
459.898	472.408
462.791	189.823
465.683	4.30664
468.576	116.585
471.469	332.504
474.361	568.468
477.254	903.562
480.147	1352.98
483.039	1776.75
485.932	2238.4
488.825	2881.8
491.717	3350.66
494.61	3594.85
497.503	3539.67
500.396	3324.78
503.288	3164.69
506.181	3578.11
509.074	4600.37
511.966	6316.66
514.859	8636.86
517.752	11467.4
520.644	14451.9
523.537	15888.1
526.43	13709.4
529.323	9497.53
532.215	5873.32
535.108	3671.01
538.001	2321.56
540.893	1723.57
543.786	1428.64
546.679	1232.76
549.572	1244.76
552.464	1315.95
555.357	1336.62
558.25	1278.84
561.142	912.394
564.035	402.718
566.928	90.9033
569.82	59.6475
572.713	145.337
575.606	17.9824
578.499	203.215
581.391	167.597
584.284	86.1265
587.177	20.0566
590.069	10.5435
592.962	7.64697
595.855	157.39
598.747	155.29
601.64	171.536
604.533	226.968
607.426	327.303
610.318	242.488
613.211	235.442
616.104	145.417
618.996	125.305
621.889	138.608
624.782	111.289
627.674	91.1938
630.567	17.3291
633.46	19.5815
636.352	10.2114
639.245	17.624
642.138	19.7783
645.031	0.228027
647.923	30.9727
650.816	7.70606
653.709	59.8535
656.601	72.3413
659.494	77.3535
662.387	78.4375
665.279	153.342
668.172	153.461
671.065	247.445
673.958	128.564
676.85	104.998
679.743	125.431
682.636	80.3306
685.528	157.022
688.421	131.943
691.314	143.226
694.207	211.752
697.099	250.92
699.992	217.403
702.885	315.827
705.777	277.074
708.67	287.118
711.563	323.687
714.455	361.931
717.348	316.362
720.241	315.244
723.134	318.715
726.026	260.03
728.919	247.305
731.812	200.054
734.704	231.684
737.597	101.038
740.49	119.222
743.382	47.0449
746.275	7.83057
749.168	40.7822
752.061	44.2925
754.953	45.8779
757.846	87.4492
760.739	65.5659
763.631	4.61279
766.524	100.622
769.417	142.313
772.309	31.9512
775.202	33.9575
778.095	115.921
780.987	104.607
783.88	176.185
786.773	163.65
789.666	194.222
792.558	345.933
795.451	501.26
798.344	738.454
801.236	1155.45
804.129	1696.24
807.022	2362.51
809.914	3211.3
812.807	4126.89
815.7	5291.97
818.593	6193.1
821.485	6978.19
824.378	7217.57
827.271	6941.11
830.163	6353.84
833.056	5428.63
835.949	4642.13
838.841	4121.72
841.734	3949.13
844.627	4329.05
847.519	4786.18
850.412	5659.17
853.305	6132.92
856.198	6040.06
859.09	5355.39
861.983	4601.11
864.876	4163.17
867.768	4141.32
870.661	4640.6
873.554	5701.19
876.447	7606.71
879.339	10139.3
882.232	13280
885.125	16224.6
888.017	16712.4
890.91	13530
893.803	9056.74
896.695	5694.55
899.588	3617.52
902.481	2286.87
905.374	1404.44
908.266	930.348
911.159	558.055
914.052	284.388
916.944	138.611
919.837	22.7017
922.73	84.3013
925.622	72.8306
928.515	160.437
931.408	139.052
934.301	60.0938
937.193	2.75
940.086	45.8066
942.979	12.4336
945.871	21.2539
948.764	16.1294
951.657	5.70654
954.549	16.5561
957.442	108.014
960.335	217.329
963.227	227.142
966.12	319.668
969.013	386.664
971.906	446.71
974.798	534.095
977.691	615.3
980.584	734.966
983.476	736.722
986.369	777.096
989.262	784.707
992.154	825.866
995.047	970.617
997.94	1294.01
1000.83	1275.72
1003.73	1333.79
1006.62	1092.46
1009.51	727.278
1012.4	473.164
1015.3	284.639
1018.19	184.526
1021.08	146.892
1023.97	90.7949
1026.87	51.5317
1029.76	81.4985
1032.65	26.959
1035.55	25.6699
1038.44	42.7588
1041.33	87.8467
1044.22	44.6509
1047.12	29.4477
1050.01	15.3552
1052.9	14.0383
1055.79	35.8245
1058.69	13.5183
1061.58	36.6065
1064.47	36.2073
1067.37	72.7383
1070.26	31.8401
1073.15	68.2666
1076.04	94.6453
1078.94	87.4163
1081.83	136.113
1084.72	205.285
1087.61	138.254
1090.51	102.349
1093.4	146.558
1096.29	172.165
1099.18	107.296
1102.08	124.026
1104.97	148.539
1107.86	167.511
1110.76	112.262
1113.65	183.23
1116.54	101.332
1119.43	56.9282
1122.33	89.47
1125.22	65.2402
1128.11	8.01123
1131	186.904
1133.9	82.1392
1136.79	16.0791
1139.68	40.2964
1142.58	30.6777
1145.47	5.31592
1148.36	18.1687
1151.25	3.82202
1154.15	57.1072
1157.04	19.771
1159.93	44.8845
1162.82	6.81934
1165.72	65.7559
1168.61	8.66113
1171.5	60.208
1174.39	69.8628
1177.29	39.1736
1180.18	71.2275
1183.07	92.6572
1185.96	119.365
1188.86	152.886
1191.75	100.918
1194.64	114.483
1197.54	63.9097
1200.43	122.463
1203.32	96.9959
1206.21	93.0366
1209.11	148.243
1212	134.206
1214.89	43.7559
1217.79	103.133
1220.68	60.4839
1223.57	49.0193
1226.46	67.7625
1229.36	59.9878
1232.25	54.5193
1235.14	32.3611
1238.03	61.9329
1240.93	25.397
1243.82	49.4111
1246.71	29.4092
1249.61	7.6958
1252.5	57.1814
