Measurement: Raman, 785 nm, unoriented, Raman Data Processed
Mineral: Caledonite
Rruff sample: R070321
Ideal chemistry: Cu_2_Pb_5_(SO_4_)_3_(CO_3_)(OH)_6_
Locality: Soda Lake Mountains, near Baker, San Bernardino County, California, USA
Source: James Shigley
Description: Striated blue bladed crystals
Raman shift (cm-1)	intensity
138.858	0
141.75	54.8295
144.643	200.853
147.536	236.325
150.429	179.241
153.321	108.582
156.214	43.8797
159.107	14.6655
161.999	9.39319
164.892	6.79852
167.785	27.7991
170.677	28.3346
173.57	36.2318
176.463	60.5338
179.356	48.8526
182.248	61.0576
185.141	58.5736
188.034	33.1838
190.926	20.6647
193.819	2.2453
196.712	21.576
199.604	1.53128
202.497	4.03934
205.39	8.32837
208.282	13.7928
211.175	26.0686
214.068	64.8928
216.961	65.0315
219.853	104.004
222.746	105.409
225.639	127.394
228.531	123.26
231.424	106.843
234.317	112.266
237.209	108.637
240.102	83.3684
242.995	87.6532
245.888	83.4049
248.78	49.7928
251.673	38.8033
254.566	38.0113
257.458	28.6839
260.351	23.6829
263.244	1.61957
266.137	12.6854
269.029	16.2853
271.922	13.5416
274.815	13.3319
277.707	0.365631
280.6	17.2084
283.493	0.265228
286.385	1.61375
289.278	1.61909
292.171	20.1926
295.063	20.3418
297.956	34.2304
300.849	49.3086
303.742	68.3273
306.634	104.034
309.527	100.593
312.42	131.862
315.312	142.64
318.205	140.699
321.098	119.632
323.99	108.37
326.883	124.68
329.776	123.036
332.669	122.731
335.561	141.363
338.454	139.394
341.347	140.393
344.239	135.977
347.132	114.885
350.025	85.7533
352.918	47.6693
355.81	27.7299
358.703	15.225
361.596	10.0055
364.488	0.303452
367.381	3.94925
370.274	2.07175
373.166	4.59818
376.059	12.5092
378.952	4.72849
381.844	0.273254
384.737	10.4152
387.63	18.9973
390.523	23.4661
393.415	44.6345
396.308	90.9151
399.201	124.307
402.093	172.087
404.986	253.369
407.879	358.693
410.772	503.757
413.664	658.292
416.557	834.109
419.45	989.737
422.342	1178.23
425.235	1242.17
428.128	1073.92
431.02	858.072
433.913	677.135
436.806	514.318
439.699	395.75
442.591	293.941
445.484	236.678
448.377	234.703
451.269	208.155
454.162	260.353
457.055	276.122
459.947	272.923
462.84	275.565
465.733	298.279
468.625	373.022
471.518	459.469
474.411	442.34
477.304	330.493
480.196	244.03
483.089	168.824
485.982	118.798
488.874	84.0741
491.767	82.1318
494.66	58.815
497.553	38.1115
500.445	31.8444
503.338	19.4932
506.231	20.5567
509.123	7.96652
512.016	1.89984
514.909	2.85422
517.802	10.2035
520.694	6.70532
523.587	13.5546
526.48	7.80759
529.372	0.422119
532.265	7.16431
535.158	0.491669
538.05	8.48616
540.943	3.00734
543.836	1.3701
546.729	0.480072
549.621	0.525192
552.514	8.1795
555.407	16.0283
558.299	16.4681
561.192	11.1101
564.085	19.509
566.977	15.7743
569.87	13.1165
572.763	25.1523
575.655	23.4706
578.548	34.7248
581.441	36.9393
584.333	23.5552
587.226	61.6699
590.119	62.776
593.012	97.2188
595.904	135.472
598.797	161.558
601.69	172.6
604.582	172.688
607.475	139.978
610.368	122.069
613.26	81.6828
616.153	87.4256
619.046	107.228
621.939	143.708
624.831	195.158
627.724	296.132
630.617	220.699
633.509	83.4324
636.402	47.6039
639.295	12.4533
642.188	8.40385
645.08	7.56004
647.973	3.34633
650.866	10.987
653.758	5.62251
656.651	14.7676
659.544	4.50174
662.436	5.8302
665.329	5.629
668.222	10.5136
671.115	8.75031
674.007	8.14769
676.9	13.4372
679.793	19.2891
682.685	10.1598
685.578	2.83806
688.471	13.6126
691.363	0.573135
694.256	5.43634
697.149	10.2273
700.042	7.47751
702.934	3.12788
705.827	27.6289
708.72	17.7666
711.612	30.3315
714.505	54.8046
717.398	69.3947
720.29	94.0827
723.183	91.4618
726.076	59.633
728.968	26.4543
731.861	31.7435
734.754	0.447037
737.647	7.91501
740.539	14.3618
743.432	3.9472
746.325	16.8565
749.217	6.52628
752.11	2.75607
755.003	5.16705
757.895	5.756
760.788	15.3948
763.681	4.23827
766.574	9.83923
769.466	23.3763
772.359	27.1357
775.252	25.7849
778.144	24.251
781.037	21.3402
783.93	44.4244
786.822	37.9742
789.715	34.6932
792.608	34.4165
795.501	37.1976
798.393	31.2741
801.286	15.5205
804.179	24.9918
807.071	21.6746
809.964	15.4004
812.857	32.1635
815.75	35.5498
818.642	40.7658
821.535	48.7702
824.428	39.9261
827.32	40.7517
830.213	57.9196
833.106	46.8032
835.998	53.3337
838.891	40.3492
841.784	57.4663
844.677	56.1547
847.569	38.2955
850.462	40.4915
853.355	59.4305
856.247	36.8924
859.14	31.8307
862.033	34.4873
864.925	7.36763
867.818	3.47878
870.711	1.76746
873.604	2.32625
876.496	0.204819
879.389	10.6847
882.282	8.99855
885.174	8.17812
888.067	5.14771
890.96	13.8266
893.852	13.7787
896.745	3.22229
899.638	14.2718
902.53	13.8584
905.423	1.47826
908.316	31.6584
911.209	41.4462
914.101	58.7263
916.994	90.9286
919.887	138.772
922.779	165.522
925.672	255.235
928.565	346.771
931.457	482.243
934.35	584.01
937.243	659.705
940.136	651.391
943.028	666.266
945.921	601.004
948.814	575.629
951.706	592.152
954.599	659.132
957.492	777.551
960.385	926.653
963.277	1264.45
966.17	1798.67
969.063	2455.62
971.955	3285.08
974.848	4024.66
977.741	3773.91
980.633	2611.99
983.526	1495.59
986.419	851.63
989.312	507.8
992.204	354.772
995.097	256.606
997.99	197.13
1000.88	130.216
1003.77	132.202
1006.67	95.6971
1009.56	62.6414
1012.45	47.889
1015.35	21.295
1018.24	24.4473
1021.13	1.45386
1024.02	2.21658
1026.92	8.49707
1029.81	11.1226
1032.7	1.60672
1035.6	17.1173
1038.49	21.5308
1041.38	32.416
1044.27	39.8904
1047.17	89.1635
1050.06	93.1171
1052.95	98.5699
1055.84	86.707
1058.74	70.5196
1061.63	47.2171
1064.52	28.763
1067.41	31.5676
1070.31	49.6816
1073.2	75.6105
1076.09	159.65
1078.98	258.38
1081.88	424.27
1084.77	478.828
1087.66	373.442
1090.56	354.899
1093.45	431.67
1096.34	531.461
1099.23	640.371
1102.13	691.74
1105.02	656.254
1107.91	531.165
1110.81	376.269
1113.7	296.502
1116.59	217.645
1119.48	180.302
1122.38	150.049
1125.27	150.302
1128.16	129.095
1131.05	109.014
1133.95	91.6212
1136.84	66.595
1139.73	53.7113
1142.62	38.7319
1145.52	21.1951
1148.41	14.1516
1151.3	22.9164
1154.19	10.9996
1157.09	15.5411
1159.98	10.7555
1162.87	18.7125
1165.77	1.90945
1168.66	0.257797
1171.55	4.35605
1174.44	8.99986
1177.34	6.40396
1180.23	4.3705
1183.12	1.75531
1186.02	2.52089
1188.91	9.64824
1191.8	5.77078
1194.69	25.554
1197.59	12.2043
1200.48	17.5551
1203.37	21.5606
1206.26	19.0248
1209.16	6.76909
1212.05	3.96463
1214.94	12.7729
1217.84	3.73498
1220.73	14.7458
1223.62	20.8478
1226.51	25.9411
1229.41	31.5816
1232.3	8.75438
1235.19	25.2361
1238.08	6.71446
1240.98	2.14006
