Measurement: Raman, 532 nm, unoriented, Raman Data Processed
Mineral: Caledonite
Rruff sample: R070321
Ideal chemistry: Cu_2_Pb_5_(SO_4_)_3_(CO_3_)(OH)_6_
Locality: Soda Lake Mountains, near Baker, San Bernardino County, California, USA
Source: James Shigley
Description: Striated blue bladed crystals
Raman shift (cm-1)	intensity
151.108	0
154.483	39.7022
157.858	87.2754
161.233	116.554
164.607	15.3565
167.982	103.848
171.357	268.183
174.732	318.99
178.107	545.497
181.482	636.985
184.856	808.073
188.231	600.019
191.606	390.716
194.981	232.165
198.356	184.409
201.731	144.236
205.105	169.856
208.48	320.854
211.855	554.557
215.23	739.223
218.605	967.526
221.979	1415.12
225.354	1719.68
228.729	1848.59
232.104	2077.05
235.479	1558.47
238.853	1286.66
242.228	1087.17
245.603	993.049
248.978	953.135
252.353	881.098
255.727	645.091
259.102	426.267
262.477	233.647
265.852	166.186
269.227	127.555
272.602	169.043
275.976	286.347
279.351	247.519
282.726	174.554
286.101	12.6982
289.476	28.7539
292.851	13.751
296.225	15.7979
299.6	111.39
302.975	346.042
306.35	581.992
309.725	818.881
313.099	1054.26
316.474	1235.35
319.849	1242.17
323.224	1172.85
326.599	944.516
329.974	867.013
333.348	908.508
336.723	1028.16
340.098	1259.09
343.473	1449.19
346.848	1275.55
350.223	958.211
353.597	604.287
356.972	315.265
360.347	91.542
363.722	116.445
367.097	17.7471
370.471	57.9492
373.846	18.5645
377.221	1.09766
380.596	16.9473
383.971	57.3594
387.346	46.7275
390.72	170.746
394.095	148.429
397.47	356.839
400.845	578.604
404.219	979.726
407.594	1630.97
410.969	2545.4
414.344	3978.51
417.719	5741.81
421.094	7823.02
424.469	9708.54
427.843	10398.4
431.218	7645.15
434.593	5950.32
437.968	4469.82
441.343	3179.05
444.717	2304.68
448.092	2004.63
451.467	1872.81
454.842	2267.94
458.217	2270.64
461.591	1557.58
464.966	1431.86
468.341	1917.84
471.716	2434.09
475.091	2756.81
478.466	1958.28
481.84	1369.82
485.215	911.678
488.59	775.101
491.965	625.98
495.34	524.92
498.714	392.42
502.089	256.928
505.464	195.171
508.839	131.561
512.214	97.4795
515.589	4.15137
518.963	48.9268
522.338	29.4258
525.713	28.8906
529.088	40.1172
532.463	14.1631
535.837	17.7031
539.212	0.736328
542.587	3.17383
545.962	36.0547
549.337	91.3037
552.712	45.6582
556.086	5.03027
559.461	128.202
562.836	87.6865
566.211	111.612
569.586	163.317
572.96	181.475
576.335	216.872
579.71	155.16
583.085	265.45
586.46	376.432
589.835	514.976
593.209	886.253
596.584	1373.7
599.959	1941.66
603.334	2039.48
606.709	1962.52
610.083	1551.44
613.458	871.617
616.833	578.836
620.208	915.791
623.583	1138.65
626.958	1415.96
630.332	1684.44
633.707	539.671
637.082	162.204
640.457	140.775
643.832	91.4678
647.207	107.621
650.581	59.044
653.956	155.847
657.331	58.8125
660.706	127.594
664.081	66.7539
667.455	17.2568
670.83	86.0078
674.205	164.671
677.58	232.797
680.955	418.067
684.33	267.848
687.704	49.5293
691.079	15.5625
694.454	29.6445
697.829	25.8789
701.204	102.051
704.578	7.85644
707.953	67.6719
711.328	253.033
714.703	588.703
718.078	1161.3
721.452	2110.99
724.827	2202.89
728.202	800.857
731.577	288.593
734.952	174.227
738.327	146.584
741.701	109.808
745.076	84.1846
748.451	447.315
751.826	16.3652
755.201	83.4023
758.576	55.4326
761.95	71.4082
765.325	90.6738
768.7	174.547
772.075	103.557
775.45	280.717
778.824	341.803
782.199	501.758
785.574	675.799
788.949	743.769
792.324	942.865
795.698	838.519
799.073	837.885
802.448	635.705
805.823	451.652
809.198	420.387
812.573	337.352
815.947	465.435
819.322	363.861
822.697	534.631
826.072	536.769
829.447	556.475
832.822	595.361
836.196	764.031
839.571	752.621
842.946	850.262
846.321	827.955
849.696	783.32
853.07	733.751
856.445	588.091
859.82	568.48
863.195	464.288
866.57	231.254
869.944	181.287
873.319	115.81
876.694	94.8369
880.069	103.756
883.444	5.4043
886.819	51.2422
890.193	51.4023
893.568	39.2842
896.943	21.9805
900.318	29.1582
903.693	73.4883
907.067	125.662
910.442	224.533
913.817	316.793
917.192	425.905
920.567	620.831
923.942	1109.61
927.316	1853.12
930.691	3099.6
934.066	4572.77
937.441	5712.77
940.816	6171.69
944.191	6003.51
947.565	5764.41
950.94	5466.59
954.315	5597.42
957.69	6154.34
961.065	7214.3
964.439	9305.36
967.814	13505.5
971.189	21195.7
974.564	31172.9
977.939	37580.4
981.313	24681.4
984.688	10775.4
988.063	5168.55
991.438	2935.34
994.813	2040.97
998.188	1622.78
1001.56	1302.12
1004.94	1049.08
1008.31	811.904
1011.69	589.213
1015.06	373.617
1018.44	113.775
1021.81	40.1367
1025.19	43.2773
1028.56	84.3789
1031.94	49.9902
1035.31	126.407
1038.68	198.451
1042.06	228.652
1045.43	575.193
1048.81	826.771
1052.18	1206.68
1055.56	1281.19
1058.93	1012.59
1062.31	615.615
1065.68	389.408
1069.06	261.988
1072.43	325.191
1075.81	846.865
1079.18	2094.79
1082.56	4071.6
1085.93	5812.17
1089.31	2720.81
1092.68	2858.65
1096.06	3966.41
1099.43	5333.22
1102.81	5904.67
1106.18	5027.78
1109.56	3229.99
1112.93	2000.34
1116.31	1419.54
1119.68	1292.18
1123.06	1418.37
1126.43	1438.34
1129.81	1366.14
1133.18	1154.9
1136.56	1042.71
1139.93	1164.14
1143.31	1171.04
1146.68	876.825
1150.05	547.398
1153.43	295.437
1156.8	154.562
1160.18	57.4219
1163.55	55.8379
1166.93	14.9717
1170.3	73.8516
1173.68	1.14648
1177.05	5.93066
1180.43	28.7139
1183.8	8.2041
1187.18	22.7568
1190.55	48.1533
1193.93	59.0693
1197.3	68.2647
1200.68	46.8662
1204.05	197.06
1207.43	52.0107
1210.8	167.544
1214.18	25.9854
1217.55	76.5928
1220.93	91.7637
1224.3	3.17578
1227.67	85.1103
1231.05	50.2334
1234.42	140.781
1237.8	153.603
1241.17	158.388
1244.55	66.0019
1247.92	122.03
1251.3	52.9258
1254.67	17.3213
1258.05	22.835
1261.42	87.8633
1264.8	94.376
1268.17	180.198
1271.55	15.1621
1274.92	52.3906
1278.3	141.345
1281.67	141.02
1285.05	131.143
1288.42	9.33008
1291.8	29.1318
1295.17	114.03
1298.55	114.213
1301.92	91.3916
1305.3	9.57812
1308.67	84.9443
1312.05	36.0703
