Measurement: Raman, 780 nm, unoriented, Raman Data Processed
Mineral: CaLiBO3
Rruff sample: R110010
Ideal chemistry: CaLiBO_3_
Locality: Synthetic
Source: Jin_Xiao Mi
Description: Loose aggregate of colorless cubic crystals, mixed with parasibirskite crystals (R110009)
Raman shift (cm-1)	intensity
134.96	0
137.853	1.39235
140.746	2.24578
143.638	3.63457
146.531	5.75948
149.424	8.04492
152.316	16.5608
155.209	29.5491
158.102	26.3519
160.994	8.87094
163.887	4.91275
166.78	6.50669
169.673	8.26173
172.565	10.7096
175.458	14.7009
178.351	20.6932
181.243	14.3129
184.136	3.92678
187.029	0.490452
189.921	0.507515
192.814	0.687832
195.707	0.464794
198.6	1.13106
201.492	1.39664
204.385	0.788322
207.278	5.22206
210.17	2.20258
213.063	0.288513
215.956	2.4848
218.848	0.369858
221.741	3.28948
224.634	5.45081
227.526	10.4624
230.419	22.5032
233.312	28.2222
236.205	18.021
239.097	12.7131
241.99	14.8971
244.883	18.4069
247.775	28.8871
250.668	24.2772
253.561	6.64838
256.454	1.62249
259.346	0.904976
262.239	3.52614
265.132	9.14095
268.024	13.4958
270.917	17.075
273.81	21.7835
276.702	27.73
279.595	44.3065
282.488	56.3416
285.38	49.518
288.273	50.7059
291.166	61.4553
294.059	80.6043
296.951	102.821
299.844	111.787
302.737	94.72
305.629	82.3032
308.522	87.4897
311.415	98.1658
314.308	99.3873
317.2	72.9626
320.093	42.8465
322.986	28.3269
325.878	21.7224
328.771	17.7195
331.664	12.3486
334.556	4.54682
337.449	1.04736
340.342	2.12605
343.234	0.054691
346.127	2.31337
349.02	4.77692
351.913	6.4809
354.805	9.90726
357.698	10.4035
360.591	11.7383
363.483	11.5744
366.376	9.10495
369.269	7.76275
372.161	4.08368
375.054	3.21745
377.947	1.71931
380.839	1.66405
383.732	0.153683
386.625	1.28946
389.518	0.45927
392.41	1.04073
395.303	0.221546
398.196	0.202206
401.088	1.82967
403.981	1.54494
406.874	1.2114
409.767	1.11035
412.659	0.149925
415.552	2.75167
418.445	0.18428
421.337	0.206238
424.23	2.43982
427.123	2.53968
430.015	3.70219
432.908	2.70961
435.801	1.08138
438.693	3.22808
441.586	3.52675
444.479	2.27358
447.372	1.0377
450.264	2.13638
453.157	4.13692
456.05	3.68231
458.942	5.15093
461.835	5.08055
464.728	5.36756
467.62	6.09256
470.513	5.61232
473.406	6.35312
476.299	6.42252
479.191	7.34821
482.084	6.42067
484.977	5.95338
487.869	5.36377
490.762	5.1785
493.655	4.93893
496.547	4.57445
499.44	3.1014
502.333	4.96152
505.226	4.23978
508.118	3.49021
511.011	2.36851
513.904	1.77389
516.796	1.71777
519.689	0.009861
522.582	0.268974
525.474	1.7972
528.367	1.02144
531.26	0.08123
534.153	0.597069
537.045	0.855339
539.938	0.610857
542.831	2.06391
545.723	0.889557
548.616	0.816038
551.509	0.649305
554.401	1.1648
557.294	1.41812
560.187	0.65988
563.08	0.895271
565.972	3.06437
568.865	4.28098
571.758	4.30775
574.65	6.81636
577.543	9.28804
580.436	10.8119
583.328	13.0269
586.221	15.3318
589.114	18.3951
592.006	19.482
594.899	20.8599
597.792	18.7413
600.685	12.9818
603.577	8.84984
606.47	6.61561
609.363	5.86275
612.255	4.36388
615.148	1.89116
618.041	2.72557
620.933	2.90825
623.826	1.58492
626.719	1.6954
629.611	0.77417
632.504	1.42903
635.397	0.565065
638.29	1.67255
641.182	0.064732
644.075	0.773176
646.968	2.07748
649.86	0.121548
652.753	0.732481
655.646	1.01774
658.538	1.08038
661.431	1.24651
664.324	1.28739
667.217	1.6297
670.109	1.6978
673.002	0.860235
675.895	0.718319
678.787	1.51133
681.68	0.533758
684.573	0.057604
687.466	2.24368
690.358	0.684275
693.251	0.281565
696.144	0.753197
699.036	0.764175
701.929	0.941006
704.822	0.11039
707.714	1.98112
710.607	0.574486
713.5	0.885313
716.393	0.084305
719.285	1.01997
722.178	1.73486
725.071	0.93157
727.963	1.5138
730.856	1.91621
733.749	0.052126
736.641	1.94572
739.534	1.55515
742.427	2.01645
745.319	0.339083
748.212	2.61829
751.105	3.51541
753.998	3.06686
756.89	4.85166
759.783	6.50843
762.676	6.22278
765.568	5.08611
768.461	1.79631
771.354	2.67363
774.246	0.206394
777.139	0.920681
780.032	0.777016
782.925	1.32454
785.817	0.570951
788.71	0.990179
791.603	3.28231
794.495	2.9748
797.388	2.02487
800.281	0.818003
803.173	1.37599
806.066	1.44236
808.959	2.17497
811.851	1.3413
814.744	2.11314
817.637	2.02402
820.53	0.632551
823.422	1.81467
826.315	1.14759
829.208	1.39956
832.1	2.71873
834.993	2.17871
837.886	1.90112
840.779	1.23344
843.671	1.4764
846.564	2.57932
849.457	0.971889
852.349	0.011774
855.242	1.46618
858.135	0.884897
861.027	1.1466
863.92	1.76968
866.813	1.90814
869.706	1.40023
872.598	2.03816
875.491	2.44208
878.384	1.49238
881.276	3.20642
884.169	2.62247
887.062	4.55872
889.954	6.90863
892.847	7.90137
895.74	13.3234
898.632	21.5715
901.525	48.4625
904.418	118.472
907.311	187.968
910.203	228.939
913.096	318.389
915.989	463.881
918.881	395.915
921.774	119.748
924.667	43.4827
927.559	22.3541
930.452	14.4903
933.345	8.04086
936.237	5.33456
939.13	3.40993
942.023	1.26593
944.916	2.52043
947.808	2.43322
950.701	0.445398
953.594	2.0829
956.486	0.77281
959.379	1.5634
962.272	1.06048
965.164	0.630718
968.057	0.847696
970.95	1.11293
973.843	0.515741
976.735	0.666639
979.628	1.42104
982.521	1.31338
985.413	1.04573
988.306	0.761326
991.199	2.13535
994.091	1.90872
996.984	0.45825
999.877	1.33229
1002.77	0.629293
1005.66	1.78952
1008.55	1.5911
1011.45	2.36462
1014.34	0.87928
1017.23	0.780981
1020.13	1.56214
1023.02	1.33674
1025.91	2.11537
1028.8	0.372496
1031.7	0.82583
1034.59	0.173922
1037.48	1.3724
1040.38	1.16987
1043.27	1.59967
1046.16	1.31436
1049.05	0.340226
1051.94	1.7319
1054.84	2.40069
1057.73	2.94804
1060.62	2.66113
1063.52	3.59212
1066.41	3.5367
1069.3	3.58634
1072.19	1.10803
1075.09	1.85167
1077.98	3.20607
1080.87	2.31118
1083.77	1.42729
1086.66	1.63721
1089.55	1.11895
1092.44	0.263401
1095.34	0.756804
1098.23	0.136146
1101.12	1.21687
1104.01	1.01097
1106.91	0.13523
1109.8	0.695493
1112.69	0.424286
1115.59	0.158122
1118.48	0.569781
1121.37	0.793797
1124.26	1.48996
1127.16	0.561576
1130.05	1.22929
1132.94	0.692401
1135.83	1.20003
1138.73	1.92537
1141.62	1.19065
1144.51	0.13035
1147.4	0.392095
1150.3	0.306045
1153.19	0.744361
1156.08	1.49751
1158.97	1.00544
1161.87	1.10569
1164.76	1.78573
1167.65	2.22429
1170.55	1.42226
1173.44	2.11959
1176.33	2.3312
1179.22	1.91181
1182.12	2.64683
1185.01	3.09778
1187.9	2.53647
1190.8	2.22135
1193.69	2.81348
1196.58	2.96062
1199.47	3.32838
1202.37	1.76767
1205.26	2.57216
1208.15	3.71039
1211.04	5.26097
1213.94	2.12068
1216.83	2.39628
1219.72	1.58799
1222.62	1.51828
1225.51	2.55643
1228.4	1.56312
1231.29	0.009788
1234.18	1.39356
1237.08	0.200846
1239.97	2.0998
1242.86	0.102249
1245.76	1.43717
1248.65	0.892298
1251.54	1.08665
1254.43	0.856945
1257.33	1.20443
1260.22	1.66148
1263.11	1.12777
1266.01	2.13878
1268.9	1.83077
1271.79	1.30239
1274.68	0.779879
1277.58	0.187826
1280.47	0.257143
1283.36	0.003273
