Measurement: Raman, 532 nm, unoriented, Raman Data Processed
Mineral: CaLiBO3
Rruff sample: R110010
Ideal chemistry: CaLiBO_3_
Locality: Synthetic
Source: Jin_Xiao Mi
Description: Loose aggregate of colorless cubic crystals, mixed with parasibirskite crystals (R110009)
Raman shift (cm-1)	intensity
160.942	0
163.835	0.415794
166.728	1.25951
169.62	2.87816
172.513	9.26266
175.406	13.5699
178.298	25.4591
181.191	23.9722
184.084	15.4547
186.976	11.0262
189.869	9.01652
192.762	8.29903
195.655	7.88855
198.547	6.72078
201.44	8.45026
204.333	8.2588
207.225	11.5653
210.118	13.0348
213.011	6.11996
215.904	3.78152
218.796	4.97179
221.689	5.15438
224.582	2.89511
227.474	5.78903
230.367	14.5304
233.26	19.5202
236.152	18.8628
239.045	9.93684
241.938	11.9767
244.831	18.9039
247.723	35.9316
250.616	43.0728
253.509	11.3637
256.401	1.28601
259.294	3.12592
262.187	0.798904
265.079	1.65478
267.972	7.81792
270.865	12.3667
273.758	15.4965
276.65	22.1222
279.543	37.7751
282.436	51.1306
285.328	50.3101
288.221	45.8065
291.114	50.1149
294.007	73.6813
296.899	103.525
299.792	130.021
302.685	119.886
305.577	90.2101
308.47	89.6324
311.363	111.817
314.255	133.919
317.148	115.365
320.041	69.7186
322.933	43.6904
325.826	32.8527
328.719	27.8318
331.612	23.6959
334.504	11.2311
337.397	1.75012
340.29	0.738388
343.183	3.99979
346.075	0.882751
348.968	0.894012
351.861	3.96475
354.753	6.59828
357.646	8.15686
360.539	14.1274
363.431	14.7929
366.324	13.4222
369.217	14.3368
372.11	7.73636
375.002	7.83214
377.895	4.02673
380.788	3.42311
383.68	2.25162
386.573	4.04199
389.466	0.419998
392.358	2.42662
395.251	1.64401
398.144	5.41284
401.036	2.68556
403.929	1.37869
406.822	0.596832
409.715	0.698135
412.607	1.13911
415.5	2.02695
418.393	1.71768
421.285	1.64255
424.178	2.86052
427.071	1.7253
429.964	2.36629
432.856	2.32031
435.749	1.07617
438.642	3.40036
441.534	4.7735
444.427	3.15172
447.32	1.47476
450.212	0.827805
453.105	3.92136
455.998	2.28221
458.891	6.0007
461.783	5.89473
464.676	5.52737
467.569	8.73082
470.461	8.61078
473.354	6.30762
476.247	9.66257
479.139	10.6689
482.032	11.2518
484.925	8.71146
487.818	6.1848
490.71	5.27751
493.603	3.4912
496.496	3.48039
499.388	4.05209
502.281	1.65498
505.174	2.53813
508.067	3.95073
510.959	1.24972
513.852	3.08606
516.745	4.01623
519.637	0.008224
522.53	0.903198
525.423	1.19527
528.316	1.55482
531.208	0.963547
534.101	0.416748
536.994	0.058258
539.886	1.96558
542.779	0.495255
545.672	0.575134
548.564	0.29689
551.457	3.1144
554.35	2.82475
557.242	1.12927
560.135	0.532059
563.028	4.57591
565.921	2.11128
568.813	4.02481
571.706	3.63265
574.599	7.2906
577.491	7.84045
580.384	8.97958
583.277	12.4394
586.17	14.8133
589.062	20.1781
591.955	23.4359
594.848	26.405
597.74	24.6468
600.633	19.6004
603.526	12.2247
606.418	8.93042
609.311	6.05689
612.204	5.39738
615.097	5.45003
617.989	0.407516
620.882	2.39417
623.775	1.2057
626.667	1.8502
629.56	1.80197
632.453	0.743301
635.346	1.83815
638.238	1.20546
641.131	2.20584
644.024	0.346481
646.916	1.1913
649.809	0.898956
652.702	0.017899
655.594	0.90274
658.487	3.34491
661.38	1.33668
664.273	3.09319
667.165	1.56577
670.058	1.03622
672.951	2.73015
675.843	0.777954
678.736	1.23846
681.629	3.20821
684.521	3.12294
687.414	2.81628
690.307	4.22382
693.199	2.05165
696.092	0.043182
698.985	2.03871
701.878	1.7152
704.77	1.47969
707.663	4.27966
710.556	4.70084
713.448	1.91675
716.341	2.22586
719.234	3.32608
722.127	2.05121
725.019	1.20624
727.912	1.90447
730.805	4.00809
733.697	1.35352
736.59	0.653137
739.483	0.179214
742.375	1.08766
745.268	1.31975
748.161	2.37109
751.054	0.953079
753.946	4.06314
756.839	6.04402
759.732	7.18487
762.625	10.1446
765.517	11.4919
768.41	8.01448
771.303	2.03421
774.195	2.39635
777.088	4.07703
779.981	0.18631
782.873	1.80099
785.766	0.622498
788.659	4.01884
791.552	1.34883
794.444	2.58035
797.337	3.6321
800.23	3.28754
803.122	3.40408
806.015	2.53998
808.908	2.86966
811.8	1.53775
814.693	1.83849
817.586	1.65729
820.479	2.64543
823.371	0.207581
826.264	1.89285
829.157	1.78542
832.049	0.346893
834.942	2.07095
837.835	3.16272
840.727	2.76622
843.62	3.00458
846.513	1.82854
849.405	1.35844
852.298	2.56049
855.191	2.24153
858.084	0.042267
860.976	1.0192
863.869	1.99545
866.762	1.69041
869.654	1.69269
872.547	0.007904
875.44	5.11172
878.333	3.35635
881.225	2.21988
884.118	3.53909
887.011	6.21603
889.903	5.29291
892.796	7.04561
895.689	13.8264
898.582	19.3473
901.474	29.3162
904.367	53.7047
907.26	116.837
910.152	225.104
913.045	417.713
915.938	712.959
918.83	931.377
921.723	368.808
924.616	113.379
927.509	50.8608
930.401	31.739
933.294	19.2119
936.187	12.5632
939.079	10.9926
941.972	6.7191
944.865	4.88095
947.757	1.87952
950.65	1.23058
953.543	3.86064
956.436	3.83714
959.328	2.65314
962.221	1.01625
965.114	1.19402
968.006	2.5454
970.899	2.12514
973.792	1.65987
976.684	0.204147
979.577	1.9227
982.47	0.24028
985.362	1.12311
988.255	3.08662
991.148	1.05504
994.041	0.615829
996.933	2.89912
999.826	1.9891
1002.72	1.27068
1005.61	1.22446
1008.5	0.3535
1011.4	0.102478
1014.29	2.90414
1017.18	1.12349
1020.08	0.426834
1022.97	0.336212
1025.86	1.14175
1028.75	1.85358
1031.65	2.57124
1034.54	1.67546
1037.43	2.63493
1040.32	1.67055
1043.22	1.36885
1046.11	1.03424
1049	1.97098
1051.89	1.76685
1054.79	1.35513
1057.68	2.231
1060.57	2.6946
1063.47	4.02862
1066.36	8.4079
1069.25	7.63214
1072.14	3.1837
1075.04	4.2225
1077.93	3.63742
1080.82	5.26006
1083.71	6.11733
1086.61	9.52862
1089.5	7.32283
1092.39	4.13945
1095.29	0.169281
1098.18	2.57904
1101.07	0.09404
1103.96	1.01213
1106.86	2.88872
1109.75	1.83437
1112.64	0.376907
1115.53	0.128357
1118.43	3.9662
1121.32	3.21425
1124.21	2.77409
1127.11	1.15157
1130	2.12984
1132.89	2.44472
1135.78	0.561829
1138.68	3.34659
1141.57	3.49619
1144.46	1.79633
1147.35	0.043198
1150.25	0.496521
1153.14	1.67995
1156.03	1.42769
1158.92	0.373276
1161.82	0.220261
1164.71	0.16449
1167.6	2.78418
1170.5	2.50967
1173.39	1.2486
1176.28	1.87759
1179.17	2.26234
1182.07	2.28021
1184.96	1.62457
1187.85	3.56668
1190.74	5.2005
1193.64	7.37979
1196.53	3.75731
1199.42	6.83092
1202.32	6.78772
1205.21	5.14569
1208.1	4.70131
1210.99	5.38081
1213.89	10.868
1216.78	6.67641
1219.67	5.91817
1222.56	4.01071
1225.46	3.37474
1228.35	2.76718
1231.24	1.99071
1234.13	1.7708
1237.03	1.16554
1239.92	1.20868
1242.81	1.65587
1245.71	1.34416
1248.6	1.75102
1251.49	0.600006
1254.38	0.676453
1257.28	1.7354
1260.17	1.53412
1263.06	0.073257
1265.95	3.5471
1268.85	7.12442
1271.74	5.08817
1274.63	2.56714
1277.53	2.48686
1280.42	2.56049
1283.31	8.41692
1286.2	10.5837
1289.1	19.1736
1291.99	20.0035
1294.88	19.0047
1297.78	10.7415
1300.67	4.3152
