Measurement: Raman, 532 nm, unoriented, Raman Data Processed
Mineral: Callaghanite
Rruff sample: R050598
Ideal chemistry: Cu_2_Mg_2_CO_3_(OH)_6_2H_2_O
Locality: Basic Refractories mine, Gabbs District, Nye County, Nevada, USA
Source: Marcus Origlieri
Description: Druse of blue pseudo-octahedral crystals
Measured chemistry: Cu_2.00_(Mg_1.97_Fe_0.03_)_Σ=2_CO_3_(OH)_6_·2H_2_O ; C and H not measured but estimated by stoichiometry
Raman shift (cm-1)	intensity
131.988	0
135.363	2.56019
138.737	21.7158
142.112	41.7684
145.487	61.1706
148.862	33.287
152.237	7.38929
155.612	18.0535
158.986	34.393
162.361	18.8461
165.736	17.8551
169.111	8.59056
172.486	0.652452
175.86	1.16488
179.235	7.67938
182.61	14.6916
185.985	8.36055
189.36	12.9284
192.734	22.9608
196.109	16.2294
199.484	12.6438
202.859	16.9546
206.234	28.0644
209.608	41.0596
212.983	23.5282
216.358	20.2683
219.733	9.28348
223.108	2.21392
226.483	1.16345
229.857	1.10585
233.232	0.308034
236.607	0.754148
239.982	0.018817
243.357	1.47916
246.732	3.18204
250.106	5.58084
253.481	6.50314
256.856	7.43049
260.231	10.6357
263.606	13.4129
266.98	14.4082
270.355	14.9972
273.73	15.6143
277.105	17.8425
280.48	16.6301
283.854	12.7261
287.229	8.4372
290.604	5.14365
293.979	2.65664
297.354	1.22111
300.729	0.644379
304.103	0.233632
307.478	0.604403
310.853	0.954823
314.228	1.50648
317.603	2.3401
320.978	4.08126
324.352	5.2033
327.727	4.74973
331.102	4.33514
334.477	4.3416
337.852	4.24449
341.226	4.68079
344.601	3.53586
347.976	2.57779
351.351	1.65605
354.726	1.15308
358.1	0.29753
361.475	0.180357
364.85	0.526949
368.225	0.148783
371.6	0.142769
374.974	0.556789
378.349	0.617873
381.724	0.606126
385.099	0.247574
388.474	0.14674
391.849	0.41227
395.223	0.074049
398.598	0.062729
401.973	0.36652
405.348	0.040929
408.723	0.618654
412.098	1.04139
415.472	1.29435
418.847	1.45573
422.222	1.33201
425.597	0.696578
428.972	1.53773
432.346	2.2176
435.721	4.04944
439.096	6.02486
442.471	8.45944
445.846	9.54695
449.221	10.6515
452.595	11.8335
455.97	13.3396
459.345	13.4883
462.72	13.0006
466.095	12.7153
469.469	14.0502
472.844	16.584
476.219	21.0688
479.594	25.8581
482.969	30.6169
486.344	36.3091
489.718	45.5131
493.093	56.3766
496.468	60.9929
499.843	53.3213
503.218	37.3738
506.592	22.9885
509.967	14.1463
513.342	9.7623
516.717	6.65979
520.092	4.72942
523.466	3.00966
526.841	1.88084
530.216	1.14376
533.591	0.783697
536.966	0.414991
540.341	0.034693
543.715	0.238507
547.09	0.027537
550.465	0.316481
553.84	0.025302
557.215	0.171151
560.59	0.184491
563.964	0.10479
567.339	0.090466
570.714	0.178761
574.089	0.173434
577.464	0.013314
580.838	0.266008
584.213	0.230596
587.588	0.253446
590.963	0.27066
594.338	0.290505
597.712	0.330491
601.087	0.522917
604.462	0.384325
607.837	0.512434
611.212	0.337793
614.587	0.35779
617.961	0.263045
621.336	0.448071
624.711	0.42518
628.086	0.422966
631.461	0.449915
634.835	0.206261
638.21	0.547051
641.585	0.554106
644.96	0.549675
648.335	1.14426
651.71	1.04523
655.084	1.33107
658.459	1.54308
661.834	1.72954
665.209	1.79933
668.584	1.58816
671.958	1.11291
675.333	0.948075
678.708	1.09078
682.083	0.906102
685.458	0.883753
688.832	0.681159
692.207	0.325361
695.582	0.175462
698.957	0.218815
702.332	0.11168
705.707	0.519135
709.081	0.289909
712.456	0.006948
715.831	0.005447
719.206	0.01378
722.581	0.117023
725.955	0.288932
729.33	0.452328
732.705	1.14266
736.08	2.02228
739.455	2.60252
742.83	3.46921
746.204	3.71714
749.579	3.36222
752.954	2.63753
756.329	2.00861
759.704	1.53675
763.078	1.20224
766.453	1.10247
769.828	0.463881
773.203	0.323968
776.578	0.258099
779.952	0.134805
783.327	0.114089
786.702	0.031119
790.077	0.145548
793.452	0.09333
796.827	0.32852
800.201	0.02133
803.576	0.561237
806.951	0.318822
810.326	0.477338
813.701	0.598867
817.076	0.478197
820.45	0.409583
823.825	0.404037
827.2	0.894446
830.575	0.849359
833.95	0.853191
837.324	1.14728
840.699	1.46285
844.074	1.7281
847.449	1.7318
850.824	2.14099
854.198	2.35754
857.573	2.85066
860.948	3.29222
864.323	3.78943
867.698	3.69118
871.073	3.75416
874.447	3.44263
877.822	2.26386
881.197	1.49368
884.572	1.2515
887.947	0.855031
891.322	0.510546
894.696	0.246571
898.071	0.13078
901.446	0.094717
904.821	0.090262
908.196	0.103059
911.57	0.211
914.945	0.128974
918.32	0.187755
921.695	0.646399
925.07	1.03912
928.444	0.998842
931.819	1.97236
935.194	2.80344
938.569	3.47387
941.944	4.37272
945.318	4.0677
948.693	4.1765
952.068	3.90447
955.443	4.2672
958.818	3.87211
962.193	3.13917
965.567	2.65706
968.942	1.88738
972.317	1.13878
975.692	0.822477
979.067	0.803994
982.442	0.879495
985.816	0.677438
989.191	1.14803
992.566	1.32026
995.941	1.63461
999.316	2.09544
1002.69	2.41879
1006.07	2.50353
1009.44	3.08418
1012.82	2.97607
1016.19	2.96172
1019.57	2.83006
1022.94	2.2812
1026.31	1.93851
1029.69	1.39491
1033.06	0.887084
1036.44	0.826789
1039.81	0.475447
1043.19	0.099192
1046.56	0.30848
1049.94	0.111106
1053.31	0.010907
1056.69	0.224886
1060.06	0.388809
1063.44	0.518626
1066.81	0.969551
1070.19	1.44074
1073.56	3.09347
1076.94	6.08066
1080.31	10.1773
1083.69	17.6605
1087.06	26.3458
1090.44	10.0757
1093.81	2.06579
1097.18	0.925184
1100.56	0.392301
1103.93	0.143639
1107.31	0.012035
1110.68	0.17202
1114.06	0.008874
1117.43	0.088226
1120.81	0.034365
1124.18	0.141336
1127.56	0.039383
1130.93	0.106917
1134.31	0.348531
1137.68	0.297847
1141.06	0.125584
1144.43	0.40904
1147.81	0.256196
1151.18	0.35916
1154.56	0.36745
1157.93	0.515188
1161.31	0.528007
1164.68	0.671052
1168.06	0.491788
1171.43	0.411093
1174.81	0.518267
1178.18	0.365297
1181.56	0.218062
1184.93	0.294351
1188.31	0.39328
1191.68	0.305695
1195.06	0.241992
1198.43	0.284518
1201.81	0.260486
1205.18	0.115776
1208.55	0.28116
1211.93	0.422461
1215.3	0.148455
1218.68	0.064422
1222.05	0.253196
1225.43	0.370369
1228.8	0.2602
1232.18	0.247254
1235.55	0.414489
1238.93	0.127996
1242.3	0.071075
1245.68	0.338885
1249.05	0.094222
1252.43	0.189876
1255.8	0.161475
1259.18	0.037684
1262.55	0.258429
1265.93	0.125721
1269.3	0.114492
1272.68	0.083087
1276.05	0.115449
1279.42	0.237884
1282.8	0.076898
1286.17	0.027307
1289.55	0.151087
1292.92	0.256007
1296.3	0.104228
1299.67	0.088767
1303.05	0.124321
