Measurement: Raman, 780 nm, unoriented, Raman Data Processed
Mineral: Callaghanite
Rruff sample: R050598
Ideal chemistry: Cu_2_Mg_2_CO_3_(OH)_6_2H_2_O
Locality: Basic Refractories mine, Gabbs District, Nye County, Nevada, USA
Source: Marcus Origlieri
Description: Druse of blue pseudo-octahedral crystals
Measured chemistry: Cu_2.00_(Mg_1.97_Fe_0.03_)_Σ=2_CO_3_(OH)_6_·2H_2_O ; C and H not measured but estimated by stoichiometry
Raman shift (cm-1)	intensity
132.835	0
135.727	0.678718
138.62	2.09686
141.513	4.20683
144.405	4.74698
147.298	7.04107
150.191	3.0193
153.084	1.63768
155.976	1.95004
158.869	2.93904
161.762	2.71747
164.654	1.31898
167.547	0.607351
170.44	0.106157
173.333	0.16566
176.225	0.37712
179.118	1.2153
182.011	1.26127
184.903	0.795307
187.796	1.24932
190.689	2.1514
193.581	3.19011
196.474	2.80429
199.367	1.97627
202.26	2.17838
205.152	2.86583
208.045	4.49429
210.938	4.58074
213.83	2.68836
216.723	1.5018
219.616	0.813857
222.508	0.414433
225.401	0.014253
228.294	0.289153
231.187	0.092222
234.079	0.126341
236.972	0.007866
239.865	0.502628
242.757	0.289299
245.65	0.592505
248.543	0.901625
251.435	1.05028
254.328	1.09255
257.221	1.59962
260.114	2.13113
263.006	2.98087
265.899	3.00146
268.792	2.49
271.684	2.88504
274.577	2.38102
277.47	2.48126
280.363	2.0906
283.255	1.57752
286.148	1.26211
289.041	0.841462
291.933	0.605281
294.826	0.438554
297.719	0.163858
300.611	0.060346
303.504	0.003659
306.397	0.17331
309.289	0.082579
312.182	0.179282
315.075	0.063172
317.968	0.591521
320.86	0.833311
323.753	0.960806
326.646	0.765738
329.538	0.638516
332.431	0.636527
335.324	0.427504
338.216	0.541409
341.109	0.443123
344.002	0.586713
346.895	0.7627
349.787	0.822605
352.68	0.531265
355.573	0.544252
358.465	0.321883
361.358	0.066643
364.251	0.105651
367.144	0.102256
370.036	0.011235
372.929	0.01572
375.822	0.013673
378.714	0.174363
381.607	0.171716
384.5	0.03157
387.392	0.171838
390.285	0.151677
393.178	0.015275
396.071	0.160535
398.963	0.150863
401.856	0.066966
404.749	0.055646
407.641	0.12589
410.534	0.090283
413.427	0.015482
416.32	0.256221
419.212	0.48528
422.105	0.471859
424.998	0.57238
427.89	0.527283
430.783	0.711169
433.676	0.777168
436.568	1.09555
439.461	1.54005
442.354	2.1715
445.247	2.40357
448.139	2.08505
451.032	1.94942
453.925	1.99886
456.817	2.17853
459.71	2.35433
462.603	2.14176
465.495	2.03974
468.388	2.03052
471.281	2.57978
474.173	2.98069
477.066	3.4897
479.959	3.99882
482.852	4.48282
485.744	4.91036
488.637	5.73789
491.53	6.00346
494.422	7.57883
497.315	8.15177
500.208	6.91625
503.101	5.1866
505.993	3.30197
508.886	2.13087
511.779	1.36464
514.671	0.874867
517.564	0.734381
520.457	0.614336
523.349	0.388602
526.242	0.259217
529.135	0.140767
532.028	0.17821
534.92	0.16462
537.813	0.049678
540.706	0.300417
543.598	0.095765
546.491	0.212474
549.384	0.014596
552.277	0.036556
555.169	0.079185
558.062	0.162956
560.955	0.140223
563.847	0.107802
566.74	0.006738
569.633	0.21849
572.525	0.102748
575.418	0.130302
578.311	0.049627
581.203	0.196964
584.096	0.100495
586.989	0.108717
589.882	0.07507
592.774	0.041547
595.667	0.183266
598.56	0.257523
601.452	0.229653
604.345	0.184078
607.238	0.417015
610.13	0.288257
613.023	0.22078
615.916	0.29566
618.809	0.072511
621.701	0.2285
624.594	0.158551
627.487	0.197556
630.379	0.243009
633.272	0.084925
636.165	0.126603
639.058	0.380783
641.95	0.279113
644.843	0.209832
647.736	0.207606
650.628	0.559505
653.521	0.549174
656.414	0.860524
659.307	0.609145
662.199	0.691427
665.092	0.721529
667.985	0.653005
670.877	0.621492
673.77	0.688349
676.663	0.524554
679.555	0.449628
682.448	0.544089
685.341	0.415624
688.234	0.400142
691.126	0.419981
694.019	0.176406
696.912	0.119319
699.804	0.07021
702.697	0.070695
705.59	0.255525
708.482	0.11366
711.375	0.23516
714.268	0.255676
717.16	0.269064
720.053	0.058427
722.946	0.166952
725.839	0.054731
728.731	0.190331
731.624	0.326502
734.517	0.338826
737.409	0.107488
740.302	0.474757
743.195	0.59372
746.087	0.590191
748.98	0.523776
751.873	0.527691
754.766	0.304375
757.658	0.299484
760.551	0.387526
763.444	0.638034
766.336	0.142593
769.229	0.026269
772.122	0.159801
775.014	0.119807
777.907	0.017388
780.8	0.35785
783.693	0.159457
786.585	0.060046
789.478	0.136549
792.371	0.052186
795.263	0.010762
798.156	0.041595
801.049	0.109301
803.942	0.078274
806.834	0.031942
809.727	0.197244
812.62	0.053077
815.512	0.095421
818.405	0.255573
821.298	0.184939
824.19	0.270859
827.083	0.263372
829.976	0.185712
832.869	0.280454
835.761	0.21393
838.654	0.292367
841.547	0.285508
844.439	0.509497
847.332	0.651418
850.225	0.648803
853.117	0.454232
856.01	0.439872
858.903	0.640471
861.796	0.833297
864.688	0.712237
867.581	0.854965
870.474	0.889603
873.366	0.712343
876.259	0.733935
879.152	0.662041
882.044	0.508494
884.937	0.281246
887.83	0.238702
890.723	0.132655
893.615	0.104653
896.508	0.103575
899.401	0.159748
902.293	0.009614
905.186	0.129668
908.079	0.029594
910.971	0.074322
913.864	0.006866
916.757	0.101411
919.65	0.154763
922.542	0.185822
925.435	0.215885
928.328	0.41861
931.221	0.445038
934.113	0.469197
937.006	0.818362
939.899	0.811577
942.791	1.09372
945.684	0.822687
948.577	1.30209
951.469	1.07495
954.362	1.03428
957.255	1.12449
960.148	1.11355
963.04	0.815675
965.933	1.10358
968.826	0.682485
971.718	0.48679
974.611	0.690156
977.504	0.411181
980.396	0.227545
983.289	0.516547
986.182	0.272117
989.074	0.416564
991.967	0.467048
994.86	0.527264
997.753	0.763886
1000.64	0.690682
1003.54	0.778429
1006.43	0.923546
1009.32	0.993676
1012.22	0.85073
1015.11	0.728329
1018	0.791229
1020.89	1.1455
1023.79	0.833199
1026.68	0.502988
1029.57	0.544001
1032.46	0.422353
1035.36	0.207736
1038.25	0.488899
1041.14	0.22864
1044.04	0.200363
1046.93	0.033553
1049.82	0.087369
1052.71	0.188055
1055.61	0.052006
1058.5	0.176759
1061.39	0.025878
1064.29	0.341758
1067.18	0.468622
1070.07	0.598767
1072.96	0.544697
1075.86	1.1137
1078.75	1.64007
1081.64	2.40187
1084.53	3.48017
1087.43	4.63059
1090.32	2.93572
1093.21	0.966159
1096.1	0.270567
1099	0.142104
1101.89	0.101881
1104.78	0.031121
1107.67	0.075844
1110.57	0.033825
1113.46	0.039534
1116.35	0.295468
1119.25	0.121653
1122.14	0.177961
1125.03	0.147291
1127.92	0.111613
1130.82	0.007827
1133.71	0.102389
1136.6	0.226397
1139.49	0.094166
1142.39	0.145551
1145.28	0.243583
1148.17	0.028001
1151.07	0.328629
1153.96	0.218837
1156.85	0.376549
1159.74	0.319031
1162.64	0.341415
1165.53	0.062452
1168.42	0.19936
1171.32	0.236966
1174.21	0.337834
1177.1	0.182889
1179.99	0.408888
1182.88	0.050804
1185.78	0.260664
1188.67	0.388594
1191.56	0.287119
1194.46	0.284828
1197.35	0.384386
1200.24	0.137612
1203.13	0.452942
1206.03	0.203609
1208.92	0.369644
1211.81	0.496684
1214.7	0.407633
1217.6	0.264884
1220.49	0.231319
1223.38	0.245213
1226.28	0.089801
1229.17	0.238039
1232.06	0.303579
1234.95	0.331382
1237.85	0.304871
1240.74	0.379575
1243.63	0.311931
1246.53	0.169587
1249.42	0.412744
1252.31	0.185823
1255.2	0.035858
1258.1	0.154149
1260.99	0.105884
1263.88	0.306587
1266.77	0.221764
1269.67	0.314694
1272.56	0.015804
1275.45	0.173
1278.35	0.056608
1281.24	0
