Measurement: Raman, 785 nm, unoriented, Raman Data Processed
Mineral: Calomel
Rruff sample: R070370
Ideal chemistry: HgCl
Locality: Lake County, California, USA
Source: Michael Scott
Description: Colorless rounded or poorly formed crystals
Raman shift (cm-1)	intensity
133.554	0
136.447	1.29272
139.34	15.2402
142.232	84.5649
145.125	224.773
148.018	541.2
150.911	1818.67
153.803	3332.04
156.696	4387.33
159.589	6019.28
162.481	9682.21
165.374	21945.3
168.267	20862.8
171.16	2995.37
174.052	628.243
176.945	304.359
179.838	138.198
182.73	92.3203
185.623	32.1026
188.516	27.9586
191.408	9.77029
194.301	3.0188
197.194	4.61932
200.087	35.6095
202.979	40.8119
205.872	29.2575
208.765	18.5421
211.657	11.8461
214.55	12.8172
217.443	19.3771
220.335	0.658356
223.228	4.81131
226.121	1.68964
229.013	19.0699
231.906	31.2308
234.799	35.5745
237.692	47.2125
240.584	64.638
243.477	98.5079
246.37	124.305
249.262	173.876
252.155	271.324
255.048	414.598
257.941	729.485
260.833	1202.01
263.726	1810.23
266.619	2625.57
269.511	3931.37
272.404	5679.75
275.297	6172.53
278.19	4726.72
281.082	3263.5
283.975	2550.31
286.868	2257.97
289.76	2062.92
292.653	1742.2
295.546	1323.02
298.438	876.31
301.331	590.547
304.224	429.827
307.116	297.988
310.009	239.26
312.902	191.111
315.795	178.972
318.687	158.022
321.58	126.352
324.473	113.835
327.365	87.3335
330.258	60.4081
333.151	50.3727
336.043	28.0143
338.936	14.6509
341.829	1.62292
344.721	4.0119
347.614	1.67831
350.507	1.29367
353.4	8.45071
356.292	2.93774
359.185	22.9083
362.078	17.209
364.97	8.01138
367.863	1.23566
370.756	2.69757
373.649	0.767426
376.541	5.55557
379.434	11.5434
382.327	23.227
385.219	7.32022
388.112	13.7844
391.005	11.0425
393.897	5.96707
396.79	11.5528
399.683	14.2908
402.575	15.3178
405.468	16.4188
408.361	15.2471
411.254	5.47586
414.146	17.5699
417.039	4.53946
419.932	1.77307
422.824	20.2053
425.717	2.87955
428.61	10.6936
431.502	15.7309
434.395	0.827576
437.288	20.3846
440.181	17.3101
443.073	13.7006
445.966	27.9807
448.859	12.8786
451.751	8.22324
454.644	11.3056
457.537	13.8188
460.43	16.7789
463.322	7.00385
466.215	16.834
469.108	6.2782
472	0.716034
474.893	16.497
477.786	0.181091
480.678	17.2991
483.571	14.0597
486.464	6.90808
489.356	4.63977
492.249	9.18134
495.142	22.0676
498.035	14.3129
500.927	21.9677
503.82	23.5202
506.713	6.30353
509.605	7.32971
512.498	19.7008
515.391	8.99323
518.284	6.26144
521.176	7.84152
524.069	6.68576
526.962	18.3191
529.854	15.9031
532.747	11.9505
535.64	14.659
538.533	19.7445
541.425	9.56503
544.318	4.51471
547.211	7.36197
550.103	19.111
552.996	20.0605
555.889	7.77039
558.781	6.63278
561.674	7.88501
564.567	14.2484
567.459	5.28723
570.352	21.9182
573.245	9.77933
576.138	17.4879
579.03	9.51004
581.923	18.9152
584.816	18.2467
587.708	11.7214
590.601	15.7621
593.494	17.8283
596.386	15.463
599.279	18.9136
602.172	33.8346
605.064	24.3883
607.957	8.00845
610.85	13.2507
613.743	19.5147
616.635	19.8025
619.528	24.1507
622.421	11.1948
625.313	21.7495
628.206	1.71933
631.099	2.00311
633.991	20.7371
636.884	8.63196
639.777	26.3451
642.67	4.71228
645.562	16.9597
648.455	16.8846
651.348	5.66589
654.24	7.1041
657.133	1.94653
660.026	15.0968
662.918	3.64468
665.811	3.08823
668.704	25.2063
671.597	2.99204
674.489	6.48462
677.382	21.0349
680.275	15.217
683.167	3.6701
686.06	30.2692
688.953	18.0204
691.846	10.2089
694.738	0.046295
697.631	15.2978
700.524	15.9924
703.416	19.7426
706.309	14.5124
709.202	19.5125
712.094	12.9525
714.987	10.8389
717.88	20.9076
720.773	3.19543
723.665	16.4657
726.558	15.7158
729.451	14.164
732.343	7.03726
735.236	26.1473
738.129	4.23245
741.021	9.17334
743.914	3.76837
746.807	12.2235
749.699	10.2491
752.592	4.06378
755.485	12.7687
758.378	8.71878
761.27	13.8852
764.163	7.67355
767.056	14.2792
769.948	10.0006
772.841	13.6456
775.734	19.6914
778.626	18.7459
781.519	4.57521
784.412	6.23483
787.305	14.568
790.197	15.4201
793.09	21.6619
795.983	20.5178
798.875	0.040192
801.768	17.9279
804.661	5.30434
807.553	15.964
810.446	13.7844
813.339	5.04492
816.232	9.5907
819.124	10.2639
822.017	12.125
824.91	20.5359
827.802	26.279
830.695	14.1698
833.588	7.26964
836.481	12.6199
839.373	21.9834
842.266	12.8438
845.159	11.0044
848.051	12.7927
850.944	12.0189
853.837	10.7119
856.729	16.2677
859.622	18.8292
862.515	9.64206
865.408	23.3037
868.3	14.7767
871.193	10.2983
874.086	16.0422
876.978	6.0453
879.871	15.7312
882.764	13.8764
885.656	3.43536
888.549	8.07282
891.442	24.371
894.335	0.50325
897.227	3.55926
900.12	0.58165
903.013	16.1011
905.905	17.2762
908.798	12.3638
911.691	10.9003
914.583	12.0886
917.476	6.60899
920.369	5.2245
923.261	3.50001
926.154	15.8372
929.047	4.22002
931.94	7.38158
934.832	7.78645
937.725	16.3388
940.618	25.5431
943.51	4.63519
946.403	25.3955
949.296	17.2041
952.188	9.12444
955.081	13.8361
957.974	9.35197
960.867	19.6776
963.759	13.5491
966.652	24.9049
969.545	16.1615
972.437	9.6449
975.33	10.5773
978.223	14.3338
981.115	15.5954
984.008	19.9757
986.901	2.10431
989.794	19.8268
992.686	4.9946
995.579	19.3686
998.472	11.4039
1001.36	8.26071
1004.26	13.3432
1007.15	24.4956
1010.04	5.60918
1012.93	2.42448
1015.83	11.0757
1018.72	5.37329
1021.61	10.5666
1024.51	5.78857
1027.4	4.21292
1030.29	10.304
1033.18	20.113
1036.08	24.2219
1038.97	7.35506
1041.86	19.9268
1044.76	5.3423
1047.65	5.0291
1050.54	14.6101
1053.43	3.13019
1056.33	7.2645
1059.22	14.4771
1062.11	19.5372
1065	24.2992
1067.9	13.8084
1070.79	11.4251
1073.68	11.1968
1076.58	1.55586
1079.47	26.6272
1082.36	7.71347
1085.25	12.9032
1088.14	20.7274
1091.04	14.248
1093.93	18.6389
1096.82	13.2195
1099.72	13.9608
1102.61	26.2745
1105.5	22.9513
1108.39	10.1308
1111.29	2.27013
1114.18	18.6943
1117.07	9.58504
1119.96	15.7283
1122.86	11.7286
1125.75	8.84741
1128.64	7.09862
1131.54	15.6547
1134.43	12.4509
1137.32	6.38499
1140.21	10.9934
1143.11	7.94159
1146	28.9683
1148.89	10.4198
1151.79	14.9889
1154.68	24.1292
1157.57	17.4122
1160.46	15.5943
1163.36	9.08949
1166.25	0.467194
1169.14	14.8845
1172.03	2.62763
1174.93	19.2185
1177.82	12.2672
1180.71	11.7858
1183.6	17.4141
1186.5	15.0077
1189.39	7.35431
1192.28	1.56108
1195.17	10.9039
1198.07	8.98375
1200.96	22.8486
1203.85	5.51785
1206.75	16.7087
1209.64	24.8483
1212.53	13.1156
1215.42	15.2177
1218.32	31.293
1221.21	12.8126
1224.1	0.432953
1226.99	13.3627
1229.89	16.9327
1232.78	10.9491
1235.67	10.2195
1238.57	6.84229
1241.46	4.17755
