Measurement: Raman, 532 nm, unoriented, Raman Data Processed
Mineral: Calomel
Rruff sample: R070370
Ideal chemistry: HgCl
Locality: Lake County, California, USA
Source: Michael Scott
Description: Colorless rounded or poorly formed crystals
Raman shift (cm-1)	intensity
146.287	0
149.662	1914.35
153.037	4213.59
156.411	7382.65
159.786	15454.3
163.161	29196
166.536	30072.2
169.911	2003.21
173.286	384.583
176.66	67.6261
180.035	23.1176
183.41	95.4393
186.785	75.9688
190.16	85.1792
193.535	36.9474
196.909	25.256
200.284	38.9176
203.659	67.4122
207.034	28.723
210.409	41.8463
213.783	43.7146
217.158	105.159
220.533	165.716
223.908	189.271
227.283	246.279
230.657	274.301
234.032	284.02
237.407	338.053
240.782	356.715
244.157	334.473
247.532	343.872
250.906	485.254
254.281	774.875
257.656	1427.03
261.031	2502.52
264.406	4063.8
267.781	6558.14
271.155	9073.11
274.53	8389.65
277.905	5411.99
281.28	3893.06
284.655	3345.4
288.029	2969.27
291.404	2326.77
294.779	1580.23
298.154	958.703
301.529	642.074
304.904	454.729
308.278	330.412
311.653	277.753
315.028	246.669
318.403	242.333
321.778	214.65
325.152	153.65
328.527	96.7134
331.902	73.7656
335.277	40.6639
338.652	11.6751
342.026	23.8446
345.401	2.39038
348.776	6.30908
352.151	26.9987
355.526	19.7561
358.901	13.3533
362.275	2.27161
365.65	0.585449
369.025	3.78162
372.4	17.5783
375.775	12.9759
379.149	16.0372
382.524	16.0013
385.899	48.404
389.274	6.17444
392.649	25.8695
396.024	13.7443
399.398	29.0074
402.773	28.0525
406.148	32.0278
409.523	53.647
412.898	16.4902
416.272	39.2361
419.647	6.5553
423.022	6.50745
426.397	13.429
429.772	17.0533
433.147	43.7989
436.521	54.0429
439.896	45.6704
443.271	55.8859
446.646	41.6779
450.021	40.2814
453.396	29.2136
456.77	23.6182
460.145	46.7617
463.52	39.4025
466.895	24.4114
470.27	34.4114
473.644	9.86194
477.019	5.81189
480.394	7.09253
483.769	15.1056
487.144	13.8623
490.519	40.1976
493.893	9.98975
497.268	25.145
500.643	26.309
504.018	30.1361
507.393	26.5441
510.767	26.4287
514.142	31.2679
517.517	5.16736
520.892	14.0596
524.267	31.6129
527.641	20.9793
531.016	17.0018
534.391	19.3682
537.766	17.6559
541.141	24.8118
544.516	1.98938
547.89	21.0813
551.265	1.67554
554.64	2.14807
558.015	16.0814
561.39	4.63135
564.764	26.6838
568.139	8.60242
571.514	0.562622
574.889	41.9166
578.264	16.8898
581.639	9.70654
585.013	25.7189
588.388	33.766
591.763	23.266
595.138	47.421
598.513	43.1892
601.888	29.0442
605.262	28.7731
608.637	25.2361
612.012	30.0706
615.387	21.1405
618.762	47.0575
622.136	21.329
625.511	42.7602
628.886	26.9198
632.261	54.5374
635.636	29.3737
639.01	42.7097
642.385	44.798
645.76	38.1708
649.135	29.3524
652.51	19.1798
655.885	26.2455
659.259	67.2881
662.634	30.0561
666.009	17.6744
669.384	22.4485
672.759	20.3367
676.134	4.36719
679.508	26.4672
682.883	47.0145
686.258	32.0885
689.633	22.6119
693.008	35.8384
696.382	35.3657
699.757	15.4828
703.132	22.9078
706.507	23.3053
709.882	41.1481
713.256	18.6836
716.631	5.05139
720.006	11.5302
723.381	16.0101
726.756	28.8142
730.131	67.1697
733.505	36.7417
736.88	5.02197
740.255	21.7911
743.63	4.87964
747.005	30.7331
750.38	1.64465
753.754	13.2162
757.129	24.8408
760.504	2.81702
763.879	36.0803
767.254	43.381
770.628	28.8513
774.003	36.4125
777.378	37.4408
780.753	35.6826
784.128	1.20728
787.503	36.1054
790.877	27.2526
794.252	19.9061
797.627	58.221
801.002	13.2529
804.377	42.5488
807.751	61.5486
811.126	37.8339
814.501	44.9661
817.876	29.3574
821.251	20.897
824.625	15.3378
828	16.999
831.375	40.8224
834.75	31.4271
838.125	36.8964
841.5	6.14856
844.874	18.4364
848.249	15.3925
851.624	31.7148
854.999	30.2346
858.374	35.647
861.749	42.6663
865.123	43.2897
868.498	18.7662
871.873	20.9148
875.248	25.347
878.623	2.92175
881.997	22.9153
885.372	24.9293
888.747	47.0936
892.122	58.7998
895.497	40.8948
898.871	30.4072
902.246	25.6773
905.621	57.5754
908.996	21.5652
912.371	40.4998
915.746	36.3135
919.12	8.60718
922.495	19.352
925.87	40.2537
929.245	26.738
932.62	56.6243
935.995	58.136
939.369	11.3198
942.744	37.6299
946.119	28.084
949.494	45.6018
952.869	47.8491
956.243	16.6157
959.618	60.95
962.993	32.2112
966.368	27.0102
969.743	25.843
973.117	42.6501
976.492	18.6392
979.867	51.7905
983.242	4.94263
986.617	30.0879
989.992	11.5657
993.366	63.7895
996.741	32.2996
1000.12	47.4431
1003.49	19.761
1006.87	44.0752
1010.24	38.6316
1013.62	23.0671
1016.99	29.4597
1020.37	38.2595
1023.74	38.312
1027.12	10.752
1030.49	48.6824
1033.86	42.9605
1037.24	72.8179
1040.61	38.1169
1043.99	42.1785
1047.36	39.6323
1050.74	33.5994
1054.11	13.4038
1057.49	33.4727
1060.86	30.4431
1064.24	39.5977
1067.61	32.2891
1070.99	45.4001
1074.36	5.39209
1077.74	23.0203
1081.11	29.8562
1084.49	3.05664
1087.86	54.7815
1091.24	7.70728
1094.61	27.3301
1097.99	75.5378
1101.36	45.418
1104.73	16.8208
1108.11	22.9609
1111.48	0.908203
1114.86	38.0874
1118.23	30.4666
1121.61	24.239
1124.98	7.58838
1128.36	24.0823
1131.73	59.3623
1135.11	21.8445
1138.48	11.6975
1141.86	59.0337
1145.23	4.07544
1148.61	21.1519
1151.98	22.6977
1155.36	33.5051
1158.73	47.5386
1162.11	52.6728
1165.48	34.7615
1168.86	33.854
1172.23	37.2976
1175.61	24.1863
1178.98	40.5686
1182.36	41.0125
1185.73	33.2849
1189.11	54.46
1192.48	34.634
1195.86	1.07227
1199.23	45.5842
1202.61	13.3984
1205.98	51.4065
1209.36	25.5173
1212.73	40.4924
1216.1	56.8337
1219.48	62.5801
1222.85	5.55151
1226.23	77.8757
1229.6	65.2017
1232.98	28.8047
1236.35	9.80762
1239.73	47.4878
1243.1	10.8831
1246.48	29.7918
1249.85	15.8352
1253.23	50.9336
1256.6	4.11353
1259.98	31.8323
1263.35	64.5815
1266.73	21.7092
1270.1	31.6687
1273.48	79.457
1276.85	49.9587
1280.23	39.2466
1283.6	47.0457
1286.98	14.0886
1290.35	42.8079
1293.72	45.6172
1297.1	21.4917
1300.47	1.34546
1303.85	30.449
1307.22	17.7312
1310.6	43.0422
1313.97	1.49194
