Measurement: Raman, 532 nm, unoriented, Raman Data Processed
Mineral: Calomel
Rruff sample: R070499
Ideal chemistry: HgCl
Locality: Terlingua, Brewster County, Texas, USA
Source: James Shigley
Description: Colorless to ash-gray striated crystals associated with colorless calcite
Raman shift (cm-1)	intensity
103.39	0
106.765	10.3735
110.14	10.1673
113.514	0.989182
116.889	0.545746
120.264	8.89589
123.639	53.2682
127.014	131.129
130.389	266.12
133.763	477.561
137.138	725.85
140.513	872.612
143.888	1103.71
147.263	1836.59
150.637	5824.85
154.012	8680.68
157.387	12895.5
160.762	20875.8
164.137	37340.8
167.512	41417.1
170.886	3366.42
174.261	1025.69
177.636	573.711
181.011	364.389
184.386	239.662
187.761	175.186
191.135	134.458
194.51	126.253
197.885	143.206
201.26	157.176
204.635	141.866
208.009	90.1063
211.384	16.9158
214.759	4.24203
218.134	12.3075
221.509	8.57413
224.883	24.0496
228.258	10.6753
231.633	22.3037
235.008	40.3094
238.383	37.3251
241.758	80.171
245.132	144.501
248.507	228.18
251.882	410.234
255.257	733.415
258.632	1419.68
262.007	2456.15
265.381	4059.26
268.756	6496.21
272.131	9223.85
275.506	8858.95
278.881	5592.81
282.255	3918.47
285.63	3268.79
289.005	2878.43
292.38	2305.38
295.755	1531.66
299.13	933.683
302.504	617.202
305.879	416.312
309.254	309.972
312.629	248.318
316.004	208.274
319.378	218.008
322.753	189.599
326.128	149.735
329.503	95.4309
332.878	49.7095
336.252	23.0471
339.627	3.28303
343.002	12.62
346.377	12.1472
349.752	4.54863
353.127	10.4094
356.501	18.6059
359.876	13.1378
363.251	8.91309
366.626	22.0385
370.001	13.8531
373.375	22.4401
376.75	16.7412
380.125	18.4494
383.5	16.4495
386.875	13.6917
390.25	33.923
393.624	21.7453
396.999	27.9624
400.374	29.7398
403.749	17.4751
407.124	18.3556
410.498	21.5994
413.873	10.469
417.248	5.0369
420.623	14.1447
423.998	5.16
427.373	2.66264
430.747	3.08206
434.122	6.7778
437.497	17.6815
440.872	17.8581
444.247	26.6513
447.622	14.2589
450.996	10.5259
454.371	15.8
457.746	9.48189
461.121	11.7861
464.496	8.37953
467.87	1.62119
471.245	0.574982
474.62	5.78929
477.995	3.91579
481.37	15.5301
484.745	1.77783
488.119	5.5479
491.494	5.10374
494.869	3.1205
498.244	3.07881
501.619	9.77724
504.993	11.4117
508.368	6.40767
511.743	8.35468
515.118	2.09793
518.493	5.18211
521.867	3.81796
525.242	7.29002
528.617	8.86784
531.992	1.73143
535.367	1.69415
538.742	6.13098
542.116	3.82762
545.491	12.2491
548.866	1.85794
552.241	3.3094
555.616	0.484131
558.99	4.62213
562.365	9.55574
565.74	5.53522
569.115	6.32581
572.49	11.6293
575.865	7.42635
579.239	10.2833
582.614	13.0527
585.989	2.10074
589.364	7.6843
592.739	8.59756
596.114	8.20038
599.488	13.1224
602.863	9.41986
606.238	9.02223
609.613	11.1393
612.987	9.64002
616.362	12.0603
619.737	6.13829
623.112	5.61142
626.487	6.59879
629.862	3.93742
633.236	3.15083
636.611	6.13937
639.986	0.177307
643.361	10.1633
646.736	5.12152
650.111	2.2121
653.485	2.86632
656.86	8.2977
660.235	3.23407
663.61	9.7919
666.985	8.62674
670.36	10.5357
673.734	11.4843
677.109	10.5499
680.484	12.1384
683.859	3.35938
687.234	8.6187
690.608	11.5188
693.983	7.433
697.358	10.5578
700.733	1.78256
704.108	5.13821
707.482	0.818024
710.857	3.92184
714.232	9.97595
717.607	3.27818
720.982	7.15396
724.357	5.12857
727.731	5.61624
731.106	0.781296
734.481	6.2104
737.856	4.29994
741.231	14.8907
744.606	5.61855
747.98	13.1451
751.355	4.27867
754.73	7.1613
758.105	8.97984
761.48	5.85786
764.854	1.48134
768.229	5.37694
771.604	4.35617
774.979	0.021606
778.354	8.20049
781.729	7.87852
785.103	10.7725
788.478	6.53809
791.853	8.7538
795.228	9.24721
798.602	7.35686
801.977	6.09375
805.352	0.295868
808.727	12.4523
812.102	11.2502
815.477	6.63284
818.851	8.50912
822.226	13.5437
825.601	6.57283
828.976	9.08286
832.351	1.81015
835.726	10.846
839.1	5.73801
842.475	5.12383
845.85	4.08138
849.225	7.93115
852.6	13.3852
855.975	12.4114
859.349	3.09419
862.724	10.1936
866.099	0.451996
869.474	8.81534
872.849	12.0613
876.223	6.14432
879.598	6.47621
882.973	11.2633
886.348	11.1926
889.723	2.67635
893.097	12.5157
896.472	8.98172
899.847	5.60097
903.222	2.24805
906.597	3.73221
909.972	0.871811
913.346	4.8329
916.721	17.586
920.096	9.55463
923.471	7.94141
926.846	2.13841
930.221	16.488
933.595	13.6457
936.97	13.1256
940.345	3.5296
943.72	8.74263
947.095	10.1196
950.469	3.89056
953.844	3.43892
957.219	6.01909
960.594	7.79864
963.969	12.6289
967.343	9.73314
970.718	4.65454
974.093	6.3532
977.468	10.8545
980.843	11.9138
984.217	5.34111
987.592	10.2501
990.967	13.2436
994.342	4.82976
997.717	4.80052
1001.09	8.46182
1004.47	12.0482
1007.84	7.96916
1011.22	10.4212
1014.59	2.69501
1017.97	7.92337
1021.34	7.77777
1024.71	2.40759
1028.09	2.19667
1031.46	7.42323
1034.84	13.9885
1038.21	7.7615
1041.59	3.72023
1044.96	11.6679
1048.34	8.77403
1051.71	0.060577
1055.09	6.76283
1058.46	9.2599
1061.84	11.6319
1065.21	14.2456
1068.59	1.94482
1071.96	14.2152
1075.34	4.28027
1078.71	11.574
1082.09	15.67
1085.46	8.48726
1088.84	2.07277
1092.21	3.2005
1095.59	9.01866
1098.96	5.30669
1102.34	10.1698
1105.71	0.018387
1109.09	7.51617
1112.46	1.39497
1115.84	14.131
1119.21	1.58884
1122.59	6.69148
1125.96	0.541153
1129.34	12.6496
1132.71	14.5853
1136.08	2.50044
1139.46	12.4401
1142.83	6.64198
1146.21	10.3813
1149.58	3.5208
1152.96	4.57559
1156.33	3.50563
1159.71	6.00619
1163.08	6.21471
1166.46	8.45668
1169.83	2.66039
1173.21	5.13365
1176.58	7.29233
1179.96	2.72081
1183.33	0.793411
1186.71	8.48369
1190.08	14.6005
1193.46	6.95123
1196.83	4.61549
1200.21	1.10359
1203.58	10.4963
1206.96	2.27261
1210.33	3.07095
1213.7	5.65501
1217.08	4.00617
1220.45	10.3172
1223.83	8.4915
1227.2	4.31941
1230.58	6.94843
1233.95	7.84199
1237.33	8.12862
1240.7	7.88702
1244.08	4.31062
1247.45	0.491104
1250.83	6.91634
1254.2	2.35718
1257.58	3.23419
1260.95	1.4054
1264.33	3.26735
1267.7	0.009247
1271.08	7.96692
1274.45	1.29814
1277.83	14.3778
1281.2	6.41403
1284.58	13.7425
1287.95	4.84213
