Measurement: Raman, 785 nm, unoriented, Raman Data Processed
Mineral: Calomel
Rruff sample: R070499
Ideal chemistry: HgCl
Locality: Terlingua, Brewster County, Texas, USA
Source: James Shigley
Description: Colorless to ash-gray striated crystals associated with colorless calcite
Raman shift (cm-1)	intensity
122.846	0
125.738	0.398376
128.631	16.4032
131.524	214.463
134.417	455.226
137.309	562.759
140.202	533.969
143.095	719.002
145.987	1371.82
148.88	4012.12
151.773	8694.3
154.665	10994.8
157.558	13402.3
160.451	17552.3
163.344	24854
166.236	59509.8
169.129	29054.1
172.022	3512.87
174.914	1176.75
177.807	606.432
180.7	357.5
183.592	195.412
186.485	147.411
189.378	94.0358
192.27	48.3567
195.163	31.3513
198.056	45.9544
200.949	53.5942
203.841	38.8385
206.734	38.7721
209.627	4.28058
212.519	7.74735
215.412	29.8497
218.305	31.0618
221.197	17.3354
224.09	9.60956
226.983	0.246826
229.876	13.9668
232.768	34.4302
235.661	59.3847
238.554	55.0199
241.446	117.735
244.339	153.989
247.232	240.948
250.125	373.164
253.017	586.89
255.91	1053.49
258.803	1828.5
261.695	2800.59
264.588	3858.77
267.481	5284.63
270.373	7501.67
273.266	10280.9
276.159	9950.2
279.051	7160.5
281.944	5100.94
284.837	4155.55
287.73	3704.9
290.622	3323.48
293.515	2792.76
296.408	1964.71
299.3	1320.3
302.193	871.687
305.086	642.852
307.978	502.583
310.871	398.009
313.764	287.524
316.657	284.809
319.549	252.394
322.442	236.443
325.335	188.624
328.227	124.779
331.12	100.656
334.013	72.8584
336.906	38.622
339.798	18.2356
342.691	9.64667
345.584	4.52353
348.476	0.930145
351.369	9.27893
354.262	11.7896
357.154	10.935
360.047	3.1644
362.94	0.796204
365.832	8.54794
368.725	8.76251
371.618	6.17899
374.511	3.53303
377.403	16.9132
380.296	16.704
383.189	16.6316
386.081	20.622
388.974	13.628
391.867	23.8747
394.76	7.9257
397.652	12.0421
400.545	31.373
403.438	5.43459
406.33	11.5442
409.223	21.5786
412.116	19.0744
415.008	17.0133
417.901	7.07481
420.794	0.981445
423.687	24.9009
426.579	8.14705
429.472	21.5636
432.365	18.714
435.257	10.1646
438.15	8.35986
441.043	24.5193
443.935	16.2648
446.828	28.1751
449.721	11.1275
452.613	20.1235
455.506	20.4337
458.399	28.3765
461.292	7.25851
464.184	32.6556
467.077	24.502
469.97	0.732468
472.862	12.8612
475.755	12.9467
478.648	26.1928
481.541	5.47788
484.433	14.0279
487.326	12.4009
490.219	5.79372
493.111	0.37558
496.004	4.61172
498.897	1.74583
501.789	4.64375
504.682	28.5457
507.575	14.4217
510.467	17.7212
513.36	14.7452
516.253	11.7468
519.146	24.0523
522.038	9.09584
524.931	16.23
527.824	7.03415
530.716	10.7273
533.609	2.02382
536.502	21.646
539.394	2.7291
542.287	10.3848
545.18	6.95238
548.073	9.06136
550.965	8.14758
553.858	15.2691
556.751	17.926
559.643	21.0889
562.536	13.849
565.429	21.0695
568.322	18.2192
571.214	4.51851
574.107	24.1154
577	0.4711
579.892	13.6361
582.785	6.01892
585.678	2.48943
588.57	13.7569
591.463	20.6538
594.356	21.8489
597.249	18.5825
600.141	15.2193
603.034	7.00421
605.927	2.92396
608.819	17.7867
611.712	8.80722
614.605	19.8005
617.497	17.0683
620.39	8.77072
623.283	22.3831
626.176	25.8258
629.068	23.5806
631.961	21.3115
634.854	19.1669
637.746	12.5857
640.639	16.5152
643.532	7.06026
646.424	10.6668
649.317	28.686
652.21	10.9704
655.102	6.57933
657.995	21.625
660.888	3.12422
663.781	23.353
666.673	18.8489
669.566	24.0851
672.459	0.151428
675.351	21.1518
678.244	7.86285
681.137	15.1517
684.029	19.8911
686.922	18.8404
689.815	10.6079
692.708	12.9212
695.6	10.8959
698.493	10.3738
701.386	9.85899
704.278	14.3914
707.171	4.87032
710.064	13.947
712.957	12.0632
715.849	15.5128
718.742	2.82678
721.635	9.22281
724.527	3.02577
727.42	21.9337
730.313	13.2172
733.205	12.2195
736.098	22.4107
738.991	10.003
741.884	5.54697
744.776	24.9313
747.669	6.11426
750.562	1.59967
753.454	20.5603
756.347	19.4405
759.24	0.147812
762.132	10.6037
765.025	7.93806
767.918	10.6999
770.811	1.09886
773.703	15.7993
776.596	9.12697
779.489	14.3523
782.381	19.2946
785.274	14.471
788.167	1.89499
791.059	11.389
793.952	20.4211
796.845	21.137
799.737	12.6999
802.63	0.819839
805.523	12.796
808.416	8.45358
811.308	4.42574
814.201	2.63103
817.094	0.308823
819.986	11.719
822.879	3.85841
825.772	10.9934
828.664	7.80498
831.557	23.5875
834.45	13.1098
837.343	26.8772
840.235	13.0998
843.128	7.06837
846.021	12.7324
848.913	21.7032
851.806	5.51401
854.699	24.7201
857.591	27.7606
860.484	9.72922
863.377	21.3567
866.27	5.35217
869.162	2.52013
872.055	5.18422
874.948	16.0962
877.84	2.19299
880.733	3.92265
883.626	7.13798
886.519	13.948
889.411	13.897
892.304	6.87741
895.197	22.3371
898.089	9.43605
900.982	7.95418
903.875	7.42162
906.767	12.9028
909.66	18.037
912.553	4.54894
915.446	8.99561
918.338	18.9393
921.231	1.41768
924.124	5.47165
927.016	15.8387
929.909	19.8744
932.802	6.67334
935.694	3.06653
938.587	14.8489
941.48	16.772
944.372	26.9581
947.265	22.5466
950.158	24.4011
953.051	9.91079
955.943	24.6925
958.836	12.7451
961.729	6.77732
964.621	10.2708
967.514	0.56147
970.407	11.9326
973.299	6.94122
976.192	2.92913
979.085	9.77023
981.978	20.8098
984.87	2.40426
987.763	8.24127
990.656	9.97044
993.548	3.20063
996.441	13.5902
999.334	7.12625
1002.23	22.7919
1005.12	10.4049
1008.01	19.1121
1010.9	12.2042
1013.8	5.73773
1016.69	19.0612
1019.58	14.9565
1022.48	2.46712
1025.37	9.68344
1028.26	2.36906
1031.15	9.93716
1034.05	11.9103
1036.94	13.035
1039.83	2.94395
1042.72	11.1558
1045.62	23.3229
1048.51	20.541
1051.4	20.9897
1054.3	8.48675
1057.19	12.2359
1060.08	7.30522
1062.97	12.9891
1065.87	8.41533
1068.76	19.4494
1071.65	3.98347
1074.54	15.5399
1077.44	0.026566
1080.33	20.6257
1083.22	6.6464
1086.12	9.66238
1089.01	5.71832
1091.9	18.1064
1094.79	23.7067
1097.69	12.812
1100.58	7.39388
1103.47	9.88893
1106.36	20.2438
1109.26	24.9575
1112.15	19.1473
1115.04	12.5655
1117.93	8.77257
1120.83	10.7918
1123.72	9.43279
1126.61	9.13253
1129.51	9.49121
1132.4	0.234375
1135.29	15.0367
1138.18	5.51715
1141.08	18.8628
1143.97	19.4792
1146.86	1.9081
1149.75	11.2721
1152.65	22.2573
1155.54	8.91216
1158.43	5.42255
1161.33	12.3069
1164.22	15.6369
1167.11	17.6249
1170	14.2127
1172.9	8.97908
1175.79	17.0868
1178.68	26.2406
1181.57	17.4059
1184.47	8.35059
1187.36	13.8819
1190.25	10.431
1193.14	9.37846
1196.04	18.5343
1198.93	13.4966
1201.82	20.9875
1204.71	25.9059
1207.61	20.9881
1210.5	22.1269
1213.39	6.1905
1216.29	14.3014
1219.18	19.3259
1222.07	26.3668
1224.96	12.6176
1227.86	34.931
1230.75	19.6747
1233.64	8.99807
1236.54	18.5763
1239.43	15.317
1242.32	19.5903
1245.21	20.199
1248.11	26.4828
1251	21.4662
1253.89	17.2025
1256.78	14.6705
1259.68	21.8851
1262.57	1.03834
