Measurement: Raman, 532 nm, unoriented, Raman Data Processed
Mineral: Calzirtite
Rruff sample: R080084
Ideal chemistry: Ca_2_Zr_5_Ti_2_O_16_
Locality: Jacupiranga mine, Cajati, SÃ£o Paulo, Brazil
Source: Luiz Menezes
Description: Black rounded crystals associated with dark brown phlogopite, green granular diopside and black magnetite octahedra
Raman shift (cm-1)	intensity
145.869	0
148.761	3.39062
151.654	19.2305
154.547	81.8256
157.439	158.888
160.332	199.405
163.225	196.02
166.117	140.56
169.01	101.994
171.903	111.634
174.796	155.55
177.688	228.575
180.581	318.921
183.474	389.996
186.366	422.108
189.259	365.986
192.152	273.814
195.044	180.761
197.937	104.45
200.83	66.6556
203.722	36.0772
206.615	10.3314
209.508	8.26831
212.401	6.26672
215.293	0.545776
218.186	8.78577
221.079	4.86035
223.971	2.12122
226.864	12.0623
229.757	21.3671
232.649	26.8862
235.542	38.7492
238.435	39.15
241.328	52.5908
244.22	68.9537
247.113	67.8988
250.006	65.4457
252.898	77.7909
255.791	97.3129
258.684	135.477
261.577	172.804
264.469	233.064
267.362	303.926
270.255	379.366
273.147	435.878
276.04	486.159
278.933	498.497
281.825	501.499
284.718	485.312
287.611	449.915
290.503	403.964
293.396	346.652
296.289	290.974
299.182	233.808
302.074	189.228
304.967	148.655
307.86	111.919
310.752	72.267
313.645	54.948
316.538	36.773
319.43	26.3456
322.323	9.76758
325.216	2.06812
328.109	12.395
331.001	8.88733
333.894	6.20422
336.787	2.02271
339.679	2.81738
342.572	9.32922
345.465	11.8169
348.358	23.7909
351.25	27.8784
354.143	33.8202
357.036	47.6863
359.928	64.0378
362.821	85.4298
365.714	104.297
368.606	128.97
371.499	149.726
374.392	165.858
377.284	182.662
380.177	198.892
383.07	210.133
385.963	201.073
388.855	179.039
391.748	152.617
394.641	134.608
397.533	115.218
400.426	100.216
403.319	93.722
406.212	84.359
409.104	90.944
411.997	106.983
414.89	129.231
417.782	154.174
420.675	196.805
423.568	230.951
426.46	268.784
429.353	311.923
432.246	351.352
435.139	375.369
438.031	392.716
440.924	389.123
443.817	366.238
446.709	316.721
449.602	254.683
452.495	192.182
455.387	116.683
458.28	72.1146
461.173	32.6528
464.065	0.131592
466.958	10.4429
469.851	17.6561
472.744	20.0976
475.636	12.4375
478.529	2.4566
481.422	8.22815
484.314	17.7065
487.207	29.4634
490.1	33.2732
492.993	39.9946
495.885	42.1471
498.778	44.7927
501.671	40.3093
504.563	35.8156
507.456	43.7964
510.349	53.9113
513.241	82.7165
516.134	121.399
519.027	148.974
521.919	183.174
524.812	213.456
527.705	243.177
530.598	273.365
533.49	284.518
536.383	284.382
539.276	278.498
542.168	279.035
545.061	282.207
547.954	287.211
550.846	299.456
553.739	313.99
556.632	335.229
559.525	348.436
562.417	354.996
565.31	357.094
568.203	335.991
571.095	299.965
573.988	248.673
576.881	200.262
579.774	165.951
582.666	143.918
585.559	129.394
588.452	127.04
591.344	131.801
594.237	148.374
597.13	168.363
600.022	188.958
602.915	213.095
605.808	226.342
608.701	233.094
611.593	219.967
614.486	203.273
617.379	174.528
620.271	151.922
623.164	123.713
626.057	107.489
628.949	82.3064
631.842	62.5759
634.735	42.8673
637.628	28.792
640.52	15.16
643.413	10.5413
646.306	2.30768
649.198	7.32526
652.091	12.3039
654.984	8.46094
657.876	10.696
660.769	5.56635
663.662	6.26001
666.554	2.5636
669.447	4.82239
672.34	3.70648
675.233	1.61151
678.125	5.31067
681.018	6.25775
683.911	11.3306
686.803	11.7177
689.696	12.3669
692.589	18.0395
695.481	22.8104
698.374	26.7507
701.267	30.3057
704.16	28.6567
707.052	31.3306
709.945	33.1318
712.838	25.6974
715.73	29.9875
718.623	25.9409
721.516	34.5019
724.409	38.197
727.301	47.246
730.194	54.4192
733.087	57.1294
735.979	73.7638
738.872	87.9271
741.765	103.527
744.657	120.938
747.55	136.877
750.443	150.79
753.336	169.954
756.228	182.145
759.121	188.127
762.014	194.789
764.906	185.753
767.799	172.607
770.692	161.164
773.584	143.132
776.477	124.271
779.37	109.447
782.263	95.2775
785.155	87.0705
788.048	77.2532
790.941	68.7344
793.833	57.3828
796.726	52.2419
799.619	41.3353
802.511	39.5721
805.404	34.6172
808.297	28.5953
811.189	24.4489
814.082	23.4404
816.975	22.2321
819.868	23.2773
822.76	18.066
825.653	21.0172
828.546	16.2974
831.438	16.4305
834.331	19.2237
837.224	16.9735
840.116	19.697
843.009	14.285
845.902	14.9315
848.795	12.5652
851.687	10.3996
854.58	9.06982
857.473	7.57416
860.365	3.52624
863.258	0.374512
866.151	2.58728
869.043	2.22247
871.936	0.58606
874.829	3.93811
877.722	3.95416
880.614	4.59509
883.507	4.62482
886.4	0.446045
889.292	1.85034
892.185	0.799133
895.078	5.64514
897.971	4.85931
900.863	7.54059
903.756	12.0071
906.649	12.8062
909.541	10.8455
912.434	14.2405
915.327	14.633
918.219	15.677
921.112	16.9529
924.005	18.7873
926.898	22.6939
929.79	15.9268
932.683	12.2098
935.576	13.1021
938.468	12.7897
941.361	6.37842
944.254	5.82684
947.146	4.078
950.039	1.3103
952.932	1.28577
955.824	2.73889
958.717	1.78473
961.61	3.35474
964.503	2.79425
967.395	5.48731
970.288	7.80145
973.181	7.98792
976.073	7.24127
978.966	9.60443
981.859	8.60773
984.751	11.8578
987.644	9.75159
990.537	11.1793
993.43	17.7638
996.322	11.3724
999.215	13.3001
1002.11	11.9362
1005	14.4261
1007.89	17.997
1010.79	15.9785
1013.68	18.6261
1016.57	19.325
1019.46	20.3771
1022.36	19.835
1025.25	20.4598
1028.14	18.237
1031.04	17.8945
1033.93	14.1487
1036.82	17.5918
1039.71	13.2002
1042.61	5.58856
1045.5	4.35986
1048.39	3.56738
1051.28	2.95361
1054.18	4.3595
1057.07	2.72553
1059.96	8.33856
1062.85	5.55823
1065.75	8.3288
1068.64	12.0325
1071.53	12.6027
1074.42	10.3796
1077.32	16.7132
1080.21	17.7866
1083.1	13.1444
1086	19.2669
1088.89	16.0756
1091.78	12.6807
1094.67	11.4645
1097.57	11.4401
1100.46	6.92248
1103.35	4.52344
1106.24	3.7417
1109.14	3.65979
1112.03	1.02985
1114.92	0.365399
1117.82	1.06984
1120.71	1.91619
1123.6	1.04045
1126.49	0.454346
1129.39	0.35614
1132.28	3.62744
1135.17	0.740112
1138.07	1.10089
1140.96	1.59485
1143.85	3.01794
1146.74	0.737244
1149.63	3.41333
1152.53	0.583496
1155.42	1.62158
1158.31	0.56012
1161.21	3.51385
1164.1	0.691406
1166.99	4.32581
1169.88	4.19568
1172.78	5.95929
1175.67	3.56696
1178.56	5.0108
1181.45	4.26984
1184.35	4.55695
1187.24	4.23047
1190.13	3.26263
1193.03	5.67065
1195.92	1.95373
1198.81	1.98309
1201.7	6.34601
1204.6	7.8277
1207.49	5.03766
1210.38	4.98169
1213.28	3.47241
1216.17	4.71606
1219.06	5.34332
1221.95	6.18372
1224.85	5.59875
1227.74	11.0921
1230.63	4.9043
1233.52	6.8905
1236.42	6.92627
1239.31	6.22418
1242.2	5.08374
1245.09	4.11615
1247.99	6.763
1250.88	7.06989
1253.77	3.32611
1256.66	2.31195
1259.56	3.49866
1262.45	3.02264
1265.34	2.74506
