Measurement: Raman, 780 nm, unoriented, Raman Data Processed
Mineral: Calzirtite
Rruff sample: R080084
Ideal chemistry: Ca_2_Zr_5_Ti_2_O_16_
Locality: Jacupiranga mine, Cajati, SÃ£o Paulo, Brazil
Source: Luiz Menezes
Description: Black rounded crystals associated with dark brown phlogopite, green granular diopside and black magnetite octahedra
Raman shift (cm-1)	intensity
97.3446	0
100.719	8.7627
104.094	5.33289
107.469	16.8024
110.844	34.9974
114.219	31.4895
117.594	6.12915
120.968	8.27393
124.343	2.24963
127.718	21.2516
131.093	41.5551
134.468	67.0183
137.842	94.4989
141.217	132.154
144.592	150.716
147.967	171.228
151.342	186.511
154.716	217.831
158.091	214.773
161.466	179.007
164.841	128.227
168.216	89.6202
171.591	93.0338
174.965	108.694
178.34	131.927
181.715	165.565
185.09	193.716
188.465	194.615
191.839	155.527
195.214	90.7692
198.589	27.0062
201.964	0.524414
205.339	6.88806
208.714	1.36951
212.088	7.04736
215.463	29.6116
218.838	33.0633
222.213	45.7538
225.588	65.947
228.962	90.109
232.337	116.017
235.712	135.654
239.087	150.931
242.462	150.642
245.837	139.951
249.211	119.789
252.586	107.487
255.961	116.595
259.336	148.907
262.711	208.126
266.085	288.749
269.46	350.904
272.835	416.406
276.21	460.962
279.585	480.259
282.959	470.091
286.334	409.229
289.709	331.287
293.084	255.315
296.459	191.722
299.834	143.424
303.208	101.602
306.583	72.3909
309.958	53.573
313.333	34.9944
316.708	30.4686
320.082	23.6449
323.457	10.4477
326.832	2.1416
330.207	3.21167
333.582	5.74451
336.957	6.46851
340.331	3.92078
343.706	3.26184
347.081	3.10034
350.456	10.7188
353.831	8.44495
357.205	13.8807
360.58	22.433
363.955	31.9465
367.33	41.0737
370.705	50.4949
374.079	55.9335
377.454	64.9757
380.829	74.2368
384.204	78.5576
387.579	86.1783
390.954	85.9746
394.328	87.9344
397.703	95.9761
401.078	107.657
404.453	110.944
407.828	124.79
411.202	132.379
414.577	150.866
417.952	172.382
421.327	205.584
424.702	239.449
428.077	266.985
431.451	300.604
434.826	316.363
438.201	324.053
441.576	305.933
444.951	277.014
448.325	226.877
451.7	172.836
455.075	122.256
458.45	77.0726
461.825	48.7416
465.2	18.4174
468.574	4.73883
471.949	7.81689
475.324	11.5435
478.699	11.3994
482.074	5.79565
485.449	3.35522
488.823	17.0784
492.198	28.1588
495.573	45.7114
498.948	70.3235
502.323	77.095
505.697	89.4437
509.072	99.1852
512.447	116.94
515.822	136.935
519.197	155.047
522.572	177.11
525.946	199.788
529.321	209.587
532.696	219.263
536.071	217.204
539.446	206.809
542.82	195.103
546.195	180.593
549.57	170.673
552.945	163.073
556.32	152.125
559.694	140.265
563.069	126.038
566.444	111.228
569.819	94.3414
573.194	78.1644
576.568	57.2826
579.943	40.6681
583.318	34.53
586.693	34.7896
590.068	34.5007
593.443	36.687
596.817	39.9873
600.192	48.114
603.567	55.699
606.942	60.1484
610.317	62.6615
613.692	62.6465
617.066	62.1909
620.441	63.789
623.816	54.805
627.191	47.9549
630.566	37.3931
633.94	27.5569
637.315	13.852
640.69	11.4604
644.065	5.83356
647.44	0.386414
650.814	2.43323
654.189	3.34625
657.564	0.640076
660.939	2.39551
664.314	1.0871
667.688	2.66913
671.063	6.52307
674.438	2.19733
677.813	6.14575
681.188	0.129456
684.563	2.52844
687.937	4.31854
691.312	6.00263
694.687	15.1596
698.062	15.8026
701.437	19.355
704.812	17.8641
708.186	21.9432
711.561	24.2192
714.936	27.8591
718.311	27.8939
721.686	33.1183
725.06	37.061
728.435	43.3496
731.81	51.0991
735.185	57.1245
738.56	70.4286
741.934	82.7203
745.309	101.008
748.684	114.586
752.059	125.679
755.434	136.586
758.809	141.742
762.183	139.918
765.558	130.098
768.933	120.952
772.308	110.507
775.683	96.8478
779.058	84.1632
782.432	69.0324
785.807	63.9976
789.182	46.5951
792.557	38.8953
795.932	31.6623
799.306	24.2101
802.681	19.2093
806.056	15.9492
809.431	11.8012
812.806	9.91644
816.181	5.92892
819.555	4.32373
822.93	4.92624
826.305	4.03275
829.68	5.30807
833.055	11.2198
836.429	6.61038
839.804	7.79108
843.179	7.02234
846.554	5.28323
849.929	7.99216
853.303	5.76126
856.678	2.8634
860.053	1.51941
863.428	1.48715
866.803	1.59286
870.178	0.400146
873.552	3.4443
876.927	3.30109
880.302	1.06503
883.677	1.24676
887.052	0.069824
890.427	0.138428
893.801	2.04965
897.176	1.02072
900.551	3.00955
903.926	3.50552
907.301	4.05392
910.675	5.6532
914.05	6.06711
917.425	7.53238
920.8	7.79605
924.175	8.44202
927.549	9.88333
930.924	10.9714
934.299	8.34036
937.674	9.28799
941.049	10.3706
944.423	7.0701
947.798	10.1882
951.173	8.42435
954.548	7.71893
957.923	9.40787
961.298	8.01523
964.672	7.11233
968.047	8.05514
971.422	6.88104
974.797	5.97525
978.172	3.2012
981.546	3.76819
984.921	2.8168
988.296	2.55753
991.671	4.91599
995.046	2.05707
998.42	1.62775
1001.79	1.77917
1005.17	0.573212
1008.54	0.937347
1011.92	0.148407
1015.29	1.20914
1018.67	1.0965
1022.04	2.15506
1025.42	3.01486
1028.79	3.17337
1032.17	4.57581
1035.54	2.0683
1038.92	5.63388
1042.29	7.63071
1045.67	6.45081
1049.04	8.9563
1052.42	5.13309
1055.79	9.16943
1059.17	7.1351
1062.54	6.77036
1065.92	4.19049
1069.29	2.90582
1072.67	2.13843
1076.04	1.97302
1079.42	0.002838
1082.79	0.145081
1086.17	7.38397
1089.54	0.131622
1092.91	2.93002
1096.29	0.663892
1099.66	7.24945
1103.04	7.79498
1106.41	10.4444
1109.79	8.70902
1113.16	10.7287
1116.54	7.51502
1119.91	10.5936
1123.29	8.17963
1126.66	6.55005
1130.04	4.86847
1133.41	5.51187
1136.79	5.19391
1140.16	3.845
1143.54	0.225861
1146.91	1.62836
1150.29	0.602905
1153.66	0.060577
1157.04	1.2222
1160.41	0.385132
1163.79	0.520477
1167.16	0.720795
1170.54	3.90717
1173.91	3.27786
1177.29	2.41547
1180.66	4.05704
1184.04	3.14621
1187.41	7.27527
1190.79	7.48419
1194.16	9.6654
1197.54	10.2111
1200.91	12.9751
1204.28	17.3577
1207.66	18.8724
1211.03	18.9693
1214.41	20.6665
1217.78	14.2593
1221.16	12.0091
1224.53	9.5589
1227.91	7.07837
1231.28	8.32889
1234.66	2.54697
1238.03	4.79306
1241.41	2.80222
1244.78	0.311523
1248.16	2.03455
1251.53	3.09686
1254.91	2.9801
1258.28	2.14358
1261.66	0.931244
