Measurement: Raman, 532 nm, unoriented, Raman Data Processed
Mineral: Cameronite
Rruff sample: R080074
Ideal chemistry: AgCu_7_Te_10_
Locality: Good Hope mine, Vulcan District, Gunnison County, Colorado, USA
Source: Michael Scott
Description: Grey metallic massive with subconchoidal fracture associated with purple rickardite and bronzy plates of vulcanite in a mass of tellurium, co-type specimen
Raman shift (cm-1)	intensity
145.386	0
148.279	7.74744
151.172	0.304871
154.065	4.93176
156.957	3.59369
159.85	4.18457
162.743	13.5637
165.635	16.8558
168.528	27.465
171.421	33.4896
174.313	46.1356
177.206	40.6134
180.099	38.3858
182.992	28.7335
185.884	19.9883
188.777	13.2223
191.67	9.0343
194.562	1.38568
197.455	0.277161
200.348	2.84827
203.24	1.29254
206.133	9.80859
209.026	17.1984
211.918	23.6034
214.811	29.2542
217.704	35.6156
220.596	38.7377
223.489	39.6433
226.382	35.0698
229.275	33.2367
232.167	31.2352
235.06	29.9402
237.953	32.6606
240.845	35.9222
243.738	40.9186
246.631	46.1797
249.524	56.4915
252.416	70.5162
255.309	86.4378
258.202	98.4692
261.094	110.356
263.987	114.541
266.88	111.268
269.772	99.2626
272.665	90.8876
275.558	78.2013
278.451	70.5653
281.343	63.4673
284.236	44.6729
287.129	35.8701
290.021	30.5914
292.914	24.4799
295.807	22.4135
298.7	17.9497
301.592	18.7402
304.485	14.7523
307.378	16.0114
310.27	11.2035
313.163	8.16577
316.056	6.78857
318.948	8.60474
321.841	6.10132
324.734	1.83307
327.627	3.85004
330.519	0.922119
333.412	1.13708
336.305	0.177002
339.197	1.13885
342.09	0.024414
344.983	2.20142
347.875	0.287231
350.768	1.15881
353.661	0.443237
356.553	0.879761
359.446	0.000671
362.339	3.56928
365.231	2.24481
368.124	6.33246
371.017	4.92773
373.91	2.89313
376.802	6.39386
379.695	8.75635
382.588	12.4155
385.48	10.5233
388.373	12.8267
391.266	15.4724
394.159	15.5042
397.051	15.199
399.944	13.2179
402.837	10.9827
405.729	9.14575
408.622	8.45447
411.515	8.44135
414.407	7.81537
417.3	5.87195
420.193	6.04315
423.086	3.19403
425.978	6.46332
428.871	2.66345
431.764	3.15863
434.656	1.76263
437.549	1.64307
440.442	0.219971
443.334	0.125549
446.227	1.31451
449.12	1.94836
452.012	0.929504
454.905	3.11011
457.798	4.89691
460.691	4.25146
463.583	1.72156
466.476	2.52905
469.369	0.954102
472.261	2.15045
475.154	3.56305
478.047	0.891052
480.94	2.0896
483.832	1.58032
486.725	3.9469
489.618	1.03589
492.51	0.640869
495.403	0.461731
498.296	2.76752
501.188	4.70215
504.081	1.38483
506.974	2.98724
509.866	1.5257
512.759	1.39948
515.652	3.95038
518.545	5.54291
521.437	6.33124
524.33	4.35877
527.223	4.45929
530.115	9.54565
533.008	8.698
535.901	10.7837
538.794	11.1501
541.686	9.12445
544.579	8.79712
547.472	7.74341
550.364	6.24634
553.257	6.49115
556.15	6.15771
559.043	6.72992
561.935	5.07965
564.828	0.664734
567.721	0.529541
570.613	1.85315
573.506	0.139526
576.399	1.8645
579.291	3.48932
582.184	2.38507
585.077	4.19684
587.969	0.860229
590.862	2.49188
593.755	5.13501
596.648	5.29962
599.54	3.04492
602.433	2.43372
605.326	3.98846
608.218	4.34137
611.111	5.22815
614.004	5.24353
616.896	7.42096
619.789	3.9657
622.682	4.45294
625.574	0.984192
628.467	3.47553
631.36	4.44409
634.253	5.48273
637.145	3.92975
640.038	6.10419
642.931	2.51532
645.823	1.36755
648.716	3.71832
651.609	0.423523
654.501	0.85614
657.394	2.58704
660.287	8.27759
663.18	9.46075
666.072	10.0178
668.965	2.80542
671.858	4.03796
674.75	4.76056
677.643	7.6488
680.536	2.4361
683.428	6.46985
686.321	3.09442
689.214	3.44031
692.107	1.2807
694.999	0.937927
697.892	1.67163
700.785	4.68689
703.677	3.65045
706.57	1.60901
709.463	2.52832
712.356	0.898926
715.248	0.815063
718.141	0.08551
721.034	2.5885
723.926	0.205688
726.819	2.79462
729.712	3.58221
732.604	1.89545
735.497	4.45911
738.39	2.42029
741.283	5.07343
744.175	3.60059
747.068	2.02063
749.961	4.82654
752.853	2.23175
755.746	2.36542
758.639	2.32996
761.531	4.80225
764.424	5.43072
767.317	2.47809
770.21	4.2074
773.102	1.85998
775.995	3.28296
778.888	1.21405
781.78	1.96863
784.673	0.863464
787.566	3.91821
790.458	5.21118
793.351	2.23737
796.244	0.999817
799.136	0.796021
802.029	1.79321
804.922	1.98285
807.815	2.18512
810.707	2.75256
813.6	0.821838
816.493	1.2262
819.385	0.657959
822.278	2.39386
825.171	3.5058
828.063	0.160095
830.956	0.050537
833.849	1.78662
836.742	4.86438
839.634	2.54413
842.527	4.393
845.42	6.78375
848.312	7.94446
851.205	7.4632
854.098	8.60986
856.99	7.45996
859.883	2.62286
862.776	2.03986
865.669	3.81091
868.561	3.50696
871.454	2.83874
874.347	2.69043
877.239	3.19135
880.132	2.47906
883.025	0.118835
885.918	1.80512
888.81	8.36981
891.703	6.81555
894.596	3.36182
897.488	0.145447
900.381	0.300964
903.274	2.6654
906.166	2.94586
909.059	0.585144
911.952	0.912231
914.845	2.2851
917.737	2.56934
920.63	6.25653
923.523	6.20252
926.415	6.96521
929.308	3.1203
932.201	4.46686
935.093	6.3476
937.986	2.61285
940.879	2.06433
943.771	0.715637
946.664	0.435303
949.557	2.76611
952.45	3.26892
955.342	7.05939
958.235	5.19061
961.128	2.68256
964.02	1.42419
966.913	0.509033
969.806	1.10516
972.698	4.2085
975.591	3.44995
978.484	0.719299
981.377	5.77124
984.269	2.42902
987.162	5.57202
990.055	5.07989
992.947	5.00848
995.84	5.19311
998.733	4.06976
1001.63	4.70245
1004.52	2.71265
1007.41	3.8158
1010.3	0.505981
1013.2	7.26782
1016.09	5.97699
1018.98	5.56909
1021.87	3.20685
1024.77	4.16687
1027.66	3.27301
1030.55	5.09619
1033.44	5.16913
1036.34	8.97516
1039.23	4.2027
1042.12	3.60162
1045.02	1.09558
1047.91	2.96899
1050.8	0.836182
1053.69	0.648132
1056.59	1.24133
1059.48	5.25537
1062.37	2.69397
1065.27	7.2052
1068.16	1.61359
1071.05	1.2594
1073.94	3.01147
1076.84	5.09082
1079.73	3.54053
1082.62	3.79852
1085.51	5.90668
1088.41	4.06891
1091.3	1.7016
1094.19	2.79755
1097.09	0.406921
1099.98	2.22272
1102.87	2.96002
1105.76	1.37091
1108.65	0.274902
1111.55	2.84619
1114.44	2.5495
1117.33	3.12292
1120.23	4.00067
1123.12	1.08417
1126.01	0.14917
1128.9	0.358276
1131.8	5.47717
1134.69	4.05725
1137.58	6.97711
1140.47	4.58014
1143.37	4.46612
1146.26	4.39813
1149.15	2.21204
1152.05	0.554016
1154.94	1.54688
1157.83	0.482361
1160.72	1.99847
1163.62	6.36371
1166.51	5.01489
1169.4	0.864075
1172.3	3.43079
1175.19	5.95392
1178.08	2.93573
1180.97	1.68201
1183.87	1.60089
1186.76	0.14502
1189.65	5.70715
1192.54	2.01459
1195.44	2.1958
1198.33	4.69531
1201.22	2.94409
1204.12	5.19208
1207.01	5.505
1209.9	4.29724
1212.79	2.90552
1215.68	5.2771
1218.58	5.09796
1221.47	0.360535
1224.36	4.10144
1227.26	6.32526
1230.15	5.85998
1233.04	5.94196
1235.93	3.78992
1238.83	1.36145
1241.72	0.724792
1244.61	1.38092
1247.51	4.52655
1250.4	3.36255
1253.29	4.55377
1256.18	1.46631
1259.08	5.28058
1261.97	4.54535
1264.86	3.53473
1267.75	1.39337
1270.65	2.01959
1273.54	6.46326
1276.43	2.1803
