Measurement: Raman, 780 nm, unoriented, Raman Data Processed
Mineral: Cancrinite
Rruff sample: R050352
Ideal chemistry: (Na,Ca,[box])_8_(Al_6_Si_6_)O_24_(CO_3_,SO_4_)_2_2H_2_O
Locality: York River, quarry #2, Dungannon Township, Ontario, Canada
Source: California Institute of Technology
Description: Pink fragment
Measured chemistry: (Na_6.07_Ca_1.62_[box]_0.31_)_Σ=8_(Al_0.99_Si_1.01_O_4_)_6_((CO_3_)_0.84_[box]_0.16_)_Σ=2_·2H_2_O
Raman shift (cm-1)	intensity
106.023	0
109.397	22.2389
112.772	82.7408
116.147	115.058
119.522	137.408
122.897	141.667
126.272	126.866
129.646	155.194
133.021	149.285
136.396	106.537
139.771	59.1243
143.146	30.6721
146.52	7.7829
149.895	5.67752
153.27	9.90317
156.645	11.1606
160.02	6.17813
163.395	10.6515
166.769	40.5637
170.144	26.877
173.519	27.9513
176.894	37.8566
180.269	53.8301
183.643	65.1105
187.018	74.5549
190.393	84.7828
193.768	91.6471
197.143	92.8085
200.518	82.8515
203.892	71.5355
207.267	68.0092
210.642	67.445
214.017	73.7971
217.392	74.7197
220.766	79.3811
224.141	80.5994
227.516	73.0747
230.891	59.8779
234.266	48.2094
237.641	37.7858
241.015	38.7085
244.39	50.6113
247.765	73.7012
251.14	116.04
254.515	175.174
257.889	246.507
261.264	330.1
264.639	411.495
268.014	482.638
271.389	545.137
274.764	544.291
278.138	448.138
281.513	304.256
284.888	200.344
288.263	173.576
291.638	179.065
295.012	204.148
298.387	186.737
301.762	140.512
305.137	89.4161
308.512	44.4524
311.887	13.7712
315.261	1.08615
318.636	7.04205
322.011	1.41458
325.386	9.08942
328.761	28.739
332.135	54.7918
335.51	69.7013
338.885	68.9015
342.26	72.3585
345.635	81.265
349.01	77.7974
352.384	56.7658
355.759	30.9955
359.134	7.43802
362.509	4.48377
365.884	10.7659
369.258	10.207
372.633	6.34567
376.008	5.41843
379.383	0.030121
382.758	8.96335
386.132	17.743
389.507	29.0873
392.882	44.0735
396.257	65.9486
399.632	96.096
403.007	124.727
406.381	155.543
409.756	198.568
413.131	249.31
416.506	301.124
419.881	310.63
423.255	259.938
426.63	179.263
430.005	120.856
433.38	85.734
436.755	64.3034
440.13	48.7759
443.504	49.3443
446.879	62.5366
450.254	85.809
453.629	125.251
457.004	199.731
460.378	325.359
463.753	429.211
467.128	344.969
470.503	199.925
473.878	144.547
477.252	133.665
480.627	148.911
484.002	183.621
487.377	231.815
490.752	281.762
494.127	320.203
497.501	323.045
500.876	282.486
504.251	228.096
507.626	172.746
511.001	126.262
514.375	90.4513
517.75	60.3433
521.125	42.2721
524.5	25.2976
527.875	12.2126
531.25	6.88806
534.624	2.13751
537.999	1.61023
541.374	2.4274
544.749	3.75601
548.124	3.93521
551.498	2.84598
554.873	0.061432
558.248	1.97247
561.623	2.27624
564.998	0.010406
568.372	2.48956
571.747	8.16089
575.122	4.65768
578.497	4.33847
581.872	8.39249
585.247	9.36966
588.621	8.29977
591.996	10.1112
595.371	11.0519
598.746	13.1353
602.121	12.3347
605.495	11.2129
608.87	9.18088
612.245	8.78955
615.62	7.15308
618.995	6.59314
622.37	6.37
625.744	4.24295
629.119	3.70248
632.494	3.8103
635.869	5.00891
639.244	2.64578
642.619	3.70373
645.993	3.27487
649.368	1.42484
652.743	2.04398
656.118	0.479553
659.493	0.124878
662.867	2.05664
666.242	7.51544
669.617	8.58295
672.992	13.6799
676.367	18.6869
679.741	23.6334
683.116	30.5152
686.491	28.0399
689.866	19.1047
693.241	20.6838
696.615	20.6907
699.99	17.5138
703.365	15.667
706.74	16.9041
710.115	16.4846
713.49	28.3533
716.864	22.8784
720.239	16.4223
723.614	4.53705
726.989	1.41718
730.364	1.81903
733.739	1.50977
737.113	4.26453
740.488	2.53265
743.863	1.25494
747.238	0.12677
750.612	3.98419
753.987	4.13812
757.362	7.19916
760.737	17.1386
764.112	16.988
767.487	28.34
770.861	38.9972
774.236	40.7626
777.611	27.9388
780.986	17.4819
784.361	7.75952
787.736	4.50263
791.11	3.34949
794.485	4.4306
797.86	4.54364
801.235	2.42548
804.61	3.53406
807.984	0.247375
811.359	0.371826
814.734	2.79633
818.109	3.51562
821.484	4.06323
824.859	5.5473
828.233	6.617
831.608	5.44885
834.983	7.52045
838.358	6.03296
841.733	7.43829
845.107	10.0289
848.482	9.81207
851.857	11.1087
855.232	13.8818
858.607	9.63483
861.981	10.7607
865.356	9.70129
868.731	11.695
872.106	11.302
875.481	9.45001
878.856	7.06854
882.23	5.30402
885.605	5.80505
888.98	2.11365
892.355	3.32257
895.73	0.648682
899.105	0.076904
902.479	2.27344
905.854	3.08057
909.229	2.67664
912.604	1.28754
915.979	3.48059
919.353	11.5453
922.728	17.3726
926.103	23.1877
929.478	28.4927
932.853	26.6049
936.227	19.0095
939.602	14.6518
942.977	15.4821
946.352	12.0117
949.727	23.4498
953.102	30.5027
956.476	29.2419
959.851	25.9097
963.226	24.9053
966.601	20.0789
969.976	16.5226
973.35	27.1881
976.725	21.7932
980.1	32.4993
983.475	59.7259
986.85	98.2317
990.225	57.1863
993.599	26.2819
996.974	19.6067
1000.35	22.7443
1003.72	13.1606
1007.1	9.1593
1010.47	8.99194
1013.85	7.15137
1017.22	1.01599
1020.6	1.78088
1023.97	2.49951
1027.35	10.1475
1030.72	29.8066
1034.1	49.807
1037.47	107.631
1040.85	218.149
1044.22	267.468
1047.6	335.261
1050.97	557.76
1054.35	728.07
1057.72	672.929
1061.1	374.707
1064.47	99.7766
1067.85	30.0764
1071.22	10.2053
1074.6	1.30029
1077.97	0.528809
1081.34	6.16589
1084.72	11.4681
1088.09	18.2982
1091.47	5.00403
1094.84	6.01477
1098.22	5.74158
1101.59	4.93567
1104.97	1.90857
1108.34	0.206909
1111.72	3.79175
1115.09	2.81091
1118.47	4.02698
1121.84	1.74109
1125.22	1.51343
1128.59	5.42188
1131.97	4.90942
1135.34	7.35535
1138.72	2.98657
1142.09	3.34436
1145.47	5.54419
1148.84	3.74548
1152.22	5.69531
1155.59	8.41907
1158.96	12.1771
1162.34	7.34033
1165.71	5.91772
1169.09	9.8728
1172.46	8.36511
1175.84	9.19922
1179.21	5.3761
1182.59	3.13745
1185.96	8.49268
1189.34	5.73132
1192.71	6.44153
1196.09	7.99146
1199.46	6.33887
1202.84	9.71594
1206.21	3.21326
1209.59	6.78723
1212.96	8.82312
1216.34	4.40967
1219.71	6.81604
1223.09	2.55005
1226.46	6.25183
1229.84	9.13684
1233.21	11.9703
1236.59	9.89075
1239.96	16.2696
1243.34	11.4821
1246.71	6.49609
1250.09	7.30054
1253.46	1.92542
1256.84	1.03796
1260.21	0.496948
1263.59	6.79553
1266.96	10.3602
1270.33	3.04199
1273.71	0
