Measurement: Raman, 780 nm, unoriented, Raman Data Processed
Mineral: Cancrinite
Rruff sample: R100110
Ideal chemistry: (Na,Ca,[box])_8_(Al_6_Si_6_)O_24_(CO_3_,SO_4_)_2_2H_2_O
Locality: French River, Ontario, Canada
Source: Robert Woodside
Description: Brownish-orange massive. One of 4 specimens collected by Sam Gordon in 1932 for the Philadelphia Academy of Sciences (#21833)
Raman shift (cm-1)	intensity
139.263	0
142.155	1.11983
145.048	5.40782
147.941	1.8647
150.834	1.95956
153.726	0.77449
156.619	1.43512
159.512	5.10138
162.404	6.15073
165.297	7.13821
168.19	4.45326
171.083	1.96458
173.975	1.91132
176.868	2.16188
179.761	5.71089
182.653	10.6287
185.546	13.5097
188.439	16.5174
191.331	18.6498
194.224	15.9449
197.117	11.0049
200.01	5.19061
202.902	2.69589
205.795	0.911041
208.688	1.47639
211.58	2.12357
214.473	2.43187
217.366	2.55426
220.258	3.67467
223.151	7.98294
226.044	4.9487
228.936	4.27199
231.829	9.18407
234.722	8.41745
237.615	7.74892
240.507	10.533
243.4	14.7861
246.293	17.5244
249.185	19.7399
252.078	27.3633
254.971	32.9216
257.863	46.37
260.756	63.0467
263.649	78.6301
266.542	86.8114
269.434	102.806
272.327	123.144
275.22	138.111
278.112	146.838
281.005	138.035
283.898	117.057
286.791	98.558
289.683	83.7852
292.576	78.8534
295.469	68.3395
298.361	56.8549
301.254	44.5752
304.147	33.243
307.039	22.1141
309.932	13.9577
312.825	11.6101
315.717	7.69495
318.61	5.03748
321.503	9.60096
324.396	9.93794
327.288	14.9931
330.181	17.7588
333.074	18.057
335.966	17.6686
338.859	15.2561
341.752	16.4709
344.644	16.7308
347.537	17.7873
350.43	16.8178
353.323	12.4695
356.215	10.8452
359.108	5.35805
362.001	1.35543
364.893	1.81213
367.786	0.47023
370.679	3.32574
373.572	4.11424
376.464	3.17653
379.357	0.467545
382.25	0.717079
385.142	3.34654
388.035	5.3424
390.928	8.65364
393.82	11.328
396.713	16.8941
399.606	22.9698
402.498	29.0373
405.391	29.5664
408.284	36.6396
411.177	45.7458
414.069	54.9053
416.962	63.1417
419.855	64.8523
422.747	53.5715
425.64	42.4852
428.533	34.2489
431.425	27.7446
434.318	23.9923
437.211	20.1484
440.104	19.9879
442.996	16.2723
445.889	16.9657
448.782	13.3097
451.674	10.4496
454.567	8.51847
457.46	7.39081
460.353	9.62747
463.245	8.2579
466.138	8.70738
469.031	10.1943
471.923	11.4196
474.816	13.9553
477.709	17.6751
480.601	22.4014
483.494	32.284
486.387	39.3476
489.279	52.3582
492.172	68.4033
495.065	80.6819
497.958	92.2453
500.85	94.522
503.743	84.5076
506.636	72.1825
509.528	57.3143
512.421	44.712
515.314	32.0503
518.207	24.186
521.099	19.4225
523.992	15.901
526.885	18.2699
529.777	18.9593
532.67	19.6364
535.563	15.7239
538.455	10.8429
541.348	5.82899
544.241	0.843086
547.134	1.96305
550.026	0.002052
552.919	2.38712
555.812	0.650932
558.704	1.39907
561.597	1.57074
564.49	0.035393
567.382	1.67303
570.275	0.354019
573.168	1.8266
576.061	0.625336
578.953	2.84124
581.846	5.26672
584.739	5.10543
587.631	2.92219
590.524	5.60567
593.417	5.2972
596.309	4.27296
599.202	3.54701
602.095	4.22951
604.987	2.51287
607.88	3.83643
610.773	3.56199
613.666	2.95597
616.558	0.105934
619.451	2.18861
622.344	1.24004
625.236	3.09369
628.129	2.21239
631.022	1.36635
633.915	0.74675
636.807	2.50724
639.7	1.69399
642.593	1.06385
645.485	0.679977
648.378	1.39179
651.271	3.29748
654.163	0.351715
657.056	2.38991
659.949	2.5916
662.842	0.971786
665.734	1.86933
668.627	1.99689
671.52	1.46072
674.412	2.76144
677.305	4.93998
680.198	5.81344
683.091	7.39779
685.983	6.35169
688.876	9.37974
691.769	8.77115
694.661	6.2096
697.554	6.41789
700.447	5.59053
703.339	7.59617
706.232	4.30504
709.125	6.00311
712.018	5.96278
714.91	5.89735
717.803	4.8196
720.696	7.3913
723.588	1.87054
726.481	1.93948
729.374	3.27158
732.266	1.48191
735.159	1.12718
738.052	0.160591
740.944	0.952026
743.837	0.302528
746.73	0.336235
749.623	1.00232
752.515	0.242905
755.408	3.10986
758.301	4.3706
761.193	5.9995
764.086	3.97446
766.979	6.65212
769.871	7.96468
772.764	5.37567
775.657	4.28858
778.55	2.71367
781.442	3.65324
784.335	2.12471
787.228	1.00877
790.12	1.74533
793.013	2.09832
795.906	0.829838
798.798	2.26292
801.691	1.62565
804.584	1.40169
807.477	2.14415
810.369	1.44957
813.262	2.83821
816.155	2.62736
819.047	1.81652
821.94	1.35772
824.833	3.79499
827.726	3.61528
830.618	2.35248
833.511	2.40729
836.404	3.83481
839.296	3.71792
842.189	4.09246
845.082	3.43401
847.974	4.81039
850.867	4.55664
853.76	6.62541
856.653	2.55133
859.545	4.5676
862.438	4.19851
865.331	4.73609
868.223	2.77508
871.116	4.54144
874.009	3.79722
876.901	3.35486
879.794	2.26075
882.687	0.5354
885.58	3.65401
888.472	1.65018
891.365	1.73334
894.258	0.186176
897.15	2.29525
900.043	1.5205
902.936	0.165203
905.828	0.394825
908.721	1.62405
911.614	0.525238
914.506	1.32884
917.399	1.99987
920.292	0.393429
923.185	0.987591
926.077	2.9527
928.97	1.68519
931.863	3.81153
934.755	3.7082
937.648	2.94401
940.541	2.79322
943.433	1.63877
946.326	3.65709
949.219	2.51674
952.112	4.91706
955.004	7.23027
957.897	9.05071
960.79	8.16996
963.682	11.3433
966.575	7.30737
969.468	5.98233
972.361	4.18634
975.253	2.84346
978.146	3.85661
981.039	4.24891
983.931	2.90023
986.824	2.80366
989.717	3.0602
992.609	5.71737
995.502	1.05355
998.395	1.2635
1001.29	5.32156
1004.18	4.4333
1007.07	3.84084
1009.97	5.67941
1012.86	5.52306
1015.75	3.51971
1018.64	3.59394
1021.54	5.65856
1024.43	6.41252
1027.32	9.67536
1030.21	11.1656
1033.11	21.4339
1036	31.2633
1038.89	56.0525
1041.79	98.5389
1044.68	131.929
1047.57	141.276
1050.46	149.119
1053.36	167.875
1056.25	189.177
1059.14	113.761
1062.03	35.9324
1064.93	9.02809
1067.82	1.10341
1070.71	0.460815
1073.61	0.436489
1076.5	0.194778
1079.39	1.14257
1082.28	2.69163
1085.18	5.99282
1088.07	10.1409
1090.96	7.2643
1093.85	5.51858
1096.75	3.5573
1099.64	3.4626
1102.53	2.06709
1105.42	0.751911
1108.32	0.574169
1111.21	0.719337
1114.1	0.120499
1116.99	1.27092
1119.89	0.472851
1122.78	0.723064
1125.67	0.806068
1128.57	2.99762
1131.46	1.89844
1134.35	1.69624
1137.24	1.46001
1140.14	0.91423
1143.03	1.65497
1145.92	1.01715
1148.82	2.77369
1151.71	4.01662
1154.6	1.56943
1157.49	1.50976
1160.39	1.96944
1163.28	2.16342
1166.17	0.87233
1169.06	3.17887
1171.96	2.28909
1174.85	3.11233
1177.74	3.44186
1180.63	3.73352
1183.53	0.778919
1186.42	2.65688
1189.31	3.92725
1192.21	4.33808
1195.1	1.77657
1197.99	3.21461
1200.88	1.70726
1203.78	0.962818
1206.67	1.64602
1209.56	3.80222
1212.45	2.03267
1215.35	2.21887
1218.24	2.89723
1221.13	2.9062
1224.03	2.25516
1226.92	1.59213
1229.81	1.44434
1232.7	1.49139
1235.6	1.25465
1238.49	1.84437
1241.38	0.290188
1244.27	2.35852
1247.17	2.02838
1250.06	1.32624
1252.95	0.313702
1255.85	0.340595
1258.74	1.23102
1261.63	2.50505
1264.52	0.381668
1267.42	1.79392
1270.31	1.80848
1273.2	1.38603
1276.09	0.992474
1278.99	0.521786
1281.88	0.488091
1284.77	0.104153
