Measurement: Raman, 532 nm, unoriented, Raman Data Processed
Mineral: Cancrinite
Rruff sample: R050352
Ideal chemistry: (Na,Ca,[box])_8_(Al_6_Si_6_)O_24_(CO_3_,SO_4_)_2_2H_2_O
Locality: York River, quarry #2, Dungannon Township, Ontario, Canada
Source: California Institute of Technology
Description: Pink fragment
Measured chemistry: (Na_6.07_Ca_1.62_[box]_0.31_)_Σ=8_(Al_0.99_Si_1.01_O_4_)_6_((CO_3_)_0.84_[box]_0.16_)_Σ=2_·2H_2_O
Raman shift (cm-1)	intensity
109.228	0
112.602	71.6285
115.977	400.692
119.352	738.285
122.727	891.259
126.102	872.26
129.476	893.631
132.851	950.177
136.226	794.316
139.601	562.803
142.976	382.705
146.351	284.392
149.725	193.861
153.1	135.888
156.475	106.275
159.85	71.8265
163.225	55.666
166.6	42.7764
169.974	5.66608
173.349	32.4049
176.724	33.5766
180.099	29.2409
183.474	19.6269
186.848	5.40625
190.223	19.2975
193.598	42.7272
196.973	70.1634
200.348	103.407
203.722	148.181
207.097	211.131
210.472	294.864
213.847	377.792
217.222	449.326
220.596	484.884
223.971	480.481
227.346	449.889
230.721	384.395
234.096	286.926
237.471	207.278
240.845	144.843
244.22	119.466
247.595	137.778
250.97	215.722
254.345	350.421
257.719	544.615
261.094	777.585
264.469	1037.18
267.844	1320.15
271.219	1579.24
274.594	1700.12
277.968	1491.54
281.343	1000.7
284.718	618.274
288.093	445.994
291.468	447.157
294.842	503.306
298.217	511.858
301.592	457.588
304.967	326.2
308.342	174.25
311.717	65.4869
315.091	5.40662
318.466	10.8953
321.841	10.8991
325.216	60.2819
328.591	133.186
331.966	240.221
335.34	344.454
338.715	437.364
342.09	539.595
345.465	663.619
348.84	717
352.214	590.692
355.589	386.207
358.964	206.504
362.339	89.7197
365.714	23.384
369.089	18.3701
372.463	25.4611
375.838	25.9951
379.213	19.4675
382.588	7.26648
385.963	14.5709
389.337	41.3871
392.712	72.7331
396.087	112.777
399.462	168.523
402.837	228.381
406.212	308.313
409.586	422.779
412.961	559.596
416.336	697.136
419.711	745.957
423.086	637.678
426.46	449.316
429.835	303.25
433.21	219.058
436.585	155.984
439.96	105.989
443.334	103.817
446.709	130.369
450.084	213.953
453.459	344.995
456.834	564.373
460.209	822.566
463.583	922.923
466.958	716.776
470.333	425.622
473.708	294.909
477.083	272.253
480.457	322.69
483.832	403.961
487.207	524.973
490.582	681.225
493.957	808.055
497.332	860.526
500.706	803.485
504.081	678.748
507.456	528.573
510.831	393.493
514.206	294.329
517.58	214.337
520.955	141.31
524.33	87.538
527.705	53.1031
531.08	32.8611
534.455	15.7028
537.829	3.15259
541.204	3.6778
544.579	5.18402
547.954	8.13452
551.329	8.76904
554.703	4.00256
558.078	4.61066
561.453	4.48285
564.828	4.29279
568.203	0.241943
571.577	3.67731
574.952	7.34894
578.327	13.5508
581.702	14.722
585.077	13.7754
588.452	19.3871
591.826	22.4033
595.201	26.2144
598.576	23.572
601.951	28.8557
605.326	29.0042
608.7	27.0632
612.075	29.3065
615.45	24.9709
618.825	18.1036
622.2	13.6315
625.574	7.43298
628.949	11.8998
632.324	5.97998
635.699	1.89172
639.074	5.34564
642.449	1.25232
645.823	1.7796
649.198	2.43378
652.573	4.35773
655.948	3.3161
659.323	6.89996
662.697	15.7249
666.072	24.1222
669.447	27.3064
672.822	38.7499
676.197	51.3046
679.572	60.9191
682.946	67.028
686.321	55.8931
689.696	37.6007
693.071	28.9219
696.446	26.9551
699.821	28.0629
703.195	19.2184
706.57	11.0396
709.945	10.6034
713.32	17.0007
716.695	17.4908
720.069	15.8397
723.444	0.661743
726.819	1.06091
730.194	0.307861
733.569	10.1024
736.943	10.1381
740.318	2.51062
743.693	12.3218
747.068	11.1831
750.443	17.4744
753.818	33.0756
757.192	52.6604
760.567	94.2607
763.942	142.909
767.317	213.843
770.692	292.472
774.067	326.445
777.441	244.723
780.816	145.403
784.191	81.7938
787.566	48.8897
790.941	25.3163
794.315	15.198
797.69	13.1918
801.065	6.23877
804.44	4.94702
807.815	7.17737
811.189	6.79553
814.564	2.60608
817.939	0.467896
821.314	6.54102
824.689	1.26477
828.063	5.37915
831.438	0.37439
834.813	2.63342
838.188	9.62964
841.563	10.2565
844.938	14.6425
848.312	16.8269
851.687	15.0474
855.062	14.1907
858.437	16.6446
861.812	12.0381
865.187	15.0739
868.561	13.8513
871.936	14.4725
875.311	12.246
878.686	7.10254
882.061	0.396362
885.435	1.09778
888.81	6.11108
892.185	2.34717
895.56	2.04077
898.935	9.31043
902.309	5.39294
905.684	5.13171
909.059	4.85522
912.434	16.7842
915.809	40.8748
919.184	75.665
922.558	114.057
925.933	157.345
929.308	190.209
932.683	191.994
936.058	166.408
939.433	130.681
942.807	133.094
946.182	159.227
949.557	221.363
952.932	290.889
956.307	319.423
959.681	276.061
963.056	230.823
966.431	224.672
969.806	222.199
973.181	228.596
976.556	227.524
979.93	230.872
983.305	261.831
986.68	324.509
990.055	272.851
993.43	201.987
996.804	160.581
1000.18	144.305
1003.55	125.063
1006.93	114.32
1010.3	94.8673
1013.68	77.187
1017.05	44.4324
1020.43	28.4375
1023.8	21.4561
1027.18	17.9816
1030.55	36.0015
1033.93	68.3806
1037.3	143.925
1040.68	314.479
1044.05	436.069
1047.43	482.62
1050.8	876.018
1054.18	1255.56
1057.55	1250.15
1060.93	796.202
1064.3	223.613
1067.68	46.4823
1071.05	4.31726
1074.42	9.26196
1077.8	11.9756
1081.17	6.53076
1084.55	7.69971
1087.92	29.0879
1091.3	1.08459
1094.67	1.77319
1098.05	7.99304
1101.42	7.54272
1104.8	3.5282
1108.17	4.20471
1111.55	1.37842
1114.92	6.2279
1118.3	9.83508
1121.67	7.83264
1125.05	8.27563
1128.42	13.0526
1131.8	17.948
1135.17	18.3204
1138.55	14.0457
1141.92	14.8293
1145.3	12.8155
1148.67	8.34351
1152.05	10.0577
1155.42	7.00586
1158.8	13.567
1162.17	15.1173
1165.55	20.7186
1168.92	19.9503
1172.3	15.9863
1175.67	16.2798
1179.04	12.2532
1182.42	6.59607
1185.79	11.0747
1189.17	12.4653
1192.54	8.91565
1195.92	9.94031
1199.29	4.69702
1202.67	8.85657
1206.04	10.2573
1209.42	10.0808
1212.79	9.55762
1216.17	15.9752
1219.54	10.252
1222.92	9.55798
1226.29	5.26941
1229.67	10.3728
1233.04	8.08569
1236.42	6.51172
1239.79	2.56543
1243.17	1.95422
1246.54	1.93262
1249.92	11.3543
1253.29	7.28259
1256.66	4.75537
1260.04	7.97168
1263.41	0.280273
1266.79	2.03125
1270.16	6.52014
1273.54	4.31995
1276.91	0.505249
