Measurement: Raman, 532 nm, unoriented, Raman Data Processed
Mineral: Caracolite
Rruff sample: R050096
Ideal chemistry: Na_2_(Pb_2_Na)(SO_4_)_3_Cl
Locality: Challacollo mine, Tarapaca Province, Chile
Source: Marcus Origlieri
Description: Colorless hexagonal prisms
Raman shift (cm-1)	intensity
124.2	0
127.575	24.9048
130.949	175.23
134.324	281.183
137.699	357.366
141.074	390.714
144.449	390.816
147.823	361.449
151.198	381.037
154.573	407.036
157.948	431.569
161.323	444.416
164.698	462.136
168.072	480.773
171.447	475.375
174.822	430.113
178.197	368.215
181.572	297.666
184.946	191.869
188.321	116.86
191.696	69.5306
195.071	39.7016
198.446	35.4728
201.821	32.07
205.195	47.2214
208.57	60.2755
211.945	76.042
215.32	93.2029
218.695	98.9589
222.069	83.8793
225.444	74.4562
228.819	53.1454
232.194	29.2969
235.569	6.95828
238.944	0.570129
242.318	1.8436
245.693	11.8358
249.068	9.70706
252.443	11.0654
255.818	7.35779
259.192	1.98001
262.567	4.02051
265.942	8.53076
269.317	14.6577
272.692	23.5829
276.067	29.1764
279.441	35.7653
282.816	36.5776
286.191	44.9536
289.566	52.9667
292.941	55.373
296.315	60.0987
299.69	64.5594
303.065	57.6647
306.44	55.503
309.815	49.3855
313.19	46.3556
316.564	40.4698
319.939	35.925
323.314	31.7102
326.689	36.0041
330.063	32.9682
333.438	27.683
336.813	27.9136
340.188	27.9413
343.563	23.6181
346.938	24.1093
350.312	21.419
353.687	20.3197
357.062	15.6426
360.437	14.1966
363.812	12.91
367.187	10.7005
370.561	10.4984
373.936	3.99158
377.311	3.49558
380.686	1.89154
384.061	1.29695
387.435	3.35472
390.81	1.20901
394.185	0.672791
397.56	0.843811
400.935	0.411758
404.309	1.09364
407.684	1.03137
411.059	6.91585
414.434	14.9661
417.809	36.4396
421.183	73.6213
424.558	115.813
427.933	195.68
431.308	347.02
434.683	602.385
438.058	671.485
441.432	571.755
444.807	574.264
448.182	469.48
451.557	480.778
454.932	586.49
458.307	616.33
461.681	720.263
465.056	982.389
468.431	1119.92
471.806	779.323
475.181	465.454
478.555	283.428
481.93	155.403
485.305	74.7172
488.68	34.6995
492.055	20.7559
495.43	9.94862
498.804	7.08096
502.179	2.07382
505.554	0.692902
508.929	1.27109
512.303	5.11966
515.678	4.19516
519.053	1.00485
522.428	1.4754
525.803	0.886398
529.178	1.90253
532.552	2.35142
535.927	2.3792
539.302	0.346848
542.677	0.231018
546.052	0.13649
549.427	0.484238
552.801	1.45912
556.176	0.064835
559.551	0.40036
562.926	6.33276
566.301	0.058685
569.675	4.32178
573.05	7.81525
576.425	8.57469
579.8	10.5831
583.175	13.8811
586.549	17.3261
589.924	24.9886
593.299	37.0159
596.674	66.3185
600.049	122.738
603.423	218.577
606.798	344.832
610.173	526.655
613.548	767.524
616.923	1063.36
620.298	970.929
623.672	664.751
627.047	526.893
630.422	500.799
633.797	490.555
637.172	389.834
640.547	183.258
643.921	68.3537
647.296	34.388
650.671	17.0234
654.046	8.63607
657.421	6.45014
660.795	3.99823
664.17	4.304
667.545	1.56778
670.92	3.07097
674.295	6.18061
677.669	6.23738
681.044	4.32171
684.419	2.40961
687.794	1.07961
691.169	2.76873
694.544	2.24216
697.918	0.440468
701.293	1.50191
704.668	1.53809
708.043	0.458038
711.418	1.42239
714.792	1.19315
718.167	0.399345
721.542	2.30316
724.917	1.18634
728.292	1.28229
731.667	0.068253
735.041	0.594635
738.416	2.22389
741.791	1.47493
745.166	2.78447
748.541	3.24516
751.915	3.76968
755.29	0.036407
758.665	3.33223
762.04	1.01057
765.415	0.525909
768.789	2.60913
772.164	1.55484
775.539	0.563461
778.914	1.82196
782.289	0.353409
785.664	2.50749
789.038	2.55531
792.413	1.80997
795.788	2.84969
799.163	3.02565
802.538	3.2513
805.913	5.5948
809.287	4.90265
812.662	6.40637
816.037	2.10637
819.412	3.58817
822.787	4.48921
826.161	5.75296
829.536	5.05344
832.911	5.01309
836.286	4.20341
839.661	2.44656
843.035	2.22821
846.41	4.53635
849.785	5.71765
853.16	3.62236
856.535	3.39485
859.909	4.48834
863.284	7.12128
866.659	11.5135
870.034	18.1562
873.409	25.788
876.784	29.6599
880.158	30.0021
883.533	34.8104
886.908	34.0884
890.283	33.909
893.658	32.2435
897.033	29.0775
900.407	29.8904
903.782	30.7479
907.157	25.7534
910.532	22.601
913.907	15.9477
917.281	14.8262
920.656	7.17218
924.031	0.566345
927.406	1.72122
930.781	1.31299
934.155	6.76929
937.53	4.22623
940.905	5.62521
944.28	24.6655
947.655	50.1555
951.029	100.275
954.404	201.334
957.779	361.022
961.154	667.369
964.529	1197.91
967.904	2071.93
971.278	3476.94
974.653	5399.77
978.028	7427.37
981.403	8922.97
984.778	8620.04
988.153	4624.43
991.527	1937.12
994.902	879.779
998.277	430.016
1001.65	264.774
1005.03	219.715
1008.4	201.576
1011.78	143.936
1015.15	64.4776
1018.53	12.1299
1021.9	23.5861
1025.28	30.4844
1028.65	28.3896
1032.03	8.85913
1035.4	33.3887
1038.78	98.7517
1042.15	188.194
1045.52	317.476
1048.9	489.637
1052.27	711.738
1055.65	973.741
1059.02	1212.2
1062.4	1368.94
1065.77	1397.13
1069.15	1289.13
1072.52	1115.44
1075.9	864.97
1079.27	607.025
1082.65	432.589
1086.02	341.527
1089.4	326.219
1092.77	331.863
1096.15	384.03
1099.52	440.844
1102.9	511.346
1106.27	572.3
1109.65	632.991
1113.02	655.245
1116.39	647.567
1119.77	606.381
1123.14	536.582
1126.52	475.177
1129.89	438.912
1133.27	412.868
1136.64	427.362
1140.02	441.486
1143.39	467.581
1146.77	462.036
1150.14	427.003
1153.52	377.733
1156.89	310.769
1160.27	234.773
1163.64	173.074
1167.02	113.234
1170.39	71.8145
1173.77	37.2008
1177.14	11.8474
1180.52	3.9516
1183.89	0.330109
1187.27	9.47879
1190.64	16.686
1194.02	22.6982
1197.39	16.9072
1200.77	11.4481
1204.14	1.95169
1207.52	9.85477
1210.89	22.2442
1214.27	22.7026
1217.64	26.4113
1221.02	27.7991
1224.39	34.8255
1227.76	40.439
1231.14	52.0668
1234.51	64.7597
1237.89	77.175
1241.26	61.9211
1244.64	48.3119
1248.01	49.2606
1251.39	55.5904
1254.76	58.3023
1258.14	54.2204
1261.51	54.5842
1264.89	43.2676
1268.26	34.4217
1271.64	28.0703
1275.01	15.1746
1278.39	9.19147
1281.76	2.61681
1285.14	0.46875
