Measurement: Raman, 514 nm, unoriented, Raman Data Processed
Mineral: Caracolite
Rruff sample: R050096
Ideal chemistry: Na_2_(Pb_2_Na)(SO_4_)_3_Cl
Locality: Challacollo mine, Tarapaca Province, Chile
Source: Marcus Origlieri
Description: Colorless hexagonal prisms
Raman shift (cm-1)	intensity
52.866	0
57.065	5.068
61.262	1.771
65.458	324.61
69.651	748.185
73.842	1526.18
78.031	2676.97
82.218	3367.93
86.404	3515.43
90.587	4003.74
94.768	3459.66
98.947	3101.74
103.124	3167.67
107.3	3696.61
111.473	3736.04
115.644	3810.02
119.813	3511.58
123.981	3154.44
128.146	2989.18
132.309	2868.68
136.47	2882.38
140.63	2861.78
144.787	2785.85
148.942	2636.94
153.096	2727.01
157.247	2935.67
161.396	3153.48
165.544	3203.46
169.689	3034.82
173.833	2842.69
177.974	2613.48
182.114	2433.97
186.251	2271.9
190.387	2098.38
194.52	1990.38
198.652	1859.42
202.782	1755.01
206.909	1667.2
211.035	1449.67
215.159	1262.44
219.281	1157.04
223.4	997.885
227.518	842.445
231.634	674.04
235.748	564.62
239.86	415.161
243.97	393.245
248.079	286.873
252.185	261.994
256.289	209.806
260.391	164.641
264.492	127.978
268.59	113.564
272.687	83.349
276.781	69.29
280.874	0.648
284.964	27.498
289.053	5.686
293.14	13.13
297.225	18.988
301.308	8.916
305.389	7.937
309.468	34.038
313.545	44.243
317.62	40.576
321.693	42.034
325.765	42.634
329.834	52.257
333.902	49.402
337.967	35.604
342.031	32.019
346.093	22.698
350.153	14.7
354.21	0.582
358.267	2.767
362.321	8.904
366.373	1.565
370.423	7.768
374.471	12.661
378.518	21.302
382.563	16.683
386.605	33.036
390.646	55.36
394.685	42.639
398.722	49.844
402.757	69.241
406.79	83.974
410.821	116.888
414.851	114.698
418.878	154.393
422.904	179.959
426.927	327.386
430.949	832.672
434.969	1933.81
438.987	1627.8
443.003	1493.62
447.018	1364.3
451.03	1605.82
455.041	1734.97
459.049	1579.78
463.056	2158.74
467.061	2865.97
471.064	2786.47
475.065	1767.34
479.064	1066.72
483.062	569.353
487.057	337.193
491.051	261.459
495.043	193.507
499.032	188.791
503.02	198.654
507.007	162.032
510.991	155.461
514.973	132.728
518.954	122.276
522.933	112.793
526.91	99.845
530.885	124.455
534.858	96.949
538.829	84.791
542.799	107.042
546.766	102.173
550.732	82.049
554.696	99.074
558.658	112.236
562.618	111.73
566.576	107.197
570.533	151.152
574.488	145.311
578.44	143.632
582.391	144.007
586.341	154.581
590.288	189.453
594.233	234.5
598.177	371.977
602.119	711.861
606.059	1593.66
609.997	2697.87
613.933	2447.07
617.868	3160.74
621.801	2659.78
625.731	2491.46
629.66	1896.82
633.588	1579.24
637.513	1016.62
641.437	517.735
645.358	316.9
649.278	239.541
653.196	152.11
657.113	120.343
661.027	100.093
664.94	91.527
668.851	84.322
672.76	85.148
676.667	88.328
680.572	107.91
684.476	102.05
688.378	92.703
692.278	118.394
696.176	92.507
700.072	110.978
703.967	112.687
707.86	117.67
711.751	115.02
715.64	111.535
719.527	114.094
723.413	94.622
727.297	85.897
731.179	115.21
735.059	108.023
738.937	116.928
742.814	92.904
746.689	92.053
750.562	103.012
754.433	78.786
758.303	69.752
762.17	75.767
766.036	60.979
769.901	67
773.763	70.829
777.624	81.475
781.482	75.952
785.339	71.268
789.195	56.427
793.048	38.415
796.9	27.207
800.75	11.801
804.598	40.203
808.445	11.429
812.289	16.456
816.132	7.307
819.973	11.932
823.813	9.679
827.65	29.557
831.486	23.736
835.32	40.102
839.152	22.729
842.983	36.973
846.812	51.861
850.639	55.556
854.464	51.518
858.288	35.215
862.11	44.828
865.93	35.009
869.748	0.295
873.564	0.54
877.379	12.254
881.192	11.431
885.004	2.114
888.813	4.931
892.621	0.052
896.427	5.817
900.232	20.738
904.034	38.464
907.835	59.298
911.634	60.737
915.432	54.409
919.227	92.228
923.021	106.347
926.813	116.85
930.604	211.941
934.393	253.242
938.18	314.832
941.965	434.267
945.749	575.582
949.53	802.212
953.311	1075.54
957.089	1634.07
960.866	2539.89
964.641	4360.06
968.414	8544.68
972.185	17573.1
975.955	34925.8
979.723	44596.6
983.49	51653.7
987.254	25751.1
991.017	10037.3
994.779	5096.28
998.538	3803.35
1002.3	4615.9
1006.05	2739.8
1009.81	2047.34
1013.56	1827.27
1017.31	1540.11
1021.06	1433.49
1024.81	1469.78
1028.55	1520.25
1032.3	1596.89
1036.04	1699.02
1039.78	1820.86
1043.52	2016.62
1047.26	2212
1050.99	2586.73
1054.73	3151.8
1058.46	3805.2
1062.19	4395.94
1065.92	4446.03
1069.65	4149.45
1073.37	3685.21
1077.1	3177.3
1080.82	2756.73
1084.54	2646.48
1088.26	2746.55
1091.97	3010.93
1095.69	3246.66
1099.4	3303.72
1103.12	3262.12
1106.83	3225.86
1110.54	3174.95
1114.24	3080.36
1117.95	2797.11
1121.65	2617.22
1125.35	2331.66
1129.06	2021.47
1132.75	1946.39
1136.45	1856.28
1140.15	1918.05
1143.84	1804.86
1147.53	1805.14
1151.22	1726.54
1154.91	1593.05
1158.6	1520.8
1162.28	1386.18
1165.97	1296.17
1169.65	1206.16
1173.33	1088.85
1177.01	960.661
1180.69	966.684
1184.36	851.31
1188.04	683.054
1191.71	485.627
1195.38	408.665
1199.05	338.975
1202.71	372.698
1206.38	430.27
1210.04	548.648
1213.71	600.975
1217.37	370.087
1221.03	232.567
1224.68	149.187
1228.34	94.242
1231.99	88.604
1235.65	86.552
1239.3	60.075
1242.95	62.523
1246.59	54.879
1250.24	48.904
1253.88	46.179
1257.53	57.906
1261.17	67.342
1264.81	85.966
1268.45	44.115
1272.08	4.076
1275.72	11.136
1279.35	35.609
1282.98	34.27
1286.61	41.168
1290.24	59.344
1293.87	17.766
1297.49	51.356
1301.11	37.254
1304.73	41.343
1308.36	2.675
1311.97	19.213
1315.59	7.999
1319.2	5.033
1322.82	1.214
1326.43	9.176
1330.04	32.476
1333.65	0.534
1337.26	2.362
1340.86	8.222
1344.47	40.591
1348.07	23.76
1351.67	12.742
1355.27	63.495
1358.87	45.177
1362.46	51.568
1366.06	69.719
1369.65	65.684
1373.24	73.442
1376.83	88.338
1380.42	129.625
1384	94.74
1387.59	95.087
1391.17	142.259
1394.75	141.244
1398.33	109.034
1401.91	129.31
1405.49	127.137
1409.06	152.024
1412.64	123.675
1416.21	101.782
1419.78	95.863
1423.35	95.148
1426.91	110.775
1430.48	103.809
1434.05	72.247
1437.61	102.891
1441.17	100.533
1444.73	117.121
1448.29	102.127
1451.84	84.321
1455.4	72.668
1458.95	84.53
1462.5	64.861
1466.05	60.161
1469.6	44.441
1473.15	49.344
1476.69	32.395
1480.24	34.593
1483.78	42.776
1487.32	34.034
1490.86	21.008
1494.39	54.055
1497.93	28.438
1501.46	21.178
1505	16.245
1508.53	41.068
1512.06	35.333
1515.59	2.671
1519.11	35.518
1522.64	11.075
