Measurement: Raman, 780 nm, unoriented, Raman Data Processed
Mineral: Caracolite
Rruff sample: R050096
Ideal chemistry: Na_2_(Pb_2_Na)(SO_4_)_3_Cl
Locality: Challacollo mine, Tarapaca Province, Chile
Source: Marcus Origlieri
Description: Colorless hexagonal prisms
Raman shift (cm-1)	intensity
121.098	0
123.991	6.09814
126.884	1.56476
129.776	21.6685
132.669	35.129
135.562	40.5083
138.455	58.9197
141.347	64.7554
144.24	81.5234
147.133	81.2559
150.025	96.0445
152.918	115.398
155.811	135.73
158.703	162.701
161.596	192.019
164.489	171.905
167.382	161.133
170.274	129.079
173.167	103.315
176.06	102.325
178.952	63.858
181.845	57.6469
184.738	23.9957
187.631	2.82013
190.523	1.91229
193.416	4.16821
196.309	5.54425
199.201	6.29468
202.094	2.73413
204.987	6.03857
207.879	23.9055
210.772	40.047
213.665	67.2195
216.558	103.221
219.45	110.005
222.343	184.231
225.236	214.123
228.128	277.003
231.021	284.83
233.914	321.585
236.806	305.19
239.699	317.935
242.592	288.437
245.484	271.204
248.377	208.47
251.27	156.673
254.162	159.175
257.055	127.73
259.948	102.097
262.841	95.4786
265.733	129.064
268.626	188.149
271.519	203.601
274.411	191.793
277.304	211.401
280.197	190.683
283.089	182.588
285.982	121.42
288.875	101.244
291.768	42.5793
294.66	19.8296
297.553	34.2559
300.446	3.48193
303.338	17.1199
306.231	5.50293
309.124	40.8701
312.017	5.03223
314.909	12.9294
317.802	18.8787
320.695	16.9075
323.587	30.2451
326.48	24.4077
329.373	39.1365
332.265	21.0347
335.158	14.1829
338.051	77.6484
340.943	52.7817
343.836	88.5164
346.729	150.338
349.622	145.387
352.514	218.292
355.407	242.981
358.3	308.093
361.192	317.601
364.085	349.954
366.978	410.555
369.87	497.7
372.763	533.462
375.656	569.663
378.549	644.702
381.441	742.252
384.334	807.291
387.227	831.158
390.119	906.408
393.012	916.14
395.905	913.823
398.798	983.832
401.69	954.732
404.583	911.607
407.476	891.479
410.368	878.188
413.261	823.934
416.154	759.764
419.046	731.081
421.939	681.733
424.832	566.378
427.724	508.68
430.617	460.152
433.51	465.328
436.402	453.878
439.295	358.465
442.188	265.4
445.081	227.293
447.973	206.591
450.866	186.819
453.759	145.5
456.651	172.457
459.544	111.821
462.437	142.929
465.329	165.796
468.222	151.682
471.115	125.354
474.008	62.4209
476.9	46.8057
479.793	18.6419
482.686	1.20935
485.578	20.6422
488.471	30.7001
491.364	11.0518
494.257	5.97241
497.149	11.0719
500.042	13.7731
502.935	12.2814
505.827	30.5774
508.72	10.5703
511.613	31.0929
514.505	8.47534
517.398	24.8331
520.291	23.8014
523.183	37.2399
526.076	23.8135
528.969	33.7688
531.862	39.8215
534.754	34.7254
537.647	51.8723
540.54	34.0079
543.432	22.2509
546.325	21.0097
549.218	16.6041
552.11	4.1878
555.003	20.7703
557.896	16.2462
560.788	1.30518
563.681	7.24554
566.574	6.72125
569.467	9.70984
572.359	13.6149
575.252	13.6818
578.145	12.5735
581.037	29.4689
583.93	5.3078
586.823	24.6972
589.716	15.9502
592.608	52.1005
595.501	73.2765
598.394	102.263
601.286	126.016
604.179	190.036
607.072	247.99
609.964	298.151
612.857	329.418
615.75	392.558
618.643	418.93
621.535	361.222
624.428	369.313
627.321	374.423
630.213	347.389
633.106	354.31
635.999	340.1
638.891	299.423
641.784	290.117
644.677	325.043
647.569	305.861
650.462	313.334
653.355	308.7
656.248	345.886
659.14	359.274
662.033	366.93
664.926	384.81
667.818	377.465
670.711	338.813
673.604	356.305
676.496	332.58
679.389	289.918
682.282	278.536
685.175	278.372
688.067	260.362
690.96	225.805
693.853	223.24
696.745	213.881
699.638	199.144
702.531	177.31
705.423	170.48
708.316	162.508
711.209	147.808
714.101	121.859
716.994	92.494
719.887	77.0188
722.78	61.0474
725.672	38.3653
728.565	25.9016
731.458	2.29282
734.35	5.99557
737.243	9.21585
740.136	1.56982
743.029	6.89172
745.921	8.89893
748.814	0.804443
751.707	5.76767
754.599	14.887
757.492	4.75687
760.385	9.1955
763.277	4.53342
766.17	12.6766
769.063	13.9201
771.956	18.708
774.848	21.8482
777.741	34.9378
780.634	27.9616
783.526	29.0326
786.419	32.6407
789.312	46.7689
792.204	40.7867
795.097	47.0403
797.99	42.5768
800.882	50.1079
803.775	53.0989
806.668	53.1976
809.561	48.9945
812.453	47.0427
815.346	34.3473
818.239	32.8437
821.131	36.3161
824.024	38.0871
826.917	29.9313
829.809	18.9115
832.702	23.5069
835.595	27.8336
838.487	25.8291
841.38	25.7814
844.273	27.1793
847.166	21.116
850.058	21.0644
852.951	20.9882
855.844	18.0475
858.736	24.158
861.629	18.4097
864.522	11.308
867.415	15.4218
870.307	30.4912
873.2	15.4861
876.093	25.9595
878.985	21.8734
881.878	19.5871
884.771	20.2906
887.663	23.429
890.556	15.608
893.449	11.1075
896.341	1.93013
899.234	12.464
902.127	8.37262
905.02	10.3345
907.912	4.94015
910.805	8.07448
913.698	2.92496
916.59	9.35181
919.483	0.211014
922.376	14.9161
925.269	1.21873
928.161	6.11647
931.054	2.10593
933.947	0.390793
936.839	1.4361
939.732	9.18896
942.625	3.27535
945.517	7.08617
948.41	28.2816
951.303	36.9971
954.196	69.5677
957.088	110.327
959.981	199.403
962.874	356.769
965.766	536.462
968.659	800.364
971.552	1167.81
974.444	1629.23
977.337	2039.83
980.23	2165.34
983.122	2145.68
986.015	1466.95
988.908	702.314
991.801	360.654
994.693	195.343
997.586	119.053
1000.48	85.5331
1003.37	52.2841
1006.26	57.0645
1009.16	33.988
1012.05	24.144
1014.94	18.721
1017.84	3.34131
1020.73	1.29605
1023.62	4.40564
1026.51	0.000793
1029.41	5.98032
1032.3	1.72357
1035.19	0.014038
1038.08	31.4388
1040.98	49.1395
1043.87	73.203
1046.76	85.5585
1049.65	121.191
1052.55	144.309
1055.44	168.763
1058.33	194.375
1061.22	200.238
1064.12	221.449
1067.01	213.749
1069.9	202.48
1072.8	153.348
1075.69	110.955
1078.58	84.2369
1081.47	65.4526
1084.37	48.9519
1087.26	39.6621
1090.15	29.0803
1093.05	2.21094
1095.94	39.9033
1098.83	0.860718
1101.72	10.6732
1104.62	23.4712
1107.51	15.009
1110.4	32.6885
1113.29	19.6644
1116.19	24.8131
1119.08	11.5258
1121.97	6.21899
1124.87	10.759
1127.76	21.604
1130.65	30.3357
1133.54	54.937
1136.43	74.3965
1139.33	33.8384
1142.22	50.5386
1145.11	67.404
1148.01	83.1838
1150.9	89.4456
1153.79	79.1133
1156.68	65.385
1159.58	29.1423
1162.47	39.0386
1165.36	19.3574
1168.26	25.3467
1171.15	43.8608
1174.04	1.80811
1176.93	0
