Measurement: Raman, 532 nm, unoriented, Raman Data Processed
Mineral: Caresite
Rruff sample: R120028
Ideal chemistry: Fe^2+^_4_Al_2_(OH)_12_CO_3_3H_2_O
Locality: Mont Saint-Hilaire, Rouville County, Qu√©bec, Canada
Source: Donald Doell
Description: Pale yellow semicircular plates on colorless albite
Raman shift (cm-1)	intensity
200.249	0
203.141	2.55563
206.034	0.143967
208.927	1.2632
211.819	5.54382
214.712	5.42772
217.605	6.18318
220.497	3.93419
223.39	2.06787
226.283	1.25624
229.175	2.16161
232.068	0.190674
234.961	1.97984
237.854	2.39581
240.746	1.7068
243.639	3.17107
246.532	4.39182
249.424	5.68791
252.317	5.18469
255.21	4.31389
258.103	2.00343
260.995	2.70903
263.888	4.13471
266.781	7.59576
269.673	7.9325
272.566	10.4658
275.459	12.2099
278.351	15.8338
281.244	17.3218
284.137	17.6253
287.029	14.7587
289.922	10.2463
292.815	9.70715
295.708	6.00433
298.6	5.9346
301.493	3.85965
304.386	2.82494
307.278	2.9709
310.171	1.12233
313.064	2.31175
315.957	1.50059
318.849	0.444382
321.742	0.202957
324.635	0.638733
327.527	0.995453
330.42	0.97374
333.313	1.02205
336.205	0.279861
339.098	0.109238
341.991	0.494461
344.884	0.873001
347.776	0.623108
350.669	1.58113
353.562	0.031281
356.454	2.25847
359.347	1.0835
362.24	1.44957
365.132	1.62921
368.025	2.15923
370.918	2.44521
373.81	1.78461
376.703	2.61423
379.596	1.80716
382.489	2.036
385.381	0.723495
388.274	2.43156
391.167	0.150589
394.059	1.76787
396.952	0.596024
399.845	1.05679
402.738	2.75697
405.63	1.95815
408.523	2.35498
411.416	1.67722
414.308	1.81653
417.201	0.708679
420.094	1.21773
422.986	0.183792
425.879	1.47832
428.772	0.47197
431.664	0.129807
434.557	0.924683
437.45	1.89018
440.343	3.58887
443.235	5.41748
446.128	6.54382
449.021	8.14247
451.913	9.67541
454.806	10.6181
457.699	11.7778
460.591	11.7401
463.484	13.6777
466.377	14.3591
469.27	19.1098
472.162	21.092
475.055	21.6167
477.948	22.6719
480.84	20.2103
483.733	17.7686
486.626	10.4661
489.519	7.05544
492.411	3.15839
495.304	0.58313
498.197	0.527542
501.089	1.55919
503.982	1.34186
506.875	4.16139
509.767	6.61585
512.66	10.3473
515.553	10.8603
518.446	13.9993
521.338	18.5234
524.231	26.7793
527.124	37.4499
530.016	55.3192
532.909	83.6333
535.802	122.983
538.694	171.168
541.587	226.876
544.48	271.992
547.372	266.088
550.265	205.811
553.158	129.034
556.051	78.7899
558.943	50.5311
561.836	34.5882
564.729	23.2424
567.621	17.3288
570.514	12.5526
573.407	9.69344
576.299	5.07985
579.192	4.87199
582.085	3.70045
584.978	1.85252
587.87	1.68927
590.763	1.20766
593.656	0.605255
596.548	0.571518
599.441	0.775055
602.334	0.715363
605.226	0.176086
608.119	0.752869
611.012	1.3114
613.905	0.954514
616.797	1.38826
619.69	0.873199
622.583	0.973526
625.475	0.422379
628.368	0.383835
631.261	1.00468
634.154	1.10735
637.046	1.87778
639.939	2.87929
642.832	2.1501
645.724	2.64859
648.617	1.5688
651.51	2.79217
654.402	2.21187
657.295	2.64107
660.188	3.32138
663.081	3.55719
665.973	4.07852
668.866	3.67232
671.759	4.42511
674.651	6.08955
677.544	8.40488
680.437	10.133
683.329	10.5307
686.222	12.8935
689.115	14.0093
692.008	15.0274
694.9	13.0099
697.793	10.2575
700.686	8.30739
703.578	5.36881
706.471	4.47176
709.364	4.51105
712.256	3.83054
715.149	1.69916
718.042	1.07686
720.934	1.44298
723.827	1.58928
726.72	2.11191
729.613	0.81958
732.505	1.47572
735.398	0.895355
738.291	1.09651
741.183	2.1017
744.076	1.11319
746.969	2.44267
749.861	1.32333
752.754	1.05306
755.647	1.04941
758.54	0.411194
761.432	1.36108
764.325	0.656693
767.218	0.794006
770.11	1.21567
773.003	2.76221
775.896	1.74226
778.788	2.21048
781.681	2.81183
784.574	3.37404
787.467	2.53095
790.359	4.83337
793.252	6.26004
796.145	6.66852
799.037	5.31743
801.93	6.57756
804.823	6.19879
807.716	7.44615
810.608	7.58038
813.501	8.68118
816.394	8.45625
819.286	6.54076
822.179	8.73419
825.072	6.40753
827.964	6.34869
830.857	4.56537
833.75	5.0054
836.643	5.15283
839.535	5.39172
842.428	6.38889
845.321	5.18074
848.213	6.59454
851.106	4.15866
853.999	3.6257
856.891	5.10666
859.784	6.13286
862.677	4.05029
865.569	3.63133
868.462	4.22627
871.355	2.74402
874.248	3.58235
877.14	2.96587
880.033	1.67616
882.926	1.60432
885.818	1.15108
888.711	0.540207
891.604	0.527832
894.496	0.251297
897.389	1.43573
900.282	0.385345
903.175	0.031006
906.067	0.991806
908.96	0.362869
911.853	0.733063
914.745	1.36884
917.638	1.52713
920.531	0.294769
923.423	0.746643
926.316	2.32509
929.209	1.78032
932.102	2.6479
934.994	4.61414
937.887	4.92284
940.78	4.18967
943.672	3.15921
946.565	4.98518
949.458	4.0435
952.351	4.9511
955.243	2.6089
958.136	2.69452
961.029	2.32107
963.921	1.73009
966.814	2.17085
969.707	1.42651
972.599	1.93886
975.492	1.76372
978.385	2.15701
981.278	2.12678
984.17	2.99143
987.063	3.8318
989.956	3.35825
992.848	5.49829
995.741	5.50688
998.634	6.2991
1001.53	8.22382
1004.42	10.5044
1007.31	11.9247
1010.21	14.3334
1013.1	17.0568
1015.99	20.4747
1018.88	24.4217
1021.77	27.1521
1024.67	29.5333
1027.56	34.6462
1030.45	39.7651
1033.35	41.8939
1036.24	47.1758
1039.13	50.1683
1042.02	56.9369
1044.92	66.8435
1047.81	84.8097
1050.7	109.614
1053.6	146.683
1056.49	196.34
1059.38	238.48
1062.27	237.285
1065.17	165.366
1068.06	85.6033
1070.95	42.6245
1073.84	19.4682
1076.74	9.83484
1079.63	4.33685
1082.52	1.582
1085.41	2.09224
1088.31	0.033371
1091.2	0.341751
1094.09	0.02124
1096.99	1.64252
1099.88	0.529846
1102.77	0.82196
1105.66	0.055847
1108.56	1.78525
1111.45	0.885712
1114.34	0.09436
1117.23	1.26492
1120.13	1.31915
1123.02	1.83211
1125.91	2.36153
1128.81	1.18811
1131.7	1.61581
1134.59	2.36893
1137.48	1.59666
1140.38	2.60998
1143.27	2.92215
1146.16	3.70908
1149.05	2.64535
1151.95	3.23344
1154.84	1.51575
1157.73	1.24397
1160.62	2.96693
1163.52	2.43619
1166.41	1.8921
1169.3	1.36443
1172.2	1.71135
1175.09	2.03656
1177.98	1.26306
1180.87	2.14601
1183.77	1.38915
1186.66	1.35544
1189.55	1.04469
1192.44	2.13843
1195.34	0.915894
1198.23	1.21431
1201.12	1.65715
1204.02	1.67914
1206.91	1.11188
1209.8	1.22656
1212.69	1.20644
1215.59	1.89748
1218.48	3.48412
1221.37	0.651703
1224.26	2.0481
1227.16	0.26297
1230.05	0.849121
1232.94	1.04222
1235.84	1.65576
1238.73	1.11914
1241.62	1.09766
1244.51	0.231262
1247.41	1.44871
1250.3	1.53777
1253.19	1.04063
1256.08	1.77151
1258.98	1.68219
1261.87	2.25632
1264.76	2.03752
1267.65	2.22574
1270.55	1.75963
1273.44	0.000351
1276.33	1.85349
1279.23	1.94351
1282.12	1.59187
1285.01	2.4267
1287.9	0.346222
1290.8	1.25708
1293.69	1.85806
1296.58	0.726807
1299.47	0.689453
