Measurement: Raman, 780 nm, unoriented, Raman Data Processed
Mineral: Caresite
Rruff sample: R120028
Ideal chemistry: Fe^2+^_4_Al_2_(OH)_12_CO_3_3H_2_O
Locality: Mont Saint-Hilaire, Rouville County, Qu√©bec, Canada
Source: Donald Doell
Description: Pale yellow semicircular plates on colorless albite
Raman shift (cm-1)	intensity
102.77	0
106.145	8.61038
109.52	0.771072
112.895	2.26019
116.27	7.25038
119.644	10.2164
123.019	18.4153
126.394	24.7301
129.769	32.3372
133.144	36.8778
136.518	44.7551
139.893	55.2407
143.268	70.3096
146.643	89.4892
150.018	99.1202
153.393	93.6614
156.767	80.3924
160.142	68.5743
163.517	57.6965
166.892	42.1954
170.267	27.0159
173.642	11.743
177.016	4.07762
180.391	0.260956
183.766	1.95869
187.141	0.67453
190.516	0.501556
193.89	2.33553
197.265	3.80597
200.64	3.83015
204.015	3.4256
207.39	1.40298
210.764	1.67534
214.139	2.81746
217.514	1.58202
220.889	2.89125
224.264	2.11386
227.638	1.612
231.013	2.43864
234.388	0.962723
237.763	2.26245
241.138	2.74783
244.513	5.00742
247.887	5.95572
251.262	3.44484
254.637	0.48407
258.012	1.88052
261.387	3.03534
264.762	4.21985
268.136	5.9081
271.511	8.46318
274.886	10.9317
278.261	14.9455
281.635	15.8245
285.01	12.7348
288.385	10.0797
291.76	7.68373
295.135	5.70843
298.51	4.59222
301.884	2.30731
305.259	2.55695
308.634	1.38905
312.009	0.953842
315.384	0.664444
318.759	0.016891
322.133	0.101181
325.508	0.332611
328.883	1.37186
332.258	0.16275
335.633	1.13069
339.007	0.903046
342.382	0.057556
345.757	0.131134
349.132	0.128403
352.507	0.625687
355.882	0.888641
359.256	1.83389
362.631	1.8101
366.006	1.87686
369.381	1.55966
372.755	0.864883
376.13	1.26324
379.505	0.802048
382.88	1.59596
386.255	1.46742
389.63	0.89859
393.004	0.095383
396.379	0.492004
399.754	0.898315
403.129	1.1434
406.504	0.802811
409.878	1.24649
413.253	0.499619
416.628	0.021957
420.003	0.152725
423.378	0.604996
426.753	0.420898
430.127	0.374695
433.502	1.1176
436.877	0.916611
440.252	0.82225
443.627	2.40904
447.001	2.8372
450.376	3.02029
453.751	3.49333
457.126	3.27751
460.501	4.02629
463.875	5.13812
467.25	6.59383
470.625	8.10998
474	8.47571
477.375	7.70703
480.75	5.61943
484.124	4.1974
487.499	2.89394
490.874	0.109833
494.249	1.81753
497.624	1.52516
500.998	2.57812
504.373	3.14204
507.748	6.29991
511.123	8.70142
514.498	9.43071
517.873	11.5409
521.247	12.5945
524.622	16.6349
527.997	23.8476
531.372	34.8293
534.747	50.2031
538.121	73.825
541.496	98.9385
544.871	104.271
548.246	78.9112
551.621	46.6894
554.995	27.564
558.37	15.8727
561.745	9.94884
565.12	6.86424
568.495	5.02138
571.87	2.78354
575.244	1.20685
578.619	1.48221
581.994	0.093086
585.369	2.23978
588.744	0.493378
592.119	0.138458
595.493	0.134064
598.868	0.464569
602.243	0.3396
605.618	0.1157
608.993	0.419571
612.367	0.784477
615.742	0.345612
619.117	0.58754
622.492	0.440826
625.867	1.61896
629.241	2.13554
632.616	1.2774
635.991	1.77969
639.366	2.10223
642.741	2.33244
646.115	1.76434
649.49	2.18131
652.865	2.59566
656.24	1.95643
659.615	2.53802
662.99	2.02504
666.364	1.79816
669.739	2.40606
673.114	3.58092
676.489	5.25368
679.864	6.92234
683.239	6.65266
686.613	6.73599
689.988	6.285
693.363	6.96129
696.738	5.93114
700.112	2.90967
703.487	1.76748
706.862	0.764938
710.237	1.27366
713.612	1.10006
716.987	0.304985
720.361	0.208946
723.736	0.092987
727.111	0.428902
730.486	0.289886
733.861	0.028412
737.236	0.10733
740.61	0.105125
743.985	1.15076
747.36	0.219078
750.735	0.373627
754.11	0.376366
757.484	1.17887
760.859	0.440804
764.234	1.92142
767.609	0.558083
770.984	1.60728
774.359	3.21648
777.733	1.60092
781.108	1.57043
784.483	2.37132
787.858	2.64333
791.232	1.44675
794.607	3.19677
797.982	2.64829
801.357	2.95312
804.732	3.56367
808.107	3.47975
811.481	3.47539
814.856	2.97654
818.231	3.48866
821.606	3.33206
824.981	4.04835
828.356	3.63966
831.73	3.02116
835.105	2.92011
838.48	2.96584
841.855	3.06435
845.23	3.74719
848.604	2.58555
851.979	3.18781
855.354	3.1134
858.729	3.15365
862.104	3.011
865.479	2.96036
868.853	3.44836
872.228	2.7291
875.603	2.0267
878.978	1.41356
882.352	1.27121
885.727	1.19469
889.102	0.77327
892.477	0.042496
895.852	0.45723
899.227	0.162766
902.601	0.098846
905.976	0.714493
909.351	0.557884
912.726	0.27462
916.101	0.299042
919.476	0.093575
922.85	0.195427
926.225	0.006599
929.6	0.859772
932.975	0.791328
936.35	0.823921
939.724	0.733368
943.099	1.54273
946.474	0.536446
949.849	0.685722
953.224	1.16733
956.598	1.56077
959.973	0.762955
963.348	0.47699
966.723	0.443916
970.098	0.321991
973.472	0.91729
976.847	0.878906
980.222	0.901855
983.597	1.41624
986.972	1.15407
990.347	1.29021
993.721	1.44746
997.096	2.29922
1000.47	1.98866
1003.85	2.86541
1007.22	3.34634
1010.6	4.73845
1013.97	5.30466
1017.35	7.56495
1020.72	8.0771
1024.1	8.95574
1027.47	11.1302
1030.84	12.0754
1034.22	12.9327
1037.59	14.4982
1040.97	17.7438
1044.34	21.8373
1047.72	27.4922
1051.09	39.7869
1054.47	56.6322
1057.84	73.3458
1061.22	69.3674
1064.59	40.2694
1067.97	18.7253
1071.34	7.89527
1074.72	3.92233
1078.09	1.88651
1081.47	0.523743
1084.84	0.715408
1088.22	0.305641
1091.59	0.420525
1094.97	0.269867
1098.34	0.22242
1101.71	0.602097
1105.09	0.212204
1108.46	0.051498
1111.84	0.087059
1115.21	0.514778
1118.59	0.542816
1121.96	0.414734
1125.34	1.03967
1128.71	0.194031
1132.09	0.177612
1135.46	1.25356
1138.84	1.34662
1142.21	1.00289
1145.59	1.06406
1148.96	1.56174
1152.34	2.10424
1155.71	1.41178
1159.09	0.838867
1162.46	0.568298
1165.84	1.44436
1169.21	1.68105
1172.59	1.49812
1175.96	0.533875
1179.34	1.59053
1182.71	1.16712
1186.09	1.11366
1189.46	0.912827
1192.84	0.911736
1196.21	1.11324
1199.59	1.14985
1202.96	0.918228
1206.34	1.28899
1209.71	0.64241
1213.08	0.760475
1216.46	0.59346
1219.83	0.158913
1223.21	0.348869
1226.58	0.617661
1229.96	0.223953
1233.33	0.079376
1236.71	0.301376
1240.08	0.640747
1243.46	0.594978
1246.83	1.03112
1250.21	0.919167
1253.58	0.097107
1256.96	0.752289
1260.33	0.35997
1263.71	0.416939
1267.08	0.598969
1270.46	0.067436
1273.83	0.725258
1277.21	1.12153
1280.58	0.653557
1283.95	0
