Measurement: Raman, 780 nm, unoriented, Raman Data Processed
Mineral: Carlosbarbosaite
Rruff sample: R110162
Ideal chemistry: (UO_2_)_2_Nb_2_O_6_(OH)_2_2H_2_O
Locality: Jaguaracu, Minas Gerais, Brazil
Source: Luiz Menezes
Description: Mass of yellow fibers on quartz
Raman shift (cm-1)	intensity
146.643	0
149.536	0.044739
152.428	0.815491
155.321	0.771729
158.214	1.51544
161.107	4.75678
163.999	5.271
166.892	6.76685
169.785	7.45105
172.677	9.35773
175.57	10.5413
178.463	10.887
181.355	12.2053
184.248	13.294
187.141	18.417
190.033	24.3024
192.926	24.1894
195.819	24.1942
198.712	21.4742
201.604	24.1943
204.497	18.1475
207.39	19.2566
210.282	15.3968
213.175	9.1424
216.068	2.20245
218.96	0.687744
221.853	0.729675
224.746	1.28052
227.638	2.8985
230.531	0.58783
233.424	5.4801
236.317	12.0364
239.209	19.9094
242.102	28.0608
244.995	32.462
247.887	36.1322
250.78	27.829
253.673	26.1406
256.565	20.5424
259.458	19.6196
262.351	17.65
265.244	12.8647
268.136	13.6537
271.029	11.2559
273.922	8.61493
276.814	4.95502
279.707	5.10236
282.6	0.996704
285.493	0.538635
288.385	2.35913
291.278	1.28827
294.171	2.77313
297.063	7.01666
299.956	12.7789
302.849	19.3623
305.741	28.3971
308.634	34.6634
311.527	42.1377
314.42	46.7602
317.312	46.0897
320.205	46.9794
323.098	44.1067
325.99	38.7559
328.883	37.2563
331.776	31.9652
334.668	32.7193
337.561	30.5966
340.454	32.8409
343.346	36.0746
346.239	40.0102
349.132	48.7018
352.024	59.772
354.917	72.1015
357.81	91.0176
360.703	110.902
363.595	129.304
366.488	148.063
369.381	169.556
372.273	176.875
375.166	179.189
378.059	176.933
380.952	165.962
383.844	148.535
386.737	124.855
389.63	102.944
392.522	80.8148
395.415	62.6091
398.308	46.4174
401.2	33.3442
404.093	22.442
406.986	13.9659
409.878	7.67072
412.771	4.78168
415.664	1.94107
418.557	0.300385
421.449	1.66873
424.342	3.64633
427.235	0.515137
430.127	0.665436
433.02	0.406616
435.913	3.44308
438.805	6.85718
441.698	9.59628
444.591	13.4463
447.484	18.9751
450.376	23.1435
453.269	30.8735
456.162	35.3411
459.054	43.7747
461.947	49.6572
464.84	54.8765
467.733	64.8041
470.625	68.7657
473.518	69.9977
476.411	69.0183
479.303	61.2907
482.196	53.7735
485.089	44.0598
487.981	35.9128
490.874	27.7767
493.767	23.2822
496.659	15.7641
499.552	10.3753
502.445	10.8903
505.337	6.67276
508.23	5.66186
511.123	3.67093
514.016	1.39679
516.908	1.46899
519.801	0.682617
522.694	0.599365
525.586	0.176849
528.479	0.930573
531.372	0.368317
534.264	0.270325
537.157	0.185913
540.05	1.50784
542.943	3.10251
545.835	3.51605
548.728	4.66007
551.621	7.41647
554.513	9.56461
557.406	9.38077
560.299	12.3373
563.192	13.0545
566.084	15.4949
568.977	16.088
571.87	16.1129
574.762	18.1888
577.655	19.3483
580.548	21.9629
583.44	20.4553
586.333	20.3239
589.226	22.1786
592.119	18.723
595.011	19.8008
597.904	19.5806
600.797	18.4838
603.689	19.1338
606.582	19.0205
609.475	20.1419
612.367	23.112
615.26	21.0805
618.153	21.8534
621.045	22.3197
623.938	23.8462
626.831	21.9296
629.723	22.2269
632.616	22.6618
635.509	21.7242
638.402	22.6156
641.294	18.5821
644.187	13.4933
647.08	11.814
649.972	9.61291
652.865	7.0975
655.758	5.17072
658.65	5.86185
661.543	5.59778
664.436	1.6279
667.329	3.10736
670.221	1.31906
673.114	0.641418
676.007	0.054565
678.899	3.21915
681.792	0.03656
684.685	2.75177
687.577	1.16305
690.47	1.54623
693.363	1.70108
696.256	0.228394
699.148	0.005035
702.041	0.860931
704.934	0.514618
707.826	2.89712
710.719	2.41202
713.612	2.96435
716.505	5.62808
719.397	10.5905
722.29	13.6121
725.183	14.7684
728.075	19.2696
730.968	26.6581
733.861	33.033
736.753	37.3906
739.646	42.9709
742.539	51.3679
745.432	61.4628
748.324	69.678
751.217	78.7445
754.11	86.7543
757.002	92.8582
759.895	102.335
762.788	105.766
765.68	110.759
768.573	108.133
771.466	104.762
774.359	96.8591
777.251	89.0796
780.144	83.1814
783.037	72.9533
785.929	66.8011
788.822	59.7743
791.715	56.3989
794.607	53.0828
797.5	42.7349
800.393	40.5722
803.285	40.2061
806.178	35.4424
809.071	31.4712
811.963	29.1745
814.856	26.4199
817.749	24.3173
820.642	27.4913
823.534	25.078
826.427	27.2448
829.32	24.2171
832.212	24.8343
835.105	24.7099
837.998	23.0712
840.89	19.7771
843.783	16.0348
846.676	13.2985
849.569	10.1572
852.461	6.28571
855.354	3.00482
858.247	3.25391
861.139	0.82901
864.032	1.1304
866.925	0.114502
869.817	2.29401
872.71	0.887878
875.603	1.06564
878.495	1.52393
881.388	1.53891
884.281	1.09631
887.174	1.35232
890.066	0.393005
892.959	0.132446
895.852	1.08926
898.744	1.71063
901.637	0.096741
904.53	0.466278
907.423	2.27078
910.315	1.9953
913.208	2.72308
916.101	4.14893
918.993	4.73077
921.886	2.04666
924.779	4.04922
927.671	5.91156
930.564	7.8374
933.457	8.90585
936.35	6.93668
939.242	7.97586
942.135	7.02539
945.028	6.35684
947.92	5.11865
950.813	6.58981
953.706	6.1795
956.598	4.42084
959.491	5.19601
962.384	4.57111
965.277	4.77866
968.169	5.46289
971.062	3.17294
973.955	2.89047
976.847	4.12558
979.74	3.14319
982.633	3.42374
985.525	1.29431
988.418	2.34381
991.311	0.275177
994.203	3.21963
997.096	2.52014
999.989	5.60016
1002.88	4.10754
1005.77	0.036224
1008.67	1.49118
1011.56	1.54568
1014.45	0.907684
1017.35	1.92499
1020.24	1.17563
1023.13	0.60672
1026.02	0.961334
1028.92	2.13211
1031.81	1.45114
1034.7	2.08566
1037.59	1.82684
1040.49	0.889618
1043.38	3.31442
1046.27	1.55099
1049.16	0.666443
1052.06	0.118683
1054.95	1.61758
1057.84	3.44287
1060.74	1.90115
1063.63	3.65057
1066.52	2.29623
1069.41	3.39404
1072.31	2.03476
1075.2	2.2001
1078.09	0.790344
1080.98	3.853
1083.88	3.60236
1086.77	5.45013
1089.66	4.00516
1092.56	5.51611
1095.45	5.11871
1098.34	3.55719
1101.23	6.06085
1104.13	4.62463
1107.02	7.25989
1109.91	6.12503
1112.8	7.08539
1115.7	6.92728
1118.59	4.57919
1121.48	6.82413
1124.38	7.45596
1127.27	8.50211
1130.16	7.43491
1133.05	9.96945
1135.95	8.3555
1138.84	10.4865
1141.73	10.6534
1144.62	11.3495
1147.52	11.3369
1150.41	13.4914
1153.3	15.2849
1156.19	13.6818
1159.09	13.5383
1161.98	12.8369
1164.87	11.5624
1167.77	9.14432
1170.66	8.97131
1173.55	9.06958
1176.44	7.53653
1179.34	7.58734
1182.23	3.90085
1185.12	3.69641
1188.01	1.37607
1190.91	1.78281
1193.8	0.209564
1196.69	0.872711
1199.59	0.345215
1202.48	0.718048
1205.37	1.75738
1208.26	2.54553
1211.16	1.33377
1214.05	0.784943
1216.94	1.2218
1219.83	3.15131
1222.73	4.40518
1225.62	14.2145
1228.51	14.0195
1231.4	16.2361
1234.3	18.6566
1237.19	26.4409
1240.08	30.8578
1242.97	29.1654
1245.87	35.0235
1248.76	34.1496
1251.65	38.6276
1254.55	36.3106
1257.44	39.8805
1260.33	40.1539
1263.22	41.2191
1266.12	36.1585
1269.01	32.8207
1271.9	28.818
1274.8	22.9985
1277.69	15.5294
1280.58	7.10437
1283.47	1.64972
