Measurement: Raman, 532 nm, unoriented, Raman Data Processed
Mineral: Carlosbarbosaite
Rruff sample: R110162
Ideal chemistry: (UO_2_)_2_Nb_2_O_6_(OH)_2_2H_2_O
Locality: Jaguaracu, Minas Gerais, Brazil
Source: Luiz Menezes
Description: Mass of yellow fibers on quartz
Raman shift (cm-1)	intensity
193.981	0
196.874	1.08057
199.766	0.044067
202.659	2.98804
205.552	5.77182
208.445	2.86182
211.337	8.13052
214.23	6.50207
217.123	4.2012
220.015	4.232
222.908	3.53168
225.801	7.59183
228.693	12.816
231.586	18.3028
234.479	25.7651
237.371	35.9159
240.264	50.2781
243.157	59.9511
246.05	62.8079
248.942	59.196
251.835	49.9859
254.728	42.1534
257.62	34.2226
260.513	25.8725
263.406	19.6302
266.298	12.409
269.191	6.84845
272.084	3.98578
274.977	1.25366
277.869	1.38104
280.762	1.52429
283.655	3.3876
286.547	0.07193
289.44	1.46167
292.333	7.31891
295.226	11.53
298.118	16.7571
301.011	24.4577
303.904	33.6945
306.796	41.6428
309.689	49.3005
312.582	56.6731
315.474	60.0346
318.367	60.4024
321.26	56.1595
324.152	54.4792
327.045	50.0847
329.938	46.2109
332.831	43.997
335.723	39.1489
338.616	39.0671
341.509	39.5341
344.401	41.7182
347.294	49.3145
350.187	55.0087
353.079	65.1681
355.972	74.8403
358.865	88.4418
361.758	101.616
364.65	114.572
367.543	125.589
370.436	134.313
373.328	140.07
376.221	136.254
379.114	129.061
382.007	117.759
384.899	105.52
387.792	85.7804
390.685	69.4716
393.577	55.3211
396.47	40.2718
399.363	29.948
402.255	17.6329
405.148	13.2899
408.041	8.34741
410.933	2.00043
413.826	1.88794
416.719	0.831116
419.612	3.25911
422.504	2.9509
425.397	1.53009
428.29	1.42188
431.182	2.11217
434.075	6.41177
436.968	9.53354
439.861	12.6651
442.753	18.8237
445.646	24.8507
448.539	31.2525
451.431	37.6233
454.324	46.6264
457.217	54.3227
460.109	65.7897
463.002	76.3869
465.895	85.1997
468.788	93.0107
471.68	100.265
474.573	101.22
477.466	95.5559
480.358	87.626
483.251	73.7641
486.144	61.5779
489.036	50.7403
491.929	40.2962
494.822	31.3013
497.714	24.107
500.607	18.3767
503.5	13.9402
506.393	10.2949
509.285	6.58485
512.178	4.25256
515.071	1.52196
517.963	0.358459
520.856	0.290436
523.749	1.76012
526.641	0.01944
529.534	0.380386
532.427	1.37215
535.32	0.756577
538.212	0.587387
541.105	2.38121
543.998	2.60474
546.89	3.83891
549.783	5.21547
552.676	5.58687
555.568	6.64479
558.461	8.53314
561.354	8.37135
564.247	9.92329
567.139	11.624
570.032	16.4229
572.925	14.9585
575.817	15.8614
578.71	17.6904
581.603	17.4135
584.495	16.6396
587.388	17.5978
590.281	16.6109
593.174	17.2183
596.066	17.5123
598.959	20.5875
601.852	17.3438
604.744	20.7252
607.637	19.7835
610.53	19.5305
613.423	19.3652
616.315	20.4507
619.208	22.8671
622.101	20.7054
624.993	21.2368
627.886	19.9353
630.779	19.575
633.671	17.9089
636.564	16.2888
639.457	15.1254
642.35	13.0544
645.242	9.73997
648.135	7.85968
651.028	7.49481
653.92	5.57933
656.813	3.51645
659.706	1.93906
662.598	1.99686
665.491	1.57538
668.384	0.012848
671.277	0.548065
674.169	1.88351
677.062	0.776001
679.955	0.884155
682.847	1.46481
685.74	2.8045
688.633	1.80081
691.525	0.515686
694.418	0.589325
697.311	0.490326
700.203	1.32587
703.096	1.37906
705.989	3.82013
708.882	5.34799
711.774	8.48142
714.667	11.8713
717.56	13.9806
720.452	16.8588
723.345	27.2615
726.238	31.0509
729.13	36.6333
732.023	44.6516
734.916	55.3959
737.809	67.1407
740.701	80.2602
743.594	94.3815
746.487	109.07
749.379	124.222
752.272	139.026
755.165	151.601
758.058	169.418
760.95	177.76
763.843	186.345
766.736	189.982
769.628	187.199
772.521	181.572
775.414	171.593
778.306	162.09
781.199	146.864
784.092	135.625
786.985	121.984
789.877	115.235
792.77	105.767
795.663	98.1786
798.555	89.0147
801.448	82.2506
804.341	74.7562
807.233	70.1757
810.126	62.0548
813.019	56.1851
815.912	53.018
818.804	47.4276
821.697	45.5495
824.59	43.1058
827.482	38.6851
830.375	37.6551
833.268	35.3289
836.16	30.922
839.053	27.3141
841.946	23.0289
844.838	17.374
847.731	10.2756
850.624	4.98614
853.517	2.74034
856.409	0.4702
859.302	0.688812
862.195	0.573349
865.087	0.54805
867.98	1.46999
870.873	1.70274
873.765	2.07513
876.658	1.94876
879.551	1.21231
882.444	1.60823
885.336	0.42955
888.229	0.35054
891.122	0.084625
894.014	1.38727
896.907	1.0061
899.8	2.864
902.692	3.85123
905.585	4.51498
908.478	5.14149
911.371	4.43329
914.263	5.2466
917.156	6.93106
920.049	7.51602
922.941	8.56033
925.834	6.97935
928.727	9.56428
931.62	7.50359
934.512	8.10127
937.405	8.19023
940.298	7.67534
943.19	7.50026
946.083	9.04874
948.976	5.64395
951.868	5.87773
954.761	4.43497
957.654	5.37595
960.547	5.07376
963.439	5.23378
966.332	5.57164
969.225	4.83269
972.117	6.19879
975.01	4.74797
977.903	4.96263
980.795	5.48564
983.688	5.15672
986.581	6.54394
989.473	4.84592
992.366	3.76154
995.259	4.30815
998.152	5.53952
1001.04	5.82109
1003.94	4.43826
1006.83	6.16737
1009.72	3.09238
1012.62	2.77257
1015.51	3.0517
1018.4	2.79887
1021.29	3.04013
1024.19	1.30289
1027.08	2.80353
1029.97	3.02484
1032.86	2.41986
1035.76	2.35493
1038.65	0.564499
1041.54	1.45718
1044.43	0.859268
1047.33	1.14314
1050.22	0.571152
1053.11	0.618225
1056.01	0.685257
1058.9	0.156189
1061.79	0.451401
1064.68	0.054108
1067.58	0.164963
1070.47	1.28166
1073.36	1.63361
1076.26	0.362915
1079.15	1.45372
1082.04	0.34317
1084.93	1.34377
1087.83	1.5638
1090.72	1.27286
1093.61	1.12022
1096.5	0.291306
1099.4	0.760101
1102.29	0.48027
1105.18	1.6019
1108.07	0.397842
1110.97	1.56436
1113.86	1.23599
1116.75	2.4173
1119.64	1.69557
1122.54	0.453384
1125.43	2.10783
1128.32	1.72757
1131.22	0.04007
1134.11	1.25726
1137	2.25206
1139.89	0.151947
1142.79	0.048447
1145.68	0.096451
1148.57	1.77866
1151.46	0.42514
1154.36	1.91907
1157.25	0.731522
1160.14	0.147079
1163.04	0.841721
1165.93	1.12691
1168.82	0.338623
1171.71	0.62149
1174.61	1.26811
1177.5	2.45036
1180.39	1.85281
1183.28	1.37369
1186.18	2.31541
1189.07	0.944763
1191.96	0.206665
1194.86	0.473633
1197.75	2.55774
1200.64	1.12962
1203.53	0.927933
1206.43	1.06503
1209.32	1.05447
1212.21	2.04097
1215.1	1.92195
1218	1.47606
1220.89	1.01123
1223.78	1.72929
1226.67	2.11426
1229.57	1.11494
1232.46	1.88364
1235.35	0.549591
1238.25	1.42003
1241.14	0.142868
1244.03	1.76161
1246.92	1.26779
1249.82	0.919479
1252.71	0.572815
1255.6	0.30748
1258.49	0.825836
1261.39	2.56273
1264.28	1.59692
1267.17	1.17261
1270.07	1.85548
1272.96	1.94263
1275.85	0.869888
1278.74	1.51119
1281.64	0.651077
1284.53	1.88298
1287.42	1.735
1290.31	0.469055
1293.21	2.08635
1296.1	0.105011
1298.99	1.58839
1301.88	0
