Measurement: Raman, 780 nm, unoriented, Raman Data Processed
Mineral: Carletonite
Rruff sample: R050255
Ideal chemistry: KNa_4_Ca_4_Si_8_O_18_(CO_3_)_4_(F,OH)H_2_O
Locality: Mont Saint-Hilaire, Rouville County, Quebec, Canada
Source: Marcus Origlieri
Description: Group of blue prismatic single crystals
Measured chemistry: (K_0.86_Na_0.14_)_Σ=1_Na_4.00_Ca_4.00_Si_8.00_O_18_(CO_3_)_4_(F_0.51_(OH)_0.49_)_Σ=1_·H_2_O
Raman shift (cm-1)	intensity
123.861	0
127.236	2.4902
130.611	32.6184
133.986	74.8098
137.36	128.615
140.735	164.872
144.11	197.536
147.485	232.273
150.859	244.413
154.234	219.36
157.609	150.963
160.984	75.5663
164.359	43.0989
167.734	38.2466
171.108	41.0781
174.483	49.234
177.858	55.3925
181.233	66.7324
184.608	70.6886
187.982	70.1513
191.357	53.0303
194.732	25.7544
198.107	0.530762
201.482	3.20407
204.857	4.56519
208.231	27.6362
211.606	42.0523
214.981	55.965
218.356	58.683
221.731	50.0933
225.106	38.274
228.48	29.0566
231.855	15.2022
235.23	5.31651
238.605	0.844223
241.98	1.8147
245.354	1.21995
248.729	1.14743
252.104	4.59074
255.479	18.2597
258.854	22.3693
262.228	32.2254
265.603	37.2447
268.978	50.8461
272.353	60.9287
275.728	72.0534
279.103	79.6887
282.477	73.5589
285.852	55.4907
289.227	38.2566
292.602	28.1545
295.977	23.6968
299.351	19.8154
302.726	13.3869
306.101	1.44363
309.476	1.2347
312.851	0.8396
316.226	1.60681
319.6	1.54601
322.975	2.02261
326.35	1.45126
329.725	1.78444
333.1	1.007
336.474	2.58523
339.849	4.88998
343.224	10.1585
346.599	12.6146
349.974	15.0642
353.349	20.3783
356.723	20.5788
360.098	22.0372
363.473	21.4508
366.848	21.6098
370.223	29.3143
373.597	34.1939
376.972	42.5604
380.347	49.7816
383.722	56.4926
387.097	47.9663
390.471	35.1303
393.846	20.0244
397.221	9.68249
400.596	5.76161
403.971	3.8359
407.346	0.568748
410.72	2.02931
414.095	2.57947
417.47	0.623421
420.845	3.87167
424.22	10.7444
427.594	16.2572
430.969	23.0777
434.344	29.6465
437.719	34.426
441.094	32.5925
444.469	24.5235
447.843	24.8768
451.218	33.8846
454.593	45.3309
457.968	60.1908
461.343	80.4757
464.717	86.9416
468.092	66.9387
471.467	56.0316
474.842	66.3291
478.217	106.473
481.592	142.296
484.966	178.772
488.341	245.084
491.716	320.149
495.091	314.534
498.466	143.762
501.841	48.3584
505.215	18.1102
508.59	6.7177
511.965	1.49488
515.34	1.34184
518.715	1.24475
522.089	2.94414
525.464	11.2183
528.839	33.0534
532.214	57.8417
535.589	82.7779
538.963	112.74
542.338	144.008
545.713	151.044
549.088	102.984
552.463	54.5946
555.837	27.8727
559.212	16.6802
562.587	9.73157
565.962	4.43203
569.337	5.40861
572.712	2.42447
576.086	1.71315
579.461	0.877541
582.836	0.629162
586.211	1.65607
589.586	0.156361
592.96	0.832504
596.335	0.335339
599.71	3.25338
603.085	0.556427
606.46	1.1174
609.835	0.525135
613.209	2.10223
616.584	0.43782
619.959	0.401257
623.334	1.7505
626.709	2.14307
630.083	2.15008
633.458	1.66381
636.833	3.30824
640.208	3.72334
643.583	5.70125
646.957	7.40127
650.332	13.3096
653.707	14.3493
657.082	16.7143
660.457	21.606
663.832	16.9749
667.206	10.3626
670.581	3.75959
673.956	1.3341
677.331	0.287434
680.706	3.54274
684.081	8.71143
687.455	9.44286
690.83	15.534
694.205	26.1867
697.58	34.6041
700.955	21.9645
704.329	23.2964
707.704	16.0895
711.079	7.33329
714.454	9.03427
717.829	15.1395
721.203	24.0196
724.578	31.0134
727.953	39.9983
731.328	46.5298
734.703	24.0016
738.078	3.53477
741.452	0.26833
744.827	1.48981
748.202	0.570271
751.577	0.086094
754.952	0.70607
758.327	4.11326
761.701	4.97932
765.076	8.2604
768.451	14.3282
771.826	18.3898
775.201	21.5175
778.575	24.8104
781.95	16.0849
785.325	12.9578
788.7	7.03421
792.075	3.24246
795.449	1.04763
798.824	1.15131
802.199	0.067955
805.574	0.700016
808.949	2.57744
812.323	1.42932
815.698	1.21762
819.073	3.44783
822.448	2.80312
825.823	4.11134
829.198	4.7125
832.572	6.21329
835.947	8.29765
839.322	10.0021
842.697	6.96365
846.072	4.09623
849.447	5.04262
852.821	4.25896
856.196	4.50894
859.571	5.27152
862.946	5.43137
866.321	5.29092
869.695	4.42289
873.07	5.02052
876.445	5.57389
879.82	4.51402
883.195	3.68705
886.569	0.476921
889.944	2.56589
893.319	2.2406
896.694	1.00772
900.069	0.258873
903.444	0.332466
906.818	0.99229
910.193	0.946892
913.568	0.430569
916.943	1.06404
920.318	0.751705
923.692	0.090923
927.067	0.939442
930.442	1.22996
933.817	2.59672
937.192	2.07147
940.567	1.86558
943.941	0.142227
947.316	1.51936
950.691	2.06779
954.066	1.50563
957.441	1.10485
960.815	0.589825
964.19	0.647377
967.565	0.534859
970.94	1.3797
974.315	1.37438
977.689	1.10277
981.064	1.89359
984.439	1.39466
987.814	0.260284
991.189	2.25549
994.564	1.25357
997.938	1.13994
1001.31	0.942188
1004.69	0.651894
1008.06	2.98983
1011.44	4.29952
1014.81	7.36744
1018.19	13.2851
1021.56	17.7622
1024.94	20.0012
1028.31	26.779
1031.69	27.2286
1035.06	24.5185
1038.44	15.5758
1041.81	10.1399
1045.19	10.5774
1048.56	18.0599
1051.94	53.4549
1055.31	96.7406
1058.68	166.497
1062.06	376.847
1065.43	504.348
1068.81	426.974
1072.18	628.235
1075.56	577.144
1078.93	252.812
1082.31	259.932
1085.68	255.81
1089.06	130.17
1092.43	49.8523
1095.81	20.8375
1099.18	10.9506
1102.56	6.87617
1105.93	1.89091
1109.31	2.19423
1112.68	0.420387
1116.06	0.216862
1119.43	0.796181
1122.81	0.141579
1126.18	0.71793
1129.56	0.053036
1132.93	0.603802
1136.31	1.19565
1139.68	0.771439
1143.06	2.70039
1146.43	1.32237
1149.81	3.24296
1153.18	0.899998
1156.56	2.43398
1159.93	0.060471
1163.3	0.61982
1166.68	1.16142
1170.05	2.93078
1173.43	1.08788
1176.8	1.81202
1180.18	0.302765
1183.55	2.10619
1186.93	0.449505
1190.3	2.30393
1193.68	3.14368
1197.05	4.22315
1200.43	8.15702
1203.8	10.1811
1207.18	12.4858
1210.55	14.7344
1213.93	14.6453
1217.3	13.2113
1220.68	9.80923
1224.05	8.10703
1227.43	5.73926
1230.8	2.6731
1234.18	2.85968
1237.55	0.771839
1240.92	1.04296
1244.3	1.08971
1247.67	1.61786
1251.05	0.478676
1254.42	0.613499
1257.8	1.53481
1261.17	2.16835
1264.55	2.34084
1267.92	2.72694
1271.3	0.341686
1274.67	1.56883
1278.05	0.955727
1281.42	4.38414
1284.8	0.459301
