Measurement: Raman, 532 nm, unoriented, Raman Data Processed
Mineral: Carletonite
Rruff sample: R050255
Ideal chemistry: KNa_4_Ca_4_Si_8_O_18_(CO_3_)_4_(F,OH)H_2_O
Locality: Mont Saint-Hilaire, Rouville County, Quebec, Canada
Source: Marcus Origlieri
Description: Group of blue prismatic single crystals
Measured chemistry: (K_0.86_Na_0.14_)_Σ=1_Na_4.00_Ca_4.00_Si_8.00_O_18_(CO_3_)_4_(F_0.51_(OH)_0.49_)_Σ=1_·H_2_O
Raman shift (cm-1)	intensity
168.816	0
171.708	12.1427
174.601	29.1209
177.494	37.8654
180.386	53.7495
183.279	59.2589
186.172	117.145
189.065	157.39
191.957	179.908
194.85	150.92
197.743	53.2137
200.635	3.38117
203.528	2.96631
206.421	39.6539
209.313	105.904
212.206	167.32
215.099	220.222
217.992	233.044
220.884	193.16
223.777	136.782
226.67	90.6444
229.562	59.7114
232.455	39.2368
235.348	15.6038
238.24	4.13348
241.133	12.3453
244.026	9.5451
246.918	2.49457
249.811	1.9762
252.704	17.9828
255.597	32.0593
258.489	50.5319
261.382	60.2396
264.275	73.2546
267.167	88.8474
270.06	110.54
272.953	142.314
275.846	182.003
278.738	219.472
281.631	239.667
284.524	224.794
287.416	178.453
290.309	124.301
293.202	93.8317
296.094	72.4246
298.987	61.0803
301.88	49.558
304.772	26.4074
307.665	4.56757
310.558	10.2484
313.451	30.5479
316.343	45.1158
319.236	26.9763
322.129	13.4598
325.021	4.76459
327.914	1.75012
330.807	1.95081
333.7	6.7431
336.592	2.51752
339.485	7.21747
342.378	21.8788
345.27	23.8111
348.163	29.701
351.056	33.9528
353.948	55.1452
356.841	61.2654
359.734	55.1071
362.627	33.277
365.519	25.2435
368.412	19.316
371.305	21.9597
374.197	32.4315
377.09	42.1408
379.983	60.3404
382.875	83.075
385.768	104.254
388.661	116.068
391.553	112.228
394.446	83.654
397.339	64.0724
400.232	59.6518
403.124	50.42
406.017	40.6528
408.91	29.7878
411.802	18.8951
414.695	5.90326
417.588	0.871338
420.481	4.79611
423.373	3.50705
426.266	2.94028
429.159	9.37521
432.051	19.6325
434.944	23.5636
437.837	36.81
440.729	44.5346
443.622	36.9421
446.515	34.9108
449.408	54.8092
452.3	92.3089
455.193	132.595
458.086	197.603
460.978	295.868
463.871	392.059
466.764	397.32
469.656	272.716
472.549	182.927
475.442	153.423
478.334	179.335
481.227	255.914
484.12	331.001
487.013	451.358
489.905	679.291
492.798	996.661
495.691	1167.38
498.583	709.856
501.476	272.175
504.369	110.823
507.262	48.7042
510.154	23.2831
513.047	6.51511
515.94	1.43842
518.832	5.59644
521.725	0.911163
524.618	5.34088
527.51	23.865
530.403	58.9252
533.296	110.368
536.188	167.859
539.081	250.268
541.974	366.971
544.867	481.102
547.759	489.634
550.652	335.33
553.545	190.707
556.437	111.177
559.33	66.8501
562.223	51.5294
565.115	34.009
568.008	24.1934
570.901	16.7074
573.794	13.1124
576.686	6.75702
579.579	5.5867
582.472	1.9664
585.364	1.68799
588.257	6.8652
591.15	0.095306
594.042	2.95956
596.935	3.0827
599.828	4.65775
602.721	1.60577
605.613	1.52011
608.506	0.900574
611.399	0.163361
614.291	0.00769
617.184	3.40207
620.077	0.053101
622.969	1.96109
625.862	0.273376
628.755	2.6644
631.648	4.18384
634.54	4.35654
637.433	1.80829
640.326	6.0538
643.218	9.60001
646.111	10.2643
649.004	14.9001
651.896	18.1713
654.789	23.4963
657.682	35.7071
660.574	44.9224
663.467	47.7715
666.36	36.6925
669.253	23.0803
672.145	15.2336
675.038	10.9656
677.931	8.96243
680.823	11.2605
683.716	13.079
686.609	19.598
689.501	26.5007
692.394	44.2871
695.287	70.4449
698.18	106.044
701.072	114.458
703.965	116.332
706.858	146.878
709.75	82.7339
712.643	43.0304
715.536	32.4992
718.428	40.2907
721.321	55.1039
724.214	74.2655
727.107	101.649
729.999	131.069
732.892	156.748
735.785	94.9424
738.677	17.4221
741.57	0.233154
744.463	3.58252
747.356	0.039063
750.248	4.02228
753.141	0.095642
756.034	0.141327
758.926	1.30811
761.819	3.97748
764.712	9.38434
767.604	12.5303
770.497	24.8097
773.39	35.9185
776.283	54.3613
779.175	60.241
782.068	56.8591
784.961	46.9978
787.853	35.7797
790.746	20.1153
793.639	13.6577
796.531	6.20227
799.424	1.22195
802.317	3.5882
805.21	4.33862
808.102	2.45584
810.995	8.86862
813.888	3.30228
816.78	5.76581
819.673	0.138
822.566	2.93161
825.458	9.74869
828.351	14.887
831.244	16.1008
834.136	28.6168
837.029	42.8054
839.922	45.693
842.815	34.8583
845.707	16.3514
848.6	6.53476
851.493	3.17624
854.385	1.39291
857.278	2.94824
860.171	4.13858
863.063	3.81165
865.956	3.47678
868.849	6.51477
871.742	2.81177
874.634	4.20337
877.527	5.19748
880.42	6.73035
883.312	3.8399
886.205	0.557526
889.098	3.39282
891.99	0.225952
894.883	0.949158
897.776	3.34726
900.669	1.85596
903.561	1.29175
906.454	2.0188
909.347	1.37534
912.239	1.46329
915.132	7.68668
918.025	4.50079
920.918	5.54825
923.81	2.61618
926.703	6.95209
929.596	3.22653
932.488	1.49768
935.381	4.20093
938.274	3.31369
941.166	4.32147
944.059	6.32047
946.952	1.42194
949.845	4.34503
952.737	0.920044
955.63	2.81168
958.523	4.14618
961.415	1.75616
964.308	2.16916
967.201	1.30951
970.093	2.53641
972.986	5.4072
975.879	1.90604
978.771	0.832886
981.664	1.0899
984.557	1.03449
987.449	0.747101
990.342	4.61285
993.235	0.050537
996.128	5.422
999.02	7.14771
1001.91	0.050903
1004.81	1.06964
1007.7	2.33179
1010.59	8.64221
1013.48	12.3981
1016.38	21.3122
1019.27	35.122
1022.16	41.9316
1025.06	50.1552
1027.95	63.8688
1030.84	83.7368
1033.73	102.202
1036.62	94.7167
1039.52	59.1339
1042.41	43.0075
1045.3	45.9704
1048.2	48.9107
1051.09	77.5035
1053.98	241.882
1056.87	453.12
1059.77	661.785
1062.66	1384.97
1065.55	2802.49
1068.44	1945.12
1071.34	1505.84
1074.23	2750.82
1077.12	2393.04
1080.02	888.479
1082.91	774.767
1085.8	935.954
1088.69	779.653
1091.59	365.284
1094.48	161.041
1097.37	84.2262
1100.27	50.7221
1103.16	30.1681
1106.05	21.5541
1108.94	14.1607
1111.84	8.50287
1114.73	4.12537
1117.62	2.43683
1120.51	1.22138
1123.41	2.22119
1126.3	1.16675
1129.19	1.9397
1132.08	0.86261
1134.98	0.731506
1137.87	3.04773
1140.76	1.24518
1143.65	3.9328
1146.55	2.96191
1149.44	7.28406
1152.33	7.13922
1155.23	3.13257
1158.12	5.34497
1161.01	2.17517
1163.9	4.23029
1166.8	1.97211
1169.69	2.33472
1172.58	4.8974
1175.47	4.12415
1178.37	7.03729
1181.26	7.92053
1184.15	7.13733
1187.05	6.36261
1189.94	14.0424
1192.83	17.0919
1195.72	18.7306
1198.62	27.3195
1201.51	36.8421
1204.4	46.8943
1207.3	55.795
1210.19	61.0817
1213.08	66.2058
1215.97	69.4296
1218.87	69.5682
1221.76	53.5284
1224.65	43.8091
1227.54	32.9238
1230.44	22.5639
1233.33	17.3454
1236.22	12.5747
1239.11	9.58063
1242.01	1.60913
1244.9	4.58057
1247.79	4.56348
1250.68	4.5423
1253.58	2.44727
1256.47	1.69348
1259.36	0.56189
1262.26	0.399902
1265.15	4.1485
1268.04	0.271118
1270.93	3.42468
1273.83	0.436951
1276.72	4.69885
1279.61	1.82288
1282.51	3.1828
1285.4	0.026611
1288.29	5.84973
1291.18	2.8186
1294.08	3.96576
1296.97	3.14166
1299.86	5.93634
1302.75	4.04675
1305.65	0
