Measurement: Raman, 514 nm, unoriented, Raman Data Processed
Mineral: Carletonite
Rruff sample: R050255
Ideal chemistry: KNa_4_Ca_4_Si_8_O_18_(CO_3_)_4_(F,OH)H_2_O
Locality: Mont Saint-Hilaire, Rouville County, Quebec, Canada
Source: Marcus Origlieri
Description: Group of blue prismatic single crystals
Measured chemistry: (K_0.86_Na_0.14_)_Σ=1_Na_4.00_Ca_4.00_Si_8.00_O_18_(CO_3_)_4_(F_0.51_(OH)_0.49_)_Σ=1_·H_2_O
Raman shift (cm-1)	intensity
52.866	0
57.065	80.765
61.262	12.045
65.458	38.194
69.651	389.228
73.842	1144.01
78.031	2173.59
82.218	3261.59
86.404	3855.35
90.587	5759.31
94.768	5968.66
98.947	5561.99
103.124	6381.67
107.3	7224.88
111.473	6804.98
115.644	6207.38
119.813	3798.65
123.981	3033.44
128.146	3361.46
132.309	3607.46
136.47	3493.4
140.63	3533.76
144.787	3734.21
148.942	4239.6
153.096	4916.04
157.247	4729.02
161.396	3600.39
165.544	2959
169.689	3109.87
173.833	3190.04
177.974	2947.46
182.114	2854.14
186.251	3184.04
190.387	3354.14
194.52	2994.42
198.652	2153.82
202.782	1906.32
206.909	2415.86
211.035	2805.5
215.159	3037.39
219.281	2867.61
223.4	2258.59
227.518	1786.3
231.634	1602.89
235.748	1460.15
239.86	1213.4
243.97	858.466
248.079	698.861
252.185	805.137
256.289	1091.26
260.391	1314.26
264.492	1344.66
268.59	1427.21
272.687	1812.83
276.781	2577.49
280.874	3070.12
284.964	2568.93
289.053	1720.28
293.14	1046.42
297.225	692.325
301.308	456.948
305.389	193.276
309.468	109.322
313.545	247.037
317.62	356.418
321.693	350.39
325.765	349.899
329.834	169.932
333.902	92.452
337.967	212.42
342.031	415.801
346.093	469.573
350.153	461.72
354.21	852.221
358.267	762.059
362.321	367.3
366.373	85.67
370.423	37.6
374.471	157.702
378.518	103.918
382.563	4.6
386.605	115.561
390.646	277.08
394.685	86.124
398.722	18.391
402.757	6.449
406.79	72.437
410.821	126.278
414.851	128.282
418.878	62.475
422.904	255.047
426.927	827.739
430.949	765.809
434.969	409.717
438.987	303.481
443.003	135.478
447.018	54.073
451.03	194.165
455.041	635.954
459.049	1999.71
463.056	4229.63
467.061	3502.05
471.064	1795.39
475.065	1085.62
479.064	900.329
483.062	1239.22
487.057	2866.56
491.051	8919.77
495.043	14084.9
499.032	5243.28
503.02	1755.43
507.007	700.505
510.991	341.499
514.973	201.401
518.954	60.511
522.933	66.142
526.91	131.579
530.885	256.68
534.858	633.129
538.829	1569.94
542.799	4043.02
546.766	5781.8
550.732	3372.44
554.696	1530.93
558.658	816.509
562.618	499.846
566.576	323.666
570.533	166.241
574.488	122.698
578.44	25.467
582.391	31.006
586.341	54.86
590.288	41.481
594.233	35.773
598.177	5.301
602.119	2.734
606.059	2.762
609.997	9.96
613.933	3.747
617.868	2.913
621.801	29.34
625.731	8.095
629.66	0.312
633.588	8.026
637.513	57.911
641.437	80.441
645.358	70.66
649.278	59.509
653.196	135.26
657.113	241.627
661.027	366.679
664.94	366.481
668.851	215.071
672.76	160.378
676.667	173.404
680.572	204.199
684.476	310.802
688.378	197.14
692.278	220.396
696.176	403.627
700.072	515.765
703.967	872.659
707.86	859.485
711.751	469.26
715.64	448.506
719.527	701.496
723.413	2073.31
727.297	2132.07
731.179	1780.25
735.059	1101.35
738.937	342.067
742.814	223.432
746.689	181.988
750.562	179.191
754.433	207.538
758.303	220.802
762.17	271.446
766.036	272.313
769.901	314.614
773.763	455.67
777.624	658.49
781.482	700.475
785.339	519.176
789.195	350.119
793.048	212.289
796.9	149.699
800.75	115.11
804.598	125.521
808.445	75.156
812.289	85.509
816.132	127.65
819.973	79.675
823.813	95.586
827.65	152.363
831.486	214.783
835.32	410.428
839.152	675.004
842.983	419.489
846.812	172.883
850.639	103.16
854.464	96.377
858.288	54.51
862.11	49.559
865.93	77.524
869.748	50.414
873.564	70.234
877.379	79.991
881.192	52.686
885.004	7.315
888.813	32.851
892.621	10.366
896.427	13.178
900.232	8.189
904.034	24.445
907.835	9.101
911.634	42.784
915.432	4.543
919.227	5.31
923.021	17.44
926.813	14.269
930.604	31.685
934.393	4.215
938.18	59.831
941.965	42.549
945.749	19.646
949.53	3.187
953.311	26.046
957.089	25.967
960.866	52.629
964.641	54.567
968.414	57.517
972.185	13.466
975.955	54.426
979.723	91.438
983.49	90.477
987.254	83.542
991.017	114.632
994.779	152.753
998.538	233.909
1002.3	181.021
1006.05	165.332
1009.81	169.596
1013.56	248.765
1017.31	379.866
1021.06	528.259
1024.81	623.813
1028.55	678.437
1032.3	983.124
1036.04	1145.23
1039.78	912.933
1043.52	932.917
1047.26	948.992
1050.99	965.758
1054.73	1201.86
1058.46	1830.25
1062.19	8177.44
1065.92	40522.8
1069.65	10486
1073.37	33193.2
1077.1	29934.8
1080.82	7850.46
1084.54	10466.7
1088.26	10048.5
1091.97	3635.01
1095.69	1597.26
1099.4	923.045
1103.12	675.979
1106.83	457.888
1110.54	345.888
1114.24	270.032
1117.95	239.065
1121.65	259.397
1125.35	308.597
1129.06	147.052
1132.75	144.53
1136.45	151.147
1140.15	150.677
1143.84	160.003
1147.53	205.616
1151.22	206.672
1154.91	215.931
1158.6	229.125
1162.28	218.755
1165.97	256.453
1169.65	230.25
1173.33	196.966
1177.01	142.117
1180.69	201.476
1184.36	204.307
1188.04	174.076
1191.71	198.211
1195.38	240.176
1199.05	281.906
1202.71	444.65
1206.38	549.297
1210.04	674.357
1213.71	783.592
1217.37	905.586
1221.03	825.108
1224.68	690.114
1228.34	521.187
1231.99	343.053
1235.65	246.175
1239.3	214.251
1242.95	139.687
1246.59	174.049
1250.24	109.239
1253.88	77.136
1257.53	52.02
1261.17	14.838
1264.81	77.055
1268.45	38.713
1272.08	55.246
1275.72	57.612
1279.35	28.85
1282.98	45.978
1286.61	33.972
1290.24	32.861
1293.87	32.588
1297.49	8.943
1301.11	7.086
1304.73	7.043
1308.36	24.614
1311.97	12.096
1315.59	30.405
1319.2	12.466
1322.82	19.53
1326.43	44.218
1330.04	25.13
1333.65	6.797
1337.26	26.578
1340.86	33.463
1344.47	35.368
1348.07	20.14
1351.67	12.776
1355.27	16.263
1358.87	38.373
1362.46	1.743
1366.06	13.874
1369.65	57.874
1373.24	26.608
1376.83	16.932
1380.42	45.366
1384	83.672
1387.59	73.861
1391.17	45.691
1394.75	99.095
1398.33	83.135
1401.91	95.853
1405.49	46.479
1409.06	138.806
1412.64	118.044
1416.21	278.851
1419.78	287.6
1423.35	218.43
1426.91	218.42
1430.48	139.785
1434.05	164.172
1437.61	79.864
1441.17	82.037
1444.73	105.688
1448.29	120.885
1451.84	141.063
1455.4	174.141
1458.95	100.831
1462.5	183.499
1466.05	214.742
1469.6	268.834
1473.15	114.431
1476.69	133.423
1480.24	118.905
1483.78	118.571
1487.32	71.997
1490.86	89.899
1494.39	85.959
1497.93	88.367
1501.46	56.419
1505	93.732
1508.53	123.861
1512.06	181.055
1515.59	0
