Measurement: Raman, 532 nm, unoriented, Raman Data Processed
Mineral: Carminite
Rruff sample: R050528
Ideal chemistry: PbFe^3+^_2_(As^5+^O_4_)_2_(OH)_2_
Locality: Las Animas mine, Benjamin Hill, Sonora, Mexico
Source: University of Arizona Mineral Museum
Description: Red prismatic crystals
Measured chemistry: (Pb_0.99_Cu_0.01_)_Σ=1_(Fe^3+^_1.99_Al_0.01_)_Σ=2_(As_1.00_O_4_)_2_(OH)_2_ ; (core) :  (Pb_0.70_Ca_0.30_)_Σ=1_(Fe^3+^_1.99_Al_0.01_)_Σ=2_(As_1.00_O_4_)_2_(OH)_2_ (rim)
Raman shift (cm-1)	intensity
136.727	0
140.102	1.64961
143.477	0.112831
146.852	10.3522
150.226	27.2217
153.601	30.3148
156.976	30.4456
160.351	11.9265
163.726	15.9503
167.101	10.9505
170.475	5.94663
173.85	15.2423
177.225	28.3863
180.6	24.3775
183.975	20.6834
187.349	28.4418
190.724	48.8389
194.099	85.1005
197.474	115.399
200.849	141.562
204.224	148.624
207.598	154.828
210.973	167.164
214.348	168.709
217.723	130.14
221.097	93.9179
224.472	63.2062
227.847	46.2479
231.222	49.3513
234.597	62.4475
237.972	80.6493
241.346	95.8665
244.721	103.864
248.096	99.8273
251.471	99.7742
254.846	106.024
258.221	109.876
261.595	98.0691
264.97	81.2978
268.345	57.362
271.72	32.2658
275.095	15.9739
278.469	8.12279
281.844	2.99697
285.219	1.18544
288.594	0.293449
291.969	0.831032
295.344	1.22239
298.718	1.57271
302.093	2.59803
305.468	1.22565
308.843	0.060738
312.218	2.93868
315.592	5.10111
318.967	5.7607
322.342	4.75079
325.717	4.5578
329.092	8.23056
332.466	13.2173
335.841	21.347
339.216	32.9954
342.591	47.4414
345.966	60.2933
349.341	68.967
352.715	63.9785
356.09	49.6963
359.465	36.3227
362.84	31.7559
366.215	33.3392
369.589	36.4046
372.964	39.1759
376.339	39.1205
379.714	41.7821
383.089	41.6648
386.464	40.905
389.838	34.5529
393.213	19.3159
396.588	8.04506
399.963	2.22346
403.338	0.514275
406.712	2.29658
410.087	3.24608
413.462	1.01523
416.837	2.45496
420.212	6.82733
423.587	13.9364
426.961	17.6957
430.336	21.3168
433.711	25.8506
437.086	21.643
440.461	17.3808
443.835	17.1167
447.21	24.0921
450.585	34.7328
453.96	46.2605
457.335	56.89
460.709	69.7975
464.084	77.5573
467.459	74.3978
470.834	60.743
474.209	52.988
477.584	47.0018
480.958	41.8929
484.333	37.2536
487.708	33.9567
491.083	31.6343
494.458	36.0672
497.832	43.2452
501.207	52.8452
504.582	55.9131
507.957	46.2338
511.332	26.1299
514.707	10.4518
518.081	4.14719
521.456	4.63705
524.831	11.9298
528.206	25.0083
531.581	43.768
534.955	67.5252
538.33	90.5604
541.705	109.387
545.08	113.67
548.455	98.9517
551.83	74.8848
555.204	49.3599
558.579	29.7812
561.954	15.431
565.329	6.83531
568.704	1.65132
572.078	1.61369
575.453	2.05754
578.828	0.481041
582.203	0.04158
585.578	0.90176
588.952	1.799
592.327	2.208
595.702	1.3034
599.077	0.178734
602.452	0.238697
605.827	0.001228
609.201	0.129604
612.576	0.675446
615.951	1.36033
619.326	0.997917
622.701	1.37415
626.075	2.84351
629.45	3.37955
632.825	3.1779
636.2	5.12016
639.575	4.7889
642.949	5.51307
646.324	6.68907
649.699	7.10166
653.074	8.16077
656.449	8.2663
659.824	8.27544
663.198	7.85929
666.573	7.74914
669.948	6.62173
673.323	5.17153
676.698	5.12821
680.072	4.20169
683.447	3.92096
686.822	2.78791
690.197	2.62267
693.572	1.47616
696.947	0.393776
700.321	0.18335
703.696	0.517918
707.071	0.737022
710.446	0.921307
713.821	0.872768
717.196	0.234791
720.57	1.43006
723.945	3.79702
727.32	7.10553
730.695	11.976
734.07	17.8515
737.444	23.5571
740.819	27.5121
744.194	28.1629
747.569	25.1819
750.944	19.6455
754.318	14.0414
757.693	8.59163
761.068	3.43737
764.443	0.113823
767.818	1.11073
771.193	0.242653
774.567	2.39584
777.942	6.1224
781.317	11.8692
784.692	18.1989
788.067	26.1998
791.441	40.6398
794.816	59.3686
798.191	80.1095
801.566	98.6949
804.941	108.049
808.316	103.255
811.69	85.7021
815.065	66.875
818.44	53.0293
821.815	44.8935
825.19	34.239
828.564	28.0569
831.939	30.7452
835.314	43.0948
838.689	71.4019
842.064	116.254
845.438	183.217
848.813	266.333
852.188	348.619
855.563	359.214
858.938	269.462
862.313	173.767
865.687	115.853
869.062	82.3739
872.437	63.7015
875.812	46.5534
879.187	30.7598
882.562	19.5589
885.936	12.8568
889.311	7.86951
892.686	3.87936
896.061	1.13604
899.436	0.62006
902.81	1.16489
906.185	1.24432
909.56	0.829037
912.935	0.925434
916.31	0.98848
919.684	0.214382
923.059	0.095909
926.434	0.752739
929.809	0.811073
933.184	1.61833
936.558	1.92885
939.933	2.92
943.308	3.52657
946.683	4.02316
950.058	4.55103
953.433	5.87286
956.807	5.8795
960.182	6.7676
963.557	6.78505
966.932	6.50056
970.307	6.81325
973.682	6.28072
977.056	6.05493
980.431	5.48948
983.806	5.2395
987.181	4.78131
990.556	3.92659
993.93	3.84139
997.305	3.78932
1000.68	3.00035
1004.05	3.05866
1007.43	2.64429
1010.8	2.02758
1014.18	1.73815
1017.55	1.84771
1020.93	1.27731
1024.3	2.146
1027.68	1.37143
1031.05	1.15622
1034.43	0.847963
1037.8	1.14494
1041.18	0.399303
1044.55	0.587509
1047.93	0.273973
1051.3	0.13233
1054.68	0.333279
1058.05	0.471498
1061.43	0.873789
1064.8	0.87224
1068.18	0.824305
1071.55	0.475559
1074.93	0.828566
1078.3	1.43864
1081.68	1.18361
1085.05	0.763836
1088.42	1.1448
1091.8	1.38759
1095.17	0.725821
1098.55	0.180651
1101.92	0.145191
1105.3	0.415792
1108.67	0.067741
1112.05	0.196308
1115.42	0.011744
1118.8	0.251242
1122.17	0.085989
1125.55	0.168915
1128.92	0.225193
1132.3	0.226383
1135.67	0.327868
1139.05	0.104935
1142.42	0.175894
1145.8	0.29723
1149.17	0.15262
1152.55	0.056263
1155.92	0.543856
1159.3	0.057955
1162.67	0.228788
1166.05	0.198135
1169.42	0.608788
1172.8	0.522306
1176.17	0.197981
1179.55	0.567741
1182.92	0.341434
1186.3	0.60408
1189.67	0.855511
1193.05	0.31216
1196.42	0.980536
1199.79	0.459631
1203.17	0.268526
1206.54	0.610115
1209.92	0.507629
1213.29	0.13274
1216.67	0.171558
1220.04	0.212723
1223.42	0.211147
1226.79	0.077263
1230.17	0.364346
1233.54	0.483955
1236.92	0.32778
1240.29	0.686586
1243.67	0.295151
1247.04	0.315617
1250.42	0.239717
1253.79	0.63331
1257.17	0.254473
1260.54	0.6133
1263.92	0.623516
1267.29	0.770506
1270.66	0.735504
1274.04	1.24915
1277.41	0.807846
1280.79	0.992401
1284.16	0.905745
1287.54	0.561285
1290.91	0.727554
1294.29	0.626255
1297.66	0.067314
1301.04	0.326233
