Measurement: Raman, 785 nm, unoriented, Raman Data Processed
Mineral: Carminite
Rruff sample: R061061
Ideal chemistry: PbFe^3+^_2_(As^5+^O_4_)_2_(OH)_2_
Locality: San Nicolas mine, Badajoz Province, Spain
Source: Bob Jenkins
Description: Red prismatic
Measured chemistry: Pb_1.00_(Fe^3+^_1.98_[box]_0.02_)_Σ=2_((As_0.97_S_0.03_)_Σ=1_O_4_)_2_(OH)_2_; (lighter phase) : (Pb_0.98_Cu_0.02_)_Σ=1_(Fe^3+^_1.99_[box]_0.01_)_Σ=2_((As_0.99_S_0.01_)_Σ=1_O_4_)_2_(OH)_2_ (darker phase); OH estimated by difference and charge balance
Raman shift (cm-1)	intensity
138.884	0
141.777	454.46
144.67	2072.28
147.562	3102.8
150.455	2821.53
153.348	2262.47
156.24	1714.42
159.133	1302.84
162.026	1058.01
164.919	1010.73
167.811	761.03
170.704	580.223
173.597	602.157
176.489	537.983
179.382	296.887
182.275	77.7415
185.167	19.7796
188.06	60.4886
190.953	242.615
193.846	676.427
196.738	1079.25
199.631	1485.29
202.524	1760.14
205.416	2020.08
208.309	2277.05
211.202	2524.66
214.095	2406.55
216.987	2024.93
219.88	1579.1
222.773	1329.85
225.665	990.385
228.558	804.431
231.451	764.178
234.343	979.313
237.236	1372.32
240.129	1756.07
243.022	2140.67
245.914	2399.71
248.807	2457.26
251.7	2556.46
254.592	2666.94
257.485	2608.57
260.378	2366.62
263.27	2014.98
266.163	1486.75
269.056	1098.24
271.949	802.434
274.841	583.957
277.734	425.854
280.627	301.626
283.519	156.844
286.412	68.5644
289.305	29.3413
292.197	62.1992
295.09	39.6206
297.983	41.9868
300.875	52.3186
303.768	20.7515
306.661	27.6768
309.554	121.495
312.446	229.991
315.339	333.421
318.232	268.115
321.124	22.1446
324.017	-35.7094
326.91	-14.6694
329.803	51.9128
332.695	174.775
335.588	415.078
338.481	690.412
341.373	1209.72
344.266	1960.92
347.159	2796.36
350.051	3529.91
352.944	3660.01
355.837	3100.15
358.729	2523.22
361.622	2305.55
364.515	2245.37
367.408	2384.47
370.3	2447.87
373.193	2475.87
376.086	2438.64
378.978	2383.88
381.871	2167.77
384.764	1933.96
387.656	1577.61
390.549	1121.53
393.442	800.107
396.335	491.176
399.227	304.078
402.12	187.599
405.013	88.9329
407.905	42.4385
410.798	30.1357
413.691	76.3479
416.584	32.4834
419.476	27.2256
422.369	50.3088
425.262	105.532
428.154	150.374
431.047	159.109
433.94	174.054
436.832	185.806
439.725	240.248
442.618	266.767
445.51	385.673
448.403	513.056
451.296	727.506
454.189	982.119
457.081	1304.9
459.974	1683.83
462.867	2039.9
465.759	2223.33
468.652	2303.99
471.545	2267.59
474.438	2233.68
477.33	2083.68
480.223	2015.31
483.116	1978.56
486.008	1962.81
488.901	2000.7
491.794	2135.62
494.686	2400.46
497.579	2767.08
500.472	3136.83
503.365	3333.27
506.257	2975.01
509.15	2273.4
512.043	1599.83
514.935	956.197
517.828	625.094
520.721	362.344
523.613	345.57
526.506	344.699
529.399	442.991
532.292	651.958
535.184	854.104
538.077	1126.32
540.97	1414.87
543.862	1498.08
546.755	1429.76
549.648	1245.29
552.54	979.998
555.433	671.583
558.326	389.603
561.218	232.991
564.111	127.701
567.004	13.8279
569.897	64.6494
572.789	36.8792
575.682	27.0576
578.575	43.6882
581.467	2.99756
584.36	12.4526
587.253	51.772
590.145	43.2402
593.038	66.8276
595.931	83.9702
598.823	93.5107
601.716	120.5
604.609	106.139
607.502	128.14
610.394	114.247
613.287	142.883
616.18	155.53
619.072	173.45
621.965	139.304
624.858	131.22
627.75	134.927
630.643	126.416
633.536	118.762
636.429	95.8982
639.321	97.379
642.214	81.6223
645.107	85.8049
648	79.0604
650.892	108.79
653.785	85.8396
656.678	134.919
659.57	141.554
662.463	95.9087
665.356	99.6146
668.248	96.9115
671.141	79.8727
674.034	104.992
676.927	68.9712
679.819	58.9983
682.712	71.6914
685.605	58.2508
688.497	7.94409
691.39	16.0238
694.283	41.4888
697.175	11.7506
700.068	15.2322
702.961	15.9171
705.854	14.3148
708.746	1.18652
711.639	9.75818
714.532	20.9412
717.424	34.5272
720.317	39.4673
723.21	93.739
726.102	153.138
728.995	190.227
731.888	226.757
734.78	294.259
737.673	343.053
740.566	388.735
743.459	316.069
746.351	260.871
749.244	167.446
752.137	108.371
755.029	48.7731
757.922	37.3616
760.815	35.2542
763.707	14.0445
766.6	-0.593746
769.493	20.7878
772.386	20.4824
775.278	84.3862
778.171	146.761
781.064	283.631
783.956	459.364
786.849	683.101
789.742	885.422
792.635	1255.03
795.527	1688.22
798.42	2148.88
801.313	2581.53
804.205	2959.22
807.098	3108.45
809.991	3110.37
812.883	2918.09
815.776	2794.54
818.669	2749.78
821.562	2709.66
824.454	2634.94
827.347	2498.97
830.24	2410.93
833.132	2560.44
836.025	2869.17
838.918	3359.09
841.81	4190.51
844.703	5350.89
847.596	6953.88
850.489	8853.59
853.381	9913.66
856.274	9413.3
859.167	7486.08
862.059	5610.39
864.952	4440.38
867.845	3658
870.737	3133.99
873.63	2658.07
876.523	2087.45
879.415	1566.01
882.308	1156.99
885.201	836.275
888.094	660.024
890.986	498.844
893.879	407.668
896.772	239.92
899.664	142.169
902.557	86.9327
905.45	63.2959
908.342	4.17224
911.235	32.1738
914.128	41.1332
917.02	51.057
919.913	67.7346
922.806	60.738
925.699	2.09387
928.591	24.7551
931.484	0.454468
934.377	22.3612
937.269	57.4098
940.162	61.6637
943.055	72.6416
945.947	89.106
948.84	98.8055
951.733	124.641
954.626	119.465
957.518	159.175
960.411	172.897
963.304	196.062
966.196	227.502
969.089	231.218
971.982	240.185
974.875	217.867
977.767	208.494
980.66	170.703
983.553	155.585
986.445	101.901
989.338	106.381
992.231	54.8823
995.123	90.3846
998.016	98.3933
1000.91	90.7062
1003.8	82.5167
1006.69	93.4586
1009.59	74.9114
1012.48	79.037
1015.37	55.2987
1018.26	66.5535
1021.16	32.6293
1024.05	12.3492
1026.94	55.3522
1029.84	48.8021
1032.73	13.1727
1035.62	21.5917
1038.51	38.019
1041.41	52.9438
1044.3	25.1541
1047.19	46.4742
1050.09	47.6692
1052.98	15.0071
1055.87	9.33557
1058.76	5.22168
1061.66	8.37585
1064.55	37.05
1067.44	36.2537
1070.33	19.3181
1073.23	5.12671
1076.12	9.11682
1079.01	27.2621
1081.9	34.2176
1084.8	30.4917
1087.69	20.9287
1090.58	27.348
1093.47	21.6583
1096.37	5.80664
1099.26	21.7455
1102.15	8.71252
1105.05	35.5855
1107.94	25.2433
1110.83	8.04504
1113.72	15.6619
1116.62	10.9753
1119.51	2.1792
1122.4	7.18835
1125.3	31.5261
1128.19	33.2222
1131.08	23.5791
1133.97	3.86121
1136.87	11.555
1139.76	15.3633
1142.65	2.13538
1145.54	19.2443
1148.44	30.1354
1151.33	33.3285
1154.22	14.923
1157.12	2.82703
1160.01	54.6493
1162.9	18.4742
1165.79	42.7841
1168.68	47.7888
1171.58	18.2651
1174.47	13.9192
1177.36	36.132
1180.26	31.2723
1183.15	52.1682
1186.04	31.0044
1188.93	30.3301
1191.83	27.7769
1194.72	54.088
1197.61	23.9966
1200.51	52.2838
1203.4	23.5806
1206.29	3.92078
1209.18	41.7214
1212.08	68.6636
1214.97	56.2628
1217.86	51.2361
1220.75	75.5535
1223.65	54.1107
1226.54	8.09839
1229.43	22.9049
1232.33	38.933
1235.22	21.9995
1238.11	12.2267
1241	76.0509
1243.9	43.3433
1246.79	50.7318
1249.68	65.6513
1252.57	58.3209
1255.47	39.1634
1258.36	0.492676
1261.25	21.1276
1264.14	10.0837
1267.04	29.0541
