Measurement: Raman, 532 nm, unoriented, Raman Data Processed
Mineral: Carminite
Rruff sample: R061061
Ideal chemistry: PbFe^3+^_2_(As^5+^O_4_)_2_(OH)_2_
Locality: San Nicolas mine, Badajoz Province, Spain
Source: Bob Jenkins
Description: Red prismatic
Measured chemistry: Pb_1.00_(Fe^3+^_1.98_[box]_0.02_)_Σ=2_((As_0.97_S_0.03_)_Σ=1_O_4_)_2_(OH)_2_; (lighter phase) : (Pb_0.98_Cu_0.02_)_Σ=1_(Fe^3+^_1.99_[box]_0.01_)_Σ=2_((As_0.99_S_0.01_)_Σ=1_O_4_)_2_(OH)_2_ (darker phase); OH estimated by difference and charge balance
Raman shift (cm-1)	intensity
122.486	0
125.861	437.053
129.236	865.884
132.611	960.076
135.986	1131.65
139.36	1499.4
142.735	1536.42
146.11	1511.8
149.485	1356.39
152.86	1255.24
156.234	1123.9
159.609	723.884
162.984	392.234
166.359	69.1673
169.734	6.9295
173.109	3.17363
176.483	59.3789
179.858	105.297
183.233	232.125
186.608	333.288
189.983	498.456
193.357	545.159
196.732	579.498
200.107	666.53
203.482	623.507
206.857	583.368
210.232	590.812
213.606	665.484
216.981	795.31
220.356	1006.1
223.731	1154.81
227.106	1373.83
230.48	1526.85
233.855	1654.99
237.23	1656.31
240.605	1653.62
243.98	1646.23
247.355	1630.43
250.729	1560.67
254.104	1449.79
257.479	1289.32
260.854	1004.55
264.229	846.151
267.603	537.535
270.978	366.071
274.353	197.453
277.728	97.9749
281.103	57.5325
284.477	18.9009
287.852	38.9248
291.227	22.769
294.602	0.404541
297.977	6.95532
301.351	5.27173
304.726	24.7244
308.101	81.7869
311.476	103.447
314.851	96.7075
318.226	94.218
321.6	159.665
324.975	261.521
328.35	413.997
331.725	601.332
335.1	910.573
338.474	1313.07
341.849	1722.08
345.224	2029.88
348.599	2178.88
351.974	2146.03
355.349	1825.99
358.723	1345.54
362.098	1022.86
365.473	753.969
368.848	550.669
372.223	414.817
375.597	288.863
378.972	214.87
382.347	163.663
385.722	65.904
389.097	16.1741
392.471	7.22705
395.846	44.2566
399.221	23.2676
402.596	18.3745
405.971	20.5085
409.346	35.5
412.72	60.2617
416.095	122.706
419.47	58.273
422.845	73.2939
426.22	67.5315
429.594	46.2778
432.969	18.1714
436.344	66.5344
439.719	191.119
443.094	319.916
446.469	509.857
449.843	821.668
453.218	1128.57
456.593	1476.67
459.968	1918.12
463.343	2234.74
466.717	2590.13
470.092	2911.28
473.467	3252.89
476.842	3568.46
480.217	3772.61
483.591	4123.86
486.966	4321.29
490.341	4430.06
493.716	4325.86
497.091	4094.57
500.466	3712.75
503.84	3217.96
507.215	2683.13
510.59	2300.9
513.965	1883.95
517.34	1645.7
520.715	1441.39
524.089	1303.5
527.464	1167.08
530.839	1089.04
534.214	934.537
537.588	764.383
540.963	664.121
544.338	520.996
547.713	416.611
551.088	275.176
554.463	191.271
557.837	143.107
561.212	51.0549
564.587	74.8638
567.962	2.23608
571.337	13.5557
574.712	49.8843
578.086	51.8154
581.461	19.8303
584.836	4.45874
588.211	15.2581
591.586	4.37598
594.96	49.5415
598.335	4.18213
601.71	73.8313
605.085	46.2524
608.46	77.1306
611.835	64.8481
615.209	85.2617
618.584	96.6921
621.959	87.3975
625.334	116.884
628.708	156.783
632.083	115.501
635.458	134.214
638.833	98.918
642.208	59.2612
645.583	46.6794
648.957	8.72021
652.332	31.5757
655.707	53.2915
659.082	90.9578
662.457	58.4802
665.832	77.8298
669.206	50.3086
672.581	52.198
675.956	57.5815
679.331	46.0203
682.706	13.3215
686.08	24.499
689.455	40.8315
692.83	37.1089
696.205	11.1543
699.58	44.782
702.954	14.1765
706.329	55.4026
709.704	34.8547
713.079	50.3621
716.454	48.7327
719.828	38.3093
723.203	74.2273
726.578	58.4719
729.953	106.253
733.328	98.7459
736.703	122.398
740.077	74.865
743.452	73.8193
746.827	48.606
750.202	23.9441
753.577	1.66211
756.952	23.7398
760.326	16.9712
763.701	57.7095
767.076	16.7649
770.451	52.9348
773.826	20.4666
777.2	102.69
780.575	193.352
783.95	218.68
787.325	352.029
790.7	439.39
794.074	571.408
797.449	682.057
800.824	852.565
804.199	948.057
807.574	1104.6
810.948	1272.78
814.323	1436.29
817.698	1639.49
821.073	1955.38
824.448	2318.91
827.823	2811.68
831.197	3484.68
834.572	4382.39
837.947	5221.56
841.322	5828.07
844.697	5966.63
848.072	5531.76
851.446	4725.32
854.821	3921.89
858.196	3073.27
861.571	2327.25
864.946	1864.44
868.32	1528.6
871.695	1216.72
875.07	942.154
878.445	812.842
881.82	590.736
885.194	496.749
888.569	311.292
891.944	283.423
895.319	182.404
898.694	63.0972
902.068	17.0732
905.443	1.40674
908.818	35.9094
912.193	5.18359
915.568	28.5098
918.943	37.8052
922.317	43.1289
925.692	41.9355
929.067	28.7607
932.442	20.8945
935.817	9.35693
939.192	15.1592
942.566	27.7451
945.941	69.1575
949.316	75.5415
952.691	118.429
956.066	79.5757
959.44	111.785
962.815	123.76
966.19	127.424
969.565	69.0015
972.94	121.7
976.314	96.846
979.689	86.3743
983.064	68.5852
986.439	78.8354
989.814	43.2307
993.188	52.0918
996.563	37.9548
999.938	32.5347
1003.31	23.4311
1006.69	33.8845
1010.06	35.3125
1013.44	39.1035
1016.81	18.6252
1020.19	51.6841
1023.56	75.0649
1026.94	32.8428
1030.31	59.5603
1033.69	12.3264
1037.06	46.3569
1040.44	14.6316
1043.81	13.0171
1047.19	33.199
1050.56	21.9895
1053.93	0.864014
1057.31	47.4426
1060.68	24.2913
1064.06	35.6316
1067.43	0.3396
1070.81	42.0942
1074.18	16.6121
1077.56	29.2754
1080.93	37.2639
1084.31	23.3196
1087.68	32.8706
1091.06	20.8
1094.43	21.2207
1097.81	42.1731
1101.18	18.937
1104.56	10.6343
1107.93	5.47461
1111.31	37.9443
1114.68	6.5376
1118.06	25.1824
1121.43	2.12842
1124.81	12.3059
1128.18	3.49951
1131.56	48.8672
1134.93	18.8828
1138.31	27.4412
1141.68	28.0166
1145.06	30.7192
1148.43	42.7759
1151.81	17.7334
1155.18	3.32397
1158.55	48.773
1161.93	17.3189
1165.3	35.5776
1168.68	16.8794
1172.05	59.4885
1175.43	36.1885
1178.8	2.18506
1182.18	55.5342
1185.55	61.9861
1188.93	52.9629
1192.3	48.0684
1195.68	26.0183
1199.05	39.7764
1202.43	14.9309
1205.8	29.0449
1209.18	58.4143
1212.55	48.9858
1215.93	30.9336
1219.3	35.4739
1222.68	5.07275
1226.05	26.1831
1229.43	33.3042
1232.8	26.8755
1236.17	47.803
1239.55	63.179
1242.92	11.0217
1246.3	49.0518
1249.67	36.1677
1253.05	30.4641
1256.42	69.7007
1259.8	18.1003
1263.17	28.1689
1266.55	28.8162
1269.92	52.3291
1273.3	35.0242
1276.67	10.1963
1280.05	1.37671
1283.42	12.0505
1286.8	5.07861
