Measurement: Raman, 780 nm, unoriented, Raman Data Processed
Mineral: Carminite
Rruff sample: R050528
Ideal chemistry: PbFe^3+^_2_(As^5+^O_4_)_2_(OH)_2_
Locality: Las Animas mine, Benjamin Hill, Sonora, Mexico
Source: University of Arizona Mineral Museum
Description: Red prismatic crystals
Measured chemistry: (Pb_0.99_Cu_0.01_)_Σ=1_(Fe^3+^_1.99_Al_0.01_)_Σ=2_(As_1.00_O_4_)_2_(OH)_2_ ; (core) :  (Pb_0.70_Ca_0.30_)_Σ=1_(Fe^3+^_1.99_Al_0.01_)_Σ=2_(As_1.00_O_4_)_2_(OH)_2_ (rim)
Raman shift (cm-1)	intensity
137.214	0
140.107	1.37897
142.999	12.7681
145.892	40.1284
148.785	70.9043
151.677	74.4803
154.57	74.6986
157.463	86.0897
160.355	65.6969
163.248	64.8286
166.141	64.2173
169.034	42.5344
171.926	46.5968
174.819	59.7165
177.712	61.5343
180.604	31.0252
183.497	0.805298
186.39	8.31123
189.282	3.47873
192.175	29.5961
195.068	58.9325
197.96	83.6517
200.853	112.501
203.746	133.285
206.639	144.103
209.531	149.193
212.424	143.099
215.317	126.594
218.209	99.3505
221.102	83.0133
223.995	64.3897
226.887	54.3267
229.78	57.2736
232.673	72.2275
235.566	89.8702
238.458	109.617
241.351	129.584
244.244	144.358
247.136	150.591
250.029	143.137
252.922	134.977
255.815	131.666
258.707	129.814
261.6	116.864
264.493	95.6998
267.385	69.9452
270.278	42.6439
273.171	24.1849
276.063	16.6213
278.956	14.9938
281.849	12.1532
284.741	7.22391
287.634	5.00543
290.527	3.90827
293.42	3.50239
296.312	2.83263
299.205	1.27409
302.098	1.76198
304.99	2.65794
307.883	2.70814
310.776	0.172211
313.668	2.70854
316.561	3.69079
319.454	1.11909
322.347	1.20814
325.239	0.993507
328.132	9.32815
331.025	24.6904
333.917	48.7286
336.81	70.435
339.703	89.9255
342.596	114.009
345.488	137.632
348.381	163.155
351.274	179.747
354.166	160.143
357.059	121.993
359.952	105.856
362.844	108.315
365.737	119.406
368.63	132.684
371.522	140.276
374.415	142.209
377.308	139.546
380.201	136.225
383.093	126.026
385.986	108.512
388.879	84.6752
391.771	56.2412
394.664	30.9746
397.557	14.707
400.45	5.93576
403.342	1.92274
406.235	1.12624
409.128	3.05926
412.02	3.22083
414.913	1.62022
417.806	1.19915
420.698	4.5477
423.591	7.56543
426.484	7.90646
429.377	5.96864
432.269	5.99909
435.162	5.36256
438.055	4.28737
440.947	6.26961
443.84	14.7653
446.733	30.0872
449.625	48.0962
452.518	66.9138
455.411	87.3977
458.303	107.733
461.196	131.389
464.089	143.468
466.982	135.506
469.874	121.487
472.767	104.854
475.66	88.7453
478.552	78.1885
481.445	72.04
484.338	70.852
487.231	73.3029
490.123	81.0892
493.016	91.8839
495.909	103.447
498.801	113.657
501.694	121.324
504.587	118.525
507.479	102.47
510.372	69.9813
513.265	39.6522
516.158	18.0751
519.05	9.76214
521.943	7.47814
524.836	14.0633
527.728	23.4724
530.621	36.3366
533.514	53.2448
536.406	69.2565
539.299	83.4601
542.192	94.1857
545.085	95.6108
547.977	84.7059
550.87	67.3399
553.763	44.6557
556.655	26.201
559.548	13.1882
562.441	4.94181
565.333	0.280487
568.226	2.42864
571.119	3.18397
574.011	2.8216
576.904	1.35984
579.797	0.358135
582.69	2.17556
585.582	4.76807
588.475	4.75609
591.368	5.52112
594.26	4.18257
597.153	4.10553
600.046	4.14924
602.938	4.51051
605.831	4.41663
608.724	3.58554
611.616	3.45949
614.509	3.67854
617.402	4.10334
620.295	4.25079
623.187	4.54787
626.08	4.76993
628.973	4.42324
631.865	2.79733
634.758	3.42327
637.651	3.12371
640.543	3.8564
643.436	3.47105
646.329	4.22162
649.222	5.02869
652.114	6.06654
655.007	5.88425
657.9	5.84935
660.792	6.53457
663.685	5.42942
666.578	5.60728
669.471	5.01969
672.363	4.29101
675.256	3.81497
678.149	3.15578
681.041	2.65046
683.934	2.15978
686.827	2.22446
689.719	1.38303
692.612	0.600449
695.505	0.026691
698.398	0.098747
701.29	0.006172
704.183	1.30964
707.076	1.23021
709.968	0.321346
712.861	0.752857
715.754	1.16684
718.646	2.95352
721.539	5.13964
724.432	8.03792
727.324	11.8789
730.217	17.4541
733.11	22.1848
736.003	26.1674
738.895	29.7173
741.788	29.7186
744.681	28.9132
747.573	23.5603
750.466	17.5538
753.359	12.2794
756.251	6.70704
759.144	2.86995
762.037	0.533218
764.93	1.76741
767.822	2.91398
770.715	2.98341
773.608	0.427437
776.5	2.32578
779.393	7.24427
782.286	13.826
785.178	25.8127
788.071	40.991
790.964	59.8409
793.857	80.4208
796.749	101.584
799.642	122.415
802.535	135.068
805.427	136.69
808.32	127.8
811.213	111.155
814.106	94.5156
816.998	84.1413
819.891	80.0991
822.784	76.5192
825.676	69.5439
828.569	67.7332
831.462	76.8737
834.354	101.9
837.247	147.053
840.14	224.022
843.033	324.831
845.925	430.619
848.818	529.13
851.711	604.988
854.603	619.919
857.496	539.877
860.389	393.846
863.281	263.122
866.174	179.102
869.067	133.232
871.96	104.113
874.852	83.3165
877.745	59.2484
880.638	38.5642
883.53	25.5244
886.423	17.2064
889.316	11.2996
892.208	7.52309
895.101	4.7589
897.994	2.07305
900.886	0.711868
903.779	0.312157
906.672	0.603985
909.565	0.999504
912.457	0.909317
915.35	1.33909
918.243	0.972321
921.135	1.24427
924.028	1.19664
926.921	0.26376
929.813	0.186249
932.706	0.28104
935.599	0.907978
938.492	1.66276
941.384	2.38145
944.277	2.51918
947.17	3.1496
950.062	3.7328
952.955	4.97078
955.848	5.06346
958.74	5.65545
961.633	6.30887
964.526	7.0769
967.419	7.44453
970.311	7.07258
973.204	7.82712
976.097	6.97606
978.989	6.9498
981.882	6.01535
984.775	5.52067
987.668	4.52116
990.56	4.95384
993.453	4.00096
996.346	3.89315
999.238	3.51287
1002.13	3.10352
1005.02	2.508
1007.92	2.78267
1010.81	2.72453
1013.7	1.95585
1016.59	2.05851
1019.49	2.3392
1022.38	1.48108
1025.27	1.83123
1028.16	1.62957
1031.06	1.00868
1033.95	0.721411
1036.84	0.565481
1039.74	0.881704
1042.63	0.876701
1045.52	1.04165
1048.41	0.624943
1051.31	1.06813
1054.2	0.683189
1057.09	0.538042
1059.98	1.08256
1062.88	0.982122
1065.77	2.05399
1068.66	1.21616
1071.56	0.991335
1074.45	0.85745
1077.34	1.93156
1080.23	1.03876
1083.13	0.910276
1086.02	1.45012
1088.91	1.16861
1091.81	1.32097
1094.7	0.788939
1097.59	1.12672
1100.48	0.439991
1103.38	0.816925
1106.27	0.424187
1109.16	0.250767
1112.05	0.098497
1114.95	0.063263
1117.84	0.088703
1120.73	0.438999
1123.62	0.191187
1126.52	0.468254
1129.41	0.10129
1132.3	0.251352
1135.19	0.59758
1138.09	0.271185
1140.98	0.515219
1143.87	0.705631
1146.77	0.022696
1149.66	0.667536
1152.55	0.622446
1155.44	0.876862
1158.34	0.657633
1161.23	0.45941
1164.12	0.561375
1167.02	0.36974
1169.91	0.358768
1172.8	0.338846
1175.69	0.383854
1178.59	0.159067
1181.48	0.034485
1184.37	0.257093
1187.26	0.177261
1190.16	0.111938
1193.05	0.249302
1195.94	0.310614
1198.84	0.505333
1201.73	0.218462
1204.62	0.448854
1207.51	0.374531
1210.4	0.274298
1213.3	0.551649
1216.19	0.693827
1219.08	0.819347
1221.98	1.3092
1224.87	0.839884
1227.76	0.754271
1230.65	0.876125
1233.55	0.613802
1236.44	0.963718
1239.33	0.853411
1242.22	0.762243
1245.12	0.911373
1248.01	0.63471
1250.9	0.742043
1253.8	0.730726
1256.69	0.554075
1259.58	0.792759
1262.47	0.406197
1265.37	0.213936
1268.26	0.362928
1271.15	0.544556
1274.05	0.533697
1276.94	0.463896
1279.83	0.03788
1282.72	0.13126
1285.62	0.14432
