Measurement: Raman, 532 nm, unoriented, Raman Data Processed
Mineral: Carnotite
Rruff sample: R070647
Ideal chemistry: K_2_(UO_2_)_2_(VO_4_)_2_3H_2_O
Locality: Anderson mine, Yavapai County, Arizona, USA
Source: Lloyd Twaites
Description: Orange blocky crystals associated with yellow platy weeksite, R050330
Raman shift (cm-1)	intensity
142.305	0
145.197	62.9424
148.09	126.811
150.983	45.2969
153.875	52.9414
156.768	86.8955
159.661	297.99
162.554	348.114
165.446	560.66
168.339	800.661
171.232	1005.17
174.124	1263.49
177.017	1194.97
179.91	1087.08
182.803	944.8
185.695	936.481
188.588	904.788
191.481	1325.74
194.373	1571.66
197.266	1611.4
200.159	1376.91
203.051	1137.19
205.944	1028.98
208.837	1162.82
211.729	1442.37
214.622	1746.49
217.515	2204.88
220.407	2752.95
223.3	3146.25
226.193	3605.22
229.086	3770.72
231.978	3065.15
234.871	2175.4
237.764	1734.59
240.656	1577.68
243.549	1733.88
246.442	2123.84
249.334	2519.73
252.227	2693.86
255.12	2798.55
258.013	2413.57
260.905	2075.92
263.798	1834.25
266.691	1771.56
269.583	1612.07
272.476	1504.69
275.369	1082.96
278.262	675.622
281.154	317.887
284.047	6.41797
286.94	206.823
289.832	255.364
292.725	138.263
295.618	26.4707
298.51	135.611
301.403	462.834
304.296	916.534
307.188	1335.34
310.081	1861.23
312.974	2193.68
315.867	2451.77
318.759	2246.29
321.652	1609.52
324.545	920.659
327.437	591.316
330.33	607.928
333.223	764.351
336.115	916.429
339.008	1325.04
341.901	1863.56
344.794	2419.19
347.686	3122.32
350.579	3993.08
353.472	4840.82
356.364	5650.42
359.257	6241.71
362.15	6848.27
365.043	7470.35
367.935	8309.49
370.828	8816.47
373.721	8983.88
376.613	8114.87
379.506	6619.34
382.399	4751.07
385.291	3361.23
388.184	2581.51
391.077	2034.26
393.969	1954.44
396.862	2141.61
399.755	2404.47
402.648	2939.05
405.54	3328.87
408.433	3719.01
411.326	3397.48
414.218	2534
417.111	1659.4
420.004	896.775
422.897	463.617
425.789	168.477
428.682	27.0537
431.575	65.9248
434.467	87.2314
437.36	108.458
440.253	113.993
443.145	51.1885
446.038	10.0381
448.931	3.8457
451.824	16.0283
454.716	83.5117
457.609	151.856
460.502	310.846
463.394	412.012
466.287	609.305
469.18	719.532
472.072	1001.51
474.965	1179.22
477.858	1252.16
480.75	1348.77
483.643	1381.05
486.536	1236.45
489.429	1004.34
492.321	793.716
495.214	688.188
498.107	676.622
500.999	748.132
503.892	663.071
506.785	679.929
509.678	454.49
512.57	485.417
515.463	447.504
518.356	545.887
521.248	691.602
524.141	907.021
527.034	1230.49
529.926	1623.68
532.819	1964.09
535.712	2331.03
538.604	2189.05
541.497	1915.66
544.39	1374.3
547.283	776.987
550.175	364.598
553.068	111.084
555.961	65.5869
558.853	40.959
561.746	61.1836
564.639	211.607
567.531	607.567
570.424	703.428
573.317	1018.67
576.21	1313.38
579.102	1504.47
581.995	1626.69
584.888	1522.8
587.78	1271.82
590.673	935.606
593.566	758.862
596.458	578.297
599.351	491.429
602.244	352.481
605.136	213.929
608.029	260.049
610.922	142.645
613.815	193.177
616.707	170.125
619.6	214.67
622.493	253.622
625.385	345.766
628.278	430.654
631.171	618.879
634.063	752.426
636.956	841.994
639.849	905.953
642.742	721.157
645.634	545.043
648.527	355.142
651.42	219.096
654.312	19.0732
657.205	62.9111
660.098	119.266
662.99	156.196
665.883	97.7217
668.776	20.1611
671.669	20.9609
674.561	14.6592
677.454	77.085
680.347	192.675
683.239	352.398
686.132	485.195
689.025	540.037
691.918	791.662
694.81	1013.71
697.703	1521.56
700.596	2044.55
703.488	2684.68
706.381	3582.68
709.274	4750.05
712.166	6373.08
715.059	8391.52
717.952	11116.9
720.845	14904.9
723.737	19805.2
726.63	25265.8
729.523	30743.3
732.415	34891.6
735.308	35580
738.201	32433.2
741.093	26897.7
743.986	21474.4
746.879	16643.5
749.771	13223.7
752.664	10369.1
755.557	8277.06
758.45	6472.51
761.342	5272.48
764.235	4346.45
767.128	3429.25
770.02	2587.7
772.913	1999.77
775.806	1350.35
778.698	931.308
781.591	503.832
784.484	231.821
787.377	70.6055
790.269	99.3106
793.162	60.1846
796.055	141.106
798.947	383.905
801.84	828.056
804.733	1434.82
807.625	2348.99
810.518	3472.69
813.411	4806.08
816.304	5826.94
819.196	6388.76
822.089	5946.91
824.982	4691.77
827.874	3265.07
830.767	2262.33
833.66	1605.59
836.552	1024.43
839.445	701.019
842.338	515.993
845.231	433.695
848.123	359.913
851.016	262.026
853.909	151.597
856.801	139.027
859.694	47.4453
862.587	14.0645
865.479	0.810547
868.372	89.1504
871.265	76.333
874.158	123.733
877.05	10.3086
879.943	75.5254
882.836	0.561523
885.728	75.291
888.621	44.6338
891.514	17.0605
894.406	43.3965
897.299	104.28
900.192	166.78
903.085	105.461
905.977	195.748
908.87	172.954
911.763	254.269
914.655	360.077
917.548	399.658
920.441	492.068
923.333	560.526
926.226	605.885
929.119	744.218
932.011	820.033
934.904	1050.61
937.797	1259.85
940.69	1550.72
943.582	1689.24
946.475	2083.6
949.368	2516.06
952.26	2966.27
955.153	3612.53
958.046	4533.11
960.938	5464.59
963.831	6502.3
966.724	7780.23
969.617	9496.49
972.509	11466.5
975.402	13231.7
978.295	14229.6
981.187	12800.3
984.08	8352.25
986.973	4530.26
989.865	2441.59
992.758	1447.94
995.651	928.577
998.544	748.856
1001.44	527.313
1004.33	390.294
1007.22	228.928
1010.11	131.595
1013.01	103.84
1015.9	150.713
1018.79	30.1055
1021.68	41.5791
1024.58	0.891602
1027.47	34.7324
1030.36	35.9932
1033.26	46.7529
1036.15	34.5049
1039.04	61.7949
1041.93	22.291
1044.83	3.64453
1047.72	15.3789
1050.61	26.082
1053.51	22.6084
1056.4	16.1309
1059.29	9.10352
1062.18	84.6084
1065.08	111.061
1067.97	62.6172
1070.86	99.6025
1073.75	81.3545
1076.65	145.223
1079.54	186.66
1082.43	159.277
1085.33	110.934
1088.22	123.966
1091.11	169.912
1094	43.1387
1096.89	77.0693
1099.79	94.9697
1102.68	90.96
1105.57	89.9121
1108.47	102.022
1111.36	52.4863
1114.25	100.321
1117.14	105.798
1120.04	45.1035
1122.93	84.8467
1125.82	33.1934
1128.71	132.934
1131.61	39.999
1134.5	126.9
1137.39	131.922
1140.29	111.14
1143.18	85.4268
1146.07	55.9863
1148.96	79.7773
1151.86	37.8955
1154.75	112.218
1157.64	92.4336
1160.54	34.9629
1163.43	8.44531
1166.32	32.5137
1169.21	17.2012
1172.11	35.6397
1175	36.1611
1177.89	15.0771
1180.78	4.89746
1183.68	85.6856
1186.57	78.2295
1189.46	143.693
1192.35	66.5752
1195.25	10.4756
1198.14	52.6768
1201.03	50.2969
1203.92	76.7861
1206.82	122.642
1209.71	54.6816
1212.6	64.6543
1215.5	89.6982
1218.39	72.709
1221.28	54.4033
1224.17	59.456
1227.07	13.0654
1229.96	8.74414
1232.85	25.8477
1235.74	46.6065
1238.64	79.7334
1241.53	189.741
1244.42	35.9082
1247.32	125.361
1250.21	90.0234
1253.1	162.56
1255.99	34.9268
1258.89	1.43945
1261.78	102.861
1264.67	17.9961
1267.57	82.1836
1270.46	100.744
1273.35	77.1162
1276.24	95.9561
1279.13	91.2705
1282.03	3.08984
