Measurement: Raman, 785 nm, unoriented, Raman Data Processed
Mineral: Carnotite
Rruff sample: R070160
Ideal chemistry: K_2_(UO_2_)_2_(VO_4_)_2_3H_2_O
Locality: Montrose County, Colorado, USA
Source: James Shigley
Description: Yellow compact massive crust
Raman shift (cm-1)	intensity
166.146	0
169.039	97.0381
171.932	294.812
174.824	528.753
177.717	590.388
180.61	480.132
183.502	450.088
186.395	526.471
189.288	775.325
192.181	1058.89
195.073	1328.25
197.966	1191.75
200.859	693.818
203.751	342.35
206.644	85.2727
209.537	66.0896
212.429	70.178
215.322	29.1846
218.215	167
221.108	320.318
224	361.306
226.893	365.928
229.786	373.415
232.678	241.489
235.571	230.267
238.464	299.516
241.357	509.682
244.249	774.175
247.142	1222.53
250.035	1702.34
252.927	2077.65
255.82	2157.75
258.713	1792.79
261.605	1511.85
264.498	1380.87
267.391	1496.89
270.284	1579.76
273.176	1551.96
276.069	1150.06
278.962	595.394
281.854	186.192
284.747	87.3333
287.64	178.496
290.532	132.48
293.425	58.7632
296.318	159.182
299.211	464.809
302.103	949.526
304.996	1517.08
307.889	2167.73
310.781	2910.84
313.674	3680.8
316.567	4242.81
319.459	3906.13
322.352	2574.95
325.245	1250.83
328.137	531.648
331.03	233.966
333.923	167.063
336.816	269.384
339.708	594.668
342.601	951.681
345.494	1489.33
348.386	2214.11
351.279	3115.98
354.172	4336.11
357.065	5657.16
359.957	6854.79
362.85	7870.1
365.743	9210.84
368.635	10991.7
371.528	12706.8
374.421	13562.6
377.313	13102.5
380.206	10729.7
383.099	7725.56
385.991	5297.25
388.884	3798.28
391.777	3031.75
394.67	2759.61
397.562	2896.41
400.455	3289.06
403.348	3897.74
406.24	4857.3
409.133	5465.78
412.026	4924.72
414.918	3465.87
417.811	2098.88
420.704	1145.53
423.597	666.589
426.489	341.236
429.382	96.9768
432.275	20.8545
435.167	80.9929
438.06	87.6924
440.953	105.338
443.846	81.6118
446.738	83.5044
449.631	23.894
452.524	43.0537
455.416	80.1526
458.309	175.79
461.202	324.727
464.094	576.934
466.987	936.145
469.88	1356.22
472.772	1864.52
475.665	2376.55
478.558	2891.55
481.451	3214.95
484.343	3074.2
487.236	2447.74
490.129	1804.17
493.021	1283.48
495.914	1092
498.807	1045.8
501.7	1138.21
504.592	1163.16
507.485	1191.3
510.378	1105.58
513.27	983.539
516.163	946.142
519.056	943.783
521.948	1139.77
524.841	1338.21
527.734	1751.66
530.626	2263.94
533.519	2896.68
536.412	3318.99
539.305	3414.7
542.197	2950.59
545.09	2181.09
547.983	1415.09
550.875	811.252
553.768	432.432
556.661	238.844
559.553	191.347
562.446	215.609
565.339	343.869
568.232	525.063
571.124	731.398
574.017	1017.25
576.91	1359.05
579.802	1615.06
582.695	1673.08
585.588	1577.25
588.481	1339.48
591.373	1048.28
594.266	777.947
597.159	604.888
600.051	385.639
602.944	280.649
605.837	118.562
608.729	22.6047
611.622	62.1043
614.515	105.823
617.408	102.867
620.3	10.79
623.193	87.6226
626.086	275.065
628.978	530.793
631.871	801.99
634.764	985.56
637.656	1150.28
640.549	1199.8
643.442	1017.19
646.335	792.147
649.227	545.05
652.12	377.761
655.013	220.662
657.905	119.551
660.798	29.0713
663.691	12.0076
666.583	29.6882
669.476	15.6709
672.369	5.15503
675.261	8.90405
678.154	36.668
681.047	84.7048
683.94	134.671
686.832	207.03
689.725	236.669
692.618	264.008
695.51	404.657
698.403	501.548
701.296	698.786
704.188	939.319
707.081	1335.61
709.974	1865.27
712.867	2602.51
715.759	3677.54
718.652	5234.75
721.545	7571.84
724.437	10814.6
727.33	14823.8
730.223	19293.5
733.115	22891.1
736.008	23751.2
738.901	20790.8
741.794	16136.9
744.686	11816.7
747.579	8684.03
750.472	6472.24
753.364	4927.96
756.257	3718.73
759.15	2767.69
762.043	2053.44
764.935	1541.1
767.828	1147
770.721	864.963
773.613	603.154
776.506	404.44
779.399	261.564
782.291	166.926
785.184	41.4285
788.077	32.5115
790.97	35.0935
793.862	15.1099
796.755	16.042
799.648	29.3347
802.54	10.04
805.433	12.0173
808.326	98.4517
811.218	213.621
814.111	501.554
817.004	772.657
819.896	1164.07
822.789	1429.4
825.682	1299.97
828.575	984.688
831.467	681.56
834.36	459.545
837.253	306.705
840.145	232.225
843.038	204.12
845.931	157.869
848.823	144.105
851.716	124.59
854.609	139.064
857.502	110.355
860.394	63.3248
863.287	70.6021
866.18	18.9879
869.072	16.6061
871.965	27.7112
874.858	37.5704
877.75	12.8488
880.643	14.1099
883.536	1.73242
886.429	16.6542
889.321	4.20606
892.214	8.896
895.107	4.85071
898	20.5143
900.892	3.71216
903.785	3.09839
906.678	14.0886
909.57	38.0706
912.463	46.4978
915.356	22.4784
918.248	40.0382
921.141	28.7079
924.034	41.5336
926.927	53.312
929.819	68.1178
932.712	81.0663
935.605	102.247
938.497	89.5067
941.39	78.8859
944.283	100.711
947.175	113.782
950.068	142.09
952.961	183.512
955.854	243.205
958.746	298.48
961.639	374.843
964.532	452.947
967.424	669.732
970.317	926.138
973.21	1528.13
976.102	2336.53
978.995	3404.92
981.888	4225.4
984.78	2567.21
987.673	953.014
990.566	407.325
993.459	190.973
996.351	136.506
999.244	101.879
1002.14	47.4614
1005.03	60.5458
1007.92	64.7793
1010.82	41.5898
1013.71	36.2551
1016.6	23.6304
1019.49	57.7029
1022.39	20.2229
1025.28	25.5441
1028.17	49.1969
1031.06	0.602417
1033.96	29.3905
1036.85	3.26965
1039.74	15.8296
1042.63	8.79334
1045.53	23.0753
1048.42	12.2804
1051.31	2.80505
1054.2	34.8813
1057.1	25.3405
1059.99	20.5966
1062.88	11.4786
1065.78	25.598
1068.67	29.7855
1071.56	25.5226
1074.45	0.908081
1077.35	34.3021
1080.24	34.8287
1083.13	45.2504
1086.03	41.6362
1088.92	54.3232
1091.81	54.4257
1094.7	45.6375
1097.6	27.1567
1100.49	22.0709
1103.38	31.2895
1106.27	30.8937
1109.17	28.6023
1112.06	49.7783
1114.95	22.3505
1117.85	24.2726
1120.74	28.421
1123.63	19.6879
1126.52	33.3212
1129.42	30.63
1132.31	19.1046
1135.2	21.4133
1138.09	6.99707
1140.99	18.9758
1143.88	26.5016
1146.77	41.7889
1149.66	14.2711
1152.56	4.45667
1155.45	19.7983
1158.34	3.86511
1161.23	8.22485
1164.13	12.4374
1167.02	454.111
1169.91	228.981
1172.81	317.115
1175.7	550.1
1178.59	502.483
1181.48	367.525
1184.38	71.8472
1187.27	17.0312
1190.16	13.9514
1193.06	32.1036
1195.95	19.2272
1198.84	45.2026
1201.73	51.033
1204.63	27.7434
1207.52	38.0034
1210.41	26.8129
1213.3	23.4545
1216.2	5.98206
1219.09	16.4584
1221.98	18.1964
