Measurement: Raman, 785 nm, unoriented, Raman Data Processed
Mineral: Carnotite
Rruff sample: R070345
Ideal chemistry: K_2_(UO_2_)_2_(VO_4_)_2_3H_2_O
Locality: Pick's Delta Mine (Delta Mine; Pick's Mine), Delta, San Rafael District (San Rafael Swell), Emery County, Utah, USA
Source: Michael Scott
Description: Lemon-yellow fine-grained massive
Raman shift (cm-1)	intensity
158.625	0
161.517	13.1874
164.41	77.6974
167.303	146.458
170.195	126.417
173.088	68.7539
175.981	53.9628
178.873	51.6727
181.766	45.749
184.659	85.5557
187.552	128.137
190.444	188.395
193.337	178.159
196.23	212.341
199.122	173.514
202.015	123.416
204.908	121.048
207.8	95.2878
210.693	47.9182
213.586	70.3892
216.478	104.988
219.371	88.7495
222.264	179.865
225.157	276.978
228.049	334.846
230.942	377.975
233.835	419.467
236.727	398.898
239.62	316.148
242.513	232.105
245.405	264.873
248.298	326.76
251.191	425.438
254.084	512.779
256.976	517.023
259.869	424.908
262.762	334.319
265.654	229.113
268.547	113.046
271.44	113.165
274.332	66.137
277.225	44.7542
280.118	54.239
283.011	53.3667
285.903	44.5381
288.796	93.0635
291.689	274.498
294.581	429.888
297.474	663.011
300.367	955.45
303.26	1254.74
306.152	1469.47
309.045	1615.91
311.938	1408.43
314.83	1056.38
317.723	651.569
320.616	342.141
323.508	66.166
326.401	40.8999
329.294	59.2205
332.187	84.3049
335.079	184.726
337.972	395.717
340.865	562.763
343.757	822.169
346.65	1017.94
349.543	1321.18
352.435	1605.94
355.328	2084.06
358.221	2505.04
361.113	3132.17
364.006	3675
366.899	4245.94
369.792	4628.87
372.684	4676.77
375.577	4357.11
378.47	3617.92
381.362	2745.47
384.255	2005.54
387.148	1438.95
390.041	1097.35
392.933	872.865
395.826	776.526
398.719	773.112
401.611	817.124
404.504	963.445
407.397	1060.56
410.289	1132.03
413.182	1044.06
416.075	879.609
418.967	717.533
421.86	440.145
424.753	306.435
427.646	112.592
430.538	50.9898
433.431	20.9802
436.324	25.8939
439.216	52.0727
442.109	40.3867
445.002	47.6585
447.894	10.0189
450.787	75.1025
453.68	142.752
456.573	306.695
459.465	457.09
462.358	595.54
465.251	748.574
468.143	844.684
471.036	856.946
473.929	857.657
476.822	738.523
479.714	645.992
482.607	512.084
485.5	421.325
488.392	336.132
491.285	217.147
494.178	111.228
497.07	32.8384
499.963	0.053833
502.856	8.08203
505.748	66.3625
508.641	144.484
511.534	272.175
514.427	435.566
517.319	675.707
520.212	952.653
523.105	1184.08
525.997	1434.29
528.89	1578.66
531.783	1696.01
534.676	1523.56
537.568	1374.18
540.461	1092.62
543.354	816.087
546.246	597.516
549.139	402.448
552.032	320.849
554.924	260.969
557.817	305.892
560.71	371.781
563.602	472.024
566.495	570.633
569.388	659.142
572.281	724.74
575.173	718.839
578.066	710.471
580.959	643.792
583.851	520.954
586.744	461.214
589.637	382.823
592.529	313.679
595.422	216.954
598.315	200.834
601.208	155.892
604.1	92.1554
606.993	70.0618
609.886	22.3332
612.778	25.8438
615.671	52.825
618.564	59.8324
621.457	17.6921
624.349	27.2438
627.242	40.2788
630.135	111.913
633.027	192.141
635.92	270.307
638.813	381.914
641.705	470.186
644.598	619.372
647.491	686.766
650.384	740.141
653.276	719.542
656.169	627.828
659.062	516.345
661.954	359.856
664.847	272.362
667.74	185.207
670.632	129.083
673.525	63.3848
676.418	5.32629
679.311	1.00549
682.203	4.36401
685.096	62.8274
687.989	2.82483
690.881	2.05505
693.774	26.2435
696.667	70.3607
699.559	122.3
702.452	214.394
705.345	310.553
708.237	466.549
711.13	594.88
714.023	884.882
716.916	1144.25
719.808	1538.48
722.701	2052.92
725.594	2726.53
728.486	3597.43
731.379	4580.12
734.272	5592.06
737.164	6381.04
740.057	6952.37
742.95	7160.35
745.843	7108.52
748.735	6636.88
751.628	5893.7
754.521	5024.19
757.413	4176.7
760.306	3339.39
763.199	2663.11
766.091	2109.25
768.984	1673.87
771.877	1315.02
774.77	1076.42
777.662	831.601
780.555	621.369
783.448	469.169
786.34	297.237
789.233	196.77
792.126	118.539
795.019	42.7377
797.911	33.4946
800.804	14.9155
803.697	33.0919
806.589	7.42468
809.482	7.2699
812.375	117.145
815.267	280.683
818.16	446.448
821.053	645.011
823.946	774.883
826.838	874.539
829.731	862.698
832.624	699.233
835.516	600.175
838.409	481.778
841.302	375.367
844.194	323.358
847.087	274.494
849.98	274.936
852.872	241.313
855.765	190.807
858.658	138.982
861.551	100.596
864.443	73.7302
867.336	83.8364
870.229	21.4398
873.121	8.5379
876.014	7.10938
878.907	30.2119
881.799	6.72809
884.692	4.00971
887.585	2.62488
890.478	21.5554
893.37	3.45746
896.263	9.07623
899.156	37.6971
902.048	22.6913
904.941	19.6151
907.834	68.8404
910.726	56.2821
913.619	81.2199
916.512	67.4952
919.405	95.2899
922.297	95.7156
925.19	122.219
928.083	159.303
930.975	131.895
933.868	185.006
936.761	193.607
939.654	233.629
942.546	232.449
945.439	295.906
948.332	386.343
951.224	498.162
954.117	658.249
957.01	787.126
959.902	1026.15
962.795	1178.18
965.688	1309.96
968.581	1418.62
971.473	1294.42
974.366	1160.75
977.259	1005.78
980.151	821.169
983.044	645.779
985.937	462.466
988.829	301.451
991.722	219.733
994.615	169.007
997.508	110.301
1000.4	77.2978
1003.29	43.2642
1006.19	45.7911
1009.08	27.7101
1011.97	32.5643
1014.86	5.14728
1017.76	21.1117
1020.65	11.7286
1023.54	13.7186
1026.43	27.6589
1029.33	2.64484
1032.22	8.18591
1035.11	15.0279
1038.01	2.40485
1040.9	2.49976
1043.79	18.1895
1046.68	11.1703
1049.58	7.341
1052.47	5.23431
1055.36	5.16132
1058.25	25.8567
1061.15	28.9367
1064.04	29.358
1066.93	12.3855
1069.83	21.9283
1072.72	12.653
1075.61	9.58972
1078.5	21.5635
1081.4	30.5583
1084.29	10.9391
1087.18	19.211
1090.07	11.1664
1092.97	23.1421
1095.86	2.83737
1098.75	3.8334
1101.64	12.5556
1104.54	10.4855
1107.43	15.0739
1110.32	24.5569
1113.21	3.5654
1116.11	8.67502
1119	13.0416
1121.89	24.0393
1124.79	23.2637
1127.68	0.467133
1130.57	27.2573
1133.46	15.248
1136.36	13.7021
1139.25	18.1686
1142.14	13.5745
1145.04	13.2727
1147.93	34.4594
1150.82	12.6944
1153.71	2.50876
1156.61	6.80826
1159.5	17.8074
1162.39	11.0252
1165.28	21.1493
1168.18	11.7099
1171.07	42.7265
1173.96	24.2109
1176.86	18.6243
1179.75	12.5952
1182.64	18.482
1185.53	0.009186
1188.43	26.7435
1191.32	1.36075
1194.21	10.5341
1197.1	4.12433
1200	39.6061
1202.89	4.08142
1205.78	27.8183
1208.67	24.3248
1211.57	20.0076
1214.46	16.6194
1217.35	31.102
1220.24	10.2018
1223.14	11.8678
1226.03	21.6744
1228.92	15.3391
1231.82	10.716
1234.71	8.44205
1237.6	5.7966
1240.49	16.6543
