Measurement: Raman, 532 nm, unoriented, Raman Data Processed
Mineral: Carnotite
Rruff sample: R070160
Ideal chemistry: K_2_(UO_2_)_2_(VO_4_)_2_3H_2_O
Locality: Montrose County, Colorado, USA
Source: James Shigley
Description: Yellow compact massive crust
Raman shift (cm-1)	intensity
157.895	0
160.788	42.1621
163.681	313.818
166.574	1098.41
169.466	1729.9
172.359	2557.33
175.252	2833.16
178.144	2542.3
181.037	2066.34
183.93	1923.97
186.823	2061.96
189.715	2413.11
192.608	2894.79
195.501	3044.51
198.393	2485.37
201.286	1402.36
204.179	618.111
207.071	441.16
209.964	341.398
212.857	740.42
215.75	889.449
218.642	1155.06
221.535	1416.56
224.428	1534.01
227.32	1600.84
230.213	1533.97
233.106	1331.92
235.999	1457.22
238.891	1983.02
241.784	3038.58
244.677	4031.32
247.569	5352.53
250.462	6444.45
253.355	6926.82
256.247	5834.29
259.14	4670.62
262.033	3891.94
264.925	3561.04
267.818	3774.67
270.711	3750.57
273.604	3227.16
276.496	2002.12
279.389	787.394
282.282	195.391
285.174	308.617
288.067	464.846
290.96	397.75
293.853	252.336
296.745	325.519
299.638	1104.51
302.531	2197.11
305.423	3612.23
308.316	5117.1
311.209	6861.82
314.101	8018.4
316.994	8097.16
319.887	6451
322.779	3627.4
325.672	1628.27
328.565	695.535
331.458	539.875
334.35	841.594
337.243	1390.41
340.136	2641.65
343.028	3986.49
345.921	5753.48
348.814	8104.59
351.707	10593.2
354.599	13359.4
357.492	15724.8
360.385	17723.6
363.277	19990.7
366.17	23170.9
369.063	27088.4
371.955	29982.2
374.848	29694.4
377.741	25992.8
380.634	19862.8
383.526	14134
386.419	9988.74
389.312	7641.34
392.204	6374.46
395.097	6067.26
397.99	6716.99
400.882	7828.08
403.775	9340.59
406.668	10496.5
409.561	10578.1
412.453	8460.29
415.346	5472.53
418.239	3253.77
421.131	1913.75
424.024	1026.66
426.917	339.516
429.81	120.912
432.702	0.783203
435.595	122.912
438.488	250.33
441.38	225.277
444.273	252.654
447.166	245.644
450.058	53.1328
452.951	77.5781
455.844	122.381
458.736	264.865
461.629	724.086
464.522	1254.9
467.415	1911.16
470.307	2859.17
473.2	3886.36
476.093	4614.65
478.985	5182.86
481.878	5168.06
484.771	4233.36
487.663	3179.92
490.556	2256.73
493.449	1720.49
496.342	1563.07
499.234	1617.82
502.127	1634.24
505.02	1778.94
507.912	1600.25
510.805	1533.43
513.698	1410.17
516.591	1608.74
519.483	2147.72
522.376	2928.62
525.269	3971.37
528.161	5383.09
531.054	6935
533.947	7960.41
536.84	8421.03
539.732	7693.3
542.625	6097.24
545.518	4066.98
548.41	2477.64
551.303	1383.41
554.196	753.508
557.088	399.766
559.981	509.699
562.874	998.164
565.766	1566.81
568.659	2082.54
571.552	3083.4
574.445	4103.93
577.337	4743.52
580.23	5172.35
583.123	5217.59
586.015	4748.43
588.908	4053.82
591.801	3146.69
594.693	2335.07
597.586	1828.25
600.479	1196.17
603.372	756.357
606.264	421.246
609.157	80.0996
612.05	241.426
614.942	200.213
617.835	192.422
620.728	132.094
623.62	572.439
626.513	1220
629.406	1863.55
632.299	2494.45
635.191	2856.36
638.084	2942.79
640.977	2875.79
643.869	2380.8
646.762	1868.29
649.655	1399.85
652.548	696.424
655.44	427.998
658.333	47.582
661.226	63.4023
664.118	61.0195
667.011	120.377
669.904	83.8066
672.796	19.9141
675.689	112.441
678.582	307.775
681.475	519.957
684.367	655.852
687.26	1163.24
690.153	1481.9
693.045	2087.8
695.938	2719.65
698.831	3441.18
701.723	4677.74
704.616	6295.27
707.509	8375.84
710.402	11360
713.294	15661.6
716.187	21587.4
719.08	30384.4
721.972	42475.5
724.865	57759.6
727.758	74245.5
730.65	87932.3
733.543	94219.2
736.436	88744.8
739.329	73044.1
742.221	55857.8
745.114	41440.3
748.007	30896.5
750.899	23273
753.792	17826.4
756.685	13500.3
759.577	10335.9
762.47	7719.19
765.363	5923.3
768.256	4318.6
771.148	3352.04
774.041	2160.94
776.934	1627.55
779.826	929.492
782.719	605.688
785.612	122.875
788.505	87.0391
791.397	130.078
794.29	189.812
797.183	132.844
800.075	85.5039
802.968	98.4492
805.861	82.6211
808.753	766.07
811.646	1737.93
814.539	3363.5
817.432	5258.42
820.324	7046.4
823.217	7759.3
826.11	6842.32
829.002	5234.09
831.895	3899.03
834.788	2992.75
837.68	2383.93
840.573	1853.01
843.466	1545.51
846.359	1440.65
849.251	1310.58
852.144	1174.76
855.037	1178.48
857.929	848.996
860.822	541.297
863.715	567.973
866.607	325.488
869.5	289.113
872.393	257.672
875.285	152.922
878.178	212.08
881.071	259.002
883.964	58.2246
886.856	75.375
889.749	118.553
892.642	35.3008
895.534	118.402
898.427	80.8477
901.32	66.5254
904.212	49.6406
907.105	68.4785
909.998	52.9023
912.891	67.2949
915.783	118.59
918.676	73.6289
921.569	9.49609
924.462	0.087891
927.354	142.633
930.247	8.49414
933.14	1.17773
936.032	61.0254
938.925	40.1836
941.818	120.613
944.71	118.272
947.603	326.85
950.496	363.252
953.389	595.104
956.281	699.287
959.174	939.225
962.067	1113.93
964.959	1573.84
967.852	2348.83
970.745	3978.86
973.637	6529.39
976.53	9348.78
979.423	11068.8
982.316	9930.62
985.208	4958.4
988.101	1859.68
990.994	834.502
993.886	518.191
996.779	348.592
999.672	248.504
1002.56	206.668
1005.46	194.506
1008.35	24.7207
1011.24	215.947
1014.13	26.4355
1017.03	100.559
1019.92	45.1582
1022.81	37.9844
1025.71	66.8125
1028.6	22.8438
1031.49	71.6738
1034.38	58.2539
1037.28	3.85938
1040.17	106.389
1043.06	168.897
1045.95	74.7012
1048.85	90.9531
1051.74	225.807
1054.63	97.75
1057.53	136.965
1060.42	207.769
1063.31	321.725
1066.2	169.781
1069.1	142.732
1071.99	121.699
1074.88	238.943
1077.78	277.84
1080.67	284.816
1083.56	220.992
1086.45	368.527
1089.35	305.565
1092.24	284.221
1095.13	365.65
1098.02	165.924
1100.92	323.91
1103.81	282.406
1106.7	171.305
1109.59	192.93
1112.49	148.404
1115.38	97.3711
1118.27	72.3613
1121.16	14.6309
1124.06	157.838
1126.95	205.961
1129.84	115.428
1132.74	42.248
1135.63	135.008
1138.52	68.3906
1141.41	155.062
1144.31	108.879
1147.2	160.715
1150.09	115.99
1152.98	70.8125
1155.88	110.627
1158.77	85.2324
1161.66	134.965
1164.56	118.35
1167.45	80.2949
1170.34	104.068
1173.23	74.6543
1176.13	105.693
1179.02	57.4062
1181.91	143.756
1184.81	26.7363
1187.7	129.859
1190.59	28.6582
1193.48	96.7481
1196.38	170.041
1199.27	95.3359
1202.16	119.072
1205.05	126.049
1207.95	68.6582
1210.84	92.1836
1213.73	99.2109
1216.62	152.455
1219.52	121.799
1222.41	52.248
1225.3	33.5938
1228.19	135.609
1231.09	15.5156
1233.98	44.6094
1236.87	70.6582
1239.77	95.0234
1242.66	32.4863
1245.55	77.3164
1248.44	43.9375
1251.34	42.8613
1254.23	120.879
1257.12	84.0332
1260.02	5.39844
1262.91	118.846
1265.8	93.5762
1268.69	183.744
1271.59	155.678
1274.48	137.029
1277.37	149.416
1280.26	2.51562
1283.16	107.176
1286.05	74.5195
1288.94	60.3809
1291.84	138.609
1294.73	19.9727
