Measurement: Raman, 780 nm, unoriented, Raman Data Processed
Mineral: Carnotite
Rruff sample: R070647
Ideal chemistry: K_2_(UO_2_)_2_(VO_4_)_2_3H_2_O
Locality: Anderson mine, Yavapai County, Arizona, USA
Source: Lloyd Twaites
Description: Orange blocky crystals associated with yellow platy weeksite, R050330
Raman shift (cm-1)	intensity
121.934	0
125.309	246.344
128.684	384.551
132.059	283.707
135.433	9.34766
138.808	6.97559
142.183	44.4658
145.558	41.6406
148.933	28.9678
152.307	90.6455
155.682	34.9238
159.057	159.923
162.432	776.134
165.807	1479.33
169.181	2426.97
172.556	3333.45
175.931	3830.15
179.306	3855.38
182.681	3936.41
186.055	4175.57
189.43	4701.52
192.805	5543.73
196.18	6593.11
199.555	6282.6
202.93	4991.51
206.304	4001.18
209.679	3778.71
213.054	4462.9
216.429	5629.22
219.804	6765.35
223.179	7693.29
226.553	8210.71
229.928	8391.97
233.303	6290.17
236.678	4119.6
240.053	2964.35
243.427	3042.95
246.802	3582.53
250.177	4518.23
253.552	5251.42
256.927	5289.77
260.301	4653.65
263.676	4125.42
267.051	3908.82
270.426	3753.17
273.801	3273.14
277.176	2424.32
280.55	1250.97
283.925	385.777
287.3	247.659
290.675	560.138
294.05	430.589
297.425	101.061
300.799	474.11
304.174	1565.46
307.549	2885.65
310.924	4382.45
314.299	5874.99
317.673	6595.09
321.048	5414.33
324.423	3204.13
327.798	1563.32
331.173	975.469
334.548	1019.58
337.922	1603.43
341.297	2644.74
344.672	4073.41
348.047	5832.2
351.421	7675.33
354.796	10017.4
358.171	12392.5
361.546	14665.3
364.921	16770.2
368.296	19602.1
371.67	21952.6
375.045	22985.4
378.42	20676.8
381.795	15390.3
385.17	10188.8
388.545	6736.98
391.919	4964.01
395.294	4806
398.669	5697.2
402.044	6894.84
405.419	8740.54
408.793	10188.1
412.168	9817.88
415.543	7027.32
418.918	4085.63
422.293	1972.88
425.668	785.928
429.042	507.418
432.417	76.1992
435.792	212.089
439.167	250.916
442.542	147.383
445.916	126.124
449.291	17.561
452.666	49.4033
456.041	131.004
459.416	305.973
462.791	624.292
466.165	965.482
469.54	1429.42
472.915	1914.75
476.29	2409.47
479.665	2908.54
483.039	3183.47
486.414	2961.96
489.789	2574.95
493.164	2212.84
496.539	2043.04
499.913	2055.17
503.288	2215.32
506.663	2257.23
510.038	1838.14
513.413	1391.58
516.788	1190.45
520.162	1228.71
523.537	1532.99
526.912	2309.68
530.287	3214.55
533.662	4337.18
537.036	5214.18
540.411	5251.58
543.786	4245.64
547.161	2665.31
550.536	1314.02
553.91	493.813
557.285	10.9678
560.66	95.916
564.035	26.4443
567.41	424.407
570.785	902.061
574.159	1603.78
577.534	2268.06
580.909	2767.82
584.284	2881.7
587.659	2492
591.034	1839.87
594.408	1235.68
597.783	937.735
601.158	633.148
604.533	465.856
607.908	312.671
611.282	288.112
614.657	236.565
618.032	232.007
621.407	282.751
624.782	372.688
628.157	611.553
631.531	940.119
634.906	1260.54
638.281	1514.81
641.656	1484.95
645.031	1216.6
648.405	782.302
651.78	415.479
655.155	87.5864
658.53	33.3662
661.905	145.749
665.279	184.916
668.654	140.476
672.029	87.7837
675.404	33.2495
678.779	213.461
682.154	356.5
685.528	394.371
688.903	451.496
692.278	481.084
695.653	870.527
699.028	1156.66
702.403	1818.82
705.777	2626.65
709.152	3784.04
712.527	5446.77
715.902	7683.51
719.277	11167.7
722.651	16274.3
726.026	23392.8
729.401	32307.4
732.776	40568.4
736.151	43885.4
739.525	39704.8
742.9	31057
746.275	22986.5
749.65	16996.4
753.025	12774.7
756.399	9562.67
759.774	7288.12
763.149	5709.08
766.524	4405.17
769.899	3284.95
773.274	2310.87
776.648	1529.57
780.023	858.514
783.398	447.279
786.773	184.65
790.148	61.0762
793.523	39.123
796.897	159.801
800.272	654.044
803.647	1282.46
807.022	2593.94
810.397	4391.99
813.771	6627.63
817.146	8724.58
820.521	9419.79
823.896	8142.11
827.271	5470.22
830.645	3284.42
834.02	1878.71
837.395	1039.73
840.77	622.698
844.145	345.094
847.519	152.054
850.894	140.162
854.269	55.1035
857.644	3.896
861.019	26.2617
864.394	53.3579
867.768	80.2305
871.143	104.844
874.518	126.054
877.893	55.2739
881.268	2.50781
884.643	24.6538
888.017	57.5523
891.392	115.732
894.767	122.444
898.142	118.008
901.517	178.421
904.891	197.608
908.266	290.85
911.641	290.426
915.016	432.23
918.391	543.286
921.765	586.193
925.14	731.353
928.515	824.638
931.89	973.34
935.265	1210.38
938.64	1464.55
942.014	1791.09
945.389	2110.43
948.764	2521.32
952.139	3188.16
955.514	3962.98
958.889	5055.16
962.263	6311.86
965.638	7757.06
969.013	9582.5
972.388	12284.3
975.763	15708.4
979.137	18374.3
982.512	16608.1
985.887	9787.33
989.262	4655.05
992.637	2316.8
996.011	1366.87
999.386	795.726
1002.76	568.423
1006.14	347.153
1009.51	215.57
1012.89	135.965
1016.26	68.3066
1019.63	28.3411
1023.01	25.4439
1026.38	9.64185
1029.76	6.34644
1033.13	37.7795
1036.51	30.0613
1039.88	6.97803
1043.26	15.3999
1046.63	21.6148
1050.01	5.9729
1053.38	16.9273
1056.76	44.8777
1060.13	38.8472
1063.51	11.9146
1066.88	8.37329
1070.26	77.7087
1073.63	57.5044
1077.01	45.7903
1080.38	79.9502
1083.76	106.213
1087.13	128.603
1090.51	98.3088
1093.88	51.0608
1097.26	52.8196
1100.63	19.7192
1104.01	39.7761
1107.38	24.2986
1110.76	43.77
1114.13	27.917
1117.51	6.26514
1120.88	24.3875
1124.26	31.3259
1127.63	21.4209
1131	30.4116
1134.38	11.1992
1137.75	10.0369
1141.13	21.304
1144.5	19.6975
1147.88	14.1623
1151.25	36.1748
1154.63	21.9065
1158	30.1863
1161.38	22.5334
1164.75	1.22046
1168.13	16.8189
1171.5	3.07227
1174.88	55.9399
1178.25	33.2976
1181.63	48.583
1185	0.429199
1188.38	18.6084
1191.75	39.3904
1195.13	13.283
1198.5	12.8318
1201.88	15.8948
1205.25	27.9246
1208.62	16.4021
1212	144.081
1215.38	33.0418
1218.75	33.3503
1222.12	40.6296
1225.5	57.7202
1228.87	17.1052
1232.25	2.52173
1235.62	30.3962
1239	44.9253
1242.37	30.9346
1245.75	26.678
1249.12	13.9309
1252.5	40.5784
1255.87	34.6333
1259.25	30.6807
1262.62	18.7961
1266	12.8557
1269.37	24.3845
1272.75	16.8474
1276.12	11.4365
1279.5	8.95727
