Measurement: Raman, 532 nm, unoriented, Raman Data Processed
Mineral: Carnotite
Rruff sample: R070345
Ideal chemistry: K_2_(UO_2_)_2_(VO_4_)_2_3H_2_O
Locality: Pick's Delta Mine (Delta Mine; Pick's Mine), Delta, San Rafael District (San Rafael Swell), Emery County, Utah, USA
Source: Michael Scott
Description: Lemon-yellow fine-grained massive
Raman shift (cm-1)	intensity
150.144	0
153.519	70.8223
156.894	209.684
160.268	272.899
163.643	288.145
167.018	337.099
170.393	230.273
173.768	206.847
177.143	178.49
180.517	186.984
183.892	185.953
187.267	229.831
190.642	257.44
194.017	222.446
197.391	138.281
200.766	132.402
204.141	49.5732
207.516	53.2705
210.891	123.874
214.266	119.812
217.64	296.105
221.015	458.618
224.39	675.804
227.765	858.286
231.14	1032.11
234.514	1025.8
237.889	1013.68
241.264	1079.36
244.639	1277.39
248.014	1627.7
251.388	1906.88
254.763	1905.81
258.138	1613.29
261.513	1350.54
264.888	901.263
268.263	738.96
271.637	493.473
275.012	207.495
278.387	0.399902
281.762	129.578
285.137	178.693
288.512	29.3149
291.886	155.736
295.261	623.913
298.636	1182.56
302.011	1830.59
305.386	2475.7
308.76	2856.67
312.135	2713.44
315.51	2044.94
318.885	1147.83
322.26	530.423
325.635	172.338
329.009	109.23
332.384	346.109
335.759	830.854
339.134	1277.49
342.509	1857.31
345.883	2443.58
349.258	3112.98
352.633	3903.18
356.008	4962.6
359.383	6264.16
362.757	7555.12
366.132	8715.37
369.507	9321.16
372.882	8757.96
376.257	7267.49
379.632	5364.56
383.006	3727.26
386.381	2536.52
389.756	1818.58
393.131	1533.18
396.506	1398.56
399.88	1513.86
403.255	1791.77
406.63	1980.58
410.005	2053.24
413.38	1779.76
416.755	1282.08
420.129	783.7
423.504	466.766
426.879	198.188
430.254	57.4058
433.629	66.9849
437.003	132.138
440.378	172.89
443.753	85.5293
447.128	29.1548
450.503	91.9351
453.878	273.616
457.252	491.538
460.627	849.69
464.002	1097.07
467.377	1339.29
470.752	1342.12
474.127	1304.86
477.501	1136.4
480.876	917.994
484.251	617.943
487.626	466.435
491.001	269.079
494.375	172.595
497.75	148.755
501.125	175.253
504.5	305.86
507.875	548.972
511.25	1122
514.624	1595.44
517.999	2280.36
521.374	2887.64
524.749	3535.82
528.124	3995.28
531.498	4021.69
534.873	3714.24
538.248	3049.27
541.623	2245.7
544.998	1580.99
548.372	1071.09
551.747	903.727
555.122	837.428
558.497	978.815
561.872	1247.01
565.247	1464.83
568.621	1736.77
571.996	1862.72
575.371	1924.12
578.746	1750.28
582.121	1572.42
585.495	1341.56
588.87	1100.53
592.245	839.027
595.62	707.391
598.995	526.664
602.37	318.789
605.744	155.612
609.119	0.166992
612.494	31.1436
615.869	126.861
619.244	90.1299
622.619	11.6543
625.993	100.719
629.368	255.285
632.743	532.832
636.118	713.723
639.493	1063.11
642.867	1357.04
646.242	1562.6
649.617	1761.7
652.992	1770.31
656.367	1543.19
659.741	1130.79
663.116	844.898
666.491	456.977
669.866	162.675
673.241	4.4082
676.616	51.6885
679.99	116.128
683.365	89.9814
686.74	30.9795
690.115	231.637
693.49	512.812
696.865	909.965
700.239	1394.48
703.614	2101.66
706.989	3026.89
710.364	4126.15
713.739	5845.72
717.113	8017.8
720.488	11154.3
723.863	15135
727.238	19975.3
730.613	25423.8
733.987	30094.5
737.362	33426.5
740.737	34381.1
744.112	32735.5
747.487	28853.5
750.862	23874.9
754.236	18968.2
757.611	14780.9
760.986	11199.1
764.361	8409.31
767.736	6362.56
771.111	4768.77
774.485	3501.49
777.86	2409.56
781.235	1623.58
784.61	1057.39
787.985	463.696
791.359	170.356
794.734	92.6484
798.109	153.288
801.484	123.84
804.859	130.245
808.234	677.173
811.608	1341.62
814.983	2418.79
818.358	3353.29
821.733	3846.22
825.108	3977.58
828.482	3615.21
831.857	3025.42
835.232	2395.22
838.607	1881.6
841.982	1528.11
845.356	1291.99
848.731	1012.9
852.106	849.097
855.481	677.555
858.856	528.857
862.231	383.083
865.605	301.481
868.98	171.988
872.355	65.6289
875.73	65.4019
879.105	20.3916
882.48	50.0625
885.854	9.36426
889.229	21.1289
892.604	42.1191
895.979	57.0869
899.354	24.7144
902.729	79.7539
906.103	86.7529
909.478	165.009
912.853	154.664
916.228	196.46
919.602	260.629
922.977	299.354
926.352	383.748
929.727	444.301
933.102	507.603
936.477	676.455
939.851	812.364
943.226	822.551
946.601	1075.57
949.976	1312.03
953.351	1734.63
956.726	2164.61
960.1	2677.41
963.475	3256.42
966.85	3702
970.225	3808.98
973.6	3635.24
976.974	3147.26
980.349	2458.66
983.724	1727.5
987.099	1022.62
990.474	700.029
993.848	445.171
997.223	304.856
1000.6	230.89
1003.97	194.885
1007.35	105.943
1010.72	92.3042
1014.1	58.2353
1017.47	17.9775
1020.85	22.6582
1024.22	1.29883
1027.6	11.8496
1030.97	22.3315
1034.35	31.272
1037.72	2.02978
1041.1	20.6523
1044.47	52.4878
1047.85	1.91846
1051.22	70.7305
1054.6	15.7744
1057.97	65.7632
1061.35	76.6055
1064.72	41.5147
1068.09	75.9795
1071.47	71.54
1074.84	88.6313
1078.22	113.421
1081.59	84.3027
1084.97	86.4536
1088.34	35.8355
1091.72	114.509
1095.09	90.2959
1098.47	54.9898
1101.84	60.7539
1105.22	36.7256
1108.59	88.3818
1111.97	53.7158
1115.34	48.0185
1118.72	75.1035
1122.09	58.3813
1125.47	64.0747
1128.84	66.4546
1132.22	74.5752
1135.59	37.2803
1138.97	23.9751
1142.34	20.3164
1145.71	36.2891
1149.09	58.1826
1152.46	0.400879
1155.84	12.7212
1159.21	60.1553
1162.59	58.3862
1165.96	16.8179
1169.34	24.4751
1172.71	64.2749
1176.09	87.4302
1179.46	54.8062
1182.84	3.34717
1186.21	24.5654
1189.59	61.7402
1192.96	77.2339
1196.34	62.5718
1199.71	54.9805
1203.09	31.5273
1206.46	60.9727
1209.84	75.9316
1213.21	56.5225
1216.59	59.6489
1219.96	73.2051
1223.34	46.7842
1226.71	25.1514
1230.09	19.3237
1233.46	71.3696
1236.84	27.5796
1240.21	41.1797
1243.59	1.28564
1246.96	13.0537
1250.34	24.7612
1253.71	114.225
1257.08	95.1309
1260.46	80.9556
1263.83	123.134
1267.21	43.7334
1270.58	54.0078
1273.96	73.4902
1277.33	14.3193
1280.71	70.646
1284.08	84.9604
1287.46	79.5478
1290.83	96.0469
1294.21	34.687
1297.58	66.5991
1300.96	32.0185
1304.33	54.0185
1307.71	37.7544
1311.08	32.624
1314.46	0.383789
