Measurement: Raman, 532 nm, unoriented, Raman Data Processed
Mineral: Carpathite
Rruff sample: R060660
Ideal chemistry: C_24_H_12_
Locality: Prospect 500 meters north of Picachos mine, south of New Idria, San Benito County, California, USA
Source: Michael Scott
Description: Aggregate of light tan colored platy crystals
Raman shift (cm-1)	intensity
91.7117	0
95.0865	186720
98.4613	174516
101.836	61922.5
105.211	21166.2
108.586	54406.2
111.961	196510
115.335	302057
118.71	324319
122.085	307450
125.46	290762
128.835	265000
132.209	230790
135.584	199598
138.959	178184
142.334	162078
145.709	150672
149.084	130464
152.458	239422
155.833	270618
159.208	258793
162.583	232736
165.958	210882
169.333	190425
172.707	179444
176.082	169195
179.457	158626
182.832	162830
186.207	148340
189.581	127760
192.956	114778
196.331	96355.2
199.706	82157.8
203.081	67326
206.455	51563.2
209.83	39708.2
213.205	34536.2
216.58	35197.2
219.955	26731.5
223.329	31696
226.704	35675
230.079	40249.8
233.454	63640.8
236.829	140102
240.204	173968
243.578	52073.2
246.953	25786.5
250.328	4568
253.703	5182.75
257.078	4127
260.452	3360
263.827	6307
267.202	3139.75
270.577	2165.75
273.952	8368.75
277.327	11419.2
280.701	11529
284.076	1981
287.451	10307.8
290.826	13972.2
294.201	13592.8
297.575	16354.2
300.95	27987
304.325	59276.5
307.7	78001.8
311.075	15115.2
314.45	2092.75
317.824	588.25
321.199	6274
324.574	2049.5
327.949	39.5
331.324	3312
334.699	1751.5
338.073	10724
341.448	15484
344.823	14065.8
348.198	17323.2
351.573	28248.5
354.947	71174
358.322	88606.8
361.697	129553
365.072	273297
368.447	574378
371.822	436925
375.196	40685
378.571	35306.5
381.946	29520
385.321	27659.2
388.696	22136.2
392.07	8382
395.445	1503
398.82	8651
402.195	15198.5
405.57	15427.8
408.945	4289.75
412.319	3232.75
415.694	15534
419.069	22036
422.444	23873.2
425.818	10633.2
429.193	10051
432.568	8799.75
435.943	25425.5
439.318	47376
442.693	97831.8
446.067	194162
449.442	294748
452.817	196160
456.192	77623.5
459.567	80178
462.942	102322
466.316	157407
469.691	290876
473.066	406613
476.441	573690
479.816	1.05191e+06
483.19	2.06686e+06
486.565	1.51804e+06
489.94	320599
493.315	61985
496.69	18415.8
500.065	4527.5
503.439	128
506.814	1881.75
510.189	3194.75
513.564	4573
516.939	1660.25
520.313	1904.5
523.688	553.25
527.063	2643.25
530.438	1159.25
533.813	3640.25
537.188	2200.5
540.562	1645.25
543.937	6326.5
547.312	12341
550.687	12300.8
554.062	7035
557.436	4003.5
560.811	9692.75
564.186	14303.5
567.561	8882.75
570.936	8317.25
574.311	11879
577.685	14550.5
581.06	18597
584.435	17916.5
587.81	21654.8
591.185	27983.2
594.559	27717.5
597.934	33082
601.309	39481.8
604.684	40304.8
608.059	43997
611.433	42554.5
614.808	30123.5
618.183	10767.2
621.558	1174.75
624.933	2012.25
628.308	980
631.682	2260
635.057	3123
638.432	978.75
641.807	1502
645.182	17654.5
648.557	26536.2
651.931	46744.8
655.306	85783.8
658.681	187508
662.056	61948.2
665.431	55256.2
668.805	22722
672.18	13578
675.555	12396.8
678.93	11238.8
682.305	14392
685.679	11002.2
689.054	15815
692.429	14572.8
695.804	6072.75
699.179	8068.75
702.553	10074.8
705.928	13564.2
709.303	15799
712.678	15893.8
716.053	17272
719.428	16599
722.802	21854.5
726.177	22072.2
729.552	20666.8
732.927	18382
736.302	16705.8
739.677	23840.5
743.051	20363.5
746.426	24437.2
749.801	24583.5
753.176	23890
756.551	19478.2
759.925	20116.2
763.3	26343.5
766.675	10216.8
770.05	5966.75
773.425	10112.8
776.799	3402.75
780.174	3090.5
783.549	3948.25
786.924	1922.75
790.299	3588.25
793.674	674
797.048	2147
800.423	1204.5
803.798	736.75
807.173	7187.75
810.548	4740
813.923	4994.25
817.297	4978.5
820.672	13696.5
824.047	8223.25
827.422	3183.5
830.797	11090
834.171	25595.8
837.546	28045
840.921	32280
844.296	24532.5
847.671	20232
851.045	33316.8
854.42	67367.2
857.795	23094
861.17	11905.8
864.545	6965.5
867.92	3603.25
871.294	9766
874.669	9493.5
878.044	7906.5
881.419	7152.75
884.794	6496.25
888.168	10971
891.543	14981.8
894.918	17133
898.293	11746.8
901.668	8606.75
905.043	7291.25
908.417	4331.5
911.792	110.75
915.167	1008.5
918.542	934
921.917	415.75
925.291	3550.75
928.666	1762
932.041	826.5
935.416	2630.5
938.791	941
942.165	11206
945.54	29034.5
948.915	54226
952.29	98660
955.665	27210.5
959.04	3005.5
962.414	424
965.789	3648
969.164	7849
972.539	4378
975.914	947
979.288	4261.5
982.663	7774
986.038	18902.5
989.413	30842.2
992.788	68559.2
996.163	66260.8
999.537	36197.8
1002.91	11999
1006.29	7891.25
1009.66	8140.25
1013.04	11045.5
1016.41	48776
1019.79	83968.2
1023.16	167457
1026.54	565282
1029.91	337057
1033.29	34261
1036.66	26281.8
1040.04	35696.2
1043.41	61976.8
1046.79	60901
1050.16	13821.5
1053.53	5734.75
1056.91	2890.5
1060.28	5124.5
1063.66	4035.75
1067.03	5597.25
1070.41	11530.2
1073.78	12023
1077.16	17352
1080.53	27725.5
1083.91	51132.2
1087.28	30388.8
1090.66	22792
1094.03	12296.5
1097.41	7233
1100.78	9084.5
1104.16	7740.75
1107.53	10646.8
1110.91	21450.5
1114.28	14763.5
1117.66	9294.75
1121.03	6412.25
1124.41	2572
1127.78	831.25
1131.15	4829.25
1134.53	4039.5
1137.9	8507
1141.28	10398.8
1144.65	8298
1148.03	6573.5
1151.4	10310
1154.78	23575
1158.15	19264.8
1161.53	11054.2
1164.9	10290
1168.28	10907
1171.65	7698.5
1175.03	5914
1178.4	7249.5
1181.78	10559.2
1185.15	13551.8
1188.53	18755
1191.9	18485.2
1195.28	11148.5
1198.65	7656.75
1202.03	4799.75
1205.4	9473.75
1208.78	12595.5
1212.15	24737.2
1215.53	54434.2
1218.9	141666
1222.28	191466
1225.65	135758
1229.03	34330.2
1232.4	13757.8
1235.78	5096
1239.15	1023.25
1242.52	220.5
1245.9	3522.25
1249.27	7109.75
1252.65	10882
1256.02	14782.2
1259.4	13425.2
1262.77	6533
1266.15	861.5
1269.52	1265.5
1272.9	1646.25
1276.27	1985.75
1279.65	6263.5
1283.02	17290.8
1286.4	37806.2
1289.77	67522.8
1293.15	57697.2
1296.52	11980.5
1299.9	537.5
