Measurement: Raman, 780 nm, unoriented, Raman Data Processed
Mineral: Carpholite
Rruff sample: R060608
Ideal chemistry: Mn^2+^Al_2_Si_2_O_6_(OH)_4_
Locality: Schlaggenwald, Bohemia, Czechoslovakia
Source: Michael Scott
Description: Tan colored radiating tufts of acicular crystals
Measured chemistry: (Mn^2+^_0.90_Fe^2+^_0.09_Mg_0.01_)_Î£=1_Al_2.00_Si_2.00_O_6_(OH)_4_
Raman shift (cm-1)	intensity
106.023	0
109.398	87.7019
112.773	353.688
116.148	207.351
119.523	3.02893
122.897	49.4775
126.272	60.6166
129.647	117.068
133.022	97.2198
136.397	32.1211
139.772	11.5615
143.146	15.2295
146.521	16.8102
149.896	8.16614
153.271	2.85217
156.646	13.2335
160.02	42.0342
163.395	92.9013
166.77	52.3375
170.145	2.71686
173.52	4.89508
176.894	3.89642
180.269	9.66461
183.644	8.33563
187.019	23.0973
190.394	58.3786
193.769	92.8203
197.143	135.104
200.518	175.092
203.893	228.922
207.268	296.237
210.643	350.19
214.018	275.798
217.392	136.576
220.767	51.8844
224.142	21.3748
227.517	14.9777
230.892	24.7431
234.266	21.3679
237.641	13.753
241.016	15.5339
244.391	20.1434
247.766	25.4421
251.14	16.023
254.515	17.7508
257.89	32.9373
261.265	32.7722
264.64	12.1966
268.014	5.45233
271.389	3.14825
274.764	9.97766
278.139	49.235
281.514	85.2122
284.889	42.9494
288.263	32.3098
291.638	36.689
295.013	28.5217
298.388	22.7651
301.763	28.0638
305.137	41.8392
308.512	55.9524
311.887	59.9609
315.262	63.6155
318.637	57.9648
322.012	51.8071
325.386	52.9008
328.761	70.8721
332.136	89.8186
335.511	128.256
338.886	189.47
342.26	261.46
345.635	311.129
349.01	239.672
352.385	114.593
355.76	48.5424
359.135	17.8549
362.509	3.96649
365.884	3.03479
369.259	11.0845
372.634	17.1202
376.009	12.8652
379.383	4.1593
382.758	9.69537
386.133	4.01434
389.508	13.7767
392.883	31.8564
396.257	70.4638
399.632	125.378
403.007	210.263
406.382	212.068
409.757	129.614
413.132	85.6363
416.506	89.443
419.881	117.639
423.256	113.129
426.631	111.389
430.006	128.984
433.38	181.278
436.755	266.321
440.13	374.026
443.505	343.014
446.88	202.924
450.255	112.863
453.629	76.6959
457.004	73.5786
460.379	84.0515
463.754	97.7378
467.129	113.553
470.503	121.156
473.878	102.254
477.253	67.9863
480.628	39.2314
484.003	27.6332
487.377	17.9405
490.752	12.2828
494.127	7.23074
497.502	1.47549
500.877	2.28433
504.252	0.28363
507.626	1.27426
511.001	1.83951
514.376	1.70441
517.751	1.86249
521.126	3.22546
524.5	0.2742
527.875	1.84347
531.25	7.12851
534.625	12.943
538	32.2724
541.375	52.2417
544.749	86.4008
548.124	131.365
551.499	192.712
554.874	267.548
558.249	312.557
561.623	267.177
564.998	169.622
568.373	106.331
571.748	79.9179
575.123	71.9019
578.497	66.4588
581.872	50.9341
585.247	36.9124
588.622	30.7229
591.997	28.961
595.371	35.5811
598.746	41.8045
602.121	50.3598
605.496	67.5689
608.871	82.0243
612.246	97.0776
615.62	100.503
618.995	84.3272
622.37	53.4319
625.745	26.1289
629.12	9.95435
632.494	5.37085
635.869	5.68384
639.244	8.80933
642.619	19.2
645.994	35.2893
649.369	51.9431
652.743	54.9429
656.118	48.5145
659.493	39.3243
662.868	33.7358
666.243	33.603
669.617	34.268
672.992	27.7037
676.367	16.7215
679.742	7.35605
683.117	1.46314
686.491	4.48611
689.866	6.87198
693.241	0.035889
696.616	10.2649
699.991	14.5261
703.366	17.5975
706.74	16.3539
710.115	14.8081
713.49	22.1858
716.865	42.7326
720.24	78.1506
723.614	128.045
726.989	198.417
730.364	299.252
733.739	407.64
737.114	393.296
740.489	250.929
743.863	134.226
747.238	67.453
750.613	35.713
753.988	21.2827
757.363	15.2627
760.737	14.3025
764.112	16.2289
767.487	28.2736
770.862	35.9732
774.237	46.1191
777.611	40.4983
780.986	23.8301
784.361	10.7929
787.736	7.021
791.111	0.480316
794.486	1.54874
797.86	0.161285
801.235	0.15683
804.61	0.055908
807.985	0.019623
811.36	1.77387
814.734	0.162872
818.109	1.30179
821.484	0.118866
824.859	0.558411
828.234	1.24371
831.609	1.51318
834.983	2.26511
838.358	1.07687
841.733	5.50009
845.108	6.98303
848.483	8.57108
851.857	8.77985
855.232	10.6529
858.607	17.36
861.982	25.9267
865.357	39.0568
868.731	53.1692
872.106	61.887
875.481	84.1686
878.856	115.682
882.231	137.286
885.606	105.997
888.98	60.0025
892.355	35.4526
895.73	18.3305
899.105	18.3359
902.48	16.6603
905.854	13.5233
909.229	11.7551
912.604	15.7329
915.979	18.0287
919.354	22.14
922.729	23.8406
926.103	26.8977
929.478	28.5287
932.853	27.774
936.228	23.2827
939.603	18.0247
942.977	14.9388
946.352	14.1151
949.727	15.1621
953.102	22.3018
956.477	29.2528
959.851	40.0765
963.226	38.9988
966.601	17.687
969.976	6.64758
973.351	1.17673
976.726	0.610016
980.1	2.0903
983.475	1.75409
986.85	0.424896
990.225	0.263794
993.6	0.656891
996.974	1.16986
1000.35	1.6842
1003.72	6.06473
1007.1	7.55371
1010.47	13.0928
1013.85	23.182
1017.22	36.3046
1020.6	55.1573
1023.97	81.156
1027.35	109.643
1030.72	113.021
1034.1	85.9776
1037.47	54.4619
1040.85	32.1854
1044.22	19.9964
1047.6	13.9952
1050.97	10.0099
1054.35	8.37724
1057.72	5.99477
1061.1	8.49381
1064.47	8.30879
1067.85	11.0812
1071.22	12.1843
1074.6	11.7497
1077.97	15.4004
1081.35	18.4558
1084.72	27.327
1088.09	32.6862
1091.47	31.4907
1094.84	19.6133
1098.22	12.4377
1101.59	8.53485
1104.97	6.30977
1108.34	5.43996
1111.72	3.10941
1115.09	0.402435
1118.47	0.121475
1121.84	0.449753
1125.22	0.643982
1128.59	0.619827
1131.97	1.28655
1135.34	2.11717
1138.72	2.10887
1142.09	2.15353
1145.47	1.29764
1148.84	4.42447
1152.22	2.21886
1155.59	2.66597
1158.97	1.58936
1162.34	3.28876
1165.71	2.08664
1169.09	3.74258
1172.46	4.5678
1175.84	3.72795
1179.21	3.16583
1182.59	3.84293
1185.96	1.59068
1189.34	3.0013
1192.71	3.44508
1196.09	3.87166
1199.46	1.70322
1202.84	3.59851
1206.21	3.50905
1209.59	4.45163
1212.96	3.02252
1216.34	1.64241
1219.71	2.18149
1223.09	0.372055
1226.46	2.80914
1229.84	4.47342
1233.21	2.2542
1236.59	0.306061
1239.96	1.46272
1243.34	1.78485
1246.71	2.9816
1250.09	1.75768
1253.46	0.103928
1256.84	2.84074
1260.21	0.339401
1263.59	2.26701
1266.96	1.64085
1270.33	2.58241
1273.71	2.06538
1277.08	0.759567
1280.46	1.211
1283.83	1.10255
