Measurement: Raman, 532 nm, unoriented, Raman Data Processed
Mineral: Carpathite
Rruff sample: R060162
Ideal chemistry: C_24_H_12_
Locality: Picacho mine, San Benito County, California, USA
Source: Marcus Origlieri
Description: Colorless to pale yellow splintery fractured aggregates associated with cinnabar on quartz
Raman shift (cm-1)	intensity
150.528	0
153.421	521.758
156.314	317.762
159.207	50.3828
162.099	62.6641
164.992	347.324
167.885	588.246
170.777	811.59
173.67	962.613
176.563	1222.33
179.455	1355.21
182.348	1247.86
185.241	680.816
188.133	490.481
191.026	573.195
193.919	543.453
196.812	556.902
199.704	605.875
202.597	678.273
205.49	631.996
208.382	607.012
211.275	522.734
214.168	582.57
217.06	669.606
219.953	848.144
222.846	978.141
225.739	1085.4
228.631	1372.81
231.524	1470.09
234.417	2105.1
237.31	2529.53
240.202	1145.12
243.095	532.644
245.988	271.719
248.88	131.961
251.773	211.797
254.666	243.273
257.558	177.863
260.451	148.734
263.344	140.539
266.236	144.426
269.129	64.3086
272.022	74.9688
274.915	27.8008
277.807	138.656
280.7	7.29297
283.593	27.1641
286.485	317.266
289.378	523.297
292.271	546.934
295.163	595.594
298.056	1044.38
300.949	1571.36
303.842	1165.09
306.734	694.305
309.627	296.375
312.52	297.981
315.413	269.898
318.305	238.731
321.198	24.0898
324.091	26.2266
326.983	204.168
329.876	273.309
332.769	248.301
335.661	314.152
338.554	125.606
341.447	105.875
344.339	180.934
347.232	432.617
350.125	931.789
353.018	2503.22
355.91	2688.36
358.803	3134.83
361.696	4679.94
364.588	9294.99
367.481	14496.7
370.374	7628.31
373.267	631.594
376.159	224.012
379.052	74.4492
381.945	67.5352
384.837	38.3672
387.73	99.5664
390.623	87.5586
393.515	23.8594
396.408	45.3438
399.301	15.582
402.194	52.8906
405.086	36.3125
407.979	2.75
410.872	16.3438
413.764	144.586
416.657	113.141
419.55	93.1914
422.442	162.144
425.335	59.75
428.228	142.758
431.121	215.957
434.013	458.57
436.906	722.137
439.799	1119.63
442.691	1858.12
445.584	2734.41
448.477	3507.64
451.37	2672.34
454.262	1991.16
457.155	2272.86
460.048	2706.8
462.94	3310.96
465.833	5501.19
468.726	10122.4
471.618	12880
474.511	16113.9
477.404	24587.9
480.297	37604.1
483.189	46513.1
486.082	20258.2
488.975	3984.32
491.867	1007
494.76	581.992
497.653	490.754
500.546	435.188
503.438	410.43
506.331	317.356
509.224	247.656
512.116	211.481
515.009	253.18
517.902	85.1992
520.794	2.59766
523.687	12.043
526.58	39.9688
529.472	45.3516
532.365	28.5156
535.258	85.1445
538.151	5.64453
541.043	61.0664
543.936	130.75
546.829	204.215
549.721	322.699
552.614	163.914
555.507	116.441
558.4	133.051
561.292	209.367
564.185	153.367
567.078	164.394
569.97	233.004
572.863	248.82
575.756	292.699
578.649	337.754
581.541	495.078
584.434	478.062
587.327	664.434
590.219	543.125
593.112	594.32
596.005	632.762
598.898	723.812
601.79	645.516
604.683	611.059
607.576	632.484
610.468	393.535
613.361	129.137
616.254	53.0938
619.146	44.6055
622.039	41.0547
624.932	45.1562
627.824	65.5156
630.717	165.992
633.61	220.203
636.503	199.004
639.395	169.129
642.288	218.918
645.181	292.215
648.073	407.234
650.966	593.277
653.859	844.488
656.751	1392.46
659.644	931.328
662.537	1049.46
665.43	615.824
668.322	282.793
671.215	269.996
674.108	321.027
677	256.289
679.893	207.109
682.786	120.727
685.679	0.75
688.571	14.375
691.464	6.38672
694.357	57.4336
697.249	85.9219
700.142	174.762
703.035	122.281
705.928	106.723
708.82	114.902
711.713	189.781
714.606	208.043
717.498	210.109
720.391	250.832
723.284	190.324
726.177	124.106
729.069	159.484
731.962	138.727
734.855	166.965
737.747	163.867
740.64	226.875
743.533	160.848
746.425	171.875
749.318	37.4258
752.211	54.6836
755.104	50.1289
757.996	240.008
760.889	267.293
763.782	151.434
766.674	63.2734
769.567	38.4102
772.46	122.543
775.352	81.7109
778.245	72.5156
781.138	157.129
784.03	175.488
786.923	167.008
789.816	143.965
792.709	183.059
795.601	89.8477
798.494	39.8438
801.387	68.8477
804.279	36.875
807.172	75.9219
810.065	45.4375
812.957	6.69141
815.85	6.33203
818.743	28.8672
821.636	114.125
824.528	159.148
827.421	293.387
830.314	514.66
833.207	725.269
836.099	604.602
838.992	465.719
841.885	457.367
844.777	291.91
847.67	269.656
850.563	414.055
853.455	673.019
856.348	292.356
859.241	163.519
862.134	149.754
865.026	171.387
867.919	197.488
870.812	230
873.704	123.523
876.597	89.5195
879.49	113.824
882.382	82.1211
885.275	123.277
888.168	126.805
891.061	43.1992
893.953	58.7578
896.846	9.17969
899.739	58.0156
902.631	117.059
905.524	116.211
908.417	108.297
911.309	137.312
914.202	170.773
917.095	238.039
919.988	239.941
922.88	201.535
925.773	177.219
928.666	225.578
931.558	203.586
934.451	327.805
937.344	454.418
940.236	625.606
943.129	724.418
946.022	1100.99
948.915	1545.78
951.807	1166.49
954.7	528.965
957.593	202.289
960.486	122.891
963.378	60.168
966.271	1.82812
969.164	6.10938
972.056	52.5352
974.949	13.1406
977.842	154.129
980.734	363.894
983.627	602.898
986.52	960.203
989.413	1667.51
992.305	2649.14
995.198	1639.41
998.091	776.051
1000.98	301.512
1003.88	127.184
1006.77	44.2266
1009.66	74.5586
1012.55	263.281
1015.45	1627.7
1018.34	2469.57
1021.23	4242.53
1024.12	9362.46
1027.02	12429.2
1029.91	1494.12
1032.8	402.547
1035.7	431.481
1038.59	514.68
1041.48	887.492
1044.37	1103.53
1047.27	320.598
1050.16	59.8398
1053.05	31.3086
1055.94	29.4258
1058.84	5.77344
1061.73	75.8555
1064.62	209.578
1067.52	324.738
1070.41	434.012
1073.3	353.203
1076.19	329.441
1079.09	442.309
1081.98	638.289
1084.87	475.156
1087.76	333.328
1090.66	271.035
1093.55	173.039
1096.44	113.043
1099.34	154.559
1102.23	236.32
1105.12	286.879
1108.01	293.086
1110.91	351.356
1113.8	236.488
1116.69	146.863
1119.58	61.1523
1122.48	30.3594
1125.37	27.7422
1128.26	66.0312
1131.15	149.074
1134.05	216.293
1136.94	180.266
1139.83	169.762
1142.73	262.059
1145.62	452.371
1148.51	547.773
1151.4	640.012
1154.3	947.531
1157.19	478.367
1160.08	239.297
1162.97	233.5
1165.87	218.379
1168.76	146.504
1171.65	89.6016
1174.55	20.1992
1177.44	63.4609
1180.33	34.0508
1183.22	28.0742
1186.12	58.1875
1189.01	131.07
1191.9	177.629
1194.79	37.0508
1197.69	85.9062
1200.58	121.926
1203.47	183.789
1206.37	370.133
1209.26	797.043
1212.15	1378.61
1215.04	3143.88
1217.94	4801.88
1220.83	3471.92
1223.72	2429.7
1226.61	900.121
1229.51	481.199
1232.4	471.637
1235.29	230.023
1238.18	12.418
1241.08	1.05469
1243.97	50.2578
1246.86	157.141
1249.76	195.898
1252.65	116.269
1255.54	118.383
1258.43	146.008
1261.33	141.699
1264.22	101.699
1267.11	156.824
1270.01	255.402
1272.9	191.41
1275.79	128.172
1278.68	222.227
1281.58	317.434
1284.47	593.953
1287.36	1137.05
1290.25	1175.48
1293.15	324.41
1296.04	6.03906
1298.93	99.7344
1301.82	13.6172
