Measurement: Raman, 532 nm, unoriented, Raman Data Processed
Mineral: Carpholite
Rruff sample: R060608
Ideal chemistry: Mn^2+^Al_2_Si_2_O_6_(OH)_4_
Locality: Schlaggenwald, Bohemia, Czechoslovakia
Source: Michael Scott
Description: Tan colored radiating tufts of acicular crystals
Measured chemistry: (Mn^2+^_0.90_Fe^2+^_0.09_Mg_0.01_)_Î£=1_Al_2.00_Si_2.00_O_6_(OH)_4_
Raman shift (cm-1)	intensity
118.629	0
122.004	369.339
125.379	622.865
128.754	1135.33
132.129	520.016
135.503	114.684
138.878	39.919
142.253	16.313
145.628	6.221
149.003	260.544
152.378	553.277
155.752	1189.7
159.127	1962.87
162.502	2607.71
165.877	1304.18
169.252	285.904
172.626	5.343
176.001	36.1
179.376	20.623
182.751	9.196
186.126	13.061
189.501	241.413
192.875	765.284
196.25	1520.28
199.625	2397.06
203	3454.58
206.375	4976.4
209.749	5845.97
213.124	4290.1
216.499	1923.95
219.874	563.143
223.249	32.075
226.624	17.151
229.998	221.005
233.373	256.513
236.748	183.353
240.123	244.51
243.498	719.952
246.872	500.026
250.247	312.962
253.622	206.556
256.997	327.912
260.372	179.351
263.746	6.01
267.121	37.774
270.496	37.387
273.871	344.993
277.246	1071.38
280.621	1440.84
283.995	561.794
287.37	556.419
290.745	628.784
294.12	516.06
297.495	510.396
300.87	632.38
304.244	883.135
307.619	1055.77
310.994	1107.1
314.369	1115.34
317.744	868.116
321.118	623.633
324.493	534.879
327.868	558.224
331.243	787.355
334.618	1251.26
337.992	1855.89
341.367	2741.94
344.742	3064.97
348.117	2119.84
351.492	1056.24
354.867	483.087
358.241	230.682
361.616	59.384
364.991	12.92
368.366	7.284
371.741	21.446
375.116	58.7
378.49	1.949
381.865	34.537
385.24	59.695
388.615	205.445
391.99	726.854
395.364	1604.21
398.739	2726.68
402.114	3802.19
405.489	3231.97
408.864	1789.37
412.238	1317.2
415.613	1359.02
418.988	1449.68
422.363	1214.07
425.738	1136.51
429.113	1569.24
432.487	2487.91
435.862	3931.69
439.237	5415.47
442.612	4240.95
445.987	2287.47
449.362	1294.52
452.736	726.249
456.111	733.055
459.486	839.735
462.861	983.033
466.236	1207.93
469.61	1213.47
472.985	965.857
476.36	595.006
479.735	387.914
483.11	343.38
486.484	201.494
489.859	137.558
493.234	78.256
496.609	30.029
499.984	24.831
503.359	15.059
506.733	6.459
510.108	1.726
513.483	20.723
516.858	10.537
520.233	28.597
523.607	21.856
526.982	70.417
530.357	158.996
533.732	373.62
537.107	593.53
540.482	981.081
543.856	1552.88
547.231	2500.51
550.606	3779.47
553.981	4988.78
557.356	5457.84
560.731	4159.34
564.105	2650.88
567.48	1899.21
570.855	1417.19
574.23	1367.36
577.605	1241.31
580.979	1095.96
584.354	951.773
587.729	824.801
591.104	852.521
594.479	858.978
597.854	1079.21
601.228	1278.36
604.603	1510.01
607.978	1840.14
611.353	1886.81
614.728	1727.14
618.102	1223.63
621.477	848.585
624.852	380.113
628.227	116.154
631.602	48.447
634.977	7.443
638.351	0.871
641.726	152.027
645.101	345.358
648.476	603.902
651.851	662.345
655.225	524.284
658.6	289.185
661.975	202.385
665.35	197.808
668.725	169.078
672.099	73.049
675.474	49.951
678.849	17.147
682.224	40.79
685.599	29.687
688.974	180.225
692.348	395.805
695.723	880.845
699.098	784.168
702.473	684.041
705.848	585.27
709.222	487.698
712.597	512.836
715.972	956.81
719.347	1694.43
722.722	2869.07
726.097	4547.88
729.471	6699.1
732.846	8203.84
736.221	6727.22
739.596	3968.04
742.971	1908.45
746.346	993.177
749.72	506.983
753.095	137.639
756.47	80.934
759.845	101.196
763.22	185.606
766.594	329.206
769.969	533.139
773.344	698.56
776.719	508.853
780.094	215.594
783.469	79.166
786.843	19.241
790.218	19.222
793.593	6.517
796.968	16.293
800.343	34.849
803.717	1.521
807.092	6.695
810.467	4.922
813.842	12.148
817.217	1.976
820.591	0.346
823.966	13.816
827.341	14.597
830.716	23.894
834.091	5.942
837.466	5.156
840.841	25.616
844.215	23.18
847.59	66.009
850.965	50.483
854.34	191.961
857.714	253.876
861.089	520.148
864.464	657.505
867.839	933.148
871.214	1226.52
874.589	1754.68
877.963	2589.36
881.338	2710.15
884.713	1896.09
888.088	1058.58
891.463	620.088
894.838	566.065
898.212	510.3
901.587	476.325
904.962	496.376
908.337	483.325
911.712	522.22
915.086	639.12
918.461	757.888
921.836	749.616
925.211	1062.28
928.586	1140.95
931.961	595.472
935.335	493.291
938.71	378.144
942.085	325.025
945.46	338.311
948.835	533.649
952.209	814.257
955.584	1220.17
958.959	1744.88
962.334	1561.82
965.709	689.003
969.083	203.433
972.458	45.081
975.833	29.008
979.208	7.349
982.583	5.474
985.958	14.453
989.332	18.72
992.707	23.116
996.082	20.31
999.457	13.527
1002.83	73.774
1006.21	111.442
1009.58	213.942
1012.96	417.31
1016.33	714.896
1019.71	1183.02
1023.08	1760.12
1026.45	2227.91
1029.83	2121.24
1033.2	1469.34
1036.58	835.872
1039.95	554.171
1043.33	341.202
1046.7	194.221
1050.08	178.994
1053.45	150.845
1056.83	163.607
1060.2	181.523
1063.58	220.97
1066.95	224.6
1070.33	270.511
1073.7	330.068
1077.08	399.807
1080.45	594.779
1083.83	776.411
1087.2	910.347
1090.58	746.347
1093.95	494.284
1097.33	335.286
1100.7	206.076
1104.08	109.248
1107.45	115.908
1110.83	75.208
1114.2	46.243
1117.58	13.02
1120.95	7.842
1124.33	0.731
1127.7	7.033
1131.08	12.272
1134.45	7.297
1137.82	74.536
1141.2	3.926
1144.57	7.898
1147.95	4.568
1151.32	68.314
1154.7	58.802
1158.07	57.825
1161.45	58.687
1164.82	53.987
1168.2	33.928
1171.57	49.035
1174.95	103.589
1178.32	37.615
1181.7	63.438
1185.07	53.768
1188.45	46.646
1191.82	28.502
1195.2	39.974
1198.57	4.612
1201.95	26.865
1205.32	47.611
1208.7	24.037
1212.07	49.532
1215.44	46.927
1218.82	19.813
1222.19	44.764
1225.57	7.373
1228.94	33.69
1232.32	33.43
1235.69	67.742
1239.07	46.301
1242.44	89.438
1245.82	7.333
1249.19	58.708
1252.57	96.31
1255.94	119.696
1259.32	64.828
1262.69	4.139
1266.07	4.704
1269.44	37.281
1272.82	32.298
1276.19	52.438
1279.57	53.95
1282.94	28.102
1286.32	35.535
1289.69	73.17
1293.07	37.289
1296.44	25.351
