Measurement: Raman, 780 nm, unoriented, Raman Data Processed
Mineral: Carpathite
Rruff sample: R060162
Ideal chemistry: C_24_H_12_
Locality: Picacho mine, San Benito County, California, USA
Source: Marcus Origlieri
Description: Colorless to pale yellow splintery fractured aggregates associated with cinnabar on quartz
Raman shift (cm-1)	intensity
150.844	0
153.736	1.543
156.629	2.69646
159.522	0.216568
162.414	3.85774
165.307	4.87868
168.2	8.21876
171.093	8.48434
173.985	11.2498
176.878	17.8087
179.771	28.4652
182.663	35.5973
185.556	20.0905
188.449	6.86787
191.341	3.52795
194.234	2.07584
197.127	1.74538
200.019	0.345551
202.912	0.967911
205.805	0.523712
208.697	0.514587
211.59	1.01656
214.483	3.64015
217.376	10.7645
220.268	18.9114
223.161	23.2558
226.054	30.5983
228.946	40.5897
231.839	55.9363
234.732	84.8294
237.625	116.982
240.517	68.7485
243.41	37.24
246.303	32.9288
249.195	33.157
252.088	33.6488
254.981	30.2253
257.873	19.3893
260.766	11.4009
263.659	7.79453
266.551	5.35722
269.444	4.32483
272.337	3.30731
275.23	2.96831
278.122	2.86333
281.015	4.64034
283.908	7.46762
286.8	12.9258
289.693	17.325
292.586	17.9607
295.478	21.562
298.371	33.73
301.264	53.5692
304.157	61.8259
307.049	46.3284
309.942	11.0272
312.835	2.81753
315.727	0.646027
318.62	1.43114
321.513	0.015564
324.406	0.381287
327.298	0.290268
330.191	2.25485
333.084	2.83089
335.976	3.37276
338.869	4.43329
341.762	7.86559
344.654	7.27081
347.547	12.6771
350.44	39.9601
353.332	71.3535
356.225	62.7183
359.118	89.6402
362.01	130.621
364.903	255.804
367.796	465.646
370.689	275.647
373.581	16.6526
376.474	2.98987
379.367	0.562012
382.259	0.649521
385.152	0.138062
388.045	0.031311
390.938	0.625107
393.83	1.17885
396.723	0.458359
399.616	1.57449
402.508	0.248336
405.401	0.056656
408.294	0.031723
411.186	0.301071
414.079	2.32931
416.972	1.94966
419.865	2.56384
422.757	1.93741
425.65	3.77567
428.543	8.14194
431.435	18.5476
434.328	29.2005
437.221	37.8082
440.113	52.6444
443.006	84.7053
445.899	131.923
448.791	163.886
451.684	108.858
454.577	53.4333
457.47	49.9844
460.362	58.1569
463.255	83.062
466.148	149.827
469.04	214.507
471.933	245.266
474.826	315.476
477.719	463.529
480.611	815.292
483.504	1069.47
486.397	527.267
489.289	114.815
492.182	28.0908
495.075	13.5532
497.967	6.62044
500.86	4.45166
503.753	2.86545
506.645	2.11903
509.538	1.88371
512.431	1.80571
515.323	1.63826
518.216	0.413208
521.109	1.17047
524.002	0.064194
526.894	0.50737
529.787	0.084183
532.68	0.243591
535.572	0.37471
538.465	0.492065
541.358	0.111633
544.25	0.609879
547.143	0.642441
550.036	0.156036
552.929	0.055161
555.821	0.053879
558.714	0.358475
561.607	0.240265
564.499	0.454315
567.392	0.541153
570.285	1.38983
573.178	0.903519
576.07	1.76567
578.963	0.947403
581.856	2.17812
584.748	3.96758
587.641	5.80208
590.534	7.21236
593.426	8.45128
596.319	9.65585
599.212	13.9701
602.105	14.0898
604.997	16.2328
607.89	15.7465
610.783	13.2472
613.675	9.19594
616.568	4.35408
619.461	1.50941
622.353	1.38283
625.246	0.704254
628.139	0.268631
631.031	0.923401
633.924	0.497818
636.817	0.924942
639.71	2.14081
642.602	6.38907
645.495	7.98483
648.388	9.2664
651.28	13.8054
654.173	24.341
657.066	41.1982
659.958	21.6681
662.851	17.5441
665.744	7.69202
668.636	1.73392
671.529	3.11556
674.422	3.98041
677.315	4.88808
680.207	3.69527
683.1	1.72438
685.993	1.66592
688.885	0.729095
691.778	0.485428
694.671	1.38681
697.563	0.43396
700.456	2.02299
703.349	0.128708
706.242	0.607193
709.134	0.515945
712.027	1.38846
714.92	1.15135
717.812	0.021805
720.705	1.10809
723.598	0.129593
726.49	0.80217
729.383	0.628998
732.276	0.753281
735.169	0.077805
738.061	0.524445
740.954	0.63443
743.847	0.122223
746.739	1.59845
749.632	1.50822
752.525	2.43782
755.418	1.37421
758.31	4.04939
761.203	7.02795
764.096	3.5164
766.988	0.512779
769.881	1.12841
772.774	1.45678
775.666	0.185333
778.559	0.70372
781.452	0.975601
784.345	0.698601
787.237	1.29522
790.13	0.841118
793.023	0.628609
795.915	1.38998
798.808	0.347107
801.701	0.476448
804.593	0.001709
807.486	0.931694
810.379	0.503944
813.271	0.60054
816.164	0.348274
819.057	1.65968
821.949	1.93593
824.842	1.42166
827.735	3.72117
830.628	6.44048
833.52	12.4836
836.413	12.8722
839.306	12.7179
842.198	10.9847
845.091	4.72825
847.984	5.0367
850.876	10.0908
853.769	18.9991
856.662	6.81365
859.555	2.41027
862.447	2.63708
865.34	1.75983
868.233	1.46213
871.125	2.5583
874.018	1.49152
876.911	2.45924
879.803	2.34393
882.696	3.71677
885.589	2.59817
888.482	3.3353
891.374	2.52693
894.267	3.5015
897.16	1.22585
900.052	0.977104
902.945	0.406853
905.838	0.585991
908.731	0.882622
911.623	0.302185
914.516	0.872086
917.409	1.14417
920.301	0.566231
923.194	0.079086
926.087	0.60157
928.979	1.07897
931.872	2.41668
934.765	2.42446
937.658	4.44682
940.55	8.05933
943.443	12.4271
946.336	18.3927
949.228	38.2868
952.121	33.5949
955.014	16.9834
957.906	6.55999
960.799	4.71133
963.692	3.84092
966.584	2.42028
969.477	4.34427
972.37	0.418015
975.263	3.37975
978.155	0.780533
981.048	4.89723
983.941	10.4496
986.833	16.336
989.726	30.8243
992.619	62.2546
995.511	47.5211
998.404	25.5211
1001.3	4.66176
1004.19	2.08874
1007.08	0.636581
1009.98	0.64785
1012.87	5.61835
1015.76	27.3251
1018.65	32.1556
1021.55	60.2752
1024.44	149.761
1027.33	258.247
1030.22	40.5892
1033.12	8.15813
1036.01	6.21417
1038.9	8.38712
1041.8	13.5261
1044.69	19.5032
1047.58	6.43824
1050.47	0.581474
1053.37	0.172012
1056.26	0.075325
1059.15	0.291168
1062.04	0.729561
1064.94	1.14667
1067.83	1.56473
1070.72	1.17348
1073.61	2.18478
1076.51	2.89487
1079.4	7.0624
1082.29	11.5765
1085.18	8.14322
1088.08	6.67109
1090.97	3.8755
1093.86	2.14581
1096.76	0.991745
1099.65	1.62427
1102.54	1.85563
1105.43	2.88763
1108.33	4.09123
1111.22	2.92519
1114.11	2.54314
1117.01	1.97264
1119.9	0.261909
1122.79	0.07061
1125.68	0.887543
1128.58	0.680954
1131.47	0.321106
1134.36	2.31878
1137.25	1.30053
1140.15	2.20106
1143.04	3.21526
1145.93	5.06425
1148.82	6.62021
1151.72	10.7223
1154.61	17.4828
1157.5	16.5118
1160.39	4.35701
1163.29	2.82284
1166.18	2.6217
1169.07	0.372185
1171.97	0.583115
1174.86	0.569252
1177.75	0.184471
1180.64	0.785973
1183.54	1.09863
1186.43	1.15889
1189.32	2.96786
1192.21	1.55704
1195.11	1.02993
1198	1.25258
1200.89	0.723717
1203.79	2.5964
1206.68	4.71539
1209.57	8.7159
1212.46	17.4922
1215.36	31.4212
1218.25	63.9111
1221.14	55.8748
1224.04	54.3874
1226.93	16.2603
1229.82	6.57561
1232.71	3.58194
1235.61	2.5853
1238.5	0.033966
1241.39	0.657906
1244.28	1.36541
1247.18	1.86332
1250.07	2.19074
1252.96	2.05553
1255.85	0.718148
1258.75	1.11323
1261.64	1.50382
1264.53	0.627495
1267.42	0.229179
1270.32	0.469711
1273.21	0.869118
1276.1	1.91423
1279	0.589981
1281.89	0.944168
1284.78	0.195213
