Measurement: Raman, 785 nm, unoriented, Raman Data Processed
Mineral: Carpathite
Rruff sample: R060660
Ideal chemistry: C_24_H_12_
Locality: Prospect 500 meters north of Picachos mine, south of New Idria, San Benito County, California, USA
Source: Michael Scott
Description: Aggregate of light tan colored platy crystals
Raman shift (cm-1)	intensity
103.208	0
106.582	25.771
109.957	0.087
113.332	283.486
116.707	886.962
120.082	293.399
123.456	339.266
126.831	1585.07
130.206	3379.43
133.581	4114.7
136.956	2431.29
140.331	2069.98
143.705	2974.44
147.08	4396.36
150.455	5025.2
153.83	4543.22
157.205	3877.58
160.579	3536.72
163.954	3610.06
167.329	3751.1
170.704	3727.05
174.079	3591.58
177.454	3475.41
180.828	3672.84
184.203	3459.66
187.578	2839.2
190.953	2530.99
194.328	2375.46
197.702	2283.1
201.077	2211.03
204.452	2105.98
207.827	2011.19
211.202	1858.29
214.577	1786.44
217.951	1780.09
221.326	1847.89
224.701	2094.63
228.076	2638.76
231.451	3927.94
234.825	6495.17
238.2	8262.56
241.575	3634.11
244.95	2537.74
248.325	2131.85
251.699	1847.8
255.074	1654.02
258.449	1484.74
261.824	1347.13
265.199	1198.56
268.574	1105.05
271.948	970.069
275.323	928.491
278.698	867.895
282.073	917.741
285.448	926.061
288.823	963.391
292.197	1013.42
295.572	1322.71
298.947	2418.85
302.322	4409.29
305.697	5760.39
309.071	1789.32
312.446	885.549
315.821	615.96
319.196	523.716
322.571	492.671
325.945	497.092
329.32	472.896
332.695	444.637
336.07	432.617
339.445	370.155
342.819	413.987
346.194	393.942
349.569	474.585
352.944	477.854
356.319	680.302
359.694	1951.27
363.069	5825.69
366.443	12117.2
369.818	9380.8
373.193	611.253
376.568	334.636
379.943	252.93
383.317	208.322
386.692	179.958
390.067	158.327
393.442	214.587
396.817	194.507
400.191	147.301
403.566	171.563
406.941	166.588
410.316	128.323
413.691	165.312
417.065	209.811
420.44	195.282
423.815	243.648
427.19	233.915
430.565	255.411
433.94	389.653
437.314	1103.07
440.689	3120.8
444.064	7356.15
447.439	11817.5
450.814	9095.99
454.189	2509.23
457.563	1491.35
460.938	1644.34
464.313	2005.83
467.688	2425.2
471.063	3607.87
474.437	7858.73
477.812	18562.4
481.187	40850.8
484.562	40142.5
487.937	10048.3
491.311	1780.71
494.686	775.73
498.061	409.08
501.436	284.77
504.811	189.216
508.185	190.527
511.56	116.273
514.935	168.483
518.31	60.708
521.685	70.792
525.06	51.052
528.434	39.162
531.809	28.746
535.184	0.994
538.559	63.804
541.934	47.727
545.308	39.309
548.683	34.707
552.058	13.408
555.433	32.844
558.808	52.938
562.183	51.513
565.557	79.301
568.932	56.136
572.307	58.11
575.682	52.439
579.057	98.791
582.432	153.541
585.806	203.853
589.181	440.396
592.556	433.012
595.931	636.846
599.306	881.945
602.68	1030.44
606.055	1095.83
609.43	1051.15
612.805	826.512
616.18	436.403
619.555	147.947
622.929	60.905
626.304	85
629.679	66.399
633.054	43.483
636.429	85.552
639.803	149.639
643.178	244.756
646.553	373.803
649.928	543.385
653.303	1322.59
656.677	3973.55
660.052	1139.84
663.427	667.218
666.802	212.24
670.177	133.205
673.552	156.485
676.926	203.241
680.301	199.745
683.676	139.944
687.051	31.13
690.426	29.487
693.8	63.306
697.175	44.298
700.55	47.482
703.925	6.209
707.3	50.205
710.675	43.737
714.049	52.595
717.424	34.223
720.799	8.809
724.174	6.189
727.549	4.399
730.924	37.494
734.298	57.84
737.673	17.198
741.048	11.194
744.423	54.053
747.797	2.492
751.172	44.338
754.547	85.188
757.922	151.336
761.297	291.821
764.672	61.139
768.046	9.28
771.421	43.341
774.796	37.803
778.171	4.371
781.546	36.266
784.92	6.884
788.295	18.197
791.67	9.585
795.045	3.678
798.42	18.208
801.795	8.858
805.169	40.187
808.544	12.303
811.919	1.953
815.294	27.117
818.669	54.516
822.044	33.392
825.418	62.721
828.793	178.586
832.168	479.051
835.543	769.018
838.917	457.07
842.292	222.053
845.667	143.267
849.042	475.261
852.417	1154.63
855.792	686.011
859.166	7.646
862.541	9.524
865.916	26.28
869.291	19.911
872.666	16.224
876.041	35.556
879.415	28.889
882.79	58.917
886.165	96.169
889.54	136.517
892.915	133.021
896.289	115.186
899.664	55.167
903.039	19.712
906.414	1.278
909.789	3.859
913.164	3.42
916.538	17.678
919.913	32.617
923.288	4.332
926.663	75.239
930.038	112.291
933.412	281.92
936.787	75.315
940.162	175.159
943.537	517.799
946.912	1340.3
950.286	2867.82
953.661	794.861
957.036	327.887
960.411	200.017
963.786	156.522
967.161	187.681
970.535	130.872
973.91	49.202
977.285	5.089
980.66	31.295
984.035	130.33
987.409	510.538
990.784	1357.4
994.159	1546.68
997.534	935.541
1000.91	163.096
1004.28	77.699
1007.66	4.693
1011.03	35.38
1014.41	55.904
1017.78	229.948
1021.16	2115.23
1024.53	7811.64
1027.91	6925.34
1031.28	432.104
1034.66	192.058
1038.03	319.099
1041.41	768.166
1044.78	946.637
1048.16	149.075
1051.53	40.624
1054.91	18.097
1058.28	32.797
1061.66	0.495
1065.03	25.027
1068.4	21.816
1071.78	64.886
1075.15	110.644
1078.53	318.553
1081.9	762.765
1085.28	481.606
1088.65	309.605
1092.03	177.629
1095.4	119.215
1098.78	113.224
1102.15	68.822
1105.53	91.733
1108.9	114.566
1112.28	91.252
1115.65	77.356
1119.03	19.973
1122.4	36.13
1125.78	5.791
1129.15	13.582
1132.53	54.55
1135.9	77.834
1139.28	63.872
1142.65	50.135
1146.03	88.82
1149.4	122.663
1152.78	296.85
1156.15	205.018
1159.53	36.139
1162.9	74.891
1166.28	26.403
1169.65	27.55
1173.02	10.787
1176.4	60.918
1179.77	44.678
1183.15	48.189
1186.52	36.904
1189.9	47.882
1193.27	8.396
1196.65	5.53
1200.02	34.64
1203.4	30.015
1206.77	39.702
1210.15	20.308
1213.52	214.587
1216.9	1138.74
1220.27	1651.96
1223.65	1944.08
1227.02	470.679
1230.4	139.735
1233.77	19.758
1237.15	33.773
1240.52	16.899
1243.9	1.67
1247.27	25.437
1250.64	50.433
1254.02	81.376
1257.39	22.514
1260.77	4.169
