Measurement: Raman, 780 nm, unoriented, Raman Data Processed
Mineral: Carraraite
Rruff sample: R130410
Ideal chemistry: Ca_3_Ge(SO_4_)(CO_3_)(OH)_6_12H_2_O
Locality: Cape d'Or (Cap d'Or), Cumberland Co., Nova Scotia, Canada
Source: Don Doell
Description: White to pale-blue hexagonal prismatic crystals, associated with light green apophyllite, light yellowish grey stellerite, and light pinkish rhombohedral chabazite.
Measured chemistry: Ca_3.18_(Ge_0.95_Si_0.12_Al_0.04_)(SO_4_)(CO_3_)(OH)_6_Â·12H_2_O
Raman shift (cm-1)	intensity
94.0923	0
97.4671	0.339478
100.842	74.9352
104.217	160.205
107.591	37.0949
110.966	2.10663
114.341	20.3633
117.716	36.2563
121.091	35.6465
124.466	18.0853
127.84	23.0861
131.215	50.4533
134.59	84.1288
137.965	101.079
141.34	64.434
144.714	23.1716
148.089	7.00678
151.464	5.01947
154.839	5.4483
158.214	2.35846
161.589	13.39
164.963	27.3096
168.338	47.8307
171.713	73.1119
175.088	97.9599
178.463	118.196
181.838	133.722
185.212	148.707
188.587	174.912
191.962	215.299
195.337	265.27
198.712	333.796
202.086	434.67
205.461	559.655
208.836	644.598
212.211	577.226
215.586	407.882
218.96	287.885
222.335	220.871
225.71	187.416
229.085	170.718
232.46	163.837
235.834	154.513
239.209	148.276
242.584	142.252
245.959	130.507
249.334	104.262
252.709	76.3972
256.083	50.9637
259.458	33.715
262.833	20.0543
266.208	11.5638
269.583	7.92514
272.957	4.42758
276.332	4.54861
279.707	2.9007
283.082	1.47473
286.457	1.58322
289.832	3.26837
293.206	3.31198
296.581	2.85461
299.956	0.892303
303.331	0.155853
306.706	5.1423
310.08	6.99731
313.455	9.75723
316.83	7.97928
320.205	8.58533
323.58	5.16699
326.954	4.62274
330.329	4.79999
333.704	1.1138
337.079	0.463074
340.454	2.7175
343.829	6.68579
347.203	12.2492
350.578	20.1486
353.953	31.3203
357.328	44.5478
360.703	64.3398
364.077	79.9256
367.452	83.2143
370.827	69.5299
374.202	49.5632
377.577	33.2101
380.952	26.7007
384.326	23.636
387.701	22.7405
391.076	20.3207
394.451	11.1142
397.826	1.97913
401.2	2.22739
404.575	3.5101
407.95	7.7482
411.325	17.5905
414.7	31.0427
418.075	48.4513
421.449	64.7052
424.824	62.0355
428.199	47.0256
431.574	41.6282
434.949	46.3737
438.323	60.2473
441.698	76.9505
445.073	98.2152
448.448	122.068
451.823	141.805
455.197	141.793
458.572	120.576
461.947	87.9054
465.322	60.8451
468.697	45.0229
472.072	34.5085
475.446	25.461
478.821	17.9459
482.196	8.11755
485.571	2.63504
488.946	2.03336
492.32	1.07123
495.695	2.6376
499.07	2.23517
502.445	1.77463
505.82	3.6228
509.195	0.536896
512.569	0.680145
515.944	1.76755
519.319	1.35327
522.694	2.32025
526.068	2.60785
529.443	1.82483
532.818	1.17172
536.193	2.17429
539.568	2.37649
542.943	3.78177
546.317	4.7417
549.692	7.09998
553.067	10.4112
556.442	10.2778
559.817	12.1434
563.192	12.3903
566.566	13.0991
569.941	13.3122
573.316	17.6115
576.691	22.0697
580.066	29.9253
583.44	35.8917
586.815	44.2556
590.19	55.4805
593.565	67.9576
596.94	81.4801
600.314	102.115
603.689	136.172
607.064	199.518
610.439	294.134
613.814	406.664
617.188	567.453
620.563	804.51
623.938	1017.06
627.313	800.798
630.688	408.445
634.063	210.685
637.437	126.382
640.812	83.9449
644.187	59.064
647.562	45.0473
650.937	38.0702
654.312	35.3329
657.686	22.6109
661.061	8.52725
664.436	0.939758
667.811	1.33637
671.186	2.42407
674.56	1.5105
677.935	0.696655
681.31	3.12396
684.685	5.84824
688.06	7.59543
691.434	9.93707
694.809	11.5984
698.184	9.27048
701.559	9.01111
704.934	8.00076
708.308	7.54593
711.683	7.22195
715.058	4.89493
718.433	5.90839
721.808	3.70728
725.183	4.06641
728.557	2.65179
731.932	0.392853
735.307	0.274704
738.682	0.415131
742.057	1.69624
745.432	1.16211
748.806	0.059586
752.181	0.559616
755.556	0.811401
758.931	2.53297
762.306	2.7408
765.68	4.85684
769.055	5.10707
772.43	4.82812
775.805	7.02371
779.18	9.95818
782.554	11.5429
785.929	13.5553
789.304	14.1317
792.679	14.3587
796.054	16.7108
799.428	15.7147
802.803	15.6503
806.178	15.1435
809.553	13.0931
812.928	12.5452
816.303	9.24762
819.677	10.9707
823.052	7.94663
826.427	5.96277
829.802	5.92728
833.177	2.27031
836.552	0.795074
839.926	3.7402
843.301	1.19958
846.676	1.18678
850.051	1.01039
853.426	1.3801
856.8	0.048798
860.175	0.531052
863.55	1.08614
866.925	3.12376
870.3	6.95689
873.674	4.46213
877.049	7.57604
880.424	9.62614
883.799	9.53854
887.174	9.78198
890.548	11.0769
893.923	9.20892
897.298	6.90109
900.673	5.40317
904.048	5.11246
907.423	2.9254
910.797	2.42445
914.172	0.973068
917.547	0.635742
920.922	1.36937
924.297	0.294815
927.671	0.752182
931.046	0.697693
934.421	0.125534
937.796	0.260925
941.171	0.734406
944.545	0.042053
947.92	0.989029
951.295	1.90105
954.67	2.49687
958.045	4.95167
961.42	8.56663
964.794	13.3981
968.169	21.1342
971.544	38.0633
974.919	85.1902
978.294	245.868
981.668	393.131
985.043	692.052
988.418	1511.33
991.793	2027.71
995.168	386.962
998.543	97.8835
1001.92	43.2774
1005.29	24.2888
1008.67	14.1846
1012.04	7.8786
1015.42	6.83818
1018.79	3.216
1022.17	0.718704
1025.54	0.465576
1028.92	0.238953
1032.29	1.22189
1035.67	0.361237
1039.04	0.193298
1042.41	1.24982
1045.79	3.92363
1049.16	11.8757
1052.54	18.2128
1055.91	32.3852
1059.29	81.3906
1062.66	160.191
1066.04	271.135
1069.41	537.671
1072.79	801.302
1076.16	319.453
1079.54	117.055
1082.91	81.6304
1086.29	47.9373
1089.66	41.8762
1093.04	42.3054
1096.41	43.6223
1099.79	46.8681
1103.16	48.0002
1106.54	45.3268
1109.91	44.3304
1113.29	42.5639
1116.66	37.4464
1120.04	32.5421
1123.41	29.3654
1126.79	22.8968
1130.16	17.8591
1133.54	13.8578
1136.91	9.64256
1140.29	8.20718
1143.66	4.24274
1147.03	2.88887
1150.41	2.94034
1153.78	1.13271
1157.16	0.170685
1160.53	0.557144
1163.91	0.783081
1167.28	0.569443
1170.66	0.312256
1174.03	0.803314
1177.41	0.441483
1180.78	1.35078
1184.16	0.851959
1187.53	2.1817
1190.91	1.61963
1194.28	2.13623
1197.66	2.3293
1201.03	1.39165
1204.41	2.37277
1207.78	1.28609
1211.16	1.82028
1214.53	1.03778
1217.91	2.72772
1221.28	1.80797
1224.65	1.57436
1228.03	0.116394
1231.4	0.665283
1234.78	1.29462
1238.15	1.16374
1241.53	1.90244
1244.9	1.14885
1248.28	2.0596
1251.65	0.977829
1255.03	1.87946
1258.4	0.151627
1261.78	1.29506
1265.15	0.661819
1268.53	0.628922
1271.9	0.109421
1275.28	1.04776
1278.65	0.622284
1282.03	1.11675
