Measurement: Raman, 532 nm, unoriented, Raman Data Processed
Mineral: Carraraite
Rruff sample: R130410
Ideal chemistry: Ca_3_Ge(SO_4_)(CO_3_)(OH)_6_12H_2_O
Locality: Cape d'Or (Cap d'Or), Cumberland Co., Nova Scotia, Canada
Source: Don Doell
Description: White to pale-blue hexagonal prismatic crystals, associated with light green apophyllite, light yellowish grey stellerite, and light pinkish rhombohedral chabazite.
Measured chemistry: Ca_3.18_(Ge_0.95_Si_0.12_Al_0.04_)(SO_4_)(CO_3_)(OH)_6_Â·12H_2_O
Raman shift (cm-1)	intensity
203.623	0
206.516	17.9825
209.409	33.9768
212.301	26.7607
215.194	19.6766
218.087	24.9604
220.98	29.9035
223.872	36.082
226.765	37.0964
229.658	36.7634
232.55	33.5486
235.443	31.508
238.336	41.0286
241.228	52.2062
244.121	58.2211
247.014	61.8414
249.906	53.2783
252.799	45.7534
255.692	42.9506
258.585	39.4927
261.477	27.0336
264.37	19.4366
267.263	18.0936
270.155	7.56274
273.048	1.45013
275.941	2.21045
278.834	1.73236
281.726	2.53339
284.619	2.75098
287.512	1.91028
290.404	3.37128
293.297	0.812561
296.19	0.623169
299.082	0.902527
301.975	5.50934
304.868	7.96716
307.76	14.9978
310.653	18.1746
313.546	19.2524
316.439	20.5766
319.331	20.3497
322.224	19.7856
325.117	17.26
328.009	20.7054
330.902	21.2554
333.795	14.5086
336.688	17.5078
339.58	19.1726
342.473	21.195
345.366	23.0809
348.258	28.3049
351.151	33.5547
354.044	43.3586
356.936	52.9445
359.829	69.4485
362.722	80.5889
365.615	89.3112
368.507	87.9872
371.4	72.6242
374.293	52.041
377.185	37.7317
380.078	28.9514
382.971	13.6301
385.863	9.18451
388.756	5.14716
391.649	4.81201
394.541	1.23645
397.434	0.129944
400.327	0.813721
403.22	0.467957
406.112	2.45392
409.005	12.1085
411.898	17.2147
414.79	24.4123
417.683	36.6801
420.576	35.4999
423.469	41.408
426.361	36.9876
429.254	38.704
432.147	36.4172
435.039	44.6056
437.932	57.6421
440.825	70.2943
443.717	85.6927
446.61	103.299
449.503	113.896
452.396	119.443
455.288	110.645
458.181	94.3441
461.074	70.1766
463.966	57.6408
466.859	42.4651
469.752	38.0255
472.644	32.6587
475.537	28.6743
478.43	22.957
481.322	18.0022
484.215	4.9657
487.108	0.731323
490.001	3.3169
492.893	0.225342
495.786	4.7428
498.679	0.256348
501.571	1.40491
504.464	0.510254
507.357	2.36646
510.25	1.94311
513.142	0.475464
516.035	1.28931
518.928	0.526489
521.82	0.431885
524.713	2.02844
527.606	4.10242
530.498	2.00232
533.391	4.41016
536.284	4.84473
539.177	7.77026
542.069	7.65942
544.962	5.72632
547.855	7.47583
550.747	11.1533
553.64	14.4277
556.533	12.2405
559.425	15.2281
562.318	17.648
565.211	16.397
568.104	18.2468
570.996	21.8568
573.889	20.4219
576.782	24.4973
579.674	27.2576
582.567	34.0776
585.46	42.0558
588.352	49.1403
591.245	54.0287
594.138	59.834
597.03	63.5211
599.923	70.4553
602.816	83.704
605.709	102.556
608.601	136.163
611.494	186.836
614.387	260.383
617.279	366.951
620.172	506.151
623.065	641.151
625.957	616.421
628.85	390.848
631.743	210.048
634.636	117.525
637.528	72.9772
640.421	44.1398
643.314	34.7843
646.206	25.4678
649.099	29.439
651.992	28.7378
654.885	27.1818
657.777	21.458
660.67	11.2817
663.563	2.68994
666.455	1.39123
669.348	5.224
672.241	3.09302
675.133	0.407227
678.026	0.752441
680.919	2.41968
683.812	1.16943
686.704	0.27124
689.597	6.2533
692.49	7.67273
695.382	4.93079
698.275	6.31299
701.168	5.10706
704.06	3.51685
706.953	8.19971
709.846	4.22852
712.739	2.50049
715.631	0.745605
718.524	1.95422
721.417	8.16394
724.309	8.76489
727.202	7.89966
730.095	0.566895
732.987	0.920532
735.88	2.70203
738.773	4.17395
741.665	2.22754
744.558	2.43689
747.451	5.50098
750.344	2.6814
753.236	0.432129
756.129	1.36426
759.022	1.30518
761.914	4.28101
764.807	5.29382
767.7	7.41504
770.592	8.9679
773.485	7.08423
776.378	6.23572
779.271	6.19153
782.163	3.396
785.056	5.34692
787.949	3.05542
790.841	5.32068
793.734	12.0806
796.627	7.20068
799.519	7.00342
802.412	8.65613
805.305	8.38916
808.198	7.4408
811.09	7.77771
813.983	7.54614
816.876	4.00598
819.768	6.84607
822.661	8.85535
825.554	11.1863
828.447	2.95447
831.339	1.68445
834.232	0.900757
837.125	1.68201
840.017	7.4635
842.91	7.3512
845.803	4.95996
848.695	2.95874
851.588	1.01758
854.481	1.52564
857.374	3.65027
860.266	3.01721
863.159	0.066162
866.052	2.03296
868.944	3.80103
871.837	3.03186
874.73	1.74206
877.622	5.42395
880.515	0.293579
883.408	2.80066
886.301	2.0116
889.193	7.06982
892.086	4.55444
894.979	5.86218
897.871	6.26294
900.764	9.23145
903.657	5.62329
906.549	3.49902
909.442	6.1051
912.335	1.86206
915.227	2.49866
918.12	6.52954
921.013	6.76575
923.906	5.30505
926.798	1.93738
929.691	2.151
932.584	3.63635
935.476	7.53442
938.369	8.71887
941.262	6.46545
944.154	3.08203
947.047	7.77502
949.94	5.33777
952.833	0.012451
955.725	5.40894
958.618	1.32324
961.511	5.9231
964.403	10.5543
967.296	13.8729
970.189	20.7416
973.082	29.3129
975.974	46.9102
978.867	105.141
981.76	186.595
984.652	298.329
987.545	640.282
990.438	1232.54
993.33	608.489
996.223	133.316
999.116	48.5264
1002.01	25.9564
1004.9	13.4498
1007.79	11.4686
1010.69	12.7104
1013.58	6.38477
1016.47	4.71411
1019.37	5.23193
1022.26	1.30237
1025.15	1.00452
1028.04	5.3064
1030.94	1.42358
1033.83	1.71497
1036.72	3.25476
1039.61	0.047241
1042.51	2.06909
1045.4	6.68042
1048.29	3.61206
1051.18	5.53711
1054.08	6.72937
1056.97	9.56348
1059.86	20.516
1062.76	43.1072
1065.65	71.1343
1068.54	140.615
1071.43	259.337
1074.33	217.759
1077.22	83.6926
1080.11	45.4423
1083	37.1194
1085.9	33.1394
1088.79	29.5861
1091.68	29.224
1094.58	29.5867
1097.47	28.8165
1100.36	33.0076
1103.25	30.5414
1106.15	36.7441
1109.04	28.6248
1111.93	33.0021
1114.82	32.579
1117.72	32.4878
1120.61	39.5892
1123.5	29.6224
1126.39	24.7245
1129.29	22.799
1132.18	17.5024
1135.07	28.8302
1137.96	17.2135
1140.86	12.6516
1143.75	6.74463
1146.64	8.38452
1149.54	9.10425
1152.43	9.40637
1155.32	2.0321
1158.21	0.537354
1161.11	0.411865
1164	0.790771
1166.89	0.173096
1169.79	3.32825
1172.68	2.63403
1175.57	5.5824
1178.46	3.66321
1181.36	5.37915
1184.25	4.34241
1187.14	3.53064
1190.03	1.25647
1192.93	1.49573
1195.82	3.31702
1198.71	7.25012
1201.61	6.5575
1204.5	4.88147
1207.39	6.24158
1210.28	8.21204
1213.18	10.472
1216.07	7.04846
1218.96	7.00293
1221.85	3.26831
1224.75	4.62976
1227.64	7.90735
1230.53	6.49695
1233.42	5.88635
1236.32	1.57861
1239.21	1.76001
1242.1	2.66919
1244.99	2.99194
1247.89	7.55054
1250.78	5.84131
1253.67	3.33191
1256.57	1.22424
1259.46	8.54541
1262.35	12.5499
1265.24	11.4373
1268.14	6.31787
1271.03	11.2364
1273.92	6.90857
1276.82	6.17407
1279.71	6.51062
1282.6	8.31238
1285.49	6.81091
1288.39	2.74634
1291.28	1.16943
1294.17	3.24072
1297.06	1.93237
1299.96	1.95923
