Measurement: Raman, 532 nm, unoriented, Raman Data Processed
Mineral: Carrollite
Rruff sample: R050089
Ideal chemistry: Cu^1+^Co_2_S_4_
Locality: Kambove, Katanga, Democratic Republic of the Congo
Source: Rock Currier
Description: Steel-gray octahedral crystal associated with calcite
Measured chemistry: (Cu_0.96_Fe^2+^_0.04_)_Σ=1_Co_2.00_S_4.00_ ; the vein is pyrite: (Fe_0.99_Co_0.01_)_Σ=1_S_2.00_
Raman shift (cm-1)	intensity
141.245	0
144.619	9.96411
147.994	14.5947
151.369	8.26401
154.744	22.9485
158.119	12.0278
161.494	29.8361
164.868	15.7152
168.243	28.0631
171.618	29.8258
174.993	35.0855
178.368	24.9049
181.743	52.1776
185.117	32.5807
188.492	12.1308
191.867	8.96698
195.242	30.2822
198.617	20.8368
201.991	13.8438
205.366	6.021
208.741	14.9857
212.116	20.9831
215.491	2.3092
218.865	12.9073
222.24	28.3755
225.615	32.0604
228.99	18.7925
232.365	15.7454
235.74	31.9181
239.114	36.3822
242.489	55.8918
245.864	51.7926
249.239	77.6199
252.614	112.017
255.988	130.756
259.363	125.814
262.738	139.208
266.113	138.413
269.488	96.752
272.863	82.7602
276.237	75.6226
279.612	39.3136
282.987	30.1801
286.362	64.9292
289.737	40.7911
293.111	31.0211
296.486	35.3161
299.861	52.1086
303.236	42.5531
306.611	26.2344
309.986	52.5934
313.36	23.6912
316.735	21.5352
320.11	30.2694
323.485	8.79181
326.86	18.2621
330.235	5.95889
333.609	11.4741
336.984	40.617
340.359	16.2411
343.734	17.3144
347.109	6.0459
350.483	18.8127
353.858	5.90128
357.233	3.76337
360.608	16.7269
363.983	10.6321
367.358	2.96707
370.732	9.09918
374.107	7.4743
377.482	17.053
380.857	21.8153
384.232	24.6603
387.606	7.66016
390.981	16.9086
394.356	6.6792
397.731	8.19583
401.106	8.40756
404.481	11.1482
407.855	10.4311
411.23	9.49118
414.605	0.958252
417.98	29.8359
421.355	19.9145
424.729	20.0486
428.104	34.7333
431.479	37.16
434.854	46.6774
438.229	63.7365
441.603	100.147
444.978	134.978
448.353	172.78
451.728	316.197
455.103	416.093
458.478	641.677
461.852	920.298
465.227	1293.88
468.602	1662.68
471.977	1870.45
475.352	1647.74
478.726	1019.77
482.101	519.537
485.476	283.41
488.851	171.614
492.226	111.709
495.601	69.4617
498.976	34.4196
502.35	30.71
505.725	27.9922
509.1	6.87561
512.475	17.5884
515.85	7.80103
519.224	42.0234
522.599	24.0778
525.974	39.4177
529.349	10.3791
532.724	38.1887
536.098	22.1224
539.473	10.9766
542.848	12.8758
546.223	19.6127
549.598	14.1045
552.972	16.2072
556.347	7.31049
559.722	16.4252
563.097	8.17932
566.472	23.8757
569.847	17.331
573.221	23.2674
576.596	17.927
579.971	2.716
583.346	5.90512
586.721	6.15253
590.096	8.01874
593.47	32.6137
596.845	23.563
600.22	6.96466
603.595	15.0473
606.97	13.1805
610.345	8.68439
613.719	15.7067
617.094	43.3658
620.469	29.7159
623.844	16.3426
627.219	28.7232
630.593	20.5494
633.968	18.9798
637.343	26.17
640.718	19.3671
644.093	19.9226
647.467	7.31659
650.842	15.8525
654.217	12.1056
657.592	26.2739
660.967	34.258
664.342	9.97589
667.716	11.0065
671.091	11.902
674.466	34.1713
677.841	2.81366
681.216	13.4481
684.591	5.08057
687.965	33.8321
691.34	17.8925
694.715	25.0395
698.09	26.1685
701.465	23.4155
704.839	40.3025
708.214	42.3219
711.589	18.2631
714.964	14.5655
718.339	17.4339
721.713	5.04633
725.088	31.903
728.463	20.1428
731.838	20.3686
735.213	18.716
738.587	31.9299
741.962	9.33105
745.337	38.3436
748.712	16.2752
752.087	8.78729
755.462	39.6569
758.837	29.7129
762.211	18.6118
765.586	27.0865
768.961	14.0641
772.336	13.1123
775.711	24.871
779.085	15.9606
782.46	28.2644
785.835	32.8027
789.21	17.5138
792.585	14.7233
795.96	20.2158
799.334	1.96411
802.709	2.63245
806.084	17.3793
809.459	16.7853
812.834	28.7709
816.208	31.2227
819.583	3.93964
822.958	23.4279
826.333	1.47815
829.708	9.9364
833.082	31.2739
836.457	25.5001
839.832	13.0331
843.207	17.8702
846.582	17.7556
849.957	16.11
853.331	14.4706
856.706	32.6093
860.081	10.0204
863.456	4.45465
866.831	24.4813
870.205	27.6509
873.58	10.5015
876.955	8.24469
880.33	11.4649
883.705	20.173
887.08	19.5198
890.454	30.8431
893.829	28.1089
897.204	11.1776
900.579	27.9018
903.954	5.7356
907.328	44.3624
910.703	72.5416
914.078	78.3714
917.453	69.7949
920.828	67.7036
924.203	54.5329
927.577	52.3425
930.952	63.6083
934.327	58.7501
937.702	29.9399
941.077	21.5558
944.452	46.5418
947.826	18.8679
951.201	33.7558
954.576	30.6633
957.951	24.4088
961.326	28.0156
964.7	21.498
968.075	43.38
971.45	17.919
974.825	0.207336
978.2	36.3792
981.574	16.5126
984.949	21.9764
988.324	8.49512
991.699	24.3776
995.074	13.0371
998.448	16.3303
1001.82	34.8178
1005.2	10.4953
1008.57	14.4746
1011.95	18.8188
1015.32	6.60284
1018.7	25.4382
1022.07	11.2606
1025.45	32.8845
1028.82	9.39923
1032.2	22.1754
1035.57	39.0952
1038.95	13.9216
1042.32	16.0264
1045.7	46.5826
1049.07	6.03571
1052.45	6.36133
1055.82	23.1717
1059.19	21.5165
1062.57	21.7833
1065.94	37.5565
1069.32	25.6926
1072.69	7.55365
1076.07	30.7828
1079.44	32.9395
1082.82	1.31732
1086.19	32.3513
1089.57	25.5056
1092.94	70.9165
1096.32	40.8483
1099.69	35.0453
1103.07	28.3098
1106.44	18.5983
1109.82	29.3603
1113.19	12.6341
1116.57	63.3804
1119.94	4.01398
1123.32	15.032
1126.69	27.827
1130.07	27.64
1133.44	0.570251
1136.82	25.8829
1140.19	22.9663
1143.57	15.1456
1146.94	28.9576
1150.32	41.5579
1153.69	11.3256
1157.07	5.85919
1160.44	16.4279
1163.82	5.39069
1167.19	17.882
1170.56	38.635
1173.94	17.3872
1177.31	23.0062
1180.69	32.6583
1184.06	30.3092
1187.44	14.8817
1190.81	7.95184
1194.19	39.8957
1197.56	3.37109
1200.94	21.8013
1204.31	8.80585
1207.69	2.97601
1211.06	32.2425
1214.44	7.91803
1217.81	24.7613
1221.19	31.686
1224.56	0.325439
1227.94	44.1365
1231.31	27.6901
1234.69	20.5591
1238.06	25.2196
1241.44	30.0996
1244.81	18.2299
1248.18	14.1138
1251.56	27.8226
1254.93	3.85406
1258.31	41.6094
1261.68	18.3975
1265.06	33.887
1268.43	17.3594
1271.81	39.3628
1275.18	13.5501
1278.56	33.8473
1281.93	26.246
1285.31	35.7477
1288.68	21.5994
1292.06	3.00702
1295.43	25.1115
1298.81	12.0118
1302.18	10.3048
1305.56	14.0655
