Measurement: Raman, 785 nm, unoriented, Raman Data Processed
Mineral: Carrollite
Rruff sample: R050089
Ideal chemistry: Cu^1+^Co_2_S_4_
Locality: Kambove, Katanga, Democratic Republic of the Congo
Source: Rock Currier
Description: Steel-gray octahedral crystal associated with calcite
Measured chemistry: (Cu_0.96_Fe^2+^_0.04_)_Σ=1_Co_2.00_S_4.00_ ; the vein is pyrite: (Fe_0.99_Co_0.01_)_Σ=1_S_2.00_
Raman shift (cm-1)	intensity
174.544	0
177.437	2.43555
180.329	15.1521
183.222	18.468
186.115	26.1572
189.008	23.661
191.9	42.6031
194.793	7.67224
197.686	27.2988
200.578	40.9735
203.471	40.9791
206.364	27.7585
209.256	16.7474
212.149	29.205
215.042	42.3264
217.935	27.9736
220.827	39.5272
223.72	69.0125
226.613	69.4683
229.505	72.5948
232.398	102.488
235.291	128.577
238.184	165.523
241.076	200.735
243.969	218.495
246.862	249.925
249.754	265.399
252.647	299.248
255.54	331.513
258.432	342.329
261.325	322.982
264.218	324.21
267.111	284.199
270.003	218.391
272.896	208.452
275.789	173.637
278.681	118.927
281.574	115.475
284.467	95.6918
287.359	127.016
290.252	101.816
293.145	110.928
296.038	89.7676
298.93	98.2792
301.823	102.272
304.716	116.488
307.608	117.217
310.501	108.034
313.394	92.7812
316.286	90.9609
319.179	77.7891
322.072	74.0625
324.964	41.2172
327.857	47.1589
330.75	29.375
333.643	43.5328
336.535	39.1473
339.428	53.7815
342.321	23.4094
345.213	0.96167
348.106	0.785767
350.999	2.70398
353.892	2.3136
356.784	37.048
359.677	2.23657
362.57	21.6072
365.462	9.02307
368.355	5.02795
371.248	4.35681
374.14	12.7783
377.033	7.27478
379.926	20.9753
382.818	36.7602
385.711	46.5177
388.604	37.3492
391.497	5.49451
394.389	22.3904
397.282	15.8356
400.175	18.9431
403.067	15.3303
405.96	35.7002
408.853	9.37146
411.745	0.526001
414.638	36.0132
417.531	35.9828
420.424	35.6212
423.316	1.20068
426.209	32.2183
429.102	6.58069
431.994	27.9973
434.887	26.8699
437.78	45.55
440.673	49.2766
443.565	55.0527
446.458	93.3911
449.351	98.223
452.243	122.9
455.136	182.732
458.029	228.895
460.921	309.59
463.814	391.081
466.707	489.536
469.599	580.901
472.492	593.15
475.385	478.377
478.278	313.927
481.17	166.665
484.063	113.034
486.956	81.7533
489.848	52.0311
492.741	27.2703
495.634	43.9769
498.526	38.6212
501.419	11.2997
504.312	4.81494
507.205	3.15198
510.097	25.4013
512.99	19.7308
515.883	31.6705
518.775	25.415
521.668	15.5912
524.561	11.9777
527.454	30.408
530.346	15.995
533.239	1.75452
536.132	39.8306
539.024	34.7542
541.917	20.0139
544.81	0.055786
547.702	19.6219
550.595	25.0139
553.488	10.9562
556.38	30.3005
559.273	1.06433
562.166	6.88672
565.059	16.7468
567.951	5.60693
570.844	4.79736
573.737	27.001
576.629	28.3733
579.522	42.5416
582.415	31.4598
585.308	25.115
588.2	37.5502
591.093	15.0998
593.986	29.6506
596.878	20.4752
599.771	5.9281
602.664	27.0001
605.556	17.0531
608.449	36.73
611.342	25.0184
614.235	14.2472
617.127	26.4908
620.02	17.8937
622.913	34.3517
625.805	15.5511
628.698	7.67957
631.591	47.3762
634.483	19.506
637.376	13.4842
640.269	18.5089
643.162	34.3016
646.054	29.6786
648.947	10.2871
651.84	33.0825
654.732	30.085
657.625	19.2969
660.518	23.2188
663.41	29.3236
666.303	17.277
669.196	18.2628
672.088	11.8901
674.981	22.2365
677.874	19.3803
680.767	1.25623
683.659	1.48975
686.552	33.3348
689.445	0.761963
692.337	10.0228
695.23	24.0919
698.123	19.8311
701.015	46.1011
703.908	6.81274
706.801	21.0574
709.694	40.6134
712.586	12.8475
715.479	1.25256
718.372	28.3413
721.264	25.6623
724.157	46.4065
727.05	42.615
729.942	42.7293
732.835	10.7362
735.728	19.0089
738.621	3.901
741.513	9.09582
744.406	41.5753
747.299	35.3838
750.191	30.7859
753.084	51.9998
755.977	21.9277
758.87	19.5104
761.762	15.1547
764.655	14.2244
767.548	25.3965
770.44	18.4949
773.333	9.76099
776.226	26.7176
779.118	14.1354
782.011	5.35535
784.904	7.06726
787.797	24.568
790.689	27.0626
793.582	1.1958
796.475	51.9108
799.367	28.1855
802.26	26.7394
805.153	25.3123
808.045	37.5017
810.938	27.2844
813.831	7.3385
816.723	20.4217
819.616	35.9767
822.509	30.8438
825.402	2.67676
828.294	36.8201
831.187	27.3975
834.08	44.7109
836.972	43.6582
839.865	8.66602
842.758	11.4109
845.65	5.98498
848.543	27.8933
851.436	40.971
854.329	36.5077
857.221	9.74023
860.114	31.7808
863.007	39.7455
865.899	36.8823
868.792	30.0173
871.685	34.9758
874.577	21.0441
877.47	43.4585
880.363	11.8539
883.256	24.821
886.148	21.8223
889.041	16.6028
891.934	35.8634
894.826	50.8015
897.719	24.2703
900.612	40.2689
903.505	42.2082
906.397	5.15234
909.29	20.4793
912.183	44.9492
915.075	16.9397
917.968	12.1168
920.861	1.56177
923.753	33.7794
926.646	23.1449
929.539	25.363
932.432	22.8386
935.324	20.4109
938.217	60.5077
941.11	17.5818
944.002	32.171
946.895	42.8513
949.788	7.14966
952.68	31.0431
955.573	5.40564
958.466	53.3284
961.359	42.4154
964.251	45.5823
967.144	2.05701
970.037	36.7734
972.929	18.13
975.822	16.8036
978.715	14.6361
981.607	37.7208
984.5	30.4197
987.393	15.2039
990.285	22.3774
993.178	14.3843
996.071	60.3944
998.964	25.0629
1001.86	26.4037
1004.75	16.7378
1007.64	34.6965
1010.53	37.1322
1013.43	25.8784
1016.32	35.0999
1019.21	18.4314
1022.11	17.3396
1025	12.2435
1027.89	4.89563
1030.78	11.1527
1033.68	23.297
1036.57	25.3635
1039.46	11.4579
1042.35	41.0409
1045.25	43.5873
1048.14	22.1521
1051.03	23.9042
1053.92	52.0645
1056.82	16.8669
1059.71	25.3059
1062.6	21.1976
1065.5	26.0222
1068.39	31.8124
1071.28	37.42
1074.17	45.3948
1077.07	54.0475
1079.96	3.73621
1082.85	14.2207
1085.74	2.96204
1088.64	41.9719
1091.53	34.4654
1094.42	8.27417
1097.32	30.852
1100.21	16.5074
1103.1	2.40356
1105.99	17.1929
1108.89	9.37219
1111.78	33.4559
1114.67	11.9078
1117.56	19.1653
1120.46	76.7965
1123.35	17.6036
1126.24	13.6542
1129.13	53.0359
1132.03	22.2081
1134.92	14.0144
1137.81	39.0281
1140.71	35.842
1143.6	27.7391
1146.49	29.8152
1149.38	20.1621
1152.28	15.0729
1155.17	40.7063
1158.06	26.4367
1160.95	59.8196
1163.85	26.364
1166.74	52.4628
1169.63	17.8707
1172.53	16.5391
1175.42	23.678
1178.31	49.1189
1181.2	5.56006
1184.1	29.7523
1186.99	18.9947
1189.88	16.2665
1192.78	20.3306
1195.67	22.1443
1198.56	37.956
1201.45	41.4365
1204.35	12.084
1207.24	1.41443
1210.13	31.7534
1213.02	36.1887
1215.92	28.3429
1218.81	16.0745
1221.7	26.2257
1224.59	0.132996
1227.49	1.13794
1230.38	5.00207
