Measurement: Raman, 532 nm, unoriented, Raman Data Processed
Mineral: Carrollite
Rruff sample: R040165
Ideal chemistry: Cu^1+^Co_2_S_4_
Locality: Katanga, Democratic Republic of the Congo
Source: University of Arizona Mineral Museum
Description: Steel gray octahedral crystals that have a tarnished exterior
Measured chemistry: (Cu_0.97_Fe_0.03_)Co_1.98_S_4_
Raman shift (cm-1)	intensity
196.558	0
199.451	0.584721
202.343	0.068998
205.236	0.533741
208.129	1.31657
211.021	0.802151
213.914	1.04363
216.807	1.17668
219.699	1.17624
222.592	1.26385
225.485	1.10435
228.377	1.29588
231.27	1.14306
234.163	1.80401
237.056	1.87221
239.948	2.5357
242.841	3.32984
245.734	4.1472
248.626	5.43935
251.519	6.09668
254.412	7.23945
257.305	8.92791
260.197	9.28702
263.09	9.97554
265.983	9.11733
268.875	8.2101
271.768	5.75685
274.661	4.58244
277.553	3.12627
280.446	2.90093
283.339	1.77134
286.232	1.586
289.124	1.03131
292.017	0.80525
294.91	1.46636
297.802	1.29398
300.695	0.781872
303.588	1.16098
306.481	0.893969
309.373	0.702112
312.266	0.200123
315.159	0.567608
318.051	0.736904
320.944	0.153761
323.837	0.176666
326.729	0.221292
329.622	0.500463
332.515	0.679287
335.408	0.395292
338.3	0.071941
341.193	0.497135
344.086	0.026318
346.978	0.264027
349.871	0.668966
352.764	0.840405
355.656	0.91209
358.549	0.002541
361.442	0.313915
364.334	0.277363
367.227	0.094254
370.12	0.050472
373.012	0.31514
375.905	0.635429
378.798	1.09138
381.691	1.41967
384.583	1.88767
387.476	1.84144
390.369	0.885538
393.261	0.163357
396.154	0.181301
399.047	0.018843
401.94	0.241232
404.832	0.020367
407.725	0.414227
410.618	0.622166
413.51	0.604361
416.403	0.008711
419.296	0.117517
422.188	0.214821
425.081	0.392126
427.974	0.818138
430.866	1.31931
433.759	2.16216
436.652	3.52326
439.545	5.7118
442.437	7.71916
445.33	11.9993
448.223	16.8027
451.115	23.6754
454.008	34.1796
456.901	49.0654
459.793	69.5008
462.686	91.0205
465.579	115.72
468.472	143.255
471.364	167.291
474.257	170.414
477.15	130.783
480.042	76.8865
482.935	42.5378
485.828	26.2056
488.721	16.8623
491.613	10.8333
494.506	7.82833
497.399	4.60857
500.291	3.45906
503.184	2.63977
506.077	2.36741
508.969	1.40756
511.862	1.17572
514.755	0.579906
517.648	0.297428
520.54	0.615303
523.433	0.751022
526.326	0.597277
529.218	0.792723
532.111	0.558058
535.004	0.585711
537.896	0.917681
540.789	0.392725
543.682	0.402086
546.575	0.64994
549.467	0.395893
552.36	0.202946
555.253	0.837503
558.145	0.033421
561.038	0.35364
563.931	0.035561
566.823	0.042866
569.716	0.151051
572.609	0.117443
575.502	0.328306
578.394	0.027145
581.287	0.344879
584.18	0.278915
587.072	0.973904
589.965	0.604868
592.858	0.592691
595.75	1.54698
598.643	0.86043
601.536	1.0078
604.428	0.873756
607.321	0.787987
610.214	0.843327
613.107	0.778202
615.999	0.709959
618.892	0.43034
621.785	0.617224
624.677	0.52145
627.57	0.555023
630.463	0.524324
633.356	0.484848
636.248	0.003647
639.141	6.9e-05
642.034	0.367235
644.926	0.181513
647.819	0.389938
650.712	0.010468
653.604	0.164162
656.497	0.117834
659.39	0.109344
662.283	0.172319
665.175	0.673138
668.068	0.820082
670.961	0.595858
673.853	0.556696
676.746	0.057245
679.639	0.280569
682.531	0.317709
685.424	0.21208
688.317	0.127594
691.21	0.157328
694.102	0.280445
696.995	0.373516
699.888	0.229237
702.78	0.443611
705.673	0.333561
708.566	0.504061
711.458	0.446707
714.351	0.141266
717.244	0.647995
720.136	0.580271
723.029	0.623589
725.922	0.389469
728.815	0.819225
731.707	0.776987
734.6	1.26496
737.493	0.825226
740.385	0.73103
743.278	0.585419
746.171	0.184851
749.063	1.09505
751.956	0.417086
754.849	0.718004
757.742	0.678947
760.634	0.630663
763.527	0.29141
766.42	0.248394
769.312	0.617552
772.205	0.259689
775.098	0.242395
777.99	0.089708
780.883	0.427477
783.776	0.58033
786.669	0.502974
789.561	0.558784
792.454	0.042412
795.347	0.299217
798.239	0.046484
801.132	0.061558
804.025	0.291433
806.918	0.257044
809.81	0.338406
812.703	0.249975
815.596	0.363174
818.488	0.146973
821.381	0.56118
824.274	0.852585
827.166	0.354967
830.059	0.064693
832.952	0.010931
835.845	0.288292
838.737	0.770912
841.63	0.424055
844.523	0.284231
847.415	0.425146
850.308	0.021683
853.201	0.257875
856.093	0.466888
858.986	0.237097
861.879	0.150776
864.771	0.104151
867.664	0.008837
870.557	0.419552
873.45	0.156141
876.342	0.298681
879.235	0.641287
882.128	0.332502
885.02	0.096909
887.913	0.533648
890.806	0.838289
893.698	0.779388
896.591	0.839972
899.484	1.17051
902.377	1.8156
905.269	1.80773
908.162	1.86975
911.055	2.78617
913.947	2.94137
916.84	4.28974
919.733	3.87323
922.625	4.33421
925.518	4.33012
928.411	4.20236
931.304	3.2048
934.196	3.06687
937.089	2.23452
939.982	1.83535
942.875	1.58739
945.767	0.958076
948.66	1.41921
951.553	0.520554
954.445	0.724459
957.338	0.259169
960.231	0.426531
963.123	0.327744
966.016	0.215353
968.909	0.12833
971.802	0.015972
974.694	0.019764
977.587	0.772795
980.48	0.915409
983.372	0.866005
986.265	0.336329
989.158	0.546009
992.05	0.30764
994.943	0.25248
997.836	0.365532
1000.73	0.073246
1003.62	0.05698
1006.51	0.42738
1009.41	0.166542
1012.3	0.540804
1015.19	0.280931
1018.09	0.69586
1020.98	0.20422
1023.87	0.226923
1026.76	0.13743
1029.66	0.457531
1032.55	0.5306
1035.44	0.911757
1038.33	0.581579
1041.23	0.49539
1044.12	0.167624
1047.01	0.271219
1049.9	0.536877
1052.8	0.231548
1055.69	0.224428
1058.58	0.517254
1061.47	0.374685
1064.37	0.171864
1067.26	0.511673
1070.15	0.10261
1073.05	0.42901
1075.94	0.718704
1078.83	0.625246
1081.72	0.271336
1084.62	0.43309
1087.51	0.21714
1090.4	0.08692
1093.3	0.282869
1096.19	0.202915
1099.08	0.157389
1101.97	0.25688
1104.87	0.267721
1107.76	0.000153
1110.65	0.269442
1113.54	0.824867
1116.44	0.429293
1119.33	0.026258
1122.22	0.717005
1125.12	0.432096
1128.01	0.490591
1130.9	0.388607
1133.79	0.52492
1136.68	0.294344
1139.58	0.887917
1142.47	0.19706
1145.36	0.386154
1148.26	0.33584
1151.15	0.533251
1154.04	0.60577
1156.93	0.047501
1159.83	0.330568
1162.72	0.297688
1165.61	0.180613
1168.51	0.113327
1171.4	0.476675
1174.29	0.611755
1177.18	0.784624
1180.08	0.747911
1182.97	0.408606
1185.86	0.446781
1188.75	0.461277
1191.65	0.395567
1194.54	0.159637
1197.43	0.117762
1200.33	0.450325
1203.22	0.904251
1206.11	0.504677
1209	0.547588
1211.9	0.609114
1214.79	0.272966
1217.68	0.38747
1220.57	0.685917
1223.47	0.621529
1226.36	0.811594
1229.25	0.807547
1232.14	0.375523
1235.04	0.361761
1237.93	0.229116
1240.82	0.385147
1243.71	0.357605
1246.61	0.826794
1249.5	0.076326
1252.39	0.120989
1255.29	0.852718
1258.18	0.762114
1261.07	0.305031
1263.96	0.696716
1266.86	0.733433
1269.75	0.459726
1272.64	0.543873
1275.54	0.382303
1278.43	0.407352
1281.32	0.314428
1284.21	0.538198
1287.11	0.547802
1290	0.064566
1292.89	0.707077
1295.78	0.988131
1298.68	0.647913
1301.57	0.002794
