Measurement: Raman, 785 nm, unoriented, Raman Data Processed
Mineral: Caryopilite
Rruff sample: R070181
Ideal chemistry: Mn^2+^_3_Si_2_O_5_(OH)_4_
Locality: Harstigen Mine, Pajsberg, Filipstad, Varmland, Sweden
Source: Michael Scott
Description: Brown thin platelets coated in spessartine microcrystals
Raman shift (cm-1)	intensity
148.79	0
151.683	203.531
154.576	131.517
157.469	18.0129
160.361	139.311
163.254	263.111
166.147	243.117
169.039	182.684
171.932	129.699
174.825	171.881
177.717	234.331
180.61	276.769
183.503	264.462
186.395	293.315
189.288	425.135
192.181	513.165
195.074	734.319
197.966	902.006
200.859	1164.05
203.752	1305
206.644	1567.71
209.537	1737.99
212.43	1699.49
215.322	1563.8
218.215	1300.05
221.108	964.406
224.001	689.148
226.893	483.625
229.786	313.548
232.679	185.278
235.571	105.828
238.464	32.0215
241.357	16.3694
244.25	4.8894
247.142	46.5305
250.035	45.083
252.928	38.4209
255.82	9.75879
258.713	26.9126
261.606	46.6328
264.498	6.42749
267.391	9.70093
270.284	31.4646
273.176	15.5952
276.069	17.1558
278.962	74.7468
281.855	108.243
284.747	126.324
287.64	155.771
290.533	213.188
293.425	276.628
296.318	315.991
299.211	312.668
302.103	364.76
304.996	411.666
307.889	413.132
310.781	498.533
313.674	486.053
316.567	565.409
319.46	626.211
322.352	752.043
325.245	837.409
328.138	1038.19
331.03	1248.98
333.923	1516.61
336.816	1726.67
339.709	1745.91
342.601	1653.5
345.494	1635.36
348.387	1492.77
351.279	1380.59
354.172	1154.71
357.065	971.167
359.957	949.717
362.85	943.423
365.743	1037.87
368.635	1106.19
371.528	1263.24
374.421	1521.09
377.314	1869.12
380.206	2227.84
383.099	2620.74
385.992	2838.14
388.884	2764.44
391.777	2394.6
394.67	1830.26
397.562	1297.18
400.455	807.651
403.348	519.85
406.241	263.268
409.133	184.177
412.026	146.653
414.919	84.5623
417.811	63.7153
420.704	4.55981
423.597	24.5093
426.49	22.4453
429.382	89.5142
432.275	30.2803
435.168	37.0188
438.06	17.1157
440.953	22.3713
443.846	34.8794
446.738	32.5083
449.631	32.53
452.524	25.449
455.416	62.1558
458.309	67.697
461.202	84.2334
464.095	122.07
466.987	81.8159
469.88	100.339
472.773	123.929
475.665	140.236
478.558	138.634
481.451	186.179
484.344	241.325
487.236	283.811
490.129	364.827
493.022	439.357
495.914	487.83
498.807	551.794
501.7	543.598
504.592	476.22
507.485	390.499
510.378	312.697
513.27	361.806
516.163	431.293
519.056	525.202
521.949	698.005
524.841	898.185
527.734	1175.94
530.627	1413.76
533.519	1715.11
536.412	2132.32
539.305	2504.01
542.197	2760.68
545.09	2743.84
547.983	2532.16
550.875	2268.97
553.768	1981.64
556.661	1801.68
559.554	1630.7
562.446	1433.02
565.339	1136.69
568.232	896.564
571.125	690.006
574.017	534.565
576.91	420.532
579.803	371.151
582.695	237.923
585.588	187.647
588.481	97.4009
591.373	70.2913
594.266	33.9158
597.159	2.47827
600.052	14.9714
602.944	5.96436
605.837	46.1384
608.73	9.48193
611.622	9.09082
614.515	39.418
617.408	43.3962
620.3	25.1421
623.193	26.7156
626.086	37.7148
628.979	56.9062
631.871	67.3047
634.764	68.7378
637.657	118.919
640.549	105.661
643.442	153.697
646.335	193.344
649.227	223.338
652.12	277.334
655.013	325.974
657.905	445.846
660.798	576.901
663.691	729.219
666.584	1015.95
669.476	1287.61
672.369	1512.63
675.262	1519.21
678.154	1289.66
681.047	1032.86
683.94	702.384
686.832	511.46
689.725	377.419
692.618	251.941
695.511	206.055
698.403	164.503
701.296	119.82
704.189	107.635
707.081	58.0588
709.974	63.1023
712.867	49.3921
715.76	13.749
718.652	16.9163
721.545	0.574707
724.438	13.5737
727.33	12.1838
730.223	35.9094
733.116	4.29443
736.008	29.8286
738.901	51.52
741.794	102.362
744.687	129.97
747.579	128.503
750.472	199.826
753.365	205.872
756.257	163.921
759.15	130.977
762.043	28.1797
764.935	29.7139
767.828	21.0916
770.721	50.6565
773.613	51.0903
776.506	59.377
779.399	21.8821
782.292	29.3164
785.184	39.5947
788.077	40.8147
790.97	12.5515
793.862	15.074
796.755	7.7854
799.648	12.2024
802.54	2.65772
805.433	7.91357
808.326	17.822
811.218	18.1123
814.111	8.55396
817.004	2.50928
819.897	4.19629
822.789	7.02124
825.682	22.3628
828.575	10.4233
831.467	11.0571
834.36	63.1418
837.253	83.72
840.145	134.278
843.038	221.935
845.931	301.293
848.824	410.21
851.716	549.103
854.609	736.245
857.502	938.061
860.394	1184.03
863.287	1326.38
866.18	1400.53
869.072	1359.13
871.965	1244.6
874.858	1053.48
877.751	888.857
880.643	752.099
883.536	629.525
886.429	472.248
889.321	430.917
892.214	335.857
895.107	260.196
898	196.534
900.892	123.833
903.785	105.493
906.678	52.8315
909.57	36.0574
912.463	15.4053
915.356	6.06738
918.248	41.886
921.141	15.2839
924.034	16.4097
926.927	0.703369
929.819	61.3752
932.712	25.3232
935.605	67.1572
938.497	174.981
941.39	352.181
944.283	501.488
947.175	683.705
950.068	922.424
952.961	1210.24
955.854	1347.49
958.746	1522.12
961.639	1676.98
964.532	1810.44
967.424	1812.74
970.317	1699.4
973.21	1410.9
976.102	1182.69
978.995	979.612
981.888	783.213
984.78	701.828
987.673	641.42
990.566	496.302
993.459	394.579
996.351	333.786
999.244	297.332
1002.14	256.859
1005.03	298.322
1007.92	314.656
1010.82	446.707
1013.71	553.566
1016.6	643.065
1019.49	682.16
1022.39	665.535
1025.28	611.199
1028.17	621.1
1031.06	618.185
1033.96	708.106
1036.85	780.476
1039.74	799.107
1042.63	694.393
1045.53	521.623
1048.42	331.91
1051.31	179.321
1054.2	118.694
1057.1	73.5225
1059.99	50.5588
1062.88	46.291
1065.78	18.7788
1068.67	16.1738
1071.56	1.80566
1074.45	13.5869
1077.35	13.946
1080.24	11.1812
1083.13	13.3342
1086.03	6.2832
1088.92	8.82202
1091.81	43.3096
1094.7	52.8442
1097.6	47.1487
1100.49	67.771
1103.38	128.414
1106.27	96.5701
1109.17	147.022
1112.06	188.541
1114.95	183.161
1117.85	245.638
1120.74	200.522
1123.63	256.291
1126.52	244.794
1129.41	275.704
1132.31	285.591
1135.2	248.637
1138.09	250.741
1140.99	197.863
1143.88	166.019
1146.77	111.076
1149.66	36.3832
1152.56	42.9659
1155.45	3.33911
1158.34	5.07495
1161.23	10.9222
1164.13	11.9496
1167.02	22.0375
1169.91	14.9622
1172.81	19.2301
1175.7	11.9484
1178.59	50.6317
1181.48	60.0089
1184.38	89.4576
1187.27	93.6162
1190.16	75.397
1193.06	88.3497
1195.95	74.9232
1198.84	44.8088
1201.73	45.8901
1204.63	22.026
1207.52	51.557
1210.41	26.5031
1213.3	28.4627
1216.2	52.2278
1219.09	38.1069
1221.98	33.9147
1224.88	18.0482
1227.77	22.6095
