Measurement: Raman, 532 nm, unoriented, Raman Data Processed
Mineral: Caryopilite
Rruff sample: R070181
Ideal chemistry: Mn^2+^_3_Si_2_O_5_(OH)_4_
Locality: Harstigen Mine, Pajsberg, Filipstad, Varmland, Sweden
Source: Michael Scott
Description: Brown thin platelets coated in spessartine microcrystals
Raman shift (cm-1)	intensity
156.449	0
159.342	65.9502
162.234	67.8574
165.127	105.387
168.02	52.7353
170.913	91.1157
173.805	209.491
176.698	358.465
179.591	598.867
182.483	651.377
185.376	899.987
188.269	1186.95
191.161	1487.14
194.054	1672.93
196.947	1753.93
199.84	1751.94
202.732	1780.91
205.625	1815.87
208.518	1840.41
211.41	1760.95
214.303	1531.54
217.196	1260.56
220.089	1032.61
222.981	724.556
225.874	548.808
228.767	425.837
231.659	196.59
234.552	119.704
237.445	33.292
240.337	29.8301
243.23	54.8193
246.123	83.6841
249.015	92.2705
251.908	29.7676
254.801	27.8794
257.693	19.3125
260.586	47.6987
263.479	50.0845
266.372	9.0249
269.264	65.7056
272.157	127.67
275.05	157.853
277.942	158.301
280.835	160.371
283.728	252.408
286.62	249.121
289.513	372.498
292.406	364.551
295.299	376.35
298.191	467.233
301.084	462.715
303.977	523.782
306.869	576.239
309.762	556.657
312.655	780.152
315.548	845.787
318.44	965.375
321.333	1226.32
324.226	1438.66
327.118	1865.27
330.011	2311.11
332.904	2680.41
335.796	2843.76
338.689	2795.15
341.582	2436.36
344.474	2084.46
347.367	1777.86
350.26	1483.93
353.152	1295.28
356.045	1183.54
358.938	1225.82
361.831	1183.48
364.723	1231.31
367.616	1245.01
370.509	1355.16
373.401	1589.58
376.294	1820.05
379.187	2183.54
382.079	2475.17
384.972	2606.99
387.865	2553.87
390.758	2229.39
393.65	1682.7
396.543	1195.11
399.436	790.929
402.328	494.39
405.221	396.37
408.114	181.911
411.007	169.499
413.899	100.036
416.792	47.8208
419.685	78.5698
422.577	15.5078
425.47	57.5015
428.363	42.5327
431.255	65.2573
434.148	50.395
437.041	0.679199
439.933	41.9209
442.826	32.1157
445.719	8.35107
448.612	37.8008
451.504	55.3481
454.397	99.3433
457.29	40.5488
460.182	87.4087
463.075	67.3203
465.968	50.2495
468.86	31.6055
471.753	38.4131
474.646	181.409
477.538	240.506
480.431	290.324
483.324	346.502
486.217	559.492
489.109	747.685
492.002	979.218
494.895	1158.81
497.787	1264.98
500.68	1252.64
503.573	1039.3
506.466	861.708
509.358	850.216
512.251	876.743
515.144	912.93
518.036	1027.36
520.929	1205.74
523.822	1529.7
526.714	1940.96
529.607	2322.87
532.5	2754.19
535.393	3383.89
538.285	3963.98
541.178	4304.82
544.071	4308.27
546.963	4066.97
549.856	3672.69
552.749	3425.55
555.641	3161.41
558.534	2949.55
561.427	2525
564.319	2161.97
567.212	1787.7
570.105	1444.88
572.998	1146.99
575.89	989.133
578.783	807.674
581.676	585.499
584.568	479.902
587.461	295.246
590.354	221.809
593.246	111.644
596.139	56.3613
599.032	25.2417
601.924	24.2471
604.817	35.8897
607.71	55.7764
610.603	83.0269
613.495	50.9224
616.388	4.39648
619.281	52.0215
622.173	1.35742
625.066	90.3813
627.959	114.924
630.851	128.354
633.744	209.877
636.637	231.105
639.53	255.921
642.422	293.937
645.315	346.715
648.208	445.504
651.1	507.102
653.993	601.523
656.886	781.704
659.779	1189.45
662.671	1312.44
665.564	1539.94
668.457	1949.79
671.349	2079.98
674.242	2221.77
677.135	1914.63
680.027	1714.42
682.92	1333.26
685.813	1151.29
688.705	913.614
691.598	820.926
694.491	666.7
697.384	554.429
700.276	401.365
703.169	226.266
706.062	289.752
708.954	158.716
711.847	117.515
714.74	144.182
717.632	56.8794
720.525	28.3833
723.418	30.8169
726.311	25.6597
729.203	50.1626
732.096	9.09473
734.989	50.1562
737.881	54.1289
740.774	95.4356
743.667	80.5181
746.559	188.04
749.452	142.209
752.345	272.543
755.237	246.083
758.13	192.517
761.023	118.131
763.916	76.7812
766.808	77.7695
769.701	93.4795
772.594	25.6929
775.486	40.4145
778.379	65.085
781.272	73.8477
784.164	9.00488
787.057	8.11328
789.95	33.356
792.843	4.49365
795.735	15.9048
798.628	55.3008
801.521	5.51514
804.413	6.0874
807.306	27.0288
810.199	7.7749
813.091	24.0737
815.984	53.9614
818.877	34.9507
821.769	26.8525
824.662	46.7861
827.555	50.6621
830.448	48.4951
833.34	113.607
836.233	189.228
839.126	207.234
842.018	268.499
844.911	451.272
847.804	670.002
850.697	843.229
853.589	1094.74
856.482	1457.74
859.375	1729.94
862.267	2076.09
865.16	2066.65
868.053	2029.69
870.945	1831.34
873.838	1556.14
876.731	1250.62
879.624	1077.74
882.516	888.451
885.409	756.664
888.302	623.741
891.194	518.598
894.087	453.576
896.98	356.585
899.872	248.231
902.765	227.807
905.658	97.9238
908.551	104.941
911.443	77.2598
914.336	29.7695
917.229	5.66894
920.121	3.57324
923.014	21.6836
925.907	51.1934
928.799	31.1807
931.692	10.8594
934.585	147.649
937.477	150.461
940.37	276.087
943.263	524.408
946.155	801.164
949.048	1080.28
951.941	1365.44
954.834	1694.56
957.726	1912.52
960.619	2095.37
963.512	2200.31
966.404	2143.39
969.297	2048.67
972.19	1704.84
975.082	1437.35
977.975	1153.01
980.868	946.548
983.761	900.769
986.653	687.389
989.546	597.854
992.439	410.812
995.331	284.658
998.224	155.645
1001.12	214.321
1004.01	93.5029
1006.9	198.375
1009.79	264.805
1012.69	316.582
1015.58	355.481
1018.47	401.271
1021.37	476.319
1024.26	539.418
1027.15	666.977
1030.04	899.227
1032.94	1062.95
1035.83	1290.81
1038.72	1312.48
1041.62	1137.28
1044.51	875.536
1047.4	600.716
1050.29	382.169
1053.18	155.238
1056.08	122.394
1058.97	116.22
1061.86	84.7978
1064.76	16.4453
1067.65	31.5107
1070.54	3.51953
1073.43	55.4346
1076.33	57.877
1079.22	3.3418
1082.11	7.8916
1085.01	0.125977
1087.9	13.791
1090.79	14.1787
1093.68	67.6387
1096.58	30.041
1099.47	88.5098
1102.36	122.874
1105.25	142.238
1108.15	199.051
1111.04	183.496
1113.93	160.421
1116.83	235.41
1119.72	289.763
1122.61	288.043
1125.5	356.259
1128.4	324.807
1131.29	279.437
1134.18	385.007
1137.07	304.9
1139.97	218.708
1142.86	176.956
1145.75	119.762
1148.64	17.4287
1151.54	31.2969
1154.43	22.5156
1157.32	21.1445
1160.21	2.83301
1163.11	36.5
1166	0.469727
1168.89	6.61719
1171.79	20.9912
1174.68	87.9668
1177.57	120.536
1180.46	65.6826
1183.36	134.567
1186.25	135.095
1189.14	95.2754
1192.04	151.446
1194.93	111.907
1197.82	130.425
1200.71	88.124
1203.61	245.006
1206.5	252.082
1209.39	142.292
1212.28	186.727
1215.18	137.424
1218.07	258.034
1220.96	230.048
1223.85	98.792
1226.75	112.24
1229.64	102.774
1232.53	88.9922
1235.42	98.0352
1238.32	100.299
1241.21	77.8106
1244.1	102.731
1247	41.6348
1249.89	71.6113
1252.78	119.618
1255.67	42.8965
1258.57	100.142
1261.46	85.5
1264.35	76.3682
1267.24	21.1523
1270.14	116.484
1273.03	107.736
1275.92	111.911
1278.82	78.1269
1281.71	76.5762
1284.6	57.543
1287.49	35.0908
1290.39	59.2305
1293.28	13.7559
1296.17	18.0176
