Measurement: Raman, 532 nm, unoriented, Raman Data Processed
Mineral: Caryinite
Rruff sample: R060663
Ideal chemistry: (Na,Pb^2+^)(Ca,Na)CaMn^2+^_2_(As^5+^O_4_)_3_
Locality: Langban, Filipstad, Varmland, Sweden
Source: Michael Scott
Description: Brown massive
Raman shift (cm-1)	intensity
129.719	0
132.612	66.271
135.504	141.346
138.397	200.315
141.29	276.169
144.182	321.231
147.075	378.603
149.968	392.108
152.861	364.818
155.753	331.671
158.646	310.149
161.539	284.3
164.431	278.287
167.324	281.852
170.217	235.635
173.109	230.81
176.002	208.035
178.895	212.2
181.788	215.806
184.68	246.706
187.573	224.839
190.466	232.943
193.358	212.586
196.251	206.047
199.144	207.186
202.036	209.312
204.929	247.469
207.822	264.712
210.714	232.454
213.607	231.935
216.5	269.3
219.393	204.235
222.285	188.452
225.178	158.68
228.071	170.502
230.963	123.861
233.856	135.623
236.749	99.93
239.641	86.821
242.534	23.763
245.427	65.211
248.32	67.462
251.212	94.268
254.105	28.679
256.998	5.777
259.89	31.863
262.783	11.526
265.676	15.662
268.569	29.605
271.461	8.191
274.354	39.514
277.247	19.945
280.139	24.193
283.032	24.41
285.925	24.156
288.817	4.562
291.71	23.818
294.603	30.737
297.496	34.415
300.388	45.161
303.281	34.594
306.174	38.249
309.066	78.444
311.959	80.178
314.852	215.282
317.744	461.258
320.637	405.99
323.53	352.878
326.422	329.834
329.315	289.124
332.208	313.367
335.1	288.458
337.993	244.609
340.886	270.046
343.779	294.636
346.671	405.841
349.564	593.2
352.457	787.87
355.349	1036.34
358.242	1255.08
361.135	1461.66
364.027	1476.08
366.92	1509.52
369.813	1610.1
372.706	1611.88
375.598	1782.46
378.491	1865.16
381.384	1829.2
384.276	1769.38
387.169	1623.77
390.062	1575.94
392.954	1536.36
395.847	1714.63
398.74	1831.54
401.633	1964.33
404.525	2035.69
407.418	1990.63
410.311	1791.35
413.203	1586.26
416.096	1366.61
418.989	1138
421.881	916.804
424.774	690.18
427.667	553.679
430.56	504.015
433.452	476.301
436.345	501.118
439.238	584.909
442.13	682.342
445.023	856.999
447.916	1010.51
450.808	1180.41
453.701	1269.27
456.594	1294.65
459.487	1222.79
462.379	1120.45
465.272	921.793
468.165	750.348
471.057	637.338
473.95	492.549
476.843	400.461
479.735	351.605
482.628	282.78
485.521	257.707
488.414	231.421
491.306	222.572
494.199	136.646
497.092	168.844
499.984	140.102
502.877	129.679
505.77	196.663
508.662	190.298
511.555	259.224
514.448	230.287
517.341	233.09
520.233	240.073
523.126	231.154
526.019	236.676
528.911	208.887
531.804	211.745
534.697	154.483
537.589	191.302
540.482	168.729
543.375	148.842
546.268	153.267
549.16	103.563
552.053	58.092
554.945	27.5
557.838	17.16
560.731	3.392
563.624	47.683
566.516	25.707
569.409	33.736
572.302	80.398
575.194	49.032
578.087	70.695
580.98	37.546
583.872	91.717
586.765	32.462
589.658	42.061
592.551	23.311
595.443	1.9
598.336	17.228
601.229	1.282
604.121	13.427
607.014	4.012
609.907	12.728
612.799	11.593
615.692	7.01
618.585	21.891
621.477	8.95
624.37	13.038
627.263	22.274
630.156	4.328
633.048	9.89
635.941	1.855
638.834	3.241
641.726	14.239
644.619	7.724
647.512	11.05
650.404	18.046
653.297	37.084
656.19	34.283
659.083	29.794
661.975	15.121
664.868	52.049
667.761	31.161
670.653	3.822
673.546	1.995
676.439	29.178
679.331	28.579
682.224	35.291
685.117	10.341
688.01	32.079
690.902	24.384
693.795	16.1
696.688	50.096
699.58	49.853
702.473	36.869
705.366	94.809
708.258	72.903
711.151	85.659
714.044	76.537
716.937	70.552
719.829	63.123
722.722	42.579
725.615	69.681
728.507	34.376
731.4	63.894
734.293	6.805
737.185	12.069
740.078	7.209
742.971	75.932
745.864	83.364
748.756	131.714
751.649	187.778
754.542	289.362
757.434	369.879
760.327	513.989
763.22	631.157
766.112	751.4
769.005	957.558
771.898	1088.8
774.791	1342.22
777.683	1524.88
780.576	1669.55
783.469	1808.48
786.361	2038.32
789.254	2210.16
792.147	2476.71
795.039	2844.73
797.932	3300.39
800.825	3663.94
803.718	4102.41
806.61	4567.55
809.503	5054.75
812.396	5652.75
815.288	6477.51
818.181	7488.48
821.074	8423.1
823.966	10020.6
826.859	11996.2
829.752	14412.4
832.644	16881.9
835.537	18638.9
838.43	19269.4
841.323	18646.6
844.215	16919.5
847.108	14691.9
850.001	12467.2
852.893	10435.4
855.786	9126.15
858.679	8184.34
861.571	7667.02
864.464	7271.46
867.357	6820.26
870.25	6270.5
873.142	5497.36
876.035	4651.21
878.928	3835.44
881.82	3237.47
884.713	2805.8
887.606	2414.32
890.498	2056.71
893.391	1796.43
896.284	1579.32
899.177	1293.81
902.069	1038.89
904.962	749.038
907.855	502.859
910.747	324.835
913.64	173.404
916.533	93.429
919.425	90.234
922.318	45.981
925.211	74.777
928.104	45.588
930.996	10
933.889	38.467
936.782	5.802
939.674	44.433
942.567	35.425
945.46	22.467
948.352	9.183
951.245	6.317
954.138	29.512
957.031	32.115
959.923	64.745
962.816	52.505
965.709	59.248
968.601	105.651
971.494	75.663
974.387	64.304
977.279	54.991
980.172	25.741
983.065	35.786
985.957	24.38
988.85	14.745
991.743	12.59
994.635	3.588
997.528	29.361
1000.42	44.539
1003.31	9.233
1006.21	22.551
1009.1	14.646
1011.99	4.628
1014.88	8.757
1017.78	14.909
1020.67	29.165
1023.56	6.378
1026.45	16.695
1029.35	7.39
1032.24	13.208
1035.13	3.78
1038.03	15.269
1040.92	78.648
1043.81	5.295
1046.7	30.925
1049.6	17.034
1052.49	26.222
1055.38	43.39
1058.28	19.264
1061.17	32.084
1064.06	43.338
1066.95	45.116
1069.85	17.541
1072.74	2.053
1075.63	35.534
1078.52	18.551
1081.42	7.532
1084.31	24.725
1087.2	8.422
1090.09	28.628
1092.99	20.229
1095.88	15.331
1098.77	37.405
1101.66	26.829
1104.56	9.494
1107.45	11.825
1110.34	5.569
1113.24	49.452
1116.13	2.686
1119.02	16.724
1121.91	23.151
1124.81	9.833
1127.7	33.273
1130.59	1.162
1133.48	87.855
1136.38	33.163
1139.27	9.872
1142.16	29.605
1145.06	17.756
1147.95	4.031
1150.84	32.953
1153.73	25.143
1156.63	34.118
1159.52	49.695
1162.41	10.883
1165.31	53.126
1168.2	21.893
1171.09	14.505
1173.98	46.224
1176.88	43.972
1179.77	9.764
1182.66	3.413
1185.55	36.421
1188.45	28.619
1191.34	13.236
1194.23	19.926
1197.12	8.729
1200.02	44.559
1202.91	16.529
1205.8	4.111
1208.69	23.164
1211.59	3.626
1214.48	37.155
1217.37	51.042
1220.27	52.526
1223.16	19.404
1226.05	50.482
1228.94	34.331
1231.84	24.42
1234.73	15.312
1237.62	46.975
1240.52	8.557
1243.41	8.863
1246.3	26.383
1249.19	20.592
1252.09	15.357
1254.98	15.398
1257.87	0.793
1260.76	28.733
1263.66	2.125
1266.55	4.949
1269.44	57.158
1272.33	22.051
1275.23	36.057
1278.12	20.55
