Measurement: Raman, 780 nm, unoriented, Raman Data Processed
Mineral: Caryinite
Rruff sample: R060663
Ideal chemistry: (Na,Pb^2+^)(Ca,Na)CaMn^2+^_2_(As^5+^O_4_)_3_
Locality: Langban, Filipstad, Varmland, Sweden
Source: Michael Scott
Description: Brown massive
Raman shift (cm-1)	intensity
95.899	0
99.2738	0.103943
102.649	1.69534
106.023	6.5116
109.398	14.2386
112.773	6.88117
116.148	6.74683
119.523	1.16107
122.897	0.529449
126.272	1.02936
129.647	4.26358
133.022	7.19362
136.397	8.53181
139.772	12.8994
143.146	15.498
146.521	20.304
149.896	20.8608
153.271	16.923
156.646	17.8304
160.02	14.241
163.395	13.8895
166.77	12.1622
170.145	12.8301
173.52	15.003
176.894	15.4123
180.269	17.8809
183.644	19.902
187.019	22.7669
190.394	30.3925
193.769	33.9398
197.143	37.1603
200.518	41.6522
203.893	46.9618
207.268	49.1875
210.643	52.7157
214.018	55.7104
217.392	56.6788
220.767	54.9732
224.142	51.4813
227.517	47.787
230.892	44.3631
234.266	37.7795
237.641	30.8817
241.016	26.4591
244.391	23.2396
247.766	20.7783
251.14	16.9422
254.515	12.9427
257.89	9.4837
261.265	8.57988
264.64	4.97566
268.014	2.63586
271.389	0.67897
274.764	0.714951
278.139	0.444366
281.514	0.855728
284.889	1.16844
288.263	0.436401
291.638	1.02417
295.013	1.12125
298.388	0.061691
301.763	2.0538
305.137	3.09579
308.512	4.20987
311.887	3.19308
315.262	2.04504
318.637	3.15558
322.012	10.8346
325.386	17.6859
328.761	22.703
332.136	19.9899
335.511	16.6704
338.886	9.66354
342.26	4.52216
345.635	5.59689
349.01	11.4078
352.385	21.9822
355.76	42.6433
359.135	68.9724
362.509	87.2065
365.884	89.0401
369.259	74.756
372.634	66.5323
376.009	72.3028
379.383	89.3812
382.758	118.776
386.133	151.003
389.508	192.309
392.883	247.045
396.257	312.715
399.632	390.655
403.007	468.476
406.382	526.793
409.757	564.192
413.132	574.746
416.506	553.361
419.881	512.218
423.256	459.836
426.631	394.192
430.006	337.44
433.38	279.271
436.755	232.192
440.13	195.004
443.505	167.501
446.88	145.572
450.255	129.23
453.629	117.642
457.004	104.83
460.379	86.3861
463.754	66.7391
467.129	44.6472
470.503	25.3939
473.878	10.1265
477.253	2.68085
480.628	1.86978
484.003	6.13391
487.377	4.98718
490.752	5.42014
494.127	4.5144
497.502	1.66199
500.877	2.2356
504.252	7.39694
507.626	16.0534
511.001	21.9051
514.376	29.9499
517.751	34.9403
521.126	38.7175
524.5	43.1148
527.875	44.1818
531.25	43.8543
534.625	43.6564
538	42.15
541.375	37.004
544.749	30.2047
548.124	22.9059
551.499	16.8211
554.874	8.93924
558.249	3.80158
561.623	0.121902
564.998	0.475708
568.373	1.08679
571.748	0.313492
575.123	3.62305
578.497	5.36226
581.872	9.67899
585.247	13.0153
588.622	16.2577
591.997	20.6582
595.371	24.5384
598.746	31.1473
602.121	30.9771
605.496	34.0157
608.871	37.0485
612.246	37.6223
615.62	39.2476
618.995	39.4772
622.37	38.6394
625.745	37.3021
629.12	35.7464
632.494	33.8563
635.869	32.2609
639.244	29.7458
642.619	29.4082
645.994	26.5391
649.369	25.7956
652.743	25.7273
656.118	24.2874
659.493	25.5057
662.868	26.3416
666.243	27.8376
669.617	27.3665
672.992	22.6714
676.367	17.4974
679.742	15.6489
683.117	12.7647
686.491	13.1222
689.866	12.9394
693.241	13.1199
696.616	12.1496
699.991	12.655
703.366	10.7963
706.74	9.99947
710.115	9.28871
713.49	8.50995
716.865	7.08762
720.24	5.82222
723.614	4.20226
726.989	2.00337
730.364	0.38858
733.739	0.82869
737.114	2.27153
740.489	3.12698
743.863	5.60887
747.238	5.49789
750.613	5.5667
753.988	4.14026
757.363	2.69104
760.737	2.31029
764.112	1.58667
767.487	6.20169
770.862	10.6537
774.237	15.9616
777.611	22.4709
780.986	29.3939
784.361	36.0654
787.736	47.1541
791.111	60.4345
794.486	80.8088
797.86	108.963
801.235	141.551
804.61	179.252
807.985	220.596
811.36	265.137
814.734	320.747
818.109	393.868
821.484	493.984
824.859	627.4
828.234	806.392
831.609	1028.54
834.983	1262.91
838.358	1426.97
841.733	1433.88
845.108	1308.39
848.483	1104.28
851.857	881.432
855.232	699.214
858.607	579.182
861.982	515.808
865.357	491.278
868.731	485.641
872.106	464.979
875.481	399.411
878.856	311.045
882.231	233.907
885.606	175.978
888.98	133.369
892.355	101.828
895.73	77.575
899.105	57.023
902.48	39.8313
905.854	24.1631
909.229	11.6744
912.604	0.53685
915.979	5.79678
919.354	7.83424
922.729	7.04167
926.103	7.24182
929.478	3.56038
932.853	0.957001
936.228	4.88649
939.603	7.5468
942.977	10.6837
946.352	12.9594
949.727	13.0544
953.102	13.229
956.477	13.3241
959.851	12.9064
963.226	14.7333
966.601	15.9046
969.976	19.0114
973.351	21.5149
976.726	20.7977
980.1	17.4219
983.475	13.9458
986.85	11.2912
990.225	11.9153
993.6	9.42139
996.974	8.27111
1000.35	9.69082
1003.72	7.24984
1007.1	6.12057
1010.47	4.20895
1013.85	3.43724
1017.22	1.52317
1020.6	3.43324
1023.97	0.455841
1027.35	0.96225
1030.72	0.958969
1034.1	0.225662
1037.47	0.384384
1040.85	0.849396
1044.22	1.30637
1047.6	0.602173
1050.97	0.568153
1054.35	0.679817
1057.72	0.275528
1061.1	0.607246
1064.47	1.4026
1067.85	1.46983
1071.22	1.1615
1074.6	2.05994
1077.97	2.56041
1081.35	2.65376
1084.72	6.76658
1088.09	4.10221
1091.47	5.11986
1094.84	6.76817
1098.22	7.71704
1101.59	9.97465
1104.97	11.1011
1108.34	12.7801
1111.72	14.6957
1115.09	17.239
1118.47	18.9623
1121.84	22.0568
1125.22	24.7522
1128.59	29.1567
1131.97	33.0258
1135.34	35.7778
1138.72	39.6869
1142.09	43.7283
1145.47	47.0604
1148.84	51.6382
1152.22	55.7915
1155.59	58.2832
1158.97	61.8592
1162.34	65.4023
1165.71	69.4163
1169.09	75.7968
1172.46	84.161
1175.84	92.0845
1179.21	97.8124
1182.59	98.0759
1185.96	100.62
1189.34	99.9182
1192.71	97.4168
1196.09	94.4451
1199.46	91.6534
1202.84	83.819
1206.21	76.8949
1209.59	69.2576
1212.96	54.0602
1216.34	40.5343
1219.71	24.582
1223.09	8.49075
1226.46	7.2858
1229.84	9.80179
1233.21	0.785828
1236.59	3.54324
1239.96	11.4355
1243.34	23.488
1246.71	33.909
1250.09	46.4573
1253.46	60.1225
1256.84	57.1678
1260.21	48.3941
1263.59	47.2524
1266.96	47.6774
1270.33	42.4613
1273.71	31.233
1277.08	20.2909
1280.46	8.42737
1283.83	1.54028
