Measurement: Raman, 780 nm, unoriented, Raman Data Processed
Mineral: Cassiterite
Rruff sample: R050502
Ideal chemistry: SnO_2_
Locality: Redruth, Cornwall, England
Source: California Institute of Technology
Description: Black crystals associated with colorless quartz and grey stannite.
Measured chemistry: SnO_2_
Raman shift (cm-1)	intensity
95.2696	0
98.6445	7.43753
102.019	1.96393
105.394	10.5406
108.769	12.7536
112.144	25.1415
115.519	36.8926
118.893	38.5409
122.268	46.0737
125.643	36.0479
129.018	22.8067
132.393	19.5468
135.767	14.6069
139.142	17.3841
142.517	15.9062
145.892	15.3519
149.267	11.7549
152.642	12.2985
156.016	15.2183
159.391	6.91031
162.766	4.5199
166.141	0.505829
169.516	1.60065
172.89	0.243103
176.265	0.579453
179.64	2.84482
183.015	2.41296
186.39	2.6351
189.764	1.80252
193.139	4.19412
196.514	10.0874
199.889	19.3846
203.264	31.1576
206.639	46.9616
210.013	67.7947
213.388	94.9687
216.763	124.399
220.138	161.223
223.513	199.247
226.887	224.423
230.262	241.882
233.637	249.189
237.012	230.47
240.387	195.487
243.762	132.861
247.136	83.4541
250.511	49.7872
253.886	29.7467
257.261	19.2609
260.636	16.9283
264.01	22.8617
267.385	26.713
270.76	35.7384
274.135	45.5239
277.51	58.8667
280.885	65.742
284.259	57.9679
287.634	40.0211
291.009	25.0592
294.384	14.4876
297.759	13.3061
301.134	12.0921
304.508	12.6637
307.883	14.0885
311.258	15.6037
314.633	20.6978
318.007	30.2813
321.382	35.7792
324.757	38.2703
328.132	39.7718
331.507	43.1261
334.882	38.795
338.256	32.0364
341.631	23.4808
345.006	18.5686
348.381	13.4743
351.756	10.368
355.13	8.11183
358.505	1.71218
361.88	1.90714
365.255	3.05409
368.63	2.55989
372.005	1.67738
375.379	1.33706
378.754	0.139496
382.129	0.415581
385.504	2.9674
388.879	6.23306
392.253	9.2066
395.628	13.973
399.003	18.4563
402.378	24.6039
405.753	33.707
409.128	43.9098
412.502	52.9206
415.877	64.2498
419.252	73.8197
422.627	85.4584
426.002	90.5219
429.377	95.3782
432.751	95.4419
436.126	91.0524
439.501	79.935
442.876	71.0086
446.25	60.7556
449.625	58.7136
453	52.8222
456.375	52.64
459.75	53.376
463.125	53.528
466.5	54.3856
469.874	52.6607
473.249	45.5072
476.624	33.5067
479.999	18.0475
483.373	15.3245
486.748	12.7262
490.123	13.4888
493.498	10.301
496.873	8.53012
500.248	5.85577
503.622	4.67639
506.997	4.81032
510.372	5.19994
513.747	2.33995
517.122	0.008652
520.496	0.459991
523.871	0.327866
527.246	2.06499
530.621	0.677872
533.996	1.43663
537.371	0.12793
540.745	1.7424
544.12	5.9682
547.495	5.35875
550.87	6.0613
554.245	14.4009
557.62	14.1711
560.994	20.1791
564.369	23.0409
567.744	26.6567
571.119	31.3514
574.494	35.6358
577.868	37.9379
581.243	43.4199
584.618	45.7272
587.993	48.3814
591.368	47.3745
594.742	46.0359
598.117	48.1718
601.492	49.5931
604.867	55.0702
608.242	59.8792
611.616	64.7358
614.991	74.5505
618.366	85.8638
621.741	101.077
625.116	114.827
628.491	124.093
631.865	117.161
635.24	90.4938
638.615	59.4865
641.99	43.6858
645.365	29.4368
648.74	21.4237
652.114	14.6245
655.489	8.12633
658.864	0.02356
662.239	0.979767
665.614	3.98811
668.988	0.967926
672.363	1.93825
675.738	3.35088
679.113	6.26036
682.488	8.80981
685.862	11.8003
689.237	13.6276
692.612	12.0296
695.987	12.585
699.362	10.5524
702.737	9.99834
706.111	12.2938
709.486	13.184
712.861	16.8983
716.236	16.4998
719.611	17.413
722.986	15.0781
726.36	13.1127
729.735	12.0549
733.11	11.623
736.485	11.2821
739.86	9.23707
743.234	7.946
746.609	6.6252
749.984	6.85927
753.359	4.92509
756.734	3.7804
760.109	2.1072
763.483	2.01466
766.858	2.74562
770.233	4.28863
773.608	4.93206
776.982	4.67151
780.357	4.63342
783.732	4.89973
787.107	4.99163
790.482	5.90265
793.857	6.70047
797.231	3.055
800.606	0.724838
803.981	0.528328
807.356	0.674721
810.731	0.107056
814.106	0.718452
817.48	1.54872
820.855	3.92068
824.23	2.77041
827.605	4.30509
830.98	5.22211
834.354	5.75659
837.729	6.79878
841.104	7.56067
844.479	9.58017
847.854	10.851
851.229	11.709
854.603	13.1238
857.978	12.0563
861.353	13.2993
864.728	13.0784
868.103	10.076
871.477	9.47902
874.852	9.93577
878.227	6.22063
881.602	6.46468
884.977	6.93329
888.351	5.39488
891.726	4.40039
895.101	4.92663
898.476	3.47902
901.851	1.62389
905.226	1.31583
908.6	1.57983
911.975	2.73429
915.35	0.594166
918.725	0.880581
922.1	1.27165
925.474	0.364231
928.849	1.1377
932.224	0.643131
935.599	0.086662
938.974	0.711498
942.348	0.896187
945.723	1.94188
949.098	1.0488
952.473	1.91948
955.848	1.70621
959.223	3.3916
962.597	1.71859
965.972	2.72106
969.347	3.74154
972.722	1.30464
976.097	0.35891
979.471	0.618561
982.846	1.03448
986.221	2.12573
989.596	0.141006
992.971	0.527355
996.346	0.817482
999.72	1.01941
1003.1	1.52877
1006.47	0.35907
1009.85	1.90595
1013.22	2.1995
1016.59	2.00637
1019.97	2.26596
1023.34	3.09361
1026.72	0.552189
1030.09	2.54718
1033.47	3.68518
1036.84	1.07285
1040.22	3.35859
1043.59	1.83493
1046.97	0.144276
1050.34	1.77544
1053.72	2.26408
1057.09	1.43496
1060.47	3.01031
1063.84	1.27869
1067.22	2.91929
1070.59	1.81966
1073.97	1.4809
1077.34	1.29762
1080.72	0.732998
1084.09	0.308949
1087.47	1.69995
1090.84	1.94751
1094.21	2.38492
1097.59	0.057472
1100.96	0.136425
1104.34	0.341358
1107.71	1.12857
1111.09	1.1337
1114.46	0.553444
1117.84	1.87571
1121.21	2.21669
1124.59	0.636639
1127.96	1.62099
1131.34	0.749462
1134.71	0.758869
1138.09	1.90751
1141.46	1.32905
1144.84	1.38666
1148.21	2.00408
1151.59	1.16278
1154.96	2.43633
1158.34	1.20178
1161.71	0.063908
1165.09	0.21109
1168.46	1.75191
1171.84	1.84561
1175.21	1.06156
1178.59	0.565434
1181.96	1.09179
1185.34	0.109089
1188.71	1.35631
1192.09	1.14175
1195.46	0.506016
1198.84	2.24602
1202.21	1.74869
1205.58	1.97744
1208.96	0.208233
1212.33	1.13569
1215.71	1.8716
1219.08	0.326626
1222.46	0.963123
1225.83	2.25116
1229.21	1.07878
1232.58	2.4048
1235.96	1.65423
1239.33	0.444592
1242.71	2.41651
1246.08	0.83617
1249.46	1.20892
1252.83	1.76368
1256.21	1.39499
1259.58	0.371536
1262.96	1.04782
1266.33	1.43219
1269.71	1.05954
1273.08	0.552185
1276.45	0.12233
1279.83	1.32819
1283.2	1.65593
