Measurement: Raman, 532 nm, unoriented, Raman Data Processed
Mineral: Cassiterite
Rruff sample: R060563
Ideal chemistry: SnO_2_
Locality: unknown
Source: Gemological Institute of America
Description: Dark brown fragment
Measured chemistry: Sn_1.00_O_2_
Raman shift (cm-1)	intensity
89.7832	0
93.158	54.7989
96.5328	28.8171
99.9077	10.3675
103.282	1.24033
106.657	6.89493
110.032	36.8854
113.407	14.3048
116.782	40.726
120.157	38.3002
123.531	31.5368
126.906	30.7832
130.281	25.4873
133.656	24.5818
137.031	11.9869
140.405	28.2671
143.78	8.0582
147.155	0.573395
150.53	2.39053
153.905	5.59049
157.28	11.2248
160.654	0.875702
164.029	1.25247
167.404	1.98602
170.779	1.45471
174.154	1.74637
177.528	1.95404
180.903	1.31445
184.278	1.45572
187.653	6.81873
191.028	8.92163
194.403	10.8526
197.777	16.1128
201.152	25.7011
204.527	39.3947
207.902	55.4892
211.277	78.3424
214.651	113.252
218.026	167.458
221.401	238.632
224.776	339.964
228.151	468.834
231.525	613.742
234.9	802.617
238.275	1024.04
241.65	1168.41
245.025	935.962
248.4	493.432
251.774	240
255.149	121.098
258.524	62.6901
261.899	27.5617
265.274	14.2302
268.649	20.8982
272.023	33.742
275.398	49.3539
278.773	109.334
282.148	274.164
285.523	482.406
288.897	252.84
292.272	81.6689
295.647	36.7988
299.022	19.8308
302.397	11.6895
305.772	9.83142
309.146	4.21219
312.521	1.20309
315.896	0.397125
319.271	3.09708
322.646	1.91815
326.02	2.9596
329.395	1.73663
332.77	0.071991
336.145	0.294052
339.52	1.9599
342.894	2.4263
346.269	2.07646
349.644	0.709717
353.019	1.54237
356.394	0.600708
359.769	0.766953
363.143	1.75192
366.518	1.94203
369.893	2.19142
373.268	2.1658
376.643	1.11365
380.017	0.289581
383.392	0.696609
386.767	0.84343
390.142	1.64053
393.517	1.06195
396.892	1.48247
400.266	1.34892
403.641	4.2533
407.016	4.18834
410.391	6.36658
413.766	9.70778
417.14	10.7218
420.515	14.2043
423.89	12.2629
427.265	15.198
430.64	21.3278
434.014	29.1088
437.389	35.9244
440.764	35.127
444.139	25.4638
447.514	18.6819
450.889	22.6196
454.263	33.3259
457.638	48.9441
461.013	73.3627
464.388	107.569
467.763	149.457
471.137	200.321
474.512	283.498
477.887	240.532
481.262	118.32
484.637	93.338
488.012	97.6544
491.386	95.6673
494.761	83.8612
498.136	77.2971
501.511	66.7647
504.886	54.5323
508.26	46.9197
511.635	36.7067
515.01	28.6981
518.385	14.9778
521.76	3.52164
525.135	3.99329
528.509	6.24902
531.884	5.59952
535.259	1.51413
538.634	3.61054
542.009	9.92078
545.384	6.0466
548.758	1.46631
552.133	2.48154
555.508	6.18494
558.883	12.4898
562.258	22.46
565.632	33.4761
569.007	50.272
572.382	69.1804
575.757	94.7707
579.132	121.106
582.506	149.537
585.881	171.633
589.256	183.188
592.631	182.563
596.006	170.844
599.381	147.786
602.755	122.982
606.13	103.568
609.505	94.0206
612.88	90.2539
616.255	100.538
619.63	139.3
623.004	206.53
626.379	316.067
629.754	486.44
633.129	656.571
636.504	580.205
639.878	326.721
643.253	172.231
646.628	104.005
650.003	69.8353
653.378	47.5919
656.752	30.9069
660.127	18.5724
663.502	10.6909
666.877	4.21851
670.252	1.54376
673.626	3.86014
677.001	6.0267
680.376	11.5999
683.751	24.0877
687.126	35.8309
690.501	45.8114
693.875	49.8763
697.25	46.9507
700.625	28.9436
704	2.75467
707.375	5.18684
710.75	6.05406
714.124	4.60495
717.499	1.42722
720.874	0.498993
724.249	1.25711
727.624	3.48732
730.998	4.57129
734.373	6.81244
737.748	7.68875
741.123	7.21605
744.498	9.34485
747.872	7.79842
751.247	9.17639
754.622	7.06659
757.997	7.46855
761.372	9.70616
764.747	17.037
768.121	32.987
771.496	54.2667
774.871	71.6835
778.246	68.2941
781.621	50.9693
784.995	37.2009
788.37	33.2783
791.745	32.0335
795.12	29.0233
798.495	23.0461
801.87	19.216
805.244	13.2894
808.619	9.58527
811.994	9.13621
815.369	8.13799
818.744	6.47636
822.119	5.58015
825.493	6.17081
828.868	6.28221
832.243	7.07519
835.618	9.02858
838.993	13.6836
842.367	17.3542
845.742	24.0972
849.117	28.1126
852.492	29.7072
855.867	30.2033
859.241	32.139
862.616	33.4951
865.991	32.4424
869.366	30.3818
872.741	29.6638
876.115	26.9921
879.49	23.6165
882.865	19.5084
886.24	15.4056
889.615	11.7788
892.99	8.92305
896.364	6.71556
899.739	3.26105
903.114	0.853928
906.489	0.024628
909.864	0.46524
913.239	0.389648
916.613	0.369202
919.988	1.03093
923.363	0.970123
926.738	0.225677
930.113	0.616577
933.487	1.05456
936.862	0.609192
940.237	2.25211
943.612	3.55801
946.987	3.63499
950.361	6.49276
953.736	6.6619
957.111	8.42919
960.486	8.91884
963.861	12.9455
967.236	16.9941
970.61	16.5572
973.985	16.1859
977.36	13.5556
980.735	11.8001
984.11	8.44771
987.485	5.38701
990.859	5.13814
994.234	3.23645
997.609	3.00426
1000.98	3.08778
1004.36	3.5812
1007.73	3.34674
1011.11	4.31321
1014.48	3.9362
1017.86	4.79723
1021.23	4.32398
1024.61	5.54645
1027.98	7.07107
1031.36	6.94643
1034.73	7.89716
1038.11	8.57549
1041.48	9.50194
1044.86	8.75958
1048.23	8.57867
1051.61	6.44964
1054.98	5.80791
1058.36	4.76462
1061.73	4.869
1065.11	3.30247
1068.48	1.73496
1071.86	1.10973
1075.23	0.449013
1078.6	0.188545
1081.98	0.541397
1085.35	0.189484
1088.73	0.648605
1092.1	0.594292
1095.48	0.085289
1098.85	0.068192
1102.23	0.109589
1105.6	1.23059
1108.98	0.576935
1112.35	1.05379
1115.73	2.44001
1119.1	3.61375
1122.48	3.60111
1125.85	3.65847
1129.23	6.06872
1132.6	7.61814
1135.98	5.91263
1139.35	4.14631
1142.73	4.07784
1146.1	4.26593
1149.48	3.70866
1152.85	3.15089
1156.22	1.97325
1159.6	1.91471
1162.97	0.838692
1166.35	0.235733
1169.72	0.21637
1173.1	0.531242
1176.47	1.49901
1179.85	0.76738
1183.22	0.606064
1186.6	0.014214
1189.97	0.537453
1193.35	0.17514
1196.72	0.288452
1200.1	0.553047
1203.47	0.257233
1206.85	0.771362
1210.22	0.151604
1213.6	0.443542
1216.97	0.794502
1220.35	1.22567
1223.72	2.22208
1227.1	1.47736
1230.47	1.41413
1233.85	0.578232
1237.22	1.73453
1240.6	2.29739
1243.97	3.89115
1247.35	1.65851
1250.72	2.72646
1254.1	1.42872
1257.47	2.19506
1260.85	1.04797
1264.22	0.580147
1267.59	0.689369
1270.97	0.247063
1274.34	0.913353
1277.72	3.27177
1281.09	1.19203
1284.47	1.58748
1287.84	2.02887
1291.22	1.44527
1294.59	1.154
1297.97	0.538628
1301.34	0.285385
