Measurement: Raman, 532 nm, unoriented, Raman Data Processed
Mineral: Cassiterite
Rruff sample: R050502
Ideal chemistry: SnO_2_
Locality: Redruth, Cornwall, England
Source: California Institute of Technology
Description: Black crystals associated with colorless quartz and grey stannite.
Measured chemistry: SnO_2_
Raman shift (cm-1)	intensity
119.371	0
122.746	9.48077
126.121	39.3017
129.495	97.7314
132.87	141.017
136.245	153.848
139.62	169.124
142.995	193.018
146.369	184.343
149.744	167.789
153.119	148.72
156.494	117.522
159.869	86.2934
163.244	74.5891
166.618	68.6414
169.993	62.1931
173.368	51.2267
176.743	36.8789
180.118	23.7234
183.493	15.1331
186.867	4.65704
190.242	4.56396
193.617	4.01416
196.992	4.4155
200.367	3.5643
203.741	10.3918
207.116	21.7561
210.491	39.6363
213.866	65.5148
217.241	100.007
220.615	134.352
223.99	175.786
227.365	217.258
230.74	256.872
234.115	287.877
237.489	307.036
240.864	286.904
244.239	213.814
247.614	128.672
250.989	64.0478
254.364	27.9509
257.738	5.96317
261.113	3.02576
264.488	2.92624
267.863	1.26877
271.238	3.83252
274.613	10.1187
277.987	32.3321
281.362	70.8184
284.737	86.3538
288.112	64.4612
291.487	42.668
294.861	29.1009
298.236	20.3142
301.611	12.5315
304.986	7.11545
308.361	4.98792
311.736	3.40448
315.11	4.13254
318.485	8.94194
321.86	10.1826
325.235	11.3823
328.61	16.8027
331.984	25.9416
335.359	32.4504
338.734	40.8025
342.109	49.8328
345.484	54.9034
348.858	61.017
352.233	64.6167
355.608	64.6106
358.983	47.2228
362.358	19.6813
365.733	5.11029
369.107	0.17807
372.482	0.104385
375.857	1.17485
379.232	1.35931
382.607	0.774857
385.981	1.41443
389.356	0.767715
392.731	1.05223
396.106	1.74634
399.481	1.85516
402.856	1.32025
406.23	2.12546
409.605	4.45894
412.98	6.92427
416.355	10.2517
419.73	16.3932
423.104	26.3221
426.479	29.5509
429.854	37.9422
433.229	48.3239
436.604	57.0957
439.978	54.4386
443.353	37.3708
446.728	24.9491
450.103	18.8693
453.478	24.2161
456.853	32.9234
460.227	48.1417
463.602	65.4669
466.977	77.3867
470.352	84.6113
473.727	82.7096
477.101	62.3098
480.476	43.4831
483.851	42.9462
487.226	46.2073
490.601	49.2474
493.976	46.7378
497.35	47.404
500.725	40.5955
504.1	32.1617
507.475	30.6023
510.85	24.6947
514.224	18.0036
517.599	9.16696
520.974	6.22015
524.349	1.85489
527.724	0.592651
531.098	5.05191
534.473	4.19189
537.848	3.28836
541.223	0.053467
544.598	0.049011
547.973	2.73239
551.347	8.08331
554.722	15.8354
558.097	20.8502
561.472	27.4107
564.847	26.9573
568.221	28.5729
571.596	26.3778
574.971	36.5365
578.346	35.4142
581.721	58.0572
585.096	72.1217
588.47	91.1676
591.845	111.709
595.22	119.986
598.595	132.507
601.97	154.489
605.344	184.334
608.719	217.587
612.094	257.65
615.469	317.957
618.844	404.114
622.218	519.026
625.593	666.448
628.968	831.521
632.343	872.997
635.718	680.113
639.093	444.181
642.467	300.509
645.842	218.538
649.217	166.911
652.592	125.279
655.967	85.1722
659.341	54.6839
662.716	31.3905
666.091	8.20853
669.466	0.474518
672.841	8.36731
676.216	6.27014
679.59	1.94528
682.965	7.70047
686.34	19.9545
689.715	29.1281
693.09	37.8033
696.465	41.2934
699.839	45.1928
703.214	51.5204
706.589	62.2964
709.964	78.7156
713.339	95.4404
716.713	113.517
720.088	127.633
723.463	137.415
726.838	141.687
730.213	147.084
733.587	143.719
736.962	140.416
740.337	142.536
743.712	143.258
747.087	142.584
750.462	138.366
753.836	133.124
757.211	121.233
760.586	107.689
763.961	96.2157
767.336	91.1394
770.71	88.6883
774.085	82.0518
777.46	66.2494
780.835	45.1992
784.21	25.8862
787.585	15.925
790.959	7.00059
794.334	3.50092
797.709	1.94354
801.084	0.616364
804.459	1.72038
807.833	2.03056
811.208	1.22662
814.583	0.328156
817.958	0.528137
821.333	2.84516
824.707	4.82212
828.082	7.8801
831.457	10.8416
834.832	12.0535
838.207	13.1863
841.582	16.7557
844.956	16.0337
848.331	16.655
851.706	18.7558
855.081	19.7449
858.456	21.0505
861.83	20.7572
865.205	19.1491
868.58	18.3616
871.955	16.2334
875.33	14.0737
878.705	12.3696
882.079	13.1472
885.454	9.78436
888.829	8.87144
892.204	7.38094
895.579	5.81982
898.953	4.64553
902.328	3.27245
905.703	2.32932
909.078	1.50018
912.453	0.997528
915.827	0.227318
919.202	0.622032
922.577	0.142616
925.952	0.066376
929.327	0.149979
932.702	0.422989
936.076	0.071014
939.451	0.141617
942.826	0.286598
946.201	2.23459
949.576	2.19033
952.951	3.98495
956.325	3.83598
959.7	3.5954
963.075	5.65891
966.45	6.19745
969.825	6.1386
973.199	6.13734
976.574	5.29418
979.949	3.9008
983.324	3.49769
986.699	1.52086
990.073	1.45779
993.448	0.283409
996.823	0.316002
1000.2	0.732841
1003.57	1.71416
1006.95	1.79933
1010.32	2.58466
1013.7	1.85467
1017.07	2.14883
1020.45	2.63769
1023.82	1.51199
1027.2	2.72725
1030.57	3.92315
1033.95	3.72226
1037.32	4.11665
1040.7	3.27023
1044.07	2.11119
1047.44	1.5853
1050.82	0.866158
1054.19	1.03953
1057.57	1.08174
1060.94	0.263168
1064.32	0.55632
1067.69	0.781502
1071.07	0.77018
1074.44	0.718086
1077.82	1.15657
1081.19	0.768539
1084.57	1.19778
1087.94	1.36577
1091.32	1.92866
1094.69	0.364563
1098.07	2.34644
1101.44	2.2575
1104.82	2.59675
1108.19	1.80605
1111.57	1.97035
1114.94	3.37867
1118.32	3.28285
1121.69	2.05866
1125.07	2.28655
1128.44	2.01469
1131.82	2.07362
1135.19	3.01537
1138.57	0.933182
1141.94	2.02447
1145.32	1.41869
1148.69	0.937683
1152.07	2.3628
1155.44	1.83475
1158.81	0.999504
1162.19	2.11958
1165.56	2.05653
1168.94	2.66611
1172.31	1.5139
1175.69	0.062279
1179.06	1.32371
1182.44	0.715935
1185.81	1.39517
1189.19	0.404015
1192.56	1.43358
1195.94	1.32503
1199.31	0.225731
1202.69	2.14336
1206.06	1.16989
1209.44	0.294014
1212.81	1.02898
1216.19	1.74548
1219.56	2.0108
1222.94	0.901588
1226.31	1.79757
1229.68	2.57822
1233.06	1.80333
1236.43	1.46133
1239.81	1.33855
1243.18	3.39143
1246.56	2.49779
1249.93	4.02071
1253.31	3.75926
1256.68	2.71679
1260.06	3.09463
1263.43	2.29498
1266.81	2.30122
1270.18	3.20763
1273.56	4.43031
1276.93	2.11114
1280.31	2.34942
1283.68	2.14026
1287.06	1.84935
1290.43	1.54787
1293.81	1.2187
1297.18	0.439407
1300.56	1.47583
