Measurement: Raman, 532 nm, unoriented, Raman Data Processed
Mineral: Cassiterite
Rruff sample: R040072
Ideal chemistry: SnO_2_
Locality: Bolivia
Source: University of Arizona Mineral Museum
Description: Black fragment
Measured chemistry: Sn_0.99_O_2_
Raman shift (cm-1)	intensity
120.6	0
123.975	90.2864
127.35	125.16
130.725	172.736
134.1	54.1065
137.474	114.508
140.849	58.2699
144.224	48.5002
147.599	61.0979
150.974	86.2945
154.348	105.325
157.723	49.0034
161.098	51.0173
164.473	43.4051
167.848	38.9487
171.222	37.9532
174.597	5.20807
177.972	13.434
181.347	21.9871
184.722	2.07727
188.097	1.5506
191.471	5.84363
194.846	5.24475
198.221	6.07843
201.596	16.2861
204.971	25.4021
208.345	42.5961
211.72	74.2053
215.095	125.744
218.47	178.651
221.845	173.624
225.22	132.756
228.594	119.555
231.969	120.263
235.344	117.797
238.719	94.9851
242.094	108.11
245.468	107.005
248.843	126.007
252.218	120.341
255.593	126.178
258.968	90.5806
262.342	92.2472
265.717	84.7919
269.092	97.4479
272.467	55.7715
275.842	16.3023
279.217	3.60059
282.591	16.0883
285.966	24.6062
289.341	25.8987
292.716	38.0662
296.091	37.6632
299.466	44.7045
302.84	70.9539
306.215	28.4078
309.59	29.5744
312.965	7.20172
316.339	9.81439
319.714	4.56543
323.089	21.3195
326.464	20.2053
329.839	19.9252
333.214	13.4157
336.588	23.6274
339.963	13.0808
343.338	33.1036
346.713	15.9115
350.088	12.7294
353.462	17.7288
356.837	17.8558
360.212	7.81635
363.587	25.9965
366.962	25.9352
370.337	44.2817
373.711	12.0365
377.086	29.1244
380.461	23.4858
383.836	26.3348
387.211	25.9755
390.586	13.6952
393.96	23.2977
397.335	16.0978
400.71	2.64923
404.085	29.5959
407.46	24.8728
410.834	46.7146
414.209	53.4577
417.584	6.56232
420.959	23.0761
424.334	11.6765
427.708	37.9864
431.083	60.1267
434.458	68.6412
437.833	81.2673
441.208	51.7732
444.582	12.7218
447.957	13.588
451.332	18.2229
454.707	37.7267
458.082	79.0577
461.457	205.814
464.831	402.225
468.206	615.325
471.581	868.334
474.956	925.976
478.331	529.981
481.705	295.179
485.08	282.956
488.455	298.781
491.83	343.273
495.205	356.303
498.58	381.689
501.954	327.924
505.329	267.667
508.704	229.707
512.079	142.115
515.454	106.296
518.828	55.1352
522.203	28.3398
525.578	46.5185
528.953	93.5309
532.328	156.236
535.702	224.744
539.077	310.02
542.452	318.064
545.827	239.604
549.202	216.477
552.577	196.322
555.951	170.047
559.326	130.157
562.701	85.4412
566.076	62.9927
569.451	11.3297
572.826	16.0847
576.2	34.4065
579.575	19.908
582.95	25.3732
586.325	24.0016
589.7	16.4747
593.074	72.8259
596.449	159.872
599.824	280.516
603.199	422.524
606.574	649.031
609.948	1015.18
613.323	1626.14
616.698	2697.67
620.073	4397.55
623.448	6637.93
626.823	9641.83
630.197	12598.3
633.572	12703.5
636.947	8175.65
640.322	4353.23
643.697	2529.84
647.071	1597.31
650.446	1105.38
653.821	845.84
657.196	720.406
660.571	607.378
663.946	618.816
667.32	611.461
670.695	618.79
674.07	598.584
677.445	618.455
680.82	619.905
684.194	605.608
687.569	638.958
690.944	618.218
694.319	592.769
697.694	480.786
701.068	269.282
704.443	111.094
707.818	91.7435
711.193	49.8955
714.568	43.0631
717.943	63.4074
721.317	27.8217
724.692	25.1801
728.067	18.3207
731.442	14.5862
734.817	16.3586
738.192	37.7621
741.566	12.0749
744.941	0.357422
748.316	31.7225
751.691	47.3336
755.066	136.774
758.44	307.312
761.815	572.124
765.19	956.671
768.565	1476.22
771.94	1865.3
775.314	1900.46
778.689	1525.14
782.064	1060.34
785.439	682.536
788.814	517.907
792.188	410.556
795.563	330.44
798.938	260.057
802.313	207.906
805.688	168.619
809.063	128.242
812.437	88.2984
815.812	56.2152
819.187	27.4266
822.562	32.3109
825.937	20.9833
829.312	6.8125
832.686	0.687195
836.061	25.8846
839.436	46.0571
842.811	87.7289
846.186	139.377
849.56	152.82
852.935	151.206
856.31	151.082
859.685	201.628
863.06	166.909
866.434	160.595
869.809	155.473
873.184	118.045
876.559	128.482
879.934	95.5594
883.308	79.9527
886.683	65.5262
890.058	50.1032
893.433	7.54047
896.808	12.7778
900.183	9.06751
903.557	8.47113
906.932	25.3962
910.307	1.38965
913.682	12.3394
917.057	42.3785
920.432	3.49982
923.806	6.74976
927.181	36.7296
930.556	23.7553
933.931	8.41382
937.306	16.0286
940.68	7.27484
944.055	37.0126
947.43	54.4816
950.805	41.7286
954.18	44.215
957.554	87.5559
960.929	94.8796
964.304	113.469
967.679	103.1
971.054	92.7933
974.428	111.789
977.803	92.6821
981.178	60.7145
984.553	36.9036
987.928	25.35
991.303	20.3399
994.677	27.1111
998.052	4.02887
1001.43	8.91449
1004.8	14.012
1008.18	42.7381
1011.55	11.945
1014.93	37.279
1018.3	27.7167
1021.68	10.301
1025.05	46.0131
1028.43	46.9828
1031.8	41.7636
1035.17	70.6307
1038.55	38.2836
1041.92	59.6072
1045.3	45.0746
1048.67	34.5021
1052.05	18.0474
1055.42	8.09375
1058.8	3.65772
1062.17	9.0332
1065.55	1.11438
1068.92	8.33551
1072.3	11.5118
1075.67	10.4368
1079.05	7.24921
1082.42	4.83386
1085.8	13.8767
1089.17	16.0971
1092.55	22.2609
1095.92	19.1145
1099.3	34.6164
1102.67	17.9868
1106.05	36.4012
1109.42	49.1
1112.8	67.9023
1116.17	53.3458
1119.55	70.9703
1122.92	66.6445
1126.3	55.5433
1129.67	74.2814
1133.05	49.9139
1136.42	94.5711
1139.79	60.1848
1143.17	71.2745
1146.54	39.8097
1149.92	53.478
1153.29	30.3876
1156.67	33.3028
1160.04	19.627
1163.42	25.9764
1166.79	26.7614
1170.17	34.7514
1173.54	31.7634
1176.92	15.2375
1180.29	14.3655
1183.67	25.1537
1187.04	10.1038
1190.42	10.7352
1193.79	17.8963
1197.17	7.48651
1200.54	7.13873
1203.92	9.20544
1207.29	19.1333
1210.67	17.6644
1214.04	23.0158
1217.41	15.8353
1220.79	20.4117
1224.16	19.2565
1227.54	18.3121
1230.91	29.3931
1234.29	1.19391
1237.66	14.0258
1241.04	12.7109
1244.41	26.637
1247.79	33.7684
1251.16	16.5724
1254.54	43.766
1257.91	9.7179
1261.29	23.7845
1264.66	19.6292
1268.04	35.4207
1271.41	7.45117
1274.79	31.7597
1278.16	0.799133
1281.54	28.6763
1284.91	5.87225
