Measurement: Raman, 780 nm, unoriented, Raman Data Processed
Mineral: Cassiterite
Rruff sample: R060563
Ideal chemistry: SnO_2_
Locality: unknown
Source: Gemological Institute of America
Description: Dark brown fragment
Measured chemistry: Sn_1.00_O_2_
Raman shift (cm-1)	intensity
90.5957	0
93.9705	123.406
97.3453	32.142
100.72	19.7612
104.095	35.6553
107.47	47.0701
110.845	19.5485
114.219	0.742554
117.594	11.712
120.969	34.3153
124.344	53.7267
127.719	52.0011
131.094	54.9495
134.468	33.9791
137.843	23.1389
141.218	16.1125
144.593	9.39807
147.968	20.0412
151.342	10.8571
154.717	6.7691
158.092	23.423
161.467	27.7845
164.842	32.295
168.216	32.9132
171.591	35.1644
174.966	32.977
178.341	31.6523
181.716	32.4332
185.09	40.4265
188.465	46.9337
191.84	55.9556
195.215	69.6641
198.59	84.7057
201.965	105.078
205.339	130.815
208.714	162.506
212.089	215.068
215.464	295.062
218.839	408.567
222.214	561.794
225.588	759.268
228.963	1002.64
232.338	1311.21
235.713	1712.84
239.088	2175.99
242.462	2440.78
245.837	1879.09
249.212	953.763
252.587	454.98
255.962	220.496
259.336	104.332
262.711	39.4734
266.086	13.9127
269.461	9.4989
272.836	4.7406
276.211	56.8727
279.585	215.878
282.96	573.57
286.335	1003.51
289.71	472.354
293.085	158.916
296.459	72.7583
299.834	43.0142
303.209	29.5831
306.584	23.4904
309.959	11.1487
313.334	6.89255
316.708	5.06058
320.083	4.48471
323.458	4.55563
326.833	4.04916
330.207	0.325195
333.582	2.94257
336.957	3.60284
340.332	1.42563
343.707	1.33014
347.082	1.91794
350.456	3.17682
353.831	2.11871
357.206	0.333344
360.581	4.21323
363.956	0.763672
367.33	0.429932
370.705	1.30334
374.08	1.0054
377.455	2.13211
380.83	4.75678
384.205	7.23172
387.579	8.7421
390.954	11.545
394.329	10.7945
397.704	10.7803
401.079	12.094
404.453	15.1506
407.828	15.0924
411.203	18.38
414.578	21.6461
417.953	23.0687
421.327	20.8997
424.702	17.1478
428.077	15.9341
431.452	19.5304
434.827	23.1165
438.202	25.5467
441.576	17.611
444.951	7.11911
448.326	4.72583
451.701	10.7496
455.076	24.0592
458.45	40.5733
461.825	72.9666
465.2	113.657
468.575	139.746
471.95	149.45
475.325	203.937
478.699	170.885
482.074	100.98
485.449	103.513
488.824	118.818
492.199	115.005
495.573	91.6406
498.948	75.0104
502.323	59.2163
505.698	46.5897
509.073	36.8486
512.447	29.5685
515.822	20.9907
519.197	8.39157
522.572	1.55859
525.947	5.72275
529.322	4.80801
532.696	3.95712
536.071	1.83032
539.446	10.2563
542.821	17.1838
546.196	18.4835
549.57	20.1244
552.945	25.8551
556.32	37.1001
559.695	48.3668
563.07	63.2039
566.444	87.3655
569.819	112.818
573.194	144.758
576.569	176.025
579.944	213.745
583.319	248.266
586.693	277.904
590.068	296.067
593.443	300.038
596.818	282.127
600.193	240.071
603.567	190.183
606.942	143.1
610.317	109.749
613.692	88.9115
617.067	81.8045
620.442	88.9413
623.816	111.961
627.191	155.284
630.566	232.179
633.941	313.139
637.316	261.101
640.69	142.591
644.065	72.1468
647.44	42.0898
650.815	28.749
654.19	19.4235
657.564	11.3343
660.939	4.82483
664.314	0.407318
667.689	1.33743
671.064	1.01126
674.439	2.01953
677.813	0.757568
681.188	7.38385
684.563	14.8186
687.938	24.0294
691.313	32.9344
694.688	38.8125
698.062	35.4438
701.437	22.2418
704.812	5.49068
708.187	0.440399
711.562	2.72952
714.936	1.39387
718.311	0.636185
721.686	1.29242
725.061	0.900345
728.436	2.18587
731.81	3.17618
735.185	6.35657
738.56	7.39796
741.935	7.64152
745.31	8.55598
748.684	7.36485
752.059	7.16618
755.434	7.33687
758.809	6.58301
762.184	5.22853
765.559	6.98544
768.933	12.0187
772.308	19.9589
775.683	25.7707
779.058	24.9318
782.433	20.2325
785.808	22.1382
789.182	25.4995
792.557	24.6359
795.932	22.8058
799.307	17.0056
802.682	11.4716
806.056	7.78847
809.431	6.40816
812.806	4.00124
816.181	3.6985
819.556	2.9277
822.93	1.46016
826.305	2.12778
829.68	0.081314
833.055	1.09044
836.43	2.03671
839.804	3.14514
843.179	6.37749
846.554	10.0233
849.929	12.3235
853.304	14.2743
856.679	13.735
860.053	14.5427
863.428	17.1462
866.803	18.914
870.178	16.8622
873.553	13.9769
876.927	10.3704
880.302	11.4118
883.677	6.38608
887.052	7.83887
890.427	4.87692
893.802	2.11816
897.176	1.10277
900.551	0.656921
903.926	0.920654
907.301	0.845764
910.676	0.038834
914.05	1.03491
917.425	0.253265
920.8	4.26254
924.175	3.53961
927.55	0.689163
930.924	1.17271
934.299	0.734039
937.674	2.56853
941.049	1.66048
944.424	2.93564
947.799	2.6591
951.173	3.40689
954.548	4.53002
957.923	7.00987
961.298	6.46037
964.673	7.3667
968.047	8.62672
971.422	7.38977
974.797	8.11968
978.172	6.90094
981.547	6.27148
984.922	4.22798
988.296	3.1694
991.671	1.18323
995.046	2.87115
998.421	1.00717
1001.8	0.402321
1005.17	2.19145
1008.54	2.12643
1011.92	2.72784
1015.29	2.58918
1018.67	1.94579
1022.04	1.98288
1025.42	2.46869
1028.79	2.31236
1032.17	0.881561
1035.54	3.17659
1038.92	3.39624
1042.29	4.69006
1045.67	3.07819
1049.04	3.43062
1052.42	2.32704
1055.79	2.39621
1059.17	2.04111
1062.54	2.25102
1065.92	0.69133
1069.29	1.5061
1072.67	1.35885
1076.04	0.775085
1079.42	0.052406
1082.79	0.002144
1086.17	0.61853
1089.54	1.00176
1092.92	0.129059
1096.29	0.680885
1099.66	0.073761
1103.04	0.512527
1106.41	2.41788
1109.79	0.786957
1113.16	1.06257
1116.54	2.10201
1119.91	2.41575
1123.29	3.0237
1126.66	2.58178
1130.04	3.49585
1133.41	4.03048
1136.79	3.74803
1140.16	2.04386
1143.54	2.99248
1146.91	3.17752
1150.29	2.18018
1153.66	2.68511
1157.04	1.94694
1160.41	2.84779
1163.79	1.88585
1167.16	0.019478
1170.54	1.08244
1173.91	2.10577
1177.29	1.49911
1180.66	1.03191
1184.04	1.3708
1187.41	1.1946
1190.79	1.16344
1194.16	1.05377
1197.54	1.27665
1200.91	1.68118
1204.28	0.169876
1207.66	1.54914
1211.03	0.458572
1214.41	1.15019
1217.78	1.42773
1221.16	1.25685
1224.53	1.42052
1227.91	0.248184
1231.28	0.209732
1234.66	1.86316
1238.03	0.50045
1241.41	0.996101
1244.78	1.19276
1248.16	0.469452
1251.53	1.6348
1254.91	2.15465
1258.28	0.657364
1261.66	2.44636
1265.03	1.8476
1268.41	0.850113
1271.78	1.47053
1275.16	0.839691
1278.53	0.466782
1281.9	0.073837
