Measurement: Raman, 514 nm, unoriented, Raman Data Processed
Mineral: Catapleiite
Rruff sample: R060198
Ideal chemistry: Na_2_ZrSi_3_O_9_2H_2_O
Locality: Mont Saint-Hilaire, Rouville County, Quebec, Canada
Source: Royal Ontario Museum
Description: Tan colored pseudohexagonal tabular crystals
Measured chemistry: (Na_1.92_Ca_0.04_[box]_0.04_)_Σ=2_Zr_1.00_Si_3.00_O_9_·2H_2_O
Raman shift (cm-1)	intensity
98.251	0
102.428	36.986
106.604	15.097
110.777	200.779
114.949	720.803
119.119	811.39
123.286	860.589
127.452	936.226
131.615	1134.46
135.777	1434.35
139.937	1769.95
144.094	1960.38
148.25	2532.58
152.403	2898.7
156.555	3265.33
160.705	3639.64
164.853	3467.11
168.998	2777.9
173.142	2052.31
177.284	1575.74
181.424	1286.88
185.562	1080.74
189.698	923.889
193.831	922.297
197.963	942.874
202.093	956.162
206.221	1085.81
210.347	1102.4
214.472	995.97
218.594	746.37
222.714	489.461
226.832	260.177
230.948	9.745
235.063	19.978
239.175	21.477
243.286	56.36
247.394	100.901
251.501	139.962
255.605	182.761
259.708	131.794
263.808	117.564
267.907	7.974
272.004	8.553
276.099	49.974
280.192	162.171
284.283	390.066
288.372	731.57
292.459	1234.66
296.544	1754.46
300.627	1799.92
304.709	1492.82
308.788	1364.94
312.865	1327.27
316.941	1185.23
321.015	1121.24
325.086	1046.37
329.156	906.18
333.224	807.912
337.29	691.459
341.354	541.325
345.416	499.872
349.476	451.397
353.534	503.276
357.591	588.362
361.645	710.401
365.698	862.301
369.748	1026.74
373.797	1029.3
377.844	1062.94
381.889	1059.72
385.932	992.758
389.973	977.872
394.012	981.267
398.049	939.4
402.084	1058.79
406.118	1295.58
410.15	1658.57
414.179	2548.88
418.207	3970.08
422.233	6956.25
426.257	11810.2
430.279	15930.6
434.299	13413.3
438.318	8470.41
442.334	5129.46
446.349	3387.78
450.361	2390.71
454.372	1814.77
458.381	1329.16
462.388	1116.26
466.394	908.186
470.397	716.747
474.398	638.717
478.398	536.446
482.396	506.165
486.391	440.873
490.385	345.234
494.377	325.828
498.368	345.684
502.356	441.43
506.342	547.138
510.327	658.52
514.31	943.609
518.291	1359.07
522.27	1653.7
526.247	1867.77
530.222	1794.3
534.196	1890.88
538.167	2027.87
542.137	2065.41
546.105	2099.74
550.071	2319.91
554.035	2852.55
557.998	4085.06
561.958	6404.33
565.917	9961.9
569.874	13590.1
573.829	16329
577.782	13868.8
581.733	8659.3
585.683	4836.5
589.63	2728.34
593.576	1739.64
597.52	1252.29
601.462	1033.26
605.402	926.896
609.341	1110.22
613.277	1519.65
617.212	2535.55
621.145	4551.31
625.076	9186.04
629.006	16159.6
632.933	15122.5
636.859	7681.16
640.783	3629.21
644.705	1901.27
648.625	1149.94
652.543	677.764
656.46	486.347
660.375	274.604
664.288	231.275
668.199	122.308
672.108	93.78
676.016	19.616
679.921	40.211
683.825	11.253
687.727	34.814
691.628	25.454
695.526	23.458
699.423	15.556
703.318	82.809
707.211	23.342
711.102	28.92
714.992	43.069
718.879	206.108
722.765	402.044
726.649	680.865
730.532	963.56
734.412	1215.12
738.291	1291.52
742.168	1050.13
746.043	783.816
749.916	548.692
753.788	273.375
757.658	107.857
761.526	106.127
765.392	30.168
769.257	0.934
773.119	8.691
776.98	31.803
780.839	61.488
784.697	65.812
788.552	4.096
792.406	28.635
796.258	31.035
800.108	18.015
803.957	1.59
807.804	12.791
811.649	44.358
815.492	37.025
819.333	64.104
823.173	75.921
827.011	145.446
830.847	153.499
834.681	228.141
838.514	250.8
842.345	333.123
846.174	248.695
850.001	267.281
853.827	321.973
857.651	299.061
861.473	373.33
865.293	416.611
869.112	435.647
872.928	455.493
876.744	464.143
880.557	589.607
884.369	640.885
888.178	742.982
891.987	873.898
895.793	1053.64
899.598	1315.21
903.401	1681.62
907.202	2265.87
911.001	3201.82
914.799	4896.32
918.595	7456.87
922.389	12119.5
926.182	20901
929.972	34722.8
933.761	43908.2
937.549	36625.3
941.334	21907.7
945.118	12668
948.9	8399.78
952.681	5471.55
956.459	3118.96
960.236	2062.52
964.012	1432.87
967.785	1067.82
971.557	890.097
975.327	840.55
979.095	799.856
982.862	865.677
986.627	1113.7
990.39	1680.94
994.152	2648.14
997.912	4404.73
1001.67	6288.26
1005.43	7421.36
1009.18	7183.75
1012.93	5931.81
1016.68	4500.13
1020.43	3212.74
1024.18	2066.35
1027.93	1400.95
1031.67	950.402
1035.42	888.466
1039.16	745.726
1042.9	648.968
1046.63	494.338
1050.37	341.829
1054.11	266.45
1057.84	280.181
1061.57	129.173
1065.3	255.377
1069.03	285.413
1072.75	358.621
1076.47	572.675
1080.2	913.348
1083.92	1646.93
1087.64	2537.46
1091.36	2823.71
1095.07	2065.23
1098.79	1118.41
1102.5	621.536
1106.21	325.251
1109.92	79.438
1113.62	24.805
1117.33	12.475
1121.04	98.577
1124.74	186.635
1128.44	8.696
1132.14	54.275
1135.83	24.674
1139.53	44.225
1143.22	19.926
1146.92	98.962
1150.61	4.985
1154.3	8.869
1157.98	36.951
1161.67	26.224
1165.35	50.392
1169.04	5.891
1172.72	48.618
1176.4	30.682
1180.07	5.91
1183.75	7.865
1187.42	88.821
1191.1	38.095
1194.77	27.244
1198.44	20.216
1202.1	51.519
1205.77	93.301
1209.43	43.7
1213.1	42.292
1216.76	16.36
1220.42	62.229
1224.07	53.151
1227.73	20.818
1231.38	17.715
1235.04	10.535
1238.69	4.191
1242.34	137.673
1245.99	5.11
1249.63	25.095
1253.28	22.044
1256.92	72.116
1260.56	110.2
1264.2	86.763
1267.84	63.378
1271.48	7.887
1275.11	91.212
1278.74	11.713
1282.38	11.027
1286.01	3.525
1289.63	65.14
1293.26	60.394
1296.89	37.699
1300.51	63.532
1304.13	13.114
1307.75	56.46
1311.37	19.699
1314.99	32.037
1318.6	14.453
1322.22	43.07
1325.83	104.941
1329.44	2.43
1333.05	41.794
1336.66	5.756
1340.26	6.676
1343.87	1.05
1347.47	44.173
1351.07	78.819
1354.67	109.81
1358.27	152.121
1361.86	153.503
1365.46	198.665
1369.05	163.986
1372.64	96.751
1376.23	97.712
1379.82	99.008
1383.41	89.32
1386.99	137.053
1390.57	168.253
1394.16	87.099
1397.74	124.784
1401.32	199.598
1404.89	209.75
1408.47	158.085
1412.04	138.325
1415.61	111.027
1419.18	97.477
1422.75	124.872
1426.32	83.229
1429.89	83.336
1433.45	145.316
1437.01	150.453
1440.58	152.022
1444.13	188.076
1447.69	155.088
1451.25	144.488
1454.81	178.973
1458.36	132.648
1461.91	90.945
1465.46	228.098
1469.01	182.767
1472.56	188.047
1476.1	145.005
1479.64	176.494
1483.19	235.321
1486.73	165.031
1490.27	184.012
1493.81	95.716
1497.34	52.27
1500.88	90.823
1504.41	76.911
1507.94	130.989
1511.47	68.717
1515	106.102
1518.53	95.71
1522.05	66.97
1525.57	62.686
1529.1	0.046
