Measurement: Raman, 780 nm, unoriented, Raman Data Processed
Mineral: Catapleiite
Rruff sample: R060208
Ideal chemistry: Na_2_ZrSi_3_O_9_2H_2_O
Locality: Mont Saint-Hilaire, Rouville County, Quebec, Canada
Source: Royal Ontario Museum
Description: Colorless transparent thin tabular pseudohexagonal crystal
Measured chemistry: Na_2.00_Zr_1.00_Si_3.00_O_9_Â·2H_2_O
Raman shift (cm-1)	intensity
144.86	0
147.753	5.02979
150.645	12.6285
153.538	22.9949
156.431	32.1219
159.323	40.9386
162.216	46.8614
165.109	41.4934
168.002	37.9787
170.894	32.1723
173.787	23.6278
176.68	15.9509
179.572	9.89057
182.465	4.17772
185.358	1.73922
188.25	1.09286
191.143	1.56043
194.036	1.49593
196.929	1.16917
199.821	0.007828
202.714	1.88232
205.607	4.41179
208.499	7.03793
211.392	9.07676
214.285	11.5826
217.178	12.2079
220.07	12.2162
222.963	11.5891
225.856	11.3719
228.748	10.5797
231.641	11.0751
234.534	10.9711
237.426	11.6322
240.319	11.7254
243.212	11.9267
246.105	11.2716
248.997	7.42888
251.89	5.66175
254.783	5.18256
257.675	4.82033
260.568	5.51987
263.461	6.10869
266.353	5.41927
269.246	5.36034
272.139	6.77643
275.031	6.60696
277.924	7.67315
280.817	10.453
283.71	12.9631
286.602	16.8408
289.495	23.5739
292.388	32.2662
295.28	38.2216
298.173	40.9697
301.066	38.1726
303.959	31.6747
306.851	28.1081
309.744	26.5151
312.637	25.7973
315.529	23.1415
318.422	20.2201
321.315	17.6978
324.207	16.369
327.1	14.5037
329.993	12.5436
332.885	9.03598
335.778	6.11616
338.671	3.28754
341.563	1.45104
344.456	0.104546
347.349	1.70945
350.242	1.26645
353.134	1.30422
356.027	0.989605
358.92	0.641903
361.812	2.39614
364.705	4.53828
367.598	6.36151
370.49	8.08859
373.383	7.89945
376.276	8.53675
379.169	7.34117
382.061	7.68404
384.954	6.59878
387.847	6.10062
390.739	6.26463
393.632	6.07186
396.525	5.692
399.418	5.99585
402.31	7.56505
405.203	9.43126
408.096	12.4194
410.988	18.6669
413.881	27.7529
416.774	41.9808
419.666	62.5475
422.559	92.3549
425.452	137.159
428.344	181.751
431.237	193.168
434.13	158.54
437.023	111.762
439.915	75.6742
442.808	53.3134
445.701	37.6988
448.593	29.0353
451.486	22.1355
454.379	16.4217
457.272	13.6996
460.164	10.6491
463.057	7.85061
465.95	6.13133
468.842	3.88911
471.735	3.42063
474.628	2.80116
477.52	0.556469
480.413	1.422
483.306	0.020744
486.199	0.533413
489.091	0.705883
491.984	0.060146
494.877	1.19323
497.769	0.946365
500.662	0.063
503.555	0.036274
506.447	0.421329
509.34	2.49199
512.233	4.28784
515.125	6.78938
518.018	8.97061
520.911	13.0569
523.804	14.5194
526.696	15.0506
529.589	14.5705
532.482	15.0636
535.375	15.471
538.267	16.2375
541.16	16.2265
544.053	16.9269
546.945	18.0223
549.838	19.7045
552.731	24.0459
555.623	30.2479
558.516	41.6132
561.409	56.3651
564.302	78.8077
567.194	111.566
570.087	149.914
572.98	182.202
575.872	178.651
578.765	136.574
581.658	87.4625
584.55	50.7045
587.443	28.1322
590.336	15.2447
593.228	7.65747
596.121	3.8967
599.014	1.46987
601.907	1.10939
604.799	1.19767
607.692	3.50152
610.585	8.24282
613.477	16.1613
616.37	28.1857
619.263	45.5649
622.155	73.5967
625.048	117.962
627.941	174.763
630.833	199.462
633.726	147.508
636.619	82.6798
639.512	45.7413
642.404	26.192
645.297	15.0666
648.19	10.0037
651.082	6.13443
653.975	3.05534
656.868	1.79835
659.76	0.450871
662.653	1.04467
665.546	0.403584
668.439	0.079433
671.331	0.5191
674.224	0.337234
677.117	0.721601
680.009	0.467546
682.902	0.405483
685.795	0.273655
688.688	0.322954
691.58	0.35218
694.473	0.562628
697.366	1.27972
700.258	0.845821
703.151	2.11003
706.044	1.84156
708.936	2.7539
711.829	3.31053
714.722	4.0034
717.615	6.0738
720.507	7.20399
723.4	9.14342
726.293	11.6007
729.185	14.3112
732.078	16.8601
734.971	18.961
737.863	18.6283
740.756	16.9179
743.649	14.3866
746.542	10.9846
749.434	8.63546
752.327	7.04731
755.22	4.85377
758.112	3.54882
761.005	2.65964
763.898	3.16073
766.79	2.78439
769.683	1.77752
772.576	1.62818
775.468	1.14849
778.361	1.4263
781.254	1.07709
784.147	1.24109
787.039	1.09816
789.932	0.737188
792.825	0.752695
795.717	0.615324
798.61	0.331398
801.503	0.5875
804.395	0.434069
807.288	0.273726
810.181	0.046646
813.074	0.00596
815.966	0.074772
818.859	0.509596
821.752	0.550774
824.644	0.00573
827.537	0.232529
830.43	0.499443
833.322	0.1681
836.215	1.19772
839.108	0.310644
842.001	0.484352
844.893	0.124994
847.786	0.281736
850.679	0.368622
853.571	0.325445
856.464	0.284012
859.357	0.610779
862.25	0.041142
865.142	0.521852
868.035	0.092289
870.928	0.14327
873.82	0.130713
876.713	0.260761
879.606	0.499886
882.498	1.33464
885.391	1.7714
888.284	3.43631
891.177	3.81311
894.069	4.82235
896.962	7.14885
899.855	8.75537
902.747	13.1575
905.64	16.9076
908.533	24.1224
911.425	33.8576
914.318	49.8527
917.211	73.601
920.104	111.351
922.996	169.867
925.889	258.365
928.782	374.959
931.674	479.886
934.567	487.561
937.46	377.432
940.352	232.848
943.245	142.05
946.138	94.6642
949.03	71.9037
951.923	48.1898
954.816	30.2894
957.709	17.6421
960.601	10.6219
963.494	6.32124
966.387	3.33071
969.279	2.19998
972.172	1.12795
975.065	0.259773
977.957	0.471525
980.85	0.713339
983.743	0.11986
986.636	0.518009
989.528	2.13358
992.421	4.81017
995.314	8.41807
998.206	11.2127
1001.1	15.3594
1003.99	18.9558
1006.88	21.5659
1009.78	20.4463
1012.67	18.1275
1015.56	14.6729
1018.46	11.179
1021.35	7.97071
1024.24	4.98036
1027.13	2.65831
1030.03	2.29312
1032.92	1.32642
1035.81	1.91453
1038.7	0.420974
1041.6	0.672188
1044.49	0.581645
1047.38	0.730447
1050.28	0.035927
1053.17	0.305714
1056.06	0.503818
1058.95	0.716537
1061.85	0.623604
1064.74	1.02507
1067.63	1.6954
1070.52	3.26779
1073.42	4.98416
1076.31	6.73729
1079.2	10.2017
1082.1	14.424
1084.99	20.3025
1087.88	25.8427
1090.77	26.7829
1093.66	21.6506
1096.56	14.963
1099.45	9.34432
1102.34	5.44238
1105.24	3.6261
1108.13	2.00808
1111.02	1.38643
1113.91	0.358916
1116.81	0.099521
1119.7	0.68004
1122.59	0.361989
1125.48	0.340451
1128.38	0.302979
1131.27	1.55457
1134.16	0.857726
1137.06	1.22783
1139.95	1.63017
1142.84	0.129182
1145.73	0.944276
1148.63	1.34246
1151.52	0.800339
1154.41	0.709119
1157.31	1.25128
1160.2	0.635157
1163.09	0.733309
1165.98	0.728204
1168.88	0.885603
1171.77	0.708803
1174.66	0.361889
1177.55	0.757405
1180.45	0.257366
1183.34	0.587061
1186.23	0.598473
1189.12	0.383786
1192.02	1.19837
1194.91	0.267551
1197.8	0.159909
1200.69	0.148379
1203.59	0.312424
1206.48	0.436765
1209.37	0.218063
1212.27	0.329498
1215.16	0.014408
1218.05	0.684467
1220.94	0.392515
1223.84	0.21531
1226.73	0.16153
1229.62	0.460203
1232.52	0.799458
1235.41	0.000646
1238.3	0.540951
1241.19	0.705323
1244.09	0.817634
1246.98	0.00064
1249.87	0.229476
1252.76	0.519135
1255.66	0.105635
1258.55	0.331005
1261.44	0.225884
1264.34	0.722501
1267.23	1.06288
1270.12	0.69999
1273.01	0.68495
1275.91	0.545975
1278.8	0.288146
1281.69	0.224656
1284.58	0.000772
