Measurement: Raman, 514 nm, unoriented, Raman Data Processed
Mineral: Catapleiite
Rruff sample: R060208
Ideal chemistry: Na_2_ZrSi_3_O_9_2H_2_O
Locality: Mont Saint-Hilaire, Rouville County, Quebec, Canada
Source: Royal Ontario Museum
Description: Colorless transparent thin tabular pseudohexagonal crystal
Measured chemistry: Na_2.00_Zr_1.00_Si_3.00_O_9_Â·2H_2_O
Raman shift (cm-1)	intensity
106.604	0
110.777	181.423
114.949	673.181
119.119	739.766
123.286	743.461
127.452	1045.56
131.615	1282.84
135.777	1580.63
139.937	1985.23
144.094	2276.55
148.25	2856.1
152.403	3278.35
156.555	3608.91
160.705	3909.28
164.853	3700.79
168.998	3029.6
173.142	2230.57
177.284	1672.44
181.424	1269
185.562	947.062
189.698	791.019
193.831	655.963
197.963	605.344
202.093	585.212
206.221	587.76
210.347	721.616
214.472	582.078
218.594	407.58
222.714	289.375
226.832	145.795
230.948	2.345
235.063	48.805
239.175	54.619
243.286	52.542
247.394	143.221
251.501	125.086
255.605	122.694
259.708	99.336
263.808	75.222
267.907	57.734
272.004	64.421
276.099	43.17
280.192	126.828
284.283	351.965
288.372	807.656
292.459	1420.62
296.544	2042.56
300.627	2226.39
304.709	1906.11
308.788	1702.56
312.865	1730.42
316.941	1600.43
321.015	1415.94
325.086	1437.49
329.156	1338.3
333.224	1114.97
337.29	922.581
341.354	676.259
345.416	600.927
349.476	581.276
353.534	544.308
357.591	573.941
361.645	665.268
365.698	968.896
369.748	1150.72
373.797	1225.5
377.844	1224.58
381.889	1246.53
385.932	1239.65
389.973	1175.61
394.012	1021.98
398.049	1052.89
402.084	1121.9
406.118	1265.18
410.15	1543.94
414.179	2364.09
418.207	3696.71
422.233	6335.88
426.257	11136.5
430.279	17275.1
434.299	16513.6
438.318	10632.1
442.334	6584.76
446.349	4120.68
450.361	2862.02
454.372	2093.47
458.381	1509.63
462.388	1261.41
466.394	1024.87
470.397	820.084
474.398	663.147
478.398	540.134
482.396	468.054
486.391	476.919
490.385	421.81
494.377	376.7
498.368	383.227
502.356	435.547
506.342	525.945
510.327	615.663
514.31	811.998
518.291	1379.35
522.27	1836.16
526.247	1965.91
530.222	1909.21
534.196	2116.7
538.167	2369.99
542.137	2244.42
546.105	2306.07
550.071	2470.07
554.035	2870.37
557.998	3618.32
561.958	5029.18
565.917	7740.74
569.874	12396.1
573.829	18142.3
577.782	17869.3
581.733	11897.2
585.683	6405.72
589.63	3583.91
593.576	2188.71
597.52	1437.13
601.462	1165.02
605.402	1041.24
609.341	1081.01
613.277	1556.68
617.212	2496.2
621.145	4266.23
625.076	8489.39
629.006	16517.2
632.933	18849.7
636.859	10330.1
640.783	4891.48
644.705	2608.7
648.625	1479.34
652.543	923.435
656.46	591.635
660.375	347.868
664.288	332.519
668.199	194.839
672.108	149.067
676.016	78.423
679.921	45.207
683.825	18.968
687.727	32.126
691.628	50.425
695.526	75.768
699.423	70.244
703.318	33.873
707.211	0.603
711.102	23.389
714.992	66.739
718.879	232.123
722.765	415.827
726.649	658.428
730.532	943.637
734.412	1300.4
738.291	1478.06
742.168	1294.59
746.043	1038.98
749.916	652.229
753.788	386.318
757.658	236.24
761.526	94.985
765.392	20.531
769.257	49.83
773.119	4.212
776.98	40.733
780.839	52.774
784.697	84.402
788.552	50.741
792.406	4.782
796.258	42.428
800.108	69.687
803.957	13.845
807.804	43.108
811.649	32.63
815.492	77.78
819.333	6.569
823.173	84.987
827.011	94.146
830.847	226.067
834.681	207.757
838.514	226.113
842.345	276.191
846.174	258.84
850.001	358.26
853.827	372.712
857.651	345.192
861.473	397.989
865.293	409.462
869.112	446.08
872.928	528.558
876.744	582.834
880.557	686.908
884.369	770.171
888.178	832.46
891.987	1041.94
895.793	1243.24
899.598	1570.34
903.401	1898.26
907.202	2524
911.001	3391.57
914.799	4927.86
918.595	7635.32
922.389	12551.6
926.182	22279.1
929.972	39195.5
933.761	54110.1
937.549	48219.9
941.334	28349.3
945.118	15191.4
948.9	10003.5
952.681	6837.4
956.459	3947.18
960.236	2444.24
964.012	1673.47
967.785	1198.66
971.557	916.852
975.327	711.61
979.095	594.026
982.862	561.855
986.627	584.168
990.39	690.229
994.152	944.392
997.912	1421.66
1001.67	2048.05
1005.43	2582.62
1009.18	2780.39
1012.93	2583.29
1016.68	2009.29
1020.43	1569.41
1024.18	1006.63
1027.93	625.1
1031.67	427.54
1035.42	347.52
1039.16	333.706
1042.9	282.411
1046.63	749.275
1050.37	89.18
1054.11	25.17
1057.84	121.489
1061.57	83.835
1065.3	99.872
1069.03	183.764
1072.75	345.299
1076.47	529.106
1080.2	900.01
1083.92	1559.25
1087.64	2534.73
1091.36	2997.55
1095.07	2381.7
1098.79	1358.44
1102.5	716.15
1106.21	373.595
1109.92	161.903
1113.62	98.752
1117.33	3.979
1121.04	60.301
1124.74	165.688
1128.44	43.938
1132.14	24.268
1135.83	24.64
1139.53	87.635
1143.22	105.105
1146.92	118.217
1150.61	126.776
1154.3	125.412
1157.98	58.81
1161.67	71.928
1165.35	72.792
1169.04	25.095
1172.72	2.858
1176.4	28.204
1180.07	30.579
1183.75	32.161
1187.42	43.602
1191.1	5.422
1194.77	1.822
1198.44	19.004
1202.1	16.354
1205.77	9.215
1209.43	50.894
1213.1	7.295
1216.76	3.336
1220.42	46.192
1224.07	24.546
1227.73	23.462
1231.38	11.275
1235.04	36.745
1238.69	10.453
1242.34	6.841
1245.99	24.777
1249.63	37.019
1253.28	26.048
1256.92	51.151
1260.56	8.031
1264.2	69.668
1267.84	16.318
1271.48	61.68
1275.11	34.202
1278.74	6.212
1282.38	15.249
1286.01	19.939
1289.63	34.321
1293.26	24.653
1296.89	3.272
1300.51	9.149
1304.13	11.351
1307.75	16.197
1311.37	0.53
1314.99	49.367
1318.6	7.562
1322.22	2.09
1325.83	41.228
1329.44	22.297
1333.05	25.12
1336.66	56.63
1340.26	3.032
1343.87	31.053
1347.47	3.905
1351.07	92.125
1354.67	45.786
1358.27	66.445
1361.86	100.415
1365.46	118.083
1369.05	77.704
1372.64	69.115
1376.23	112.39
1379.82	42.482
1383.41	69.291
1386.99	110.339
1390.57	55.581
1394.16	95.553
1397.74	107.213
1401.32	122.445
1404.89	127.473
1408.47	98.771
1412.04	97.996
1415.61	85.591
1419.18	110.585
1422.75	104.032
1426.32	103.245
1429.89	111.2
1433.45	99.27
1437.01	96.707
1440.58	112.897
1444.13	122.229
1447.69	87.353
1451.25	140.197
1454.81	144.833
1458.36	132.005
1461.91	174.624
1465.46	73.881
1469.01	124.938
1472.56	103.128
1476.1	175.812
1479.64	148.41
1483.19	156.758
1486.73	135.131
1490.27	154.378
1493.81	146.689
1497.34	110.281
1500.88	22.754
1504.41	84.315
1507.94	39.226
1511.47	28.475
1515	19.089
1518.53	95.806
1522.05	80.243
1525.57	2.774
1529.1	68.536
1532.62	8.778
