Measurement: Raman, 532 nm, unoriented, Raman Data Processed
Mineral: Catapleiite
Rruff sample: R060198
Ideal chemistry: Na_2_ZrSi_3_O_9_2H_2_O
Locality: Mont Saint-Hilaire, Rouville County, Quebec, Canada
Source: Royal Ontario Museum
Description: Tan colored pseudohexagonal tabular crystals
Measured chemistry: (Na_1.92_Ca_0.04_[box]_0.04_)_Σ=2_Zr_1.00_Si_3.00_O_9_·2H_2_O
Raman shift (cm-1)	intensity
138.843	0
142.218	32.5265
145.593	90.1263
148.968	182.055
152.343	355.041
155.718	493.608
159.092	476.323
162.467	420.944
165.842	355.735
169.217	293.248
172.592	269.24
175.966	257.206
179.341	259.116
182.716	260.274
186.091	279.752
189.466	305.936
192.84	358.429
196.215	427.236
199.59	477.975
202.965	502.861
206.34	532.066
209.715	542.57
213.089	519.663
216.464	432.988
219.839	296.809
223.214	182.237
226.589	99.8313
229.964	53.0115
233.338	17.3195
236.713	6.3501
240.088	6.32581
243.463	9.15527
246.838	9.38464
250.212	13.6965
253.587	9.7627
256.962	0.263916
260.337	5.66003
263.712	5.8739
267.086	10.6392
270.461	2.9939
273.836	14.9497
277.211	20.8364
280.586	43.6453
283.961	66.3765
287.335	100.418
290.71	143.48
294.085	177.356
297.46	185.013
300.835	164.898
304.209	119.758
307.584	95.1924
310.959	78.0774
314.334	67.2943
317.709	53.9769
321.084	39.7722
324.458	40.8851
327.833	32.7095
331.208	23.1697
334.583	13.2728
337.958	5.97205
341.332	6.8479
344.707	0.323608
348.082	3.95654
351.457	20.4812
354.832	39.7859
358.207	75.0496
361.581	101.289
364.956	105.253
368.331	92.9227
371.706	56.0631
375.08	49.9239
378.455	36.6549
381.83	33.0343
385.205	24.5345
388.58	24.9061
391.955	22.6339
395.329	23.454
398.704	27.7183
402.079	28.2279
405.454	54.5409
408.829	113.531
412.204	221.421
415.578	384.345
418.953	574.301
422.328	811.915
425.703	1086.94
429.078	1256.6
432.452	1137.13
435.827	784.728
439.202	494.685
442.577	314.45
445.952	203.078
449.327	140.762
452.701	93.8336
456.076	58.6779
459.451	46.9473
462.826	34.1661
466.201	16.3066
469.575	10.2623
472.95	4.88037
476.325	7.75049
479.7	1.87988
483.075	3.79846
486.45	3.27954
489.824	8.19055
493.199	14.9537
496.574	1.57141
499.949	5.57446
503.324	25.6705
506.698	52.8505
510.073	92.1129
513.448	139.41
516.823	177.561
520.198	211.033
523.572	205.776
526.947	168.745
530.322	118.535
533.697	83.7577
537.072	58.1288
540.447	49.4023
543.821	49.777
547.196	63.6113
550.571	94.7898
553.946	157.593
557.321	259.603
560.695	402.87
564.07	596.223
567.445	802.033
570.82	984.185
574.195	1028.23
577.569	827.254
580.944	506.233
584.319	269.187
587.694	135.359
591.069	60.7515
594.443	18.5248
597.818	1.28992
601.193	14.7347
604.568	30.2677
607.943	70.3862
611.318	139.824
614.692	283.474
618.067	496.374
621.442	753.742
624.817	1096.22
628.192	1352.61
631.567	1252.46
634.941	771.284
638.316	425.161
641.691	262.09
645.066	196.337
648.441	151.79
651.815	117.398
655.19	83.1936
658.565	46.5626
661.94	17.1237
665.315	6.81616
668.689	0.772095
672.064	0.378906
675.439	2.38586
678.814	2.31079
682.189	3.84241
685.564	4.91223
688.938	3.51892
692.313	4.79773
695.688	5.66528
699.063	10.822
702.438	9.96558
705.812	16.1761
709.187	22.1106
712.562	31.7026
715.937	47.6912
719.312	68.0151
722.687	79.8807
726.061	96.9804
729.436	113.659
732.811	121.531
736.186	123.963
739.561	102.623
742.936	81.3055
746.31	62.5105
749.685	48.7338
753.06	37.9144
756.435	27.7678
759.81	27.3311
763.184	22.2826
766.559	26.4557
769.934	16.8154
773.309	12.2072
776.684	9.2572
780.058	7.57947
783.433	9.58435
786.808	7.40613
790.183	9.12463
793.558	0.842529
796.933	8.30981
800.307	0.194946
803.682	1.45044
807.057	0.182373
810.432	4.25586
813.807	2.70911
817.181	3.10632
820.556	1.10986
823.931	10.782
827.306	14.0569
830.681	11.6797
834.056	15.5554
837.43	20.7217
840.805	29.7687
844.18	42.642
847.555	43.1232
850.93	49.9401
854.304	60.5623
857.679	77.8053
861.054	88.7531
864.429	67.7045
867.804	41.1356
871.178	23.9379
874.553	8.14966
877.928	6.93811
881.303	1.10278
884.678	9.92908
888.053	1.02344
891.427	7.74121
894.802	20.0713
898.177	38.9889
901.552	63.3635
904.927	97.7474
908.302	145.396
911.676	242.023
915.051	387.222
918.426	642.033
921.801	1041.13
925.176	1587.3
928.55	2199.74
931.925	2634.14
935.3	2413.29
938.675	1591.03
942.05	907.443
945.424	567.125
948.799	390.788
952.174	227.069
955.549	108.049
958.924	41.3392
962.298	2.63232
965.673	7.04236
969.048	8.20789
972.423	6.14758
975.798	36.3927
979.173	95.2122
982.547	195.652
985.922	375.112
989.297	661.25
992.672	1097.46
996.047	1703.34
999.421	2397.76
1002.8	2913.85
1006.17	3029.42
1009.55	2797.43
1012.92	2272.91
1016.3	1671.55
1019.67	1110.84
1023.04	685.416
1026.42	424.725
1029.8	280.27
1033.17	201.703
1036.54	170.38
1039.92	136.604
1043.29	102.992
1046.67	57.3151
1050.04	31.6027
1053.42	10.4276
1056.79	3.30798
1060.17	6.05396
1063.54	4.30798
1066.92	5.6626
1070.29	35.6902
1073.67	72.0405
1077.04	132.651
1080.42	222.684
1083.79	313.959
1087.17	391.634
1090.54	385.798
1093.92	296.135
1097.29	192.334
1100.67	115.387
1104.04	78.3679
1107.42	55.2073
1110.79	39.1317
1114.16	28.5228
1117.54	15.52
1120.91	8.99805
1124.29	5.76331
1127.66	11.775
1131.04	12.2296
1134.41	10.6022
1137.79	8.94458
1141.16	1.80554
1144.54	4.56689
1147.91	4.06396
1151.29	10.1206
1154.66	4.33606
1158.04	4.32837
1161.41	2.53552
1164.79	7.54492
1168.16	10.7446
1171.54	18.2947
1174.91	19.082
1178.29	16.5011
1181.66	13.5721
1185.04	13.6545
1188.41	13.3503
1191.79	6.86511
1195.16	0.737793
1198.54	0.263428
1201.91	9.24487
1205.29	3.44824
1208.66	0.810425
1212.04	2.84851
1215.41	8.4093
1218.79	9.04627
1222.16	2.7749
1225.53	6.84949
1228.91	3.70007
1232.28	4.68848
1235.66	16.5985
1239.03	20.1061
1242.41	18.8893
1245.78	16.853
1249.16	15.7618
1252.53	15.8433
1255.91	10.1646
1259.28	13.3271
1262.66	19.3174
1266.03	33.3335
1269.41	41.4281
1272.78	41.7058
1276.16	38.4558
1279.53	27.6502
1282.91	5.91748
1286.28	0.127197
1289.66	1.07788
1293.03	3.75342
1296.4	10.2728
1299.78	3.00854
1303.15	2.9303
