Measurement: Raman, 532 nm, unoriented, Raman Data Processed
Mineral: Catapleiite
Rruff sample: R060208
Ideal chemistry: Na_2_ZrSi_3_O_9_2H_2_O
Locality: Mont Saint-Hilaire, Rouville County, Quebec, Canada
Source: Royal Ontario Museum
Description: Colorless transparent thin tabular pseudohexagonal crystal
Measured chemistry: Na_2.00_Zr_1.00_Si_3.00_O_9_Â·2H_2_O
Raman shift (cm-1)	intensity
145.111	0
148.486	8.75502
151.861	37.4534
155.235	72.6962
158.61	85.1849
161.985	84.1209
165.36	68.704
168.735	55.0062
172.109	45.5964
175.484	31.1981
178.859	19.015
182.234	8.9715
185.609	2.83876
188.984	0.916901
192.358	2.24877
195.733	2.40337
199.108	1.01597
202.483	0.719063
205.858	4.31651
209.232	7.87533
212.607	11.1175
215.982	12.1395
219.357	11.8713
222.732	12.1229
226.107	11.5178
229.481	10.849
232.856	9.35396
236.231	9.91167
239.606	10.2644
242.981	11.8153
246.355	10.2807
249.73	6.5076
253.105	4.29773
256.48	4.44308
259.855	4.00382
263.229	5.25726
266.604	5.99422
269.979	6.04366
273.354	6.49658
276.729	9.65054
280.104	13.2987
283.478	19.3091
286.853	27.1839
290.228	36.2215
293.603	48.5604
296.978	55.9373
300.353	54.3169
303.727	45.4817
307.102	39.2651
310.477	36.5164
313.852	34.4634
317.227	30.0363
320.601	25.3264
323.976	21.7997
327.351	19.7128
330.726	14.6799
334.101	10.2771
337.476	5.60072
340.85	2.10949
344.225	0.05188
347.6	1.96547
350.975	1.91633
354.349	1.38114
357.724	0.049911
361.099	3.7041
364.474	6.47897
367.849	8.83115
371.224	10.8738
374.598	12.1697
377.973	11.3592
381.348	10.6771
384.723	10.1471
388.098	9.93547
391.473	9.76875
394.847	9.72102
398.222	11.9653
401.597	16.3594
404.972	22.8233
408.347	34.3177
411.721	55.8492
415.096	91.2516
418.471	137.684
421.846	202.053
425.221	289.39
428.596	372.616
431.97	373.951
435.345	279.788
438.72	180.721
442.095	118.691
445.469	80.9031
448.844	57.0203
452.219	41.613
455.594	31.1249
458.969	23.3611
462.344	16.3887
465.718	12.3233
469.093	8.17522
472.468	6.80305
475.843	4.01002
479.218	2.02792
482.592	0.276558
485.967	0.299828
489.342	1.11519
492.717	2.22678
496.092	2.0339
499.467	0.929543
502.841	0.75721
506.216	1.67162
509.591	5.12589
512.966	9.81797
516.341	17.0038
519.716	22.6772
523.09	27.779
526.465	29.7441
529.84	29.734
533.215	32.5187
536.59	32.447
539.964	33.4973
543.339	34.8208
546.714	38.3406
550.089	44.6856
553.464	58.3941
556.838	81.0598
560.213	118.541
563.588	175.382
566.963	241.511
570.338	321.589
573.713	371.014
577.087	325.567
580.462	215.467
583.837	118.83
587.212	62.1942
590.587	31.3555
593.961	14.8378
597.336	5.98289
600.711	2.71025
604.086	4.20184
607.461	8.72997
610.836	20.4487
614.21	43.7424
617.585	84.7725
620.96	138.181
624.335	217.995
627.71	318.359
631.084	354.145
634.459	238.393
637.834	119.452
641.209	62.3042
644.584	32.0151
647.958	17.6577
651.333	9.1291
654.708	4.96193
658.083	1.5396
661.458	0.363377
664.833	0.643509
668.207	1.141
671.582	0.496761
674.957	1.15638
678.332	1.26042
681.707	0.160904
685.082	0.093315
688.456	0.631618
691.831	1.22279
695.206	1.16138
698.581	2.52583
701.956	2.96455
705.33	3.68171
708.705	5.66314
712.08	7.17302
715.455	8.94033
718.83	13.7653
722.205	17.4637
725.579	21.1924
728.954	25.924
732.329	31.9989
735.704	34.3306
739.079	32.9258
742.453	26.9517
745.828	21.9412
749.203	16.1958
752.578	11.6721
755.953	8.9244
759.327	7.92938
762.702	5.95855
766.077	5.25466
769.452	3.57366
772.827	3.0721
776.202	2.75666
779.576	2.44086
782.951	2.62966
786.326	1.58115
789.701	1.64993
793.076	1.21429
796.45	0.437817
799.825	0.49382
803.2	0.449059
806.575	0.250725
809.95	0.007847
813.324	0.544514
816.699	0.662399
820.074	0.209118
823.449	0.199883
826.824	0.525059
830.198	0.166424
833.573	1.10168
836.948	0.903137
840.323	0.327389
843.698	0.625778
847.073	0.916912
850.447	0.812531
853.822	0.814651
857.197	0.255348
860.572	1.21271
863.947	1.04969
867.322	0.502941
870.696	0.221657
874.071	1.17805
877.446	0.639175
880.821	2.08049
884.196	3.69965
887.57	6.29537
890.945	7.1338
894.32	10.8283
897.695	14.3299
901.07	20.5803
904.444	29.9499
907.819	43.9294
911.194	66.6885
914.569	103.789
917.944	172.081
921.319	278.479
924.693	441.41
928.068	659.261
931.443	859.921
934.818	867.611
938.193	613.774
941.567	344.862
944.942	201.743
948.317	141.014
951.692	92.8855
955.067	53.2662
958.442	29.6316
961.816	16.5372
965.191	8.75861
968.566	4.17857
971.941	1.01355
975.316	0.154072
978.691	0.668518
982.065	1.15457
985.44	0.395325
988.815	2.44514
992.19	7.21176
995.564	14.8863
998.939	23.599
1002.31	31.1432
1005.69	37.2234
1009.06	37.5105
1012.44	32.1412
1015.81	25.9711
1019.19	18.0137
1022.56	14.8539
1025.94	8.62115
1029.31	4.50474
1032.69	3.0745
1036.06	2.85832
1039.44	1.8237
1042.81	1.0575
1046.19	0.005428
1049.56	0.673481
1052.94	0.038914
1056.31	0.572773
1059.69	0.572159
1063.06	1.39357
1066.44	3.32251
1069.81	5.09996
1073.18	8.32928
1076.56	13.7056
1079.93	22.8312
1083.31	33.5897
1086.68	46.3991
1090.06	50.6175
1093.43	40.2729
1096.81	25.3087
1100.18	15.1646
1103.56	8.95587
1106.93	4.59475
1110.31	2.37807
1113.68	0.98027
1117.06	0.436523
1120.43	0.004314
1123.81	0.210129
1127.18	0.280674
1130.56	0.596054
1133.93	0.995232
1137.31	1.77416
1140.68	1.00589
1144.06	2.21774
1147.43	2.74979
1150.81	2.29432
1154.18	2.21299
1157.56	0.575626
1160.93	0.622459
1164.31	0.346874
1167.68	0.357368
1171.06	0.660885
1174.43	0.658291
1177.81	0.39579
1181.18	0.188274
1184.55	0.881367
1187.93	0.258648
1191.3	0.010857
1194.68	0.162823
1198.05	0.272152
1201.43	0.215302
1204.8	0.347534
1208.18	0.759216
1211.55	0.049118
1214.93	0.299217
1218.3	0.402458
1221.68	0.074936
1225.05	0.330706
1228.43	0.289358
1231.8	0.332655
1235.18	0.168228
1238.55	0.06443
1241.93	0.663698
1245.3	0.805109
1248.68	0.197323
1252.05	0.603167
1255.42	0.580513
1258.8	0.680588
1262.17	0.942894
1265.55	0.74819
1268.92	0.815199
1272.3	0.764259
1275.67	0.579695
1279.05	0.339872
1282.42	0.340775
1285.8	0.410261
1289.17	0.300632
1292.55	0.008926
1295.92	0.019348
1299.3	2.96592
1302.67	6.29561
