Measurement: Raman, 780 nm, unoriented, Raman Data Processed
Mineral: Catapleiite
Rruff sample: R040005
Ideal chemistry: Na_2_ZrSi_3_O_9_2H_2_O
Locality: Langesundsfjord Eikaholmen Vestfold, Norway
Source: University of Arizona Mineral Museum
Description: Brown thin tabular crystal
Measured chemistry: (Na_1.28_Ca_0.36_[box]_0.36_)_Σ=2_Zr_1.00_Si_3.00_O_9_·2H_2_O
Raman shift (cm-1)	intensity
125.791	0
128.684	6.23438
131.576	33.8262
134.469	40.0859
137.362	171.184
140.255	317.893
143.147	398.75
146.04	733.648
148.933	1002.03
151.825	1151.78
154.718	1245.91
157.611	1152.16
160.503	1074.06
163.396	962.481
166.289	800.705
169.181	451.695
172.074	552.008
174.967	547.473
177.859	308.111
180.752	209.688
183.645	140.518
186.538	345.644
189.43	345.363
192.323	318.609
195.216	403.217
198.108	412.15
201.001	305.717
203.894	337.678
206.786	201.137
209.679	179.002
212.572	336.781
215.465	310.75
218.357	232.246
221.25	147.365
224.143	138.119
227.035	218.113
229.928	88.2305
232.821	285.033
235.714	191.553
238.606	252.82
241.499	144.897
244.392	95.0059
247.284	92.25
250.177	104.682
253.07	66.2617
255.962	20.8906
258.855	76.5684
261.748	109.225
264.64	68.6816
267.533	96.1016
270.426	27.0605
273.319	44.8906
276.211	59.9043
279.104	65.9824
281.997	216.269
284.889	65.6172
287.782	262.519
290.675	315.641
293.567	344.69
296.46	628.053
299.353	697.769
302.246	844.852
305.138	815.043
308.031	941.152
310.924	902.629
313.816	830.93
316.709	908.24
319.602	884.957
322.495	720.496
325.387	747.303
328.28	666.061
331.173	588.547
334.065	703.873
336.958	656.668
339.851	628.803
342.743	674.213
345.636	440.838
348.529	433.279
351.421	304.44
354.314	135.5
357.207	307.996
360.1	316.301
362.992	162.178
365.885	198.098
368.778	380.022
371.67	358.975
374.563	278.057
377.456	149.584
380.349	153.815
383.241	191.697
386.134	42.5547
389.027	60.873
391.919	29.2598
394.812	35.1484
397.705	25.8086
400.597	15.6797
403.49	62.8574
406.383	85.5195
409.276	124.607
412.168	292.324
415.061	192.174
417.954	348.51
420.846	482.588
423.739	835.752
426.632	1152.64
429.524	1516.12
432.417	1812.34
435.31	2126.97
438.202	2638.19
441.095	2862.61
443.988	2746
446.881	2369.48
449.773	1846.69
452.666	1405.05
455.559	1068.37
458.451	766.473
461.344	570.959
464.237	495.254
467.13	273.592
470.022	202.871
472.915	202.371
475.808	195.639
478.7	66.8945
481.593	25.7773
484.486	22.0684
487.378	50.4277
490.271	66.4863
493.164	8.54883
496.057	26.2207
498.949	53.1895
501.842	25.6797
504.735	16.2852
507.627	110.846
510.52	234.467
513.413	161.609
516.305	253.541
519.198	420.086
522.091	350.184
524.984	305.246
527.876	388.398
530.769	408.82
533.662	379.951
536.554	353.801
539.447	380.391
542.34	336.281
545.232	310.861
548.125	362.691
551.018	251.973
553.91	350.164
556.803	419.631
559.696	751.221
562.589	937.334
565.481	1488.27
568.374	2097.58
571.267	2630.92
574.159	3180.19
577.052	3591.25
579.945	3363.27
582.837	2919.53
585.73	2012.73
588.623	1340.27
591.516	717.887
594.408	403.658
597.301	328.492
600.194	22.6523
603.086	11.1816
605.979	5.87109
608.872	47.1895
611.764	155.801
614.657	218.273
617.55	489.356
620.443	805.777
623.335	1316.81
626.228	2137.73
629.121	2940.56
632.013	3854.33
634.906	4214.3
637.799	3801.4
640.692	2564.07
643.584	1490.59
646.477	832.9
649.37	462.461
652.262	317.402
655.155	144.141
658.048	62.709
660.94	7.54102
663.833	48.3281
666.726	73.9453
669.619	6.48828
672.511	83.375
675.404	143.027
678.297	145.107
681.189	82.2227
684.082	3.35938
686.975	28.2715
689.867	49.1445
692.76	44.1543
695.653	77.6602
698.545	42.8145
701.438	15.4238
704.331	79.1875
707.224	37.4473
710.116	79.2109
713.009	96.7168
715.902	146.697
718.794	182.906
721.687	256.576
724.58	180.471
727.472	221.31
730.365	269.997
733.258	321.714
736.151	312.732
739.043	354.109
741.936	445.011
744.829	372.757
747.721	325.515
750.614	354.902
753.507	363.656
756.399	276.795
759.292	312.927
762.185	152.52
765.078	147.825
767.97	190.179
770.863	81.083
773.756	119.166
776.648	66.8252
779.541	113.876
782.434	148.595
785.327	118.888
788.219	26.374
791.112	168.791
794.005	81.3975
796.897	94.0576
799.79	37.9512
802.683	46.6006
805.575	54.6875
808.468	16.4824
811.361	54.8281
814.254	87.0596
817.146	65.0908
820.039	92.5225
822.932	7.44434
825.824	15.835
828.717	116.359
831.61	135.449
834.502	92.7998
837.395	54.3994
840.288	93.7266
843.181	73.6631
846.073	80.6377
848.966	26.4541
851.859	53.418
854.751	89.9873
857.644	5.76953
860.537	128.731
863.429	59.9746
866.322	35.8037
869.215	73.0967
872.107	23.2334
875	2.87988
877.893	13.8516
880.786	37.8145
883.678	6.91797
886.571	11.7959
889.464	50.7002
892.356	210.997
895.249	189.081
898.142	334.007
901.034	529.656
903.927	857.281
906.82	1094.25
909.713	1345.56
912.605	1787.22
915.498	2040.91
918.391	2418.59
921.283	2915.93
924.176	3688.36
927.069	4498.07
929.962	5388.48
932.854	6096.51
935.747	6288.25
938.64	6063.53
941.532	5310.17
944.425	4301.1
947.318	2996
950.21	2058.33
953.103	1235.19
955.996	886.383
958.889	634.858
961.781	286.913
964.674	218.054
967.567	64.4072
970.459	54.8906
973.352	4.48047
976.245	28.9072
979.137	107.001
982.03	334.653
984.923	430.711
987.816	752.119
990.708	1002.73
993.601	1226.16
996.494	1612.16
999.386	1737.22
1002.28	1644.59
1005.17	1457.47
1008.06	1721.89
1010.96	1034.36
1013.85	882.95
1016.74	598.46
1019.63	476.296
1022.53	326.604
1025.42	280.493
1028.31	115.184
1031.21	162.913
1034.1	56.9346
1036.99	73.9258
1039.88	17.9648
1042.78	54.9209
1045.67	73.5059
1048.56	14.7949
1051.45	66.2939
1054.35	43.041
1057.24	28.8184
1060.13	14.9268
1063.03	7.91406
1065.92	27.8594
1068.81	64.2207
1071.7	129.548
1074.6	132.426
1077.49	203.721
1080.38	283.336
1083.28	401.69
1086.17	435.205
1089.06	451.779
1091.95	480.903
1094.85	399.665
1097.74	315.185
1100.63	308.741
1103.52	151.941
1106.42	108.804
1109.31	123.679
1112.2	64.0566
1115.09	94.8193
1117.99	0.230469
1120.88	30.1777
1123.77	28.666
1126.66	1.25977
1129.56	39.3799
1132.45	52.043
1135.34	107.493
1138.24	55.2158
1141.13	92.7461
1144.02	137.562
1146.91	162.297
1149.81	173.398
1152.7	170.818
1155.59	142.852
1158.48	270.527
1161.38	163.674
1164.27	122.652
1167.16	187.76
1170.06	184.493
1172.95	241.426
1175.84	241.96
1178.73	170.349
1181.63	160.945
1184.52	94.4609
1187.41	127.85
1190.3	126.067
1193.2	88.916
1196.09	146.477
1198.98	34.668
1201.88	129.973
1204.77	78.334
1207.66	63.1016
1210.55	113.397
1213.45	30.0059
1216.34	0.123047
1219.23	29.0664
1222.12	55.5156
1225.02	24.4473
1227.91	74.8613
1230.8	47.4552
1233.69	17.1133
1236.59	65.7989
1239.48	78.218
1242.37	89.9052
1245.27	76.9769
1248.16	98.4679
1251.05	84.2869
1253.94	68.2422
1256.84	33.3301
1259.73	5.98828
1262.62	37.6074
1265.52	58.3887
1268.41	50.1728
1271.3	30.792
