Measurement: Raman, 780 nm, unoriented, Raman Data Processed
Mineral: Catapleiite
Rruff sample: R060198
Ideal chemistry: Na_2_ZrSi_3_O_9_2H_2_O
Locality: Mont Saint-Hilaire, Rouville County, Quebec, Canada
Source: Royal Ontario Museum
Description: Tan colored pseudohexagonal tabular crystals
Measured chemistry: (Na_1.92_Ca_0.04_[box]_0.04_)_Σ=2_Zr_1.00_Si_3.00_O_9_·2H_2_O
Raman shift (cm-1)	intensity
91.8272	0
95.202	38.4015
98.5768	36.801
101.952	15.1537
105.326	20.6469
108.701	4.31018
112.076	6.52795
115.451	9.84595
118.826	5.02698
122.201	11.4801
125.575	15.2927
128.95	13.1112
132.325	5.41418
135.7	26.0184
139.075	39.2178
142.449	41.1877
145.824	51.05
149.199	63.0474
152.574	63.4432
155.949	74.4365
159.323	61.1876
162.698	51.1247
166.073	34.878
169.448	12.5399
172.823	9.05865
176.198	7.61432
179.572	4.11011
182.947	4.26935
186.322	12.305
189.697	28.4327
193.072	33.4058
196.446	46.7371
199.821	49.0638
203.196	44.6405
206.571	54.1044
209.946	68.407
213.321	56.7056
216.695	38.1562
220.07	19.1506
223.445	11.0151
226.82	7.62561
230.195	6.17938
233.569	0.611328
236.944	1.21912
240.319	0.738953
243.694	0.248108
247.069	5.05658
250.444	0.332764
253.818	5.0144
257.193	5.06921
260.568	9.22046
263.943	5.35028
267.318	14.9203
270.692	8.46741
274.067	2.9317
277.442	14.5777
280.817	22.0906
284.192	31.4882
287.567	31.2934
290.941	51.2198
294.316	50.3388
297.691	53.9459
301.066	43.8415
304.441	38.1631
307.815	26.752
311.19	26.6052
314.565	21.7486
317.94	22.792
321.315	14.8135
324.69	14.2867
328.064	12.897
331.439	7.27277
334.814	3.79193
338.189	7.67267
341.564	4.19446
344.938	2.22253
348.313	3.14758
351.688	2.32208
355.063	10.368
358.438	17.5922
361.812	10.8387
365.187	12.0525
368.562	17.6101
371.937	14.288
375.312	8.15991
378.687	8.65521
382.061	1.80035
385.436	6.86902
388.811	5.39239
392.186	6.38922
395.561	12.3309
398.935	11.4055
402.31	20.417
405.685	28.6996
409.06	55.3396
412.435	87.41
415.81	120.958
419.184	165.583
422.559	209.585
425.934	258.586
429.309	275.012
432.684	226.396
436.058	151.451
439.433	99.1266
442.808	68.8265
446.183	41.2849
449.558	37.0876
452.933	29.467
456.307	16.9321
459.682	14.0757
463.057	10.7097
466.432	5.23309
469.807	5.34552
473.181	7.18426
476.556	10.5795
479.931	0.478699
483.306	9.27283
486.681	0.189453
490.055	0.442871
493.43	2.28009
496.805	2.47437
500.18	4.15558
503.555	10.3685
506.93	11.609
510.304	20.1657
513.679	26.2351
517.054	32.2405
520.429	30.6294
523.804	36.538
527.178	19.3189
530.553	17.694
533.928	16.2343
537.303	15.2617
540.678	21.7819
544.053	16.2128
547.427	17.6152
550.802	35.5549
554.177	63.9296
557.552	90.2479
560.927	132.111
564.302	168.698
567.676	216.37
571.051	243.29
574.426	219.751
577.801	163.597
581.176	87.8225
584.55	43.3075
587.925	14.9949
591.3	4.40784
594.675	1.68018
598.05	3.83618
601.424	16.6088
604.799	11.4491
608.174	17.8092
611.549	55.3289
614.924	99.8928
618.298	140.144
621.673	198.674
625.048	252.08
628.423	284.674
631.798	228.546
635.173	131.096
638.547	77.0566
641.922	48.7949
645.297	29.749
648.672	26.3648
652.047	15.863
655.422	11.5617
658.796	4.75037
662.171	5.70874
665.546	2.18962
668.921	0.202332
672.296	2.57257
675.67	1.72827
679.045	4.95752
682.42	3.09277
685.795	1.03449
689.17	16.6714
692.544	5.32489
695.919	2.70862
699.294	5.21686
702.669	9.50275
706.044	10.9781
709.419	4.2193
712.793	16.2965
716.168	20.5187
719.543	17.7006
722.918	19.2693
726.293	24.8783
729.668	27.2409
733.042	29.9882
736.417	24.7023
739.792	23.65
743.167	13.0224
746.542	10.4898
749.916	16.301
753.291	7.78449
756.666	6.92041
760.041	4.52637
763.416	2.95127
766.79	9.08545
770.165	0.659546
773.54	4.81171
776.915	3.23029
780.29	5.28888
783.665	1.09076
787.039	3.44629
790.414	0.88269
793.789	0.348145
797.164	4.9372
800.539	8.37433
803.913	1.73407
807.288	2.57581
810.663	3.1142
814.038	2.466
817.413	6.83136
820.788	7.8985
824.162	4.90796
827.537	6.76935
830.912	10.279
834.287	10.9785
837.662	17.727
841.036	11.4056
844.411	9.98706
847.786	12.8527
851.161	11.1092
854.536	16.598
857.91	11.5702
861.285	11.8839
864.66	9.078
868.035	1.3092
871.41	7.73407
874.784	1.30072
878.159	6.60089
881.534	3.19775
884.909	2.83728
888.284	6.31799
891.659	9.35407
895.033	8.84406
898.408	15.8433
901.783	17.3256
905.158	33.5001
908.533	46.3916
911.908	79.2274
915.282	121.99
918.657	193.559
922.032	297.889
925.407	405.454
928.782	512.164
932.156	536.038
935.531	433.116
938.906	265.65
942.281	154.793
945.656	94.6824
949.03	65.5807
952.405	33.6511
955.78	19.9899
959.155	9.21674
962.53	2.92975
965.905	5.90735
969.279	1.25787
972.654	2.59058
976.029	8.3714
979.404	12.8236
982.779	29.2975
986.154	62.7962
989.528	113.68
992.903	171.192
996.278	248.574
999.653	321.345
1003.03	352.518
1006.4	340.259
1009.78	292.681
1013.15	227.36
1016.53	163.238
1019.9	99.3173
1023.28	60.1489
1026.65	31.8654
1030.03	23.944
1033.4	18.6858
1036.78	18.7859
1040.15	19.7111
1043.53	3.33392
1046.9	2.06879
1050.28	4.72205
1053.65	0.552673
1057.03	4.40064
1060.4	0.565674
1063.77	2.06665
1067.15	7.01184
1070.52	7.54413
1073.9	17.6352
1077.27	22.9748
1080.65	40.4684
1084.02	56.8447
1087.4	63.1553
1090.77	49.5497
1094.15	36.9144
1097.52	25.6577
1100.9	12.696
1104.27	5.95667
1107.65	6.77618
1111.02	10.8945
1114.4	1.26392
1117.77	3.04211
1121.15	1.52838
1124.52	6.94989
1127.9	9.00903
1131.27	6.88544
1134.64	0.795105
1138.02	7.06811
1141.39	6.4931
1144.77	2.62872
1148.14	2.6532
1151.52	0.328247
1154.89	8.1828
1158.27	5.36102
1161.64	1.47296
1165.02	0.510132
1168.39	15.3897
1171.77	5.64612
1175.14	6.76581
1178.52	5.49121
1181.89	7.02991
1185.27	4.98419
1188.64	6.43646
1192.02	5.56427
1195.39	14.0435
1198.77	6.77551
1202.14	8.98108
1205.52	4.8291
1208.89	2.97113
1212.27	2.95612
1215.64	0.797913
1219.02	8.79773
1222.39	6.9325
1225.77	4.40991
1229.14	6.59534
1232.52	5.08118
1235.89	4.70953
1239.27	4.6579
1242.64	3.48273
1246.01	5.19684
1249.39	10.4786
1252.76	0.909546
1256.14	6.40173
1259.51	12.0461
1262.89	13.6784
1266.26	11.3184
1269.64	14.2645
1273.01	9.5918
1276.39	11.6117
1279.76	4.41675
1283.14	1.60315
