Measurement: Raman, 532 nm, unoriented, Raman Data Processed
Mineral: Cattierite
Rruff sample: R061039
Ideal chemistry: CoS_2_
Locality: Shinkolobwe, Belgian Congo
Source: Michael Scott
Description: Pinkish silver metallic
Raman shift (cm-1)	intensity
128.273	0
131.165	47.8644
134.058	7.60403
136.951	24.4909
139.843	125.227
142.736	29.4535
145.629	25.0961
148.522	93.6132
151.414	61.7148
154.307	46.3548
157.2	52.6662
160.092	11.7044
162.985	60.6831
165.878	2.39261
168.77	16.3435
171.663	55.8442
174.556	25.277
177.448	21.861
180.341	9.95129
183.234	36.074
186.127	45.9954
189.019	45.1214
191.912	19.83
194.805	55.1962
197.697	32.6805
200.59	40.3609
203.483	47.4896
206.375	39.1516
209.268	57.0693
212.161	46.6717
215.054	38.8774
217.946	15.2787
220.839	25.6922
223.732	33.1797
226.624	8.12534
229.517	8.53424
232.41	13.4073
235.303	15.7951
238.195	26.6655
241.088	5.91599
243.981	28.4747
246.873	20.0843
249.766	4.49344
252.659	4.83621
255.551	10.8299
258.444	15.3538
261.337	11.6655
264.229	7.46442
267.122	7.289
270.015	8.89508
272.908	21.4136
275.8	63.827
278.693	107.625
281.586	236.982
284.478	400.232
287.371	550.101
290.264	737.71
293.156	658.298
296.049	403.637
298.942	256.548
301.834	171.758
304.727	139.031
307.62	114.579
310.513	98.0171
313.405	102.702
316.298	115.189
319.191	90.6508
322.083	62.8265
324.976	77.2138
327.869	28.8147
330.762	27.54
333.654	13.3159
336.547	17.9315
339.44	8.96661
342.332	1.62424
345.225	10.0698
348.118	12.8793
351.01	16.2026
353.903	30.2877
356.796	22.4831
359.688	57.808
362.581	93.2754
365.474	165.878
368.366	261.068
371.259	484.847
374.152	894.411
377.045	1405.13
379.937	2047.97
382.83	2618.72
385.723	2967.86
388.615	2579.7
391.508	1955.23
394.401	1442.52
397.293	1085.42
400.186	828.208
403.079	675.32
405.972	563.908
408.864	496.372
411.757	438.128
414.65	394.319
417.542	359.775
420.435	281.702
423.328	207.865
426.221	206.526
429.113	143.749
432.006	130.742
434.899	72.3165
437.791	43.0884
440.684	25.9509
443.577	41.7259
446.469	1.14502
449.362	15.3498
452.255	1.10483
455.147	4.66962
458.04	1.86678
460.933	1.57175
463.826	4.02307
466.718	3.88216
469.611	8.87874
472.504	0.927521
475.396	0.008728
478.289	25.617
481.182	6.59084
484.074	27.9632
486.967	16.5927
489.86	0.890915
492.752	20.0212
495.645	27.6579
498.538	21.7952
501.431	21.9216
504.323	28.8203
507.216	35.7879
510.109	23.4916
513.001	6.95087
515.894	25.108
518.787	23.0894
521.679	40.0841
524.572	11.1198
527.465	2.32986
530.358	33.961
533.25	1.90433
536.143	41.8329
539.036	30.8742
541.928	38.5181
544.821	9.66733
547.714	12.3114
550.606	6.74889
553.499	47.0498
556.392	31.4059
559.284	7.00455
562.177	32.3543
565.07	12.0825
567.963	46.583
570.855	24.6063
573.748	15.315
576.641	28.6524
579.533	27.2968
582.426	10.2445
585.319	7.10503
588.212	27.5879
591.104	1.57899
593.997	11.021
596.89	9.54863
599.782	36.7337
602.675	22.4923
605.568	7.12329
608.46	24.0548
611.353	26.0144
614.246	48.2501
617.139	15.5798
620.031	42.0894
622.924	37.9867
625.817	41.8203
628.709	51.6615
631.602	22.0309
634.495	23.1185
637.387	18.8155
640.28	15.1871
643.173	28.1799
646.066	6.55928
648.958	20.711
651.851	21.9096
654.744	27.9366
657.636	7.36569
660.529	21.7836
663.422	27.3163
666.314	33.4617
669.207	1.61112
672.1	1.78153
674.992	17.4566
677.885	2.80231
680.778	28.0993
683.67	17.5849
686.563	19.3222
689.456	23.1787
692.349	6.52577
695.241	23.4699
698.134	2.35733
701.027	20.7464
703.919	20.8143
706.812	3.3978
709.705	24.4528
712.597	21.2099
715.49	13.4381
718.383	23.1156
721.276	1.03546
724.168	38.1496
727.061	30.5981
729.954	15.1035
732.846	28.2615
735.739	37.6845
738.632	11.2594
741.524	24.4823
744.417	27.427
747.31	38.565
750.203	27.3427
753.095	14.8501
755.988	30.0694
758.881	19.432
761.773	4.62517
764.666	4.78151
767.559	30.5359
770.452	10.1227
773.344	16.1706
776.237	16.5582
779.13	4.31366
782.022	0.982269
784.915	0.983368
787.808	18.4853
790.7	1.47502
793.593	3.43993
796.486	22.6919
799.378	30.4167
802.271	9.76297
805.164	32.3667
808.057	57.5981
810.949	35.9805
813.842	47.9804
816.735	46.8174
819.627	54.7206
822.52	42.3081
825.413	51.8378
828.305	57.3668
831.198	52.5485
834.091	32.6245
836.984	45.5829
839.876	40.8488
842.769	51.1974
845.662	23.0662
848.554	36.6722
851.447	3.99519
854.34	10.1299
857.232	7.43329
860.125	17.843
863.018	29.6655
865.91	28.2266
868.803	22.1138
871.696	34.9253
874.589	12.9136
877.481	23.3135
880.374	12.4349
883.267	12.0091
886.159	9.75883
889.052	24.7524
891.945	19.8484
894.837	6.43521
897.73	27.9261
900.623	9.51379
903.516	5.61172
906.408	19.6683
909.301	18.0831
912.194	45.1617
915.086	13.5827
917.979	19.7199
920.872	18.1434
923.764	4.52588
926.657	20.1717
929.55	3.53397
932.442	16.487
935.335	16.0154
938.228	11.8756
941.121	13.5992
944.013	20.6218
946.906	25.1779
949.799	27.8743
952.691	13.0194
955.584	2.08215
958.477	4.29333
961.37	24.8371
964.262	2.39078
967.155	8.82405
970.048	21.126
972.94	1.52048
975.833	6.39148
978.726	2.69383
981.618	9.00958
984.511	42.9675
987.404	15.3371
990.296	20.2886
993.189	18.8638
996.082	17.5678
998.975	20.9595
1001.87	16.6392
1004.76	3.42975
1007.65	18.7013
1010.54	14.3071
1013.44	4.50497
1016.33	28.7461
1019.22	24.6348
1022.12	25.9842
1025.01	9.718
1027.9	3.80043
1030.79	10.8765
1033.69	12.7448
1036.58	10.2823
1039.47	10.5937
1042.37	32.3079
1045.26	14.2631
1048.15	12.9535
1051.04	28.8111
1053.94	31.8473
1056.83	18.2803
1059.72	35.9404
1062.61	11.8523
1065.51	22.3696
1068.4	23.5464
1071.29	9.49197
1074.18	22.0578
1077.08	29.358
1079.97	2.41414
1082.86	28.2844
1085.76	10.0142
1088.65	15.6112
1091.54	9.4969
1094.43	22.4423
1097.33	16.5496
1100.22	47.3984
1103.11	17.1931
1106	14.0215
1108.9	18.9076
1111.79	0.561005
1114.68	40.0889
1117.58	28.4113
1120.47	22.5443
1123.36	18.6292
1126.25	11.1094
1129.15	37.8896
1132.04	12.9909
1134.93	18.9937
1137.82	27.2515
1140.72	34.7587
1143.61	22.9614
1146.5	18.3516
1149.39	10.455
1152.29	36.5088
1155.18	11.608
1158.07	27.1049
1160.97	8.56102
1163.86	25.5488
1166.75	34.0201
1169.64	40.2618
1172.54	13.8346
1175.43	6.9615
1178.32	24.6941
1181.21	3.20668
1184.11	38.3791
1187	4.35495
1189.89	18.1198
1192.79	40.1181
1195.68	51.6055
1198.57	20.8816
1201.46	8.88551
1204.36	25.4128
1207.25	19.861
1210.14	46.573
1213.03	41.7357
1215.93	35.4475
1218.82	16.348
1221.71	38.3721
1224.61	13.1936
1227.5	27.4893
1230.39	28.3295
1233.28	6.74193
1236.18	25.1089
1239.07	34.4276
1241.96	28.5931
1244.85	43.1754
1247.75	57.2514
1250.64	42.2473
1253.53	31.4487
1256.42	25.0206
1259.32	21.7673
1262.21	54.3717
1265.1	36.5029
1267.99	0.722229
1270.89	24.2756
1273.78	4.56944
