Measurement: Raman, 514 nm, unoriented, Raman Data Processed
Mineral: Cavansite
Rruff sample: R050400
Ideal chemistry: CaV^4+^OSi_4_O_10_4H_2_O
Locality: Poona, India
Source: Eugene Schlepp
Description: Spray of blue crystals
Measured chemistry: (Ca_0.99_Mg_0.01_)_Σ=1_(V^4+^_1.00_O)Si_4.00_O_10_·4H_2_O
Raman shift (cm-1)	intensity
54.266	0
58.464	140.106
62.661	29.882
66.856	34.241
71.048	303.825
75.239	1048.69
79.427	2102.49
83.614	4205.89
87.798	6342.83
91.981	7800.18
96.161	6037.45
100.34	4043.55
104.516	3631.24
108.691	4335.59
112.864	4764.98
117.034	4394.96
121.203	2990.24
125.369	2292.56
129.534	2239.69
133.696	2277.44
137.857	2070.24
142.016	1604.91
146.172	1282.52
150.327	1220.67
154.48	1293.91
158.63	1420.52
162.779	1529.22
166.926	1341.05
171.07	1020.01
175.213	956.157
179.354	1121.89
183.493	1764.88
187.63	3360.93
191.765	5416.02
195.898	6223.25
200.029	4844.6
204.158	3106.03
208.285	2426.53
212.41	2389.95
216.533	3077.3
220.654	5022.35
224.773	8312.87
228.891	12181.9
233.006	14102.8
237.119	12076.4
241.231	8773.99
245.34	5989.44
249.448	4532.49
253.553	3723.96
257.657	3022.71
261.758	2140.62
265.858	1573.61
269.956	1162.57
274.052	1017.45
278.146	1131.2
282.237	1613.76
286.327	2280.08
290.416	3154.14
294.502	3483.02
298.586	2978.01
302.668	2226.15
306.749	1609.77
310.827	1250.95
314.903	1044.02
318.978	915.098
323.051	793.886
327.121	519.949
331.19	565.053
335.257	740.253
339.322	893.652
343.385	898.158
347.446	786.113
351.505	815.874
355.563	746.821
359.618	559.929
363.672	360.145
367.723	157.638
371.773	13.461
375.821	108.436
379.866	95.208
383.91	29.017
387.952	145.556
391.992	74.827
396.031	92.021
400.067	69.459
404.101	21.158
408.134	164.926
412.165	291.819
416.193	484.94
420.22	647.574
424.245	709.716
428.268	954.39
432.289	913.519
436.309	928.068
440.326	804.077
444.342	443.519
448.355	220.316
452.367	19.479
456.377	73.107
460.385	46.652
464.391	30.821
468.395	110.467
472.398	88.298
476.398	78.201
480.397	50.467
484.394	30.783
488.389	1.773
492.382	43.716
496.373	31.277
500.362	29.885
504.349	27.524
508.335	25.207
512.319	24.923
516.3	62.62
520.28	102.312
524.259	126.06
528.235	223.868
532.209	367.562
536.182	485.687
540.152	473.535
544.121	488.613
548.088	416.612
552.053	528.484
556.017	640.028
559.978	1114.03
563.938	2134.29
567.895	4047.44
571.851	6306.25
575.805	7613.78
579.758	7008.41
583.708	5790.72
587.657	4608.7
591.603	3751.96
595.548	2998.76
599.491	2475.56
603.432	2129.72
607.372	1836.68
611.309	1571.98
615.245	1394.17
619.179	1279.27
623.111	1149.19
627.041	1168.16
630.97	998.876
634.896	1000.46
638.821	1028.69
642.744	1131.56
646.665	1219.49
650.584	1268.67
654.502	1631.13
658.418	1950.92
662.331	2833.86
666.244	4349.59
670.154	6287.83
674.062	7698.83
677.969	6088.81
681.874	3390.31
685.777	1792.69
689.678	899.908
693.577	588.02
697.475	356.07
701.371	252.076
705.265	139.051
709.157	121.966
713.047	93.825
716.936	73.586
720.823	39.139
724.708	23.635
728.591	0.881
732.472	43.603
736.352	36.844
740.23	29.646
744.106	38.988
747.98	2.808
751.853	66.079
755.723	31.908
759.592	8.798
763.459	20.882
767.325	7.049
771.188	12.752
775.05	51.337
778.91	85.797
782.768	165.558
786.625	342.241
790.479	461.237
794.332	463.091
798.183	398.805
802.033	316.397
805.88	355.898
809.726	410.298
813.57	638.609
817.413	1088.84
821.253	1688.96
825.092	1964.02
828.929	1321.01
832.764	824.929
836.598	531.748
840.429	400.468
844.259	317.095
848.088	290.631
851.914	229.082
855.739	195.464
859.562	157.773
863.383	172.019
867.203	185.78
871.02	168.61
874.836	188.537
878.65	93.844
882.463	195.665
886.274	188.619
890.083	241.535
893.89	185.776
897.695	203.25
901.499	235.248
905.301	260.419
909.102	362.669
912.9	382.761
916.697	453.976
920.492	568.87
924.285	821.092
928.077	1254.87
931.867	2086.82
935.655	3135.42
939.442	3065.09
943.226	2379.83
947.009	2299.66
950.791	3046.57
954.57	4462.58
958.348	4808.69
962.124	4165.89
965.899	4513.17
969.671	6351.55
973.442	10799
977.211	22248.7
980.979	45906.4
984.745	49644.2
988.509	24132.2
992.271	10689.2
996.032	5437.38
999.791	3012.79
1003.55	1697.58
1007.3	1096.35
1011.06	733.222
1014.81	497.882
1018.56	401.936
1022.31	243.802
1026.06	190.174
1029.8	130.874
1033.55	153.303
1037.29	145.15
1041.03	245.465
1044.77	267.738
1048.5	293.691
1052.24	311.141
1055.97	352.12
1059.7	525.072
1063.43	813.075
1067.16	1530.57
1070.89	2949.34
1074.61	4538.8
1078.34	4456.42
1082.06	3746.01
1085.78	3609.38
1089.5	2890.99
1093.21	1775.93
1096.93	1218.44
1100.64	878.663
1104.35	701.023
1108.06	549.334
1111.77	505.252
1115.48	389.276
1119.18	237.959
1122.89	381.784
1126.59	246.289
1130.29	163.059
1133.99	66.674
1137.68	71.975
1141.38	69.438
1145.07	1.417
1148.76	31.664
1152.45	36.373
1156.14	2.743
1159.83	22.575
1163.51	11.786
1167.19	21.912
1170.88	3.912
1174.56	12.73
1178.23	5.737
1181.91	3.302
1185.59	16.712
1189.26	9.869
1192.93	8.89
1196.6	2.95
1200.27	13.03
1203.94	15.735
1207.6	44.602
1211.27	16.133
1214.93	18.84
1218.59	27.695
1222.25	33.335
1225.9	4.182
1229.56	2.905
1233.21	22.464
1236.86	23.918
1240.51	14.308
1244.16	14.636
1247.81	27.712
1251.45	6.338
1255.1	40.511
1258.74	33.2
1262.38	12.832
1266.02	16.971
1269.66	26.119
1273.29	4.108
1276.93	25.046
1280.56	49.724
1284.19	43.344
1287.82	63.728
1291.45	36.971
1295.07	45.013
1298.7	8.643
1302.32	76.162
1305.94	18.556
1309.56	56.892
1313.18	48.678
1316.8	75.552
1320.41	44.138
1324.02	72.069
1327.63	42.029
1331.24	96.699
1334.85	46.024
1338.46	96.128
1342.06	97.521
1345.67	109.324
1349.27	97.356
1352.87	104.738
1356.47	69.855
1360.07	106.633
1363.66	36.809
1367.25	85.012
1370.85	55.802
1374.44	53.691
1378.03	50.497
1381.61	60.518
1385.2	80.061
1388.78	51.654
1392.37	54.433
1395.95	72.876
1399.53	39.17
1403.1	86.302
1406.68	4.116
1410.26	50.548
1413.83	89.36
1417.4	49.839
1420.97	23.381
1424.54	56.133
1428.1	39.565
1431.67	56.097
1435.23	6.535
1438.8	4.135
1442.36	45.697
1445.91	66.346
1449.47	47.921
1453.03	69.571
1456.58	49.047
1460.13	32.309
1463.68	60.601
1467.23	43.714
1470.78	21.391
1474.33	51.736
1477.87	41.142
1481.42	67.843
1484.96	60.02
1488.5	30.689
1492.04	1.351
1495.57	7.049
1499.11	35.907
1502.64	35.97
1506.17	33.3
1509.71	3.918
1513.23	66.93
1516.76	0.536
1520.29	32.048
1523.81	37.125
1527.34	0
