Measurement: Raman, 532 nm, unoriented, Raman Data Processed
Mineral: Cavansite
Rruff sample: R050400
Ideal chemistry: CaV^4+^OSi_4_O_10_4H_2_O
Locality: Poona, India
Source: Eugene Schlepp
Description: Spray of blue crystals
Measured chemistry: (Ca_0.99_Mg_0.01_)_Σ=1_(V^4+^_1.00_O)Si_4.00_O_10_·4H_2_O
Raman shift (cm-1)	intensity
120.798	0
123.691	29.7914
126.584	48.4852
129.476	69.7385
132.369	115.636
135.262	132.682
138.155	88.9323
141.047	44.2655
143.94	12.9445
146.833	4.8649
149.725	8.29971
152.618	2.4711
155.511	23.2387
158.404	57.2885
161.296	88.2305
164.189	81.3791
167.082	51.1068
169.974	33.1752
172.867	45.1645
175.76	84.7868
178.652	148.305
181.545	219.51
184.438	304.375
187.331	415.044
190.223	545.157
193.116	645.726
196.009	583.413
198.901	358.807
201.794	162.519
204.687	66.3551
207.579	31.8063
210.472	45.621
213.365	74.1724
216.257	124.02
219.15	177.026
222.043	246.885
224.936	314.844
227.828	380.949
230.721	387.033
233.614	327.732
236.506	242.563
239.399	178.916
242.292	141.193
245.185	123.501
248.077	117.153
250.97	119.034
253.863	108.088
256.755	82.183
259.648	42.4786
262.541	8.14032
265.433	10.7251
268.326	14.2375
271.219	5.27231
274.111	13.0102
277.004	45.5893
279.897	83.2236
282.79	119.266
285.682	164.524
288.575	195.421
291.468	206.643
294.36	195.717
297.253	164.995
300.146	141.19
303.038	122.489
305.931	118.961
308.824	107.727
311.717	106.241
314.609	115.745
317.502	126.152
320.395	125.86
323.287	119.042
326.18	114.523
329.073	125.113
331.966	152.217
334.858	176.189
337.751	181.398
340.644	152.381
343.536	115.478
346.429	87.2246
349.322	73.2254
352.214	60.157
355.107	54.1888
358	47.7979
360.892	41.617
363.785	22.766
366.678	6.81099
369.571	2.66357
372.463	3.91475
375.356	5.17059
378.249	3.58669
381.141	0.397934
384.034	1.44843
386.927	6.96852
389.82	7.42833
392.712	10.7277
395.605	11.4413
398.498	17.2601
401.39	23.5601
404.283	32.6469
407.176	47.3015
410.068	61.6763
412.961	79.0371
415.854	97.5633
418.747	110.306
421.639	126.556
424.532	130.181
427.425	133.892
430.317	131.352
433.21	113.983
436.103	100.922
438.995	87.9713
441.888	68.7699
444.781	42.5057
447.673	25.0824
450.566	17.6795
453.459	15.3785
456.352	16.888
459.244	18.9829
462.137	21.4665
465.03	26.9964
467.922	29.1637
470.815	35.4738
473.708	35.4867
476.601	30.3924
479.493	27.4496
482.386	18.6597
485.279	13.2546
488.171	9.18851
491.064	7.54535
493.957	4.21263
496.849	2.95214
499.742	1.187
502.635	0.25985
505.527	2.19634
508.42	3.12989
511.313	3.23525
514.206	0.650658
517.098	1.1254
519.991	6.25095
522.884	12.133
525.776	16.7132
528.669	23.3202
531.562	34.2398
534.455	46.7714
537.347	51.5911
540.24	50.539
543.133	49.4479
546.025	53.9751
548.918	63.3749
551.811	75.3882
554.703	94.7898
557.596	123.667
560.489	167.126
563.381	224.157
566.274	282.717
569.167	334.334
572.06	356.356
574.952	330.721
577.845	278.234
580.738	222.119
583.63	167.946
586.523	125.309
589.416	97.958
592.308	75.8011
595.201	59.5984
598.094	45.6878
600.987	34.9669
603.879	25.9037
606.772	18.4995
609.665	15.4638
612.557	10.4045
615.45	4.63323
618.343	3.15903
621.236	1.70164
624.128	0.595177
627.021	1.96692
629.914	0.962067
632.806	1.35279
635.699	0.553642
638.592	3.60586
641.484	6.64899
644.377	11.135
647.27	21.7294
650.163	29.7025
653.055	47.8903
655.948	69.4002
658.841	101.117
661.733	135.543
664.626	178.475
667.519	224.998
670.411	249.801
673.304	231.024
676.197	173.388
679.09	106.814
681.982	62.8097
684.875	37.3538
687.768	21.7077
690.66	14.2355
693.553	7.33087
696.446	5.25565
699.338	5.05949
702.231	5.44219
705.124	4.301
708.016	3.92209
710.909	3.00411
713.802	1.1751
716.695	1.55037
719.587	0.106705
722.48	1.1572
725.373	0.119766
728.265	0.071777
731.158	0.227119
734.051	1.44682
736.943	0.85276
739.836	0.245575
742.729	0.573563
745.622	0.842171
748.514	1.37582
751.407	3.29449
754.3	4.4644
757.192	1.86362
760.085	4.45075
762.978	4.9151
765.87	5.36266
768.763	5.60105
771.656	7.33702
774.549	7.56846
777.441	8.70982
780.334	10.4256
783.227	10.5499
786.119	14.2129
789.012	15.5181
791.905	13.2102
794.798	13.6803
797.69	13.006
800.583	12.0464
803.476	11.7941
806.368	16.8334
809.261	21.928
812.154	26.1576
815.046	34.9598
817.939	43.4763
820.832	50.4405
823.725	46.575
826.617	33.076
829.51	21.9414
832.403	18.2078
835.295	16.161
838.188	15.9269
841.081	15.2363
843.973	14.3476
846.866	10.0841
849.759	6.56276
852.652	4.56976
855.544	3.19233
858.437	0.437279
861.33	0.119514
864.222	0.07959
867.115	0.986061
870.008	0.074356
872.9	1.38449
875.793	0.554001
878.686	1.23713
881.578	1.38769
884.471	0.051407
887.364	0.700203
890.257	0.169067
893.149	0.797729
896.042	0.113556
898.935	1.39514
901.827	2.43723
904.72	4.07191
907.613	5.92203
910.505	9.62663
913.398	15.807
916.291	21.8017
919.184	34.4482
922.076	54.0608
924.969	75.9989
927.862	106.166
930.754	142.971
933.647	169.521
936.54	157.138
939.433	129.705
942.325	121.067
945.218	135.287
948.111	164.88
951.003	212.458
953.896	255.523
956.789	247.965
959.681	234.189
962.574	265.88
965.467	371.463
968.36	568.596
971.252	838.965
974.145	1130.79
977.038	1538.78
979.93	1986.68
982.823	1777.81
985.716	974.561
988.608	494.653
991.501	280.852
994.394	171.767
997.287	108.052
1000.18	67.0452
1003.07	40.8203
1005.97	24.5281
1008.86	13.0333
1011.75	7.37651
1014.64	2.01349
1017.53	1.82435
1020.43	1.75845
1023.32	3.57812
1026.21	3.29456
1029.11	0.131287
1032	3.86817
1034.89	6.53108
1037.78	11.7864
1040.68	15.917
1043.57	22.278
1046.46	15.1723
1049.36	9.44221
1052.25	4.29234
1055.14	4.64755
1058.03	7.59552
1060.93	12.0503
1063.82	22.636
1066.71	35.526
1069.6	53.9514
1072.5	67.2241
1075.39	68.5294
1078.28	58.6502
1081.17	48.6515
1084.07	42.8864
1086.96	35.886
1089.85	26.3303
1092.75	21.9183
1095.64	17.4599
1098.53	15.4032
1101.42	14.664
1104.32	13.9283
1107.21	15.5553
1110.1	12.4457
1112.99	11.5944
1115.89	7.29762
1118.78	3.51434
1121.67	3.10946
1124.57	0.859825
1127.46	0.415737
1130.35	0.972622
1133.24	0.150436
1136.14	0.00568
1139.03	0.312519
1141.92	0.352203
1144.81	0.440022
1147.71	0.154564
1150.6	0.010002
1153.49	0.627602
1156.38	0.588543
1159.28	0.61158
1162.17	0.035301
1165.06	1.20264
1167.96	1.32152
1170.85	2.11684
1173.74	1.20849
1176.63	0.761463
1179.53	1.52526
1182.42	1.17669
1185.31	1.89647
1188.2	1.72873
1191.1	1.61681
1193.99	1.99822
1196.88	1.06124
1199.78	1.65831
1202.67	1.47552
1205.56	2.67461
1208.45	1.43321
1211.35	1.11801
1214.24	0.596352
1217.13	1.23515
1220.02	1.24733
1222.92	2.03524
1225.81	1.42822
1228.7	1.12965
1231.6	0.071327
1234.49	1.67073
1237.38	0.692226
1240.27	0.7803
1243.17	0.278545
1246.06	1.18104
1248.95	2.00772
1251.84	0.660408
1254.74	1.60308
1257.63	0.014545
1260.52	1.56419
1263.41	0.928459
1266.31	0.308952
1269.2	1.53566
1272.09	0.262272
1274.99	0
