Measurement: Raman, 780 nm, unoriented, Raman Data Processed
Mineral: Caysichite-(Y)
Rruff sample: R080143
Ideal chemistry: (Ca,Yb,Er)_4_Y_4_Si_8_O_20_(CO_3_)_6_(OH)7H_2_O
Locality: Mt. Malos, Zomba District, Malawi
Source: Mark Feinglos
Description: Pale tan colored blocky crystals removed from aegirine matrix
Raman shift (cm-1)	intensity
160.798	0
163.69	1.15351
166.583	10.5446
169.476	19.0686
172.368	25.6307
175.261	28.9511
178.154	26.5328
181.046	32.0052
183.939	36.2302
186.832	40.5787
189.725	40.9988
192.617	40.2678
195.51	38.9138
198.403	36.3435
201.295	30.0987
204.188	25.4368
207.081	21.8226
209.973	16.9863
212.866	14.6837
215.759	7.80532
218.651	0.976496
221.544	1.04531
224.437	0.973722
227.33	0.589478
230.222	1.14208
233.115	0.675403
236.008	1.87737
238.9	4.81323
241.793	5.55522
244.686	7.09694
247.578	8.93431
250.471	10.5924
253.364	9.23007
256.257	7.98423
259.149	7.55964
262.042	8.09739
264.935	9.63387
267.827	9.43223
270.72	8.94577
273.613	11.0339
276.506	10.6096
279.398	10.5052
282.291	10.7513
285.184	9.08289
288.076	9.02548
290.969	10.9924
293.862	12.5
296.755	14.5073
299.647	15.5642
302.54	18.5024
305.433	19.7504
308.325	19.0425
311.218	15.9994
314.111	12.9164
317.003	9.07272
319.896	6.56085
322.789	4.2196
325.682	0.34509
328.574	0.64915
331.467	0.658161
334.36	0.15327
337.252	0.085645
340.145	0.342754
343.038	0.197515
345.93	0.817148
348.823	2.74496
351.716	4.09792
354.608	6.64753
357.501	9.88517
360.394	15.0112
363.287	19.2426
366.179	25.0398
369.072	31.4011
371.965	38.2529
374.857	43.4611
377.75	47.9264
380.643	51.6115
383.536	51.4856
386.428	50.548
389.321	48.0852
392.214	43.2485
395.106	38.5496
397.999	35.8288
400.892	31.1213
403.784	26.965
406.677	22.8977
409.57	19.5124
412.462	17.3723
415.355	14.3641
418.248	13.4555
421.141	10.2734
424.033	8.0115
426.926	5.06837
429.819	3.66698
432.712	1.62718
435.604	1.27551
438.497	0.400282
441.39	0.033171
444.282	0.327179
447.175	1.08638
450.068	0.195468
452.96	0.353024
455.853	1.04177
458.746	2.50477
461.639	3.4719
464.531	4.83173
467.424	6.80878
470.317	9.70363
473.209	11.8481
476.102	16.2847
478.995	21.0867
481.887	25.8748
484.78	29.2126
487.673	32.9271
490.565	33.3471
493.458	29.8319
496.351	24.2867
499.244	22.2456
502.136	19.8524
505.029	19.4655
507.922	18.5848
510.814	18.3534
513.707	16.2606
516.6	15.1767
519.492	13.5152
522.385	10.9977
525.278	8.20953
528.171	4.74418
531.063	1.56715
533.956	0.051507
536.849	0.338804
539.741	0.254659
542.634	0.232046
545.527	0.590505
548.42	0.120844
551.312	0.739648
554.205	1.39868
557.098	4.5209
559.99	7.01873
562.883	9.35178
565.776	12.2907
568.668	13.9609
571.561	16.1501
574.454	14.0449
577.347	10.6657
580.239	7.8037
583.132	6.944
586.025	5.10108
588.917	4.87839
591.81	3.6753
594.703	2.51966
597.596	2.16047
600.488	1.96977
603.381	0.2965
606.274	1.04665
609.166	0.471431
612.059	0.014556
614.952	0.450561
617.844	1.27889
620.737	0.806804
623.63	1.65689
626.523	1.07653
629.415	0.526086
632.308	0.515756
635.201	0.779065
638.093	0.786167
640.986	1.14251
643.879	0.22614
646.771	0.466705
649.664	0.522138
652.557	0.121697
655.449	0.419021
658.342	0.065335
661.235	0.248808
664.128	0.147615
667.02	0.039109
669.913	0.210842
672.806	0.137195
675.698	0.139258
678.591	0.047474
681.484	0.130284
684.376	0.38639
687.269	1.08413
690.162	3.11638
693.055	3.38787
695.947	5.08359
698.84	7.00752
701.733	10.0879
704.625	11.6172
707.518	9.72003
710.411	5.29478
713.303	2.05248
716.196	1.26585
719.089	0.182569
721.982	0.666352
724.874	1.31473
727.767	3.6476
730.66	5.48416
733.552	8.26974
736.445	11.4358
739.338	17.1439
742.231	21.5275
745.123	15.4958
748.016	7.16154
750.909	3.58469
753.801	1.95976
756.694	2.07886
759.587	2.68194
762.48	3.32959
765.372	5.65203
768.265	8.49532
771.158	6.18712
774.05	2.5683
776.943	0.940918
779.836	0.162568
782.728	0.122608
785.621	0.859514
788.514	0.066839
791.407	0.534493
794.299	0.596467
797.192	0.498296
800.085	0.152055
802.977	0.163297
805.87	2.17742
808.763	0.839718
811.655	1.4526
814.548	0.970968
817.441	0.547888
820.333	0.907251
823.226	1.3097
826.119	0.98344
829.012	1.25925
831.904	0.783617
834.797	1.33851
837.69	1.96329
840.582	2.08604
843.475	1.49134
846.368	1.4174
849.261	0.713397
852.153	1.30783
855.046	0.352428
857.939	1.23718
860.831	0.060698
863.724	0.073193
866.617	0.643702
869.51	0.277543
872.402	0.082116
875.295	0.086168
878.188	0.251931
881.08	0.145645
883.973	0.01163
886.866	0.203317
889.758	0.014498
892.651	0.065564
895.544	0.403058
898.437	0.450327
901.329	0.089699
904.222	0.87618
907.115	0.63443
910.007	0.301529
912.9	0.76287
915.793	0.543847
918.685	0.925682
921.578	0.842423
924.471	1.10797
927.364	1.02576
930.256	0.768701
933.149	1.23305
936.042	0.823098
938.934	0.047405
941.827	0.833084
944.72	0.047699
947.612	0.078302
950.505	0.054135
953.398	0.208665
956.29	0.060358
959.183	0.070385
962.076	0.195063
964.969	0.145252
967.861	0.288959
970.754	0.061474
973.647	0.113126
976.539	0.096069
979.432	0.245396
982.325	0.628719
985.217	0.418888
988.11	0.463469
991.003	1.03888
993.896	1.11796
996.788	1.4823
999.681	1.32314
1002.57	1.07347
1005.47	1.58115
1008.36	0.635823
1011.25	0.4113
1014.14	0.48816
1017.04	0.562777
1019.93	0.543298
1022.82	0.361105
1025.71	0.481415
1028.61	0.057993
1031.5	0.304651
1034.39	0.031357
1037.29	0.344128
1040.18	0.764392
1043.07	0.73641
1045.96	1.6676
1048.86	1.19738
1051.75	1.21599
1054.64	1.77876
1057.54	1.78214
1060.43	2.40612
1063.32	3.93281
1066.21	8.12051
1069.11	15.933
1072	25.163
1074.89	39.2831
1077.78	61.0272
1080.68	76.8607
1083.57	81.7114
1086.46	91.4255
1089.36	109.566
1092.25	139.177
1095.14	129.315
1098.03	79.6236
1100.93	40.6074
1103.82	20.8622
1106.71	11.794
1109.6	7.79879
1112.5	4.21836
1115.39	2.80979
1118.28	1.7759
1121.17	1.42145
1124.07	1.32864
1126.96	0.136296
1129.85	0.637126
1132.74	0.584066
1135.64	0.047842
1138.53	0.669841
1141.42	0.031447
1144.32	0.185312
1147.21	1.08223
1150.1	0.036251
1152.99	0.270394
1155.89	0.366601
1158.78	0.547865
1161.67	0.768982
1164.57	0.827104
1167.46	0.569443
1170.35	0.487745
1173.24	0.084585
1176.14	0.678821
1179.03	0.512815
1181.92	0.025401
1184.81	0.527931
1187.71	0.101559
1190.6	0.595614
1193.49	0.802632
1196.38	0.355986
1199.28	0.021925
1202.17	0.44567
1205.06	0.032764
1207.96	0.057853
1210.85	0.511773
1213.74	0.747426
1216.63	0.76046
1219.53	0.752745
1222.42	0.92633
1225.31	0.171192
1228.2	0.190099
1231.1	0.863842
1233.99	0.129133
1236.88	0.709616
1239.78	0.04404
1242.67	0.000509
1245.56	0.830492
1248.45	0.129433
1251.35	0.753877
1254.24	0.129281
1257.13	0.380511
1260.02	0.872705
1262.92	0.987675
1265.81	0.321416
1268.7	1.0292
1271.6	0.827939
1274.49	0.094173
1277.38	0.280463
1280.27	0.131746
1283.17	0.322196
1286.06	0.354038
