Measurement: Raman, 532 nm, unoriented, Raman Data Processed
Mineral: Caysichite-(Y)
Rruff sample: R080143
Ideal chemistry: (Ca,Yb,Er)_4_Y_4_Si_8_O_20_(CO_3_)_6_(OH)7H_2_O
Locality: Mt. Malos, Zomba District, Malawi
Source: Mark Feinglos
Description: Pale tan colored blocky crystals removed from aegirine matrix
Raman shift (cm-1)	intensity
158.022	0
160.915	8.14349
163.807	53.4971
166.7	135.788
169.593	206.288
172.486	224.428
175.378	155.834
178.271	89.8451
181.164	80.0169
184.056	111.868
186.949	148.521
189.842	145.154
192.734	131.294
195.627	100.623
198.52	80.7581
201.412	95.8199
204.305	120.904
207.198	156.202
210.091	171.244
212.983	161.655
215.876	120.42
218.769	44.148
221.661	1.91263
224.554	14.3892
227.447	16.2819
230.339	4.31018
233.232	40.5066
236.125	69.7875
239.018	84.2216
241.91	101.783
244.803	115.887
247.696	123.493
250.588	145.537
253.481	137.607
256.374	127.58
259.267	114.413
262.159	120.344
265.052	131.442
267.945	145.94
270.837	152.609
273.73	168.518
276.623	178.567
279.515	184.433
282.408	192.4
285.301	180.339
288.193	164.203
291.086	147.218
293.979	131.109
296.872	130.528
299.764	127.058
302.657	137.339
305.55	157.059
308.442	147.824
311.335	122.94
314.228	94.3395
317.12	62.2723
320.013	33.2196
322.906	12.4221
325.799	1.28201
328.691	6.76697
331.584	0.390411
334.477	1.38168
337.369	8.86986
340.262	26.7428
343.155	48.1367
346.048	65.3869
348.94	61.6969
351.833	49.7305
354.726	43.7618
357.618	42.0232
360.511	40.2614
363.404	41.7453
366.296	53.9909
369.189	61.7937
372.082	68.0692
374.974	70.6416
377.867	60.6712
380.76	50.1231
383.653	27.3886
386.545	9.41446
389.438	3.39844
392.331	4.75981
395.223	4.57721
398.116	7.16304
401.009	6.55943
403.901	13.7446
406.794	25.431
409.687	41.3796
412.58	52.0195
415.472	62.4393
418.365	66.0703
421.258	71.5962
424.15	68.519
427.043	60.6673
429.936	53.5755
432.829	45.2341
435.721	42.9837
438.614	40.0733
441.507	36.3319
444.399	32.8903
447.292	19.0526
450.185	9.95856
453.077	5.36275
455.97	4.8178
458.863	7.49551
461.755	16.8101
464.648	24.4311
467.541	31.7089
470.434	35.3142
473.326	55.4751
476.219	78.8426
479.112	116.193
482.004	145.667
484.897	184.878
487.79	204.298
490.683	198.004
493.575	151.436
496.468	111.387
499.361	84.0987
502.253	78.4154
505.146	87.564
508.039	93.4664
510.931	104.352
513.824	103.091
516.717	106.129
519.61	101.447
522.502	72.4343
525.395	44.0492
528.288	16.448
531.18	5.27916
534.073	5.16487
536.966	4.74507
539.859	6.32991
542.751	0.136032
545.644	5.94182
548.537	22.37
551.429	35.5724
554.322	57.4757
557.215	86.2275
560.107	125.672
563	166.836
565.893	199.137
568.785	227.562
571.678	241.48
574.571	216.084
577.464	176.022
580.356	131.052
583.249	93.6712
586.142	68.1999
589.034	53.1636
591.927	36.1685
594.82	25.762
597.712	15.4673
600.605	8.64873
603.498	8.23021
606.39	4.79295
609.283	4.76605
612.176	8.75377
615.069	10.8363
617.961	12.9725
620.854	14.2961
623.747	12.8624
626.639	14.8987
629.532	17.5107
632.425	17.1472
635.317	15.9452
638.21	21.7828
641.103	15.2755
643.996	19.4281
646.888	10.9924
649.781	10.4457
652.674	9.2128
655.566	5.05222
658.459	2.55797
661.352	1.02246
664.245	1.92053
667.137	5.105
670.03	4.04244
672.923	4.76569
675.815	3.46846
678.708	3.89561
681.601	5.48341
684.493	7.8933
687.386	19.6278
690.279	32.5014
693.172	43.0111
696.064	63.9312
698.957	84.2614
701.85	117.439
704.742	140.452
707.635	107.198
710.528	63.4442
713.42	42.779
716.313	38.915
719.206	43.4184
722.098	46.9233
724.991	56.9954
727.884	76.4164
730.777	97.6713
733.669	113.634
736.562	150.488
739.455	198.489
742.347	236.785
745.24	165.03
748.133	90.3762
751.025	54.6667
753.918	46.7085
756.811	52.8081
759.704	64.4912
762.596	87.6641
765.489	118.157
768.382	151.795
771.274	135.345
774.167	97.2185
777.06	76.2526
779.952	66.6818
782.845	52.8119
785.738	44.5207
788.631	40.3299
791.523	34.575
794.416	29.2823
797.309	28.2902
800.201	19.9448
803.094	22.8465
805.987	15.3443
808.88	11.4191
811.772	9.56088
814.665	4.13011
817.558	1.83431
820.45	0.505844
823.343	1.32401
826.236	0.282288
829.128	0.384171
832.021	1.52219
834.914	1.11719
837.807	4.4379
840.699	3.69817
843.592	4.85519
846.485	0.572479
849.377	0.740555
852.27	3.57121
855.163	1.1967
858.055	0.662369
860.948	0.260574
863.841	3.88254
866.734	0.427338
869.626	0.106277
872.519	3.67616
875.412	3.98644
878.304	5.46472
881.197	9.623
884.09	7.36995
886.982	7.93181
889.875	9.69568
892.768	8.17554
895.66	7.24448
898.553	6.80574
901.446	9.35947
904.339	10.1975
907.231	6.82375
910.124	9.65283
913.017	9.016
915.909	8.7579
918.802	9.58781
921.695	8.58285
924.587	10.2515
927.48	10.4188
930.373	9.22939
933.266	8.51335
936.158	2.36271
939.051	4.81082
941.944	5.78788
944.836	3.66202
947.729	3.12614
950.622	1.93054
953.514	2.53413
956.407	0.93541
959.3	1.7429
962.193	0.035004
965.085	2.57603
967.978	3.27551
970.871	0.990395
973.763	0.6409
976.656	2.26489
979.549	1.1469
982.442	2.05877
985.334	5.47112
988.227	7.74277
991.12	10.0876
994.012	15.4653
996.905	18.5614
999.798	20.4146
1002.69	22.0302
1005.58	22.5199
1008.48	25.0899
1011.37	22.3082
1014.26	23.3322
1017.15	24.8217
1020.05	20.8615
1022.94	21.4222
1025.83	21.2975
1028.72	25.2159
1031.62	33.3495
1034.51	35.5413
1037.4	41.9978
1040.3	51.415
1043.19	51.8478
1046.08	52.6053
1048.97	50.5009
1051.87	43.8486
1054.76	39.4787
1057.65	35.893
1060.54	35.7678
1063.44	41.208
1066.33	78.3674
1069.22	155.945
1072.12	266.829
1075.01	452.303
1077.9	734.491
1080.79	912.291
1083.69	970.024
1086.58	1094.58
1089.47	1334.41
1092.36	1744.05
1095.26	1485.98
1098.15	843.324
1101.04	397.431
1103.93	179.496
1106.83	95.3641
1109.72	55.2792
1112.61	39.2308
1115.51	23.9179
1118.4	14.8243
1121.29	10.1134
1124.18	2.89784
1127.08	1.45901
1129.97	1.992
1132.86	1.70213
1135.76	0.561714
1138.65	0.006332
1141.54	1.80976
1144.43	2.48418
1147.33	1.79023
1150.22	0.088646
1153.11	0.504417
1156	0.17646
1158.9	0.025719
1161.79	2.75608
1164.68	0.777794
1167.57	3.41341
1170.47	1.59263
1173.36	0.764519
1176.25	1.27638
1179.14	3.04112
1182.04	5.54531
1184.93	3.92615
1187.82	3.36607
1190.72	4.62307
1193.61	7.44966
1196.5	7.9223
1199.39	8.12475
1202.29	11.6924
1205.18	11.2747
1208.07	11.8012
1210.96	13.148
1213.86	14.2798
1216.75	16.1373
1219.64	14.7448
1222.54	12.8417
1225.43	10.3703
1228.32	9.87642
1231.21	9.99117
1234.11	10.0075
1237	8.94065
1239.89	10.2017
1242.79	10.4939
1245.68	9.23515
1248.57	12.6409
1251.46	15.1444
1254.36	14.4552
1257.25	10.3715
1260.14	12.7112
1263.03	14.9506
1265.93	14.6514
1268.82	12.0957
1271.71	12.3534
1274.6	10.3698
1277.5	13.0292
1280.39	9.26366
1283.28	10.2676
1286.17	7.31555
1289.07	5.96457
1291.96	3.68378
1294.85	4.70421
1297.75	3.45538
1300.64	0.148438
1303.53	0
