Measurement: Raman, 532 nm, unoriented, Raman Data Processed
Mineral: Cebaite-(Ce)
Rruff sample: R060248
Ideal chemistry: Ba_3_Ce_2_(CO_3_)_5_F_2_
Locality: Baiyun-Obo mine, Inner Mongolia, China
Source: William W. Pinch
Description: Gemmy yellow to orange-yellow massive; some cleavage evident, associated with green aegirine
Measured chemistry: (Ba_2.95_Sr_0.02_Ca_0.01_)_Σ=2.98_(Ce_0.98_La_0.60_Nd_0.27_Pr_0.10_)_Σ=1.95_(CO_3_)_5.01_F_2.16_
Raman shift (cm-1)	intensity
134.923	0
138.297	0.472839
141.672	12.1538
145.047	17.6979
148.422	42.0529
151.797	91.6959
155.171	165.33
158.546	161.875
161.921	180.78
165.296	208.553
168.671	250.317
172.046	288.434
175.42	304.909
178.795	293.741
182.17	248.877
185.545	201.624
188.92	162.089
192.294	142.086
195.669	129.495
199.044	141.798
202.419	167.948
205.794	209.81
209.168	234.075
212.543	238.738
215.918	204.533
219.293	164.231
222.668	128.678
226.042	115.031
229.417	111.462
232.792	122.103
236.167	142.825
239.542	169.514
242.917	214.024
246.291	285.053
249.666	381.115
253.041	509.377
256.416	674.676
259.791	864.46
263.166	1034.97
266.54	1103.3
269.915	998.713
273.29	778.771
276.665	534.64
280.04	351.061
283.414	226.28
286.789	146.471
290.164	96.6659
293.539	61.4813
296.914	39.3007
300.288	16.6242
303.663	4.74115
307.038	15.6579
310.413	18.4051
313.788	16.133
317.163	0.279663
320.537	3.67041
323.912	9.6803
327.287	15.0179
330.662	6.40955
334.037	3.065
337.411	0.875549
340.786	1.36243
344.161	1.61719
347.536	8.93274
350.911	13.2694
354.286	10.3274
357.66	19.1174
361.035	26.2467
364.41	29.3124
367.785	33.2476
371.16	35.243
374.534	44.9908
377.909	55.7032
381.284	65.9703
384.659	78.882
388.034	78.3906
391.409	78.1376
394.783	74.1091
398.158	67.0875
401.533	60.6755
404.908	50.0744
408.283	52.8243
411.657	44.8897
415.032	34.5829
418.407	35.2836
421.782	32.266
425.157	27.6125
428.531	22.7071
431.906	18.0273
435.281	19.9554
438.656	16.6099
442.031	17.8785
445.406	14.57
448.78	14.7505
452.155	19.0382
455.53	11.1752
458.905	16.2719
462.28	11.5319
465.654	12.2844
469.029	9.47613
472.404	12.1332
475.779	12.5102
479.154	12.6991
482.529	10.8328
485.903	9.77063
489.278	12.1248
492.653	11.8425
496.028	3.51799
499.403	0.44165
502.777	2.80096
506.152	2.26331
509.527	7.19238
512.902	3.80926
516.277	1.70142
519.652	1.50018
523.026	1.51105
526.401	1.50104
529.776	1.17761
533.151	0.410828
536.526	3.23511
539.9	1.79028
543.275	4.01697
546.65	8.21808
550.025	6.91779
553.4	10.2648
556.775	1.51685
560.149	2.0011
563.524	1.50421
566.899	5.89459
570.274	2.30627
573.649	3.16272
577.024	0.061401
580.398	1.35797
583.773	1.54571
587.148	4.14404
590.523	10.6798
593.898	18.7612
597.272	27.9318
600.647	52.0278
604.022	82.7675
607.397	132.083
610.772	194.018
614.146	261.258
617.521	299.966
620.896	309.235
624.271	303.723
627.646	297.85
631.02	277.295
634.395	227.133
637.77	164.17
641.145	104.679
644.52	67.4545
647.895	38.5826
651.269	20.4021
654.644	9.20563
658.019	5.65625
661.394	0.586365
664.769	0.685913
668.144	1.55042
671.518	7.40723
674.893	26.6175
678.268	56.5554
681.643	90.6625
685.018	103.802
688.392	141.114
691.767	146.464
695.142	138.931
698.517	194.25
701.892	238.849
705.266	184.815
708.641	153.811
712.016	215.633
715.391	323.281
718.766	246.145
722.141	134.277
725.515	103.911
728.89	135.049
732.265	101.146
735.64	30.7276
739.015	12.5569
742.389	2.80261
745.764	7.8753
749.139	3.69501
752.514	0.620239
755.889	0.344177
759.264	4.39764
762.638	1.81769
766.013	1.40668
769.388	0.408569
772.763	1.99908
776.138	3.91577
779.513	1.85486
782.887	1.72949
786.262	6.75043
789.637	8.84894
793.012	18.6893
796.386	4.99951
799.761	8.23096
803.136	2.70258
806.511	1.81683
809.886	3.99518
813.261	3.41864
816.635	8.44427
820.01	4.52704
823.385	7.84479
826.76	4.22467
830.135	0.855713
833.51	0.022217
836.884	1.11975
840.259	2.85223
843.634	0.720947
847.009	2.80335
850.384	0.912964
853.758	5.76019
857.133	6.6355
860.508	14.7623
863.883	26.9645
867.258	11.4038
870.633	13.3568
874.007	6.74768
877.382	13.7988
880.757	17.0381
884.132	6.77795
887.507	5.88818
890.881	4.97095
894.256	3.58679
897.631	4.74365
901.006	6.40747
904.381	7.62915
907.755	7.70068
911.13	6.0896
914.505	9.83411
917.88	12.5247
921.255	9.12134
924.63	14.5497
928.004	9.85779
931.379	7.04736
934.754	11.5896
938.129	8.84058
941.504	8.77624
944.879	6.3031
948.253	9.90369
951.628	9.48486
955.003	6.62646
958.378	-0.118805
961.753	1.47009
965.127	0.408081
968.502	1.04297
971.877	3.02612
975.252	1.5741
978.627	5.56396
982.001	7.40674
985.376	11.769
988.751	9.90259
992.126	8.18408
995.501	0.828857
998.875	6.42835
1002.25	3.51831
1005.62	5.92993
1009	5.26965
1012.38	7.41968
1015.75	12.947
1019.12	12.0085
1022.5	15.1779
1025.87	18.8302
1029.25	15.262
1032.62	6.77918
1036	1.80835
1039.37	0.977051
1042.75	3.82971
1046.12	7.06604
1049.5	12.1931
1052.87	23.1989
1056.25	46.8593
1059.62	125.33
1063	248.605
1066.37	414.267
1069.75	807.922
1073.12	911.518
1076.5	876.748
1079.87	1491.34
1083.25	2143.52
1086.62	1973.61
1090	2265.08
1093.37	1082.23
1096.74	218.056
1100.12	60.5081
1103.49	23.1702
1106.87	5.20056
1110.24	5.02515
1113.62	1.55945
1116.99	1.07263
1120.37	1.12952
1123.74	3.94409
1127.12	1.47583
1130.49	2.37073
1133.87	0.938965
1137.24	2.49817
1140.62	4.21472
1143.99	2.79028
1147.37	6.99536
1150.74	2.69849
1154.12	8.34717
1157.49	9.20642
1160.87	5.59912
1164.24	3.76965
1167.62	6.52527
1170.99	7.36682
1174.37	10.4332
1177.74	11.7338
1181.12	10.4209
1184.49	8.64941
1187.87	9.49744
1191.24	12.6929
1194.62	7.15588
1197.99	14.2817
1201.37	5.7395
1204.74	9.41211
1208.11	2.99707
1211.49	8.9397
1214.86	8.08118
1218.24	4.56128
1221.61	3.94324
1224.99	8.92334
1228.36	3.00342
1231.74	3.59033
1235.11	3.71387
1238.49	4.86548
1241.86	3.44312
1245.24	4.17444
1248.61	6.7937
1251.99	6.87524
1255.36	1.3186
1258.74	2.04565
1262.11	1.9989
1265.49	2.81641
1268.86	3.54394
1272.24	4.99915
1275.61	0.812378
1278.98	5.20996
1282.36	3.79773
1285.73	1.85669
1289.11	2.94678
1292.48	1.42847
1295.86	4.11536
1299.23	0.185791
