Measurement: Raman, 780 nm, unoriented, Raman Data Processed
Mineral: Celestine
Rruff sample: R040007
Ideal chemistry: SrSO_4_
Locality: Coahuila, Mexico
Source: University of Arizona Mineral Museum
Description: Blue tabular crystals
Measured chemistry: Light bands: (Sr_0.95_Ba_0.04_Ca_0.01_)_Σ=1_S_1.00_O_4_; Dark bands: (Sr_0.99_Ba_0.01_)_Σ=1_S_1.00_O_4_; trace amounts of Ca
Raman shift (cm-1)	intensity
113.313	0
116.205	3.12967
119.098	25.1033
121.991	51.9423
124.883	88.9323
127.776	111.703
130.669	120.658
133.561	87.4524
136.454	45.2966
139.347	13.0052
142.24	1.4833
145.132	2.42464
148.025	5.6768
150.918	15.6761
153.81	19.7001
156.703	23.7904
159.596	35.1349
162.488	48.0652
165.381	64.9518
168.274	106.581
171.167	105.47
174.059	75.2896
176.952	53.6225
179.845	50.0814
182.737	49.302
185.63	44.615
188.523	45.9678
191.416	59.2816
194.308	63.8179
197.201	51.6551
200.094	28.4305
202.986	16.2297
205.879	2.86252
208.772	3.73328
211.664	1.18297
214.557	1.22241
217.45	0.887169
220.343	1.96111
223.235	1.45054
226.128	3.22702
229.021	1.31459
231.913	5.02819
234.806	3.3417
237.699	7.55909
240.591	4.65562
243.484	7.75694
246.377	6.38018
249.269	7.36914
252.162	12.2667
255.055	8.78424
257.948	8.14935
260.84	12.6727
263.733	12.1235
266.626	10.4609
269.518	10.4213
272.411	5.57201
275.304	7.44912
278.197	4.92839
281.089	6.63226
283.982	5.71295
286.875	3.57674
289.767	4.18418
292.66	7.25765
295.553	3.93554
298.445	6.89125
301.338	1.12985
304.231	5.01601
307.123	5.26931
310.016	7.12721
312.909	5.3941
315.802	7.03344
318.694	5.5213
321.587	4.93678
324.48	5.37516
327.372	3.44607
330.265	2.32101
333.158	1.1401
336.05	0.00452
338.943	0.645809
341.836	3.44989
344.729	1.20204
347.621	1.78033
350.514	3.24682
353.407	2.60197
356.299	4.91739
359.192	1.96677
362.085	1.05304
364.978	2.81765
367.87	1.89515
370.763	2.63616
373.656	0.02763
376.548	1.35614
379.441	0.924519
382.334	0.782654
385.226	1.00977
388.119	1.99561
391.012	0.449448
393.904	0.000336
396.797	0.447056
399.69	0.877712
402.583	2.69508
405.475	9.19516
408.368	6.05827
411.261	8.67564
414.153	11.0831
417.046	14.1618
419.939	19.0261
422.832	30.9858
425.724	41.1306
428.617	66.4711
431.51	117.346
434.402	216.064
437.295	318.478
440.188	443.857
443.08	643.75
445.973	867.732
448.866	1230.7
451.759	1734.39
454.651	1887.28
457.544	1490.91
460.437	1344.32
463.329	908.55
466.222	428.841
469.115	198.885
472.007	112.501
474.9	72.5122
477.793	47.2354
480.685	34.0074
483.578	22.8639
486.471	13.04
489.364	11.1141
492.256	11.1954
495.149	6.63343
498.042	5.94024
500.934	4.37655
503.827	1.10968
506.72	2.89447
509.613	1.4712
512.505	1.4567
515.398	0.524914
518.291	3.96685
521.183	0.953503
524.076	0.371048
526.969	0.900578
529.861	1.80874
532.754	0.52079
535.647	0.007538
538.539	1.24597
541.432	1.48028
544.325	1.20565
547.218	1.2808
550.11	0.705006
553.003	2.3534
555.896	2.42755
558.788	3.07416
561.681	0.760891
564.574	0.226513
567.466	1.49627
570.359	0.665466
573.252	1.13526
576.145	0.305035
579.037	1.92362
581.93	7.05633
584.823	3.90554
587.715	13.7956
590.608	16.4781
593.501	22.0771
596.393	33.6509
599.286	50.8695
602.179	91.6598
605.072	161.868
607.964	271.306
610.857	345.54
613.75	458.404
616.642	622.057
619.535	825.006
622.428	1045.04
625.32	959.983
628.213	462.973
631.106	235.335
633.999	184.713
636.891	222.62
639.784	247.014
642.677	186.036
645.569	183.181
648.462	224.524
651.355	301.305
654.247	427.685
657.14	457.163
660.033	243.864
662.926	96.9901
665.818	48.0534
668.711	25.7107
671.604	13.0367
674.496	9.06297
677.389	7.4007
680.282	1.99301
683.174	3.32947
686.067	1.52666
688.96	2.09796
691.852	0.8391
694.745	2.14381
697.638	0.980293
700.531	2.30914
703.423	3.66054
706.316	2.78143
709.209	0.007275
712.101	0.745502
714.994	1.5239
717.887	2.7515
720.779	1.41027
723.672	2.92415
726.565	2.12962
729.458	3.38464
732.35	4.29995
735.243	0.551514
738.136	5.50433
741.028	1.48686
743.921	3.1193
746.814	1.70261
749.707	0.955986
752.599	3.59382
755.492	3.07464
758.385	4.04382
761.277	2.59703
764.17	3.62873
767.063	2.32158
769.955	2.85662
772.848	1.91856
775.741	0.024826
778.634	3.95541
781.526	3.91898
784.419	4.12165
787.312	5.29361
790.204	1.42088
793.097	3.93364
795.99	5.08972
798.882	4.14337
801.775	0.401707
804.668	5.93514
807.561	4.63136
810.453	5.56871
813.346	7.08743
816.239	4.66777
819.131	7.31902
822.024	5.90477
824.917	5.79139
827.809	3.18639
830.702	5.92765
833.595	3.57923
836.487	4.77171
839.38	6.40975
842.273	4.41911
845.166	4.76144
848.058	3.85237
850.951	3.07502
853.844	5.59238
856.736	2.30029
859.629	5.81786
862.522	2.9512
865.415	0.417908
868.307	1.97301
871.2	2.02581
874.093	0.69421
876.985	0.69632
879.878	0.976311
882.771	2.36473
885.663	1.30329
888.556	1.95673
891.449	2.39323
894.342	5.03133
897.234	7.05792
900.127	7.15662
903.02	6.36352
905.912	2.18627
908.805	2.02945
911.698	0.841049
914.591	5.24246
917.483	2.64851
920.376	5.6896
923.269	2.83447
926.161	1.3088
929.054	1.3395
931.947	0.038063
934.839	0.340881
937.732	0.083096
940.625	2.02216
943.517	3.23369
946.41	1.88257
949.303	1.86549
952.196	3.97316
955.088	3.66643
957.981	10.0288
960.874	17.312
963.766	24.6902
966.659	32.6602
969.552	51.0398
972.444	74.1214
975.337	112.175
978.23	151.915
981.122	271.878
984.015	682.551
986.908	1977.28
989.801	2424.22
992.693	3430.9
995.586	4796.7
998.479	7372.29
1001.37	9231.66
1004.26	2211.25
1007.16	651.028
1010.05	313.269
1012.94	193.555
1015.84	127.48
1018.73	92.8789
1021.62	67.5838
1024.51	45.6395
1027.41	36.2781
1030.3	24.2215
1033.19	15.0992
1036.08	10.1656
1038.98	7.40312
1041.87	4.89378
1044.76	3.09131
1047.65	1.26688
1050.55	0.241745
1053.44	0.063015
1056.33	0.505863
1059.22	1.17359
1062.12	2.92146
1065.01	1.09819
1067.9	4.33444
1070.8	7.4101
1073.69	11.2056
1076.58	28.6432
1079.47	53.9277
1082.37	88.7899
1085.26	127.071
1088.15	175.695
1091.05	235.609
1093.94	283.606
1096.83	207.767
1099.72	107.692
1102.62	83.5393
1105.51	83.2459
1108.4	96.3423
1111.29	96.8811
1114.19	67.0012
1117.08	32.8185
1119.97	12.1258
1122.87	3.83678
1125.76	1.58019
1128.65	1.70901
1131.54	1.44824
1134.44	4.28826
1137.33	17.8898
1140.22	39.4359
1143.11	85.11
1146.01	127.106
1148.9	186.762
1151.79	259.598
1154.68	349.81
1157.58	321.062
1160.47	196.462
1163.36	112.344
1166.26	63.6669
1169.15	37.6321
1172.04	32.5772
1174.93	31.9542
1177.83	41.2515
1180.72	58.6105
1183.61	81.6436
1186.5	104.066
1189.4	118.133
1192.29	82.7095
1195.18	38.9219
1198.08	17.8463
1200.97	11.7881
1203.86	5.91006
1206.75	5.19364
1209.65	5.27812
1212.54	3.00457
1215.43	4.17448
1218.32	3.66231
1221.22	2.04677
1224.11	2.14461
1227	0.935886
1229.89	2.28373
1232.79	3.5682
1235.68	4.20608
1238.57	1.38976
1241.46	1.76542
1244.36	3.69859
1247.25	8.19383
1250.14	5.79691
1253.04	4.12782
1255.93	4.97577
1258.82	0.63401
1261.71	1.66117
1264.61	0.455027
