Measurement: Raman, 532 nm, unoriented, Raman Data Processed
Mineral: Celestine
Rruff sample: R050008
Ideal chemistry: SrSO_4_
Locality: Scofield Quarry, Maybee, Monroe County, Michigan, USA
Source: Eugene Schlepp
Description: Pale blue tabular crystals
Measured chemistry: Sr_1.00_S_1.00_O_4_
Raman shift (cm-1)	intensity
124.592	0
127.967	31.0462
131.341	83.3533
134.716	106.442
138.091	84.0334
141.466	50.3743
144.841	35.1936
148.215	35.472
151.59	62.5122
154.965	108.525
158.34	107.374
161.715	106.72
165.09	160.906
168.464	292.888
171.839	339.266
175.214	220.738
178.589	193.109
181.964	192.394
185.339	174.323
188.713	218.927
192.088	299.984
195.463	381.938
198.838	374.322
202.213	268.001
205.587	129.829
208.962	67.3679
212.337	47.0736
215.712	13.9273
219.087	7.82208
222.462	3.90097
225.836	6.42334
229.211	11.0185
232.586	1.88238
235.961	5.43314
239.336	8.681
242.71	4.55307
246.085	0.625549
249.46	11.845
252.835	6.96368
256.21	8.57623
259.584	2.77386
262.959	15.8129
266.334	0.326904
269.709	14.9182
273.084	16.2841
276.459	20.551
279.833	14.9043
283.208	26.2543
286.583	12.5138
289.958	10.0699
293.333	13.4333
296.707	14.6906
300.082	0.602234
303.457	32.0288
306.832	6.08374
310.207	95.1973
313.582	22.4689
316.956	7.96927
320.331	28.7275
323.706	15.5107
327.081	31.8727
330.456	5.75009
333.83	22.9448
337.205	10.7614
340.58	17.4485
343.955	3.23749
347.33	19.5053
350.705	2.7175
354.079	5.15851
357.454	1.5737
360.829	9.45096
364.204	2.70544
367.579	3.15961
370.954	1.02789
374.328	5.74048
377.703	10.945
381.078	12.7898
384.453	13.5981
387.828	7.63769
391.202	6.42969
394.577	19.5577
397.952	11.4949
401.327	17.9331
404.702	7.94403
408.077	33.704
411.451	38.2009
414.826	32.5374
418.201	47.619
421.576	62.8758
424.951	71.7455
428.325	116.477
431.7	180.558
435.075	315.42
438.45	609.551
441.825	1203.43
445.2	2387.97
448.574	4593.73
451.949	8027.7
455.324	8831.92
458.699	8755.81
462.074	8901.8
465.448	3260.67
468.823	1243.36
472.198	654.032
475.573	335.66
478.948	214.292
482.322	137.88
485.697	93.2557
489.072	51.4181
492.447	51.9589
495.822	37.6334
499.197	32.3738
502.571	16.1025
505.946	13.948
509.321	4.44635
512.696	9.93506
516.071	4.07416
519.446	8.61084
522.82	18.5702
526.195	10.5989
529.57	4.79956
532.945	2.76709
536.32	16.8563
539.694	4.38629
543.069	0.100403
546.444	9.1864
549.819	6.14423
553.194	7.29895
556.568	7.38501
559.943	13.7878
563.318	27.5222
566.693	19.9189
570.068	21.7267
573.443	5.83984
576.817	3.72211
580.192	20.0742
583.567	40.3959
586.942	17.4467
590.317	31.7465
593.692	54.4875
597.066	69.8232
600.441	123.486
603.816	217.321
607.191	416.86
610.566	819.64
613.94	1539.78
617.315	2746.7
620.69	3896.88
624.065	4959.68
627.44	2793.17
630.814	1541.01
634.189	1616.08
637.564	2549.16
640.939	1921.22
644.314	1023.79
647.689	1234.78
651.063	1955.63
654.438	3428.34
657.813	3668.31
661.188	1356.2
664.563	540.715
667.938	257.469
671.312	137.547
674.687	88.5622
678.062	39.7059
681.437	17.7876
684.812	7.12018
688.186	6.03473
691.561	0.758484
694.936	19.8211
698.311	8.49377
701.686	14.3575
705.061	3.31323
708.435	8.25415
711.81	4.18408
715.185	11.8066
718.56	4.00232
721.935	6.70294
725.309	5.36743
728.684	9.04559
732.059	5.56775
735.434	8.22528
738.809	4.21094
742.183	12.3157
745.558	24.9462
748.933	30.4306
752.308	13.0824
755.683	46.9489
759.058	11.717
762.432	13.6997
765.807	23.3836
769.182	26.4805
772.557	33.7415
775.932	17.5634
779.307	37.3083
782.681	25.6736
786.056	39.2694
789.431	26.731
792.806	36.4579
796.181	35.1135
799.555	21.0701
802.93	29.0645
806.305	26.2158
809.68	27.2057
813.055	16.95
816.429	51.0024
819.804	39.1988
823.179	28.1336
826.554	46.7811
829.929	26.0339
833.304	27.8298
836.678	46.4547
840.053	19.8284
843.428	22.3602
846.803	40.1107
850.178	14.2205
853.553	10.0678
856.927	3.86719
860.302	4.8175
863.677	5.29529
867.052	10.3669
870.427	0.486572
873.801	22.0593
877.176	5.58008
880.551	22.6724
883.926	4.11237
887.301	12.5264
890.676	8.9776
894.05	23.972
897.425	27.9913
900.8	24.0577
904.175	20.3466
907.55	18.3693
910.924	32.624
914.299	25.8608
917.674	16.3957
921.049	20.1342
924.424	29.8272
927.798	32.5737
931.173	12.4385
934.548	7.16211
937.923	10.9288
941.298	10.4044
944.673	4.3255
948.047	37.7444
951.422	57.8525
954.797	57.3975
958.172	106.591
961.547	123.69
964.922	180.746
968.296	236.673
971.671	373.652
975.046	551.976
978.421	574.252
981.796	908.343
985.17	1514.08
988.545	3617.44
991.92	12439
995.295	28944.3
998.67	70306
1002.04	53841.4
1005.42	8978.97
1008.79	3057.1
1012.17	1528.09
1015.54	941.514
1018.92	617.639
1022.29	459.078
1025.67	308.3
1029.04	224.145
1032.42	169.986
1035.79	92.1412
1039.17	66.4128
1042.54	20.6241
1045.92	17.7943
1049.29	10.2646
1052.67	34.7315
1056.04	5.18945
1059.42	4.51044
1062.79	19.147
1066.17	5.28613
1069.54	11.0965
1072.92	12.6741
1076.29	23.7123
1079.66	72.0945
1083.04	224.427
1086.41	522.057
1089.79	1096.4
1093.16	1873.94
1096.54	1246.83
1099.91	558.568
1103.29	523.804
1106.66	739.588
1110.04	932.072
1113.41	618.471
1116.79	218.203
1120.16	57.9736
1123.54	17.6632
1126.91	0.707947
1130.29	24.6154
1133.66	66.3987
1137.04	171.883
1140.41	318.185
1143.79	640.569
1147.16	1402.58
1150.54	3010.45
1153.91	5526.64
1157.29	6275.12
1160.66	4493.19
1164.04	2637.06
1167.41	1329.49
1170.79	724.569
1174.16	435.744
1177.54	374.796
1180.91	547.872
1184.29	908.273
1187.66	1506.38
1191.03	1284.02
1194.41	593.782
1197.78	269.852
1201.16	153.357
1204.53	95.9466
1207.91	26.1304
1211.28	41.9299
1214.66	29.1714
1218.03	10.1755
1221.41	20.8558
1224.78	22.7174
1228.16	17.9976
1231.53	1.24799
1234.91	9.99365
1238.28	14.327
1241.66	17.4865
1245.03	31.5469
1248.41	18.6094
1251.78	40.8077
1255.16	15.7505
1258.53	28.8608
1261.91	10.0923
1265.28	28.2872
1268.65	19.7037
1272.03	25.388
1275.4	4.22418
1278.78	18.3312
1282.15	10.3674
1285.53	33.5262
1288.9	35.4367
1292.28	24.9903
1295.65	14.8492
1299.03	10.28
1302.4	9.51111
1305.78	13.1381
1309.15	21.9659
