Measurement: Raman, 514 nm, unoriented, Raman Data Processed
Mineral: Celestine
Rruff sample: R040007
Ideal chemistry: SrSO_4_
Locality: Coahuila, Mexico
Source: University of Arizona Mineral Museum
Description: Blue tabular crystals
Measured chemistry: Light bands: (Sr_0.95_Ba_0.04_Ca_0.01_)_Σ=1_S_1.00_O_4_; Dark bands: (Sr_0.99_Ba_0.01_)_Σ=1_S_1.00_O_4_; trace amounts of Ca
Raman shift (cm-1)	intensity
83.614	0
87.798	62.37
91.981	17.406
96.161	25.453
100.34	152.553
104.516	190.394
108.691	159.594
112.864	32.547
117.034	93.778
121.203	122.391
125.369	230.332
129.534	234.427
133.696	166.586
137.857	111.233
142.016	75.421
146.172	83.165
150.327	62.337
154.48	57.614
158.63	70.284
162.779	94.479
166.926	166.674
171.07	151.918
175.213	133.599
179.354	105.014
183.493	111.52
187.63	184.883
191.765	262.821
195.898	288.501
200.029	196.285
204.158	127.817
208.285	118.964
212.41	13.272
216.533	5.105
220.654	7.427
224.773	7.544
228.891	6.512
233.006	7.306
237.119	13.96
241.231	3.131
245.34	1.215
249.448	1.953
253.553	17.684
257.657	2.6
261.758	17.426
265.858	9.459
269.956	36.475
274.052	24.363
278.146	1.189
282.237	31.953
286.327	47.511
290.416	31.289
294.502	7.16
298.586	24.292
302.668	22.662
306.749	5.959
310.827	18.187
314.903	11.347
318.978	21.427
323.051	42.409
327.121	9.209
331.19	3.127
335.257	21.46
339.322	23.944
343.385	1.662
347.446	10.663
351.505	20.028
355.563	29.278
359.618	46.494
363.672	21.68
367.723	95.868
371.773	49.012
375.821	33.575
379.866	85.384
383.91	65.027
387.952	46.95
391.992	65.222
396.031	60.967
400.067	70.738
404.101	84.21
408.134	77.037
412.165	65.717
416.193	90.64
420.22	120.96
424.245	72.881
428.268	82.888
432.289	147.379
436.309	271.684
440.326	484.551
444.342	1172.17
448.355	3171
452.367	4858.83
456.377	5415.51
460.385	4550.72
464.391	2351.45
468.395	849.964
472.398	414.546
476.398	186.08
480.397	142.62
484.394	113.282
488.389	124.564
492.382	76.157
496.373	48.693
500.362	63.342
504.349	46.557
508.335	6.06
512.319	41.516
516.3	40.073
520.28	16.691
524.259	6.157
528.235	40.803
532.209	58.362
536.182	44.058
540.152	42.654
544.121	46.355
548.088	0.193
552.053	1.922
556.017	20.113
559.978	50.193
563.938	66.357
567.895	18.066
571.851	53.911
575.805	60.153
579.758	27.625
583.708	8.296
587.657	49.09
591.603	70.783
595.548	84.255
599.491	74.725
603.432	97.462
607.372	259.07
611.309	388.828
615.245	855.578
619.179	1786.13
623.111	2345.17
627.041	1526.44
630.97	729.458
634.896	877.273
638.821	1116.88
642.744	641.407
646.665	596.828
650.584	1167.26
654.502	2404.77
658.418	2081.46
662.331	760.76
666.244	344.047
670.154	148.208
674.062	82.374
677.969	86.551
681.874	39.815
685.777	76.619
689.678	16.627
693.577	45.094
697.475	57.179
701.371	14.392
705.265	6.209
709.157	48.849
713.047	3.598
716.936	21.759
720.823	58.426
724.708	37.59
728.591	57.441
732.472	40.693
736.352	2.497
740.23	25.379
744.106	32.574
747.98	9.776
751.853	3.04
755.723	28.871
759.592	47.953
763.459	53.85
767.325	25.701
771.188	130.505
775.05	45.266
778.91	18.041
782.768	46.551
786.625	27.094
790.479	56.581
794.332	67.017
798.183	37.408
802.033	58.757
805.88	13.055
809.726	6.273
813.57	63.399
817.413	70.467
821.253	36.496
825.092	39.489
828.929	59.446
832.764	63.368
836.598	6.766
840.429	45.036
844.259	40.67
848.088	6.417
851.914	30.132
855.739	10.603
859.562	24.918
863.383	30.542
867.203	8.282
871.02	16.554
874.836	4.295
878.65	27.976
882.463	0.22
886.274	19.968
890.083	25.726
893.89	43.704
897.695	14.898
901.499	30.005
905.301	65.86
909.102	58.026
912.9	19.206
916.697	65.44
920.492	95.436
924.285	80.895
928.077	68.197
931.867	101.211
935.655	44.378
939.442	62.038
943.226	105.961
947.009	75.033
950.791	51.175
954.57	145.416
958.348	98.553
962.124	55.623
965.899	155.689
969.671	153.031
973.442	298.347
977.211	353.776
980.979	506.245
984.745	726.689
988.509	1102.3
992.271	2528.82
996.032	10235.4
999.791	49739.9
1003.55	18551.6
1007.3	3788.9
1011.06	1452.64
1014.81	767.413
1018.56	563.186
1022.31	390.985
1026.06	281.797
1029.8	196.459
1033.55	126.836
1037.29	157.202
1041.03	100.274
1044.77	61.564
1048.5	51.893
1052.24	42.201
1055.97	33.602
1059.7	18.051
1063.43	18.391
1067.16	73.903
1070.89	8.553
1074.61	63.015
1078.34	47.608
1082.06	63.252
1085.78	165.568
1089.5	350.298
1093.21	941.049
1096.93	855.831
1100.64	371.704
1104.35	289.635
1108.06	478.506
1111.77	624.424
1115.48	396.209
1119.18	176.647
1122.89	182.143
1126.59	31.485
1130.29	63.727
1133.99	149.335
1137.68	186.416
1141.38	207.753
1145.07	297.193
1148.76	630.589
1152.45	1625.86
1156.14	3476.8
1159.83	3170.51
1163.51	2073.72
1167.19	1028.12
1170.88	578.236
1174.56	334.548
1178.23	316.731
1181.91	335.726
1185.59	503.936
1189.26	1062.13
1192.93	786.932
1196.6	400.541
1200.27	186.729
1203.94	187.869
1207.6	60.012
1211.27	102.097
1214.93	92.648
1218.59	70.233
1222.25	43.631
1225.9	107.525
1229.56	9.53
1233.21	26.42
1236.86	62.588
1240.51	34.601
1244.16	30.035
1247.81	42.752
1251.45	54.499
1255.1	71.159
1258.74	1.974
1262.38	16.333
1266.02	89.171
1269.66	6.44
1273.29	13.865
1276.93	21.108
1280.56	47.271
1284.19	30.226
1287.82	61.177
1291.45	42.037
1295.07	14.65
1298.7	63.917
1302.32	28.838
1305.94	52.316
1309.56	49.724
1313.18	55.06
1316.8	46.309
1320.41	40.57
1324.02	9.359
1327.63	28.415
1331.24	2.602
1334.85	36.13
1338.46	8.795
1342.06	65.395
1345.67	97.937
1349.27	56.423
1352.87	66.869
1356.47	23.249
1360.07	67.664
1363.66	18.298
1367.25	55.601
1370.85	70.846
1374.44	60.358
1378.03	18.938
1381.61	56.094
1385.2	53.777
1388.78	86.363
1392.37	77.665
1395.95	109.419
1399.53	111.786
1403.1	108.091
1406.68	46.657
1410.26	136.865
1413.83	126.702
1417.4	90.681
1420.97	124.125
1424.54	53.153
1428.1	86.604
1431.67	117.454
1435.23	124.575
1438.8	158.611
1442.36	83.62
1445.91	143.021
1449.47	111.597
1453.03	139.489
1456.58	113.216
1460.13	85.063
1463.68	108.437
1467.23	45.359
1470.78	79.352
1474.33	131.171
1477.87	92.425
1481.42	48.422
1484.96	64.411
1488.5	89.933
1492.04	65.248
1495.57	90.269
1499.11	43.659
1502.64	3.597
1506.17	19.583
1509.71	63.297
1513.23	54.39
1516.76	0.796
1520.29	15.366
