Measurement: Raman, 532 nm, unoriented, Raman Data Processed
Mineral: Celestine
Rruff sample: R040007
Ideal chemistry: SrSO_4_
Locality: Coahuila, Mexico
Source: University of Arizona Mineral Museum
Description: Blue tabular crystals
Measured chemistry: Light bands: (Sr_0.95_Ba_0.04_Ca_0.01_)_Σ=1_S_1.00_O_4_; Dark bands: (Sr_0.99_Ba_0.01_)_Σ=1_S_1.00_O_4_; trace amounts of Ca
Raman shift (cm-1)	intensity
114.619	0
117.994	1.67762
121.369	16.8956
124.744	37.169
128.119	51.2617
131.494	48.7773
134.868	26.4823
138.243	14.3062
141.618	1.36237
144.993	0.355766
148.368	2.93491
151.742	4.5582
155.117	7.43736
158.492	11.1419
161.867	8.82787
165.242	19.7444
168.616	31.2549
171.991	34.8374
175.366	23.8759
178.741	26.3895
182.116	30.4857
185.49	30.8006
188.865	39.5261
192.24	52.3137
195.615	62.5964
198.99	54.5207
202.365	32.8916
205.739	16.5458
209.114	6.05339
212.489	3.12832
215.864	0.253944
219.239	2.34647
222.613	0.510078
225.988	1.27906
229.363	1.10958
232.738	0.02055
236.113	0.605743
239.488	0.836967
242.862	1.50404
246.237	3.05769
249.612	4.47185
252.987	3.17058
256.362	2.76797
259.736	2.77849
263.111	4.60715
266.486	5.07266
269.861	4.20404
273.236	4.0975
276.611	4.71814
279.985	5.00232
283.36	4.25323
286.735	6.60035
290.11	7.36771
293.485	4.26057
296.859	3.22871
300.234	2.41045
303.609	2.93681
306.984	4.10162
310.359	2.06048
313.733	2.66233
317.108	3.73822
320.483	2.59622
323.858	1.96418
327.233	1.4589
330.608	2.38823
333.982	0.693901
337.357	0.47237
340.732	1.47573
344.107	0.772865
347.482	1.61219
350.856	1.09004
354.231	0.584713
357.606	4.3363
360.981	0.446899
364.356	1.58332
367.731	0.736908
371.105	1.65213
374.48	0.419731
377.855	0.208118
381.23	0.716072
384.605	0.925884
387.979	0.758614
391.354	0.011631
394.729	2.40851
398.104	3.14391
401.479	3.56718
404.853	3.68491
408.228	2.35034
411.603	7.79668
414.978	9.76839
418.353	13.176
421.728	18.0386
425.102	23.5988
428.477	36.8006
431.852	69.3304
435.227	142.489
438.602	245.178
441.976	381.222
445.351	594.263
448.726	901.379
452.101	1315.91
455.476	1378.39
458.851	1214.26
462.225	1046.02
465.6	439.118
468.975	173.504
472.35	91.6199
475.725	56.617
479.099	34.9816
482.474	22.1914
485.849	15.6102
489.224	7.25626
492.599	7.48175
495.974	3.94041
499.348	3.18228
502.723	1.73473
506.098	0.437218
509.473	2.72045
512.848	0.016853
516.222	1.01615
519.597	1.88882
522.972	0.127121
526.347	0.195091
529.722	1.76367
533.097	0.402138
536.471	1.24934
539.846	0.752388
543.221	0.607872
546.596	1.21335
549.971	0.072121
553.346	1.2878
556.72	0.006973
560.095	0.299881
563.47	0.220215
566.845	0.467918
570.22	1.2673
573.594	2.98441
576.969	2.09227
580.344	2.95007
583.719	2.5155
587.094	5.43963
590.468	7.53059
593.843	10.2726
597.218	17.108
600.593	29.6873
603.968	57.7348
607.342	96.1258
610.717	151.722
614.092	235.437
617.467	368.397
620.842	487.951
624.217	524.225
627.591	325.758
630.966	196.651
634.341	212.688
637.716	302.718
641.091	264.878
644.466	165.62
647.84	173.232
651.215	248.157
654.59	369.859
657.965	353.206
661.34	140.136
664.714	54.7514
668.089	27.0239
671.464	15.9278
674.839	8.81444
678.214	4.1292
681.588	2.90044
684.963	0.583443
688.338	1.94516
691.713	1.11834
695.088	1.10664
698.462	0.167843
701.837	0.234844
705.212	1.3908
708.587	0.975605
711.962	0.54567
715.337	1.82022
718.711	0.231972
722.086	2.32802
725.461	0.112862
728.836	0.419552
732.211	1.55912
735.586	2.17487
738.96	0.047756
742.335	1.91238
745.71	2.20308
749.085	0.906013
752.46	2.99275
755.834	1.95368
759.209	3.46408
762.584	2.89239
765.959	6.41823
769.334	3.21521
772.708	2.7273
776.083	2.99792
779.458	0.601826
782.833	2.70011
786.208	3.77799
789.582	3.78874
792.957	0.656021
796.332	3.43673
799.707	4.05743
803.082	4.67771
806.457	3.51741
809.831	5.60769
813.206	4.72675
816.581	6.53243
819.956	3.60778
823.331	4.62056
826.706	3.73043
830.08	5.15589
833.455	3.72482
836.83	3.10463
840.205	0.789742
843.58	2.84414
846.954	4.58703
850.329	2.66611
853.704	1.87126
857.079	3.2435
860.454	1.18171
863.828	1.35218
867.203	1.41498
870.578	0.19051
873.953	0.258232
877.328	0.851078
880.703	0.880638
884.077	0.276085
887.452	1.88054
890.827	0.249481
894.202	1.44205
897.577	3.46061
900.952	5.01109
904.326	4.05523
907.701	1.44588
911.076	1.19039
914.451	0.78846
917.826	2.1104
921.2	4.37012
924.575	3.48576
927.95	1.30473
931.325	0.928711
934.7	2.11026
938.074	0.610229
941.449	0.627129
944.824	2.34179
948.199	1.36029
951.574	2.69881
954.948	7.92915
958.323	7.51954
961.698	14.1222
965.073	20.7108
968.448	30.1124
971.823	47.9931
975.197	76.7166
978.572	98.1742
981.947	179.634
985.322	505.981
988.697	1321.78
992.072	1985.67
995.446	3252.47
998.821	7233.93
1002.2	7140.9
1005.57	1137.94
1008.95	385.797
1012.32	196.177
1015.7	121.767
1019.07	80.0676
1022.45	56.4491
1025.82	39.3663
1029.19	31.2211
1032.57	19.5962
1035.94	12.8234
1039.32	7.57055
1042.69	3.79311
1046.07	2.33338
1049.44	0.243355
1052.82	0.828011
1056.19	1.09219
1059.57	0.183434
1062.94	1.5462
1066.32	0.31517
1069.69	0.148376
1073.07	0.290581
1076.44	7.03125
1079.82	13.3268
1083.19	29.5504
1086.57	53.1235
1089.94	90.4862
1093.32	151.069
1096.69	130.027
1100.07	74.9763
1103.44	67.24
1106.82	91.0524
1110.19	119.59
1113.57	89.103
1116.94	39.52
1120.31	14.6603
1123.69	5.13445
1127.06	4.8781
1130.44	5.245
1133.81	15.0264
1137.19	30.1242
1140.56	64.633
1143.94	125.199
1147.31	212.259
1150.69	342.121
1154.06	525.984
1157.44	623.604
1160.81	505.527
1164.19	308.377
1167.56	167.116
1170.94	91.6399
1174.31	64.0183
1177.69	58.4318
1181.06	66.0384
1184.44	90.2292
1187.81	125.436
1191.19	113.168
1194.56	57.7395
1197.93	25.8129
1201.31	11.6589
1204.68	5.56976
1208.06	0.654221
1211.43	0.981392
1214.81	1.60357
1218.18	0.231499
1221.56	0.002815
1224.93	0.417633
1228.31	0.296623
1231.68	0.529114
1235.06	0.095779
1238.43	0.870186
1241.81	1.3328
1245.18	3.35448
1248.56	4.58979
1251.93	7.25788
1255.31	5.39939
1258.68	1.17674
1262.06	3.09211
1265.43	2.38531
1268.81	0.783791
1272.18	2.00301
1275.56	1.11706
1278.93	0
