Measurement: Raman, 514 nm, unoriented, Raman Data Processed
Mineral: Celestine
Rruff sample: R050008
Ideal chemistry: SrSO_4_
Locality: Scofield Quarry, Maybee, Monroe County, Michigan, USA
Source: Eugene Schlepp
Description: Pale blue tabular crystals
Measured chemistry: Sr_1.00_S_1.00_O_4_
Raman shift (cm-1)	intensity
115.644	0
119.813	36.629
123.981	114.479
128.146	233.869
132.309	246.86
136.47	239.174
140.63	358.992
144.787	300.834
148.942	173.882
153.096	70.266
157.247	77.469
161.396	70.845
165.544	97.532
169.689	150.551
173.833	172.608
177.974	117.97
182.114	76.084
186.251	33.529
190.387	148.529
194.52	251.727
198.652	241.918
202.782	147.854
206.909	89.059
211.035	82.934
215.159	49.265
219.281	27.71
223.4	44.143
227.518	34.832
231.634	9.694
235.748	58.756
239.86	101.426
243.97	6.843
248.079	23.101
252.185	16.848
256.289	67.871
260.391	17.956
264.492	37.925
268.59	98.194
272.687	32.231
276.781	26.185
280.874	57.917
284.964	15.873
289.053	51.289
293.14	45.952
297.225	15.251
301.308	23.612
305.389	3.504
309.468	5.42
313.545	38.666
317.62	93.186
321.693	70.009
325.765	24.603
329.834	26.039
333.902	9.08
337.967	21.728
342.031	20.447
346.093	58.041
350.153	20.517
354.21	89.823
358.267	34.08
362.321	7.244
366.373	67.404
370.423	28.58
374.471	29.509
378.518	23.528
382.563	7.5
386.605	69.443
390.646	87.249
394.685	76.055
398.722	104.929
402.757	115.51
406.79	143.048
410.821	111.231
414.851	103.671
418.878	142.036
422.904	85.55
426.927	161.565
430.949	195.08
434.969	226.441
438.987	264.792
443.003	435.945
447.018	1028.07
451.03	2750.02
455.041	4014.99
459.049	5194.04
463.056	5155.94
467.061	2004.7
471.064	679.438
475.065	357.656
479.064	193.392
483.062	180.049
487.057	146.675
491.051	142.239
495.043	98.944
499.032	19.55
503.02	83.749
507.007	52.042
510.991	33.858
514.973	43.393
518.954	83.527
522.933	60.28
526.91	40.642
530.885	94.561
534.858	103.337
538.829	20.009
542.799	56.518
546.766	52.175
550.732	2.048
554.696	37.766
558.658	11.408
562.618	64.342
566.576	11.069
570.533	54.168
574.488	40.249
578.44	116.276
582.391	112.565
586.341	110.642
590.288	29.839
594.233	61.813
598.177	190.878
602.119	106.627
606.059	230.306
609.997	198.888
613.933	461.335
617.868	915.151
621.801	1808.81
625.731	2178.25
629.66	1159.48
633.588	738.893
637.513	1128.77
641.437	1113.11
645.358	524.236
649.278	621.194
653.196	1080.22
657.113	2174.36
661.027	1148.34
664.94	385.057
668.851	207.36
672.76	156.905
676.667	184.611
680.572	93.771
684.476	40.987
688.378	141.053
692.278	135.334
696.176	193.359
700.072	101.092
703.967	147.391
707.86	166.579
711.751	108.413
715.64	3.565
719.527	57.162
723.413	67.054
727.297	48.955
731.179	95.241
735.059	48.679
738.937	72.186
742.814	87.812
746.689	101.873
750.562	156.312
754.433	53.743
758.303	52.021
762.17	19.217
766.036	2.615
769.901	16.443
773.763	43.578
777.624	109.23
781.482	61.538
785.339	43.736
789.195	33.763
793.048	84.183
796.9	124.52
800.75	100.785
804.598	10.021
808.445	61.071
812.289	55.047
816.132	54.944
819.973	96.757
823.813	124.529
827.65	26.298
831.486	178.082
835.32	90.589
839.152	62.91
842.983	56.999
846.812	5.521
850.639	66.947
854.464	60.558
858.288	135.793
862.11	10.998
865.93	50.026
869.748	37.853
873.564	54.607
877.379	40.59
881.192	10.597
885.004	14.912
888.813	141.826
892.621	44.645
896.427	141.548
900.232	239.372
904.034	73.123
907.835	138.564
911.634	78.328
915.432	76.062
919.227	106.378
923.021	168.951
926.813	151.267
930.604	88.373
934.393	101.998
938.18	87.454
941.965	154.021
945.749	167.895
949.53	167.528
953.311	146.233
957.089	106.58
960.866	99.129
964.641	159.06
968.414	320.522
972.185	241.347
975.955	423.655
979.723	433.75
983.49	475.889
987.254	664.303
991.017	1253.51
994.779	2769.38
998.538	15680.8
1002.3	48218.8
1006.05	8786.98
1009.81	2199.93
1013.56	1065.73
1017.31	681.639
1021.06	496.497
1024.81	396.466
1028.55	261.53
1032.3	316.632
1036.04	318.288
1039.78	225.888
1043.52	242.067
1047.26	28.153
1050.99	163.359
1054.73	266.593
1058.46	200.809
1062.19	194.022
1065.92	227.297
1069.65	188.829
1073.37	118.287
1077.1	169.07
1080.82	196.575
1084.54	193.86
1088.26	350.295
1091.97	620.645
1095.69	1101.82
1099.4	563.539
1103.12	253.243
1106.83	340.479
1110.54	464.828
1114.24	334.777
1117.95	270.825
1121.65	95.944
1125.35	3.499
1129.06	28.327
1132.75	9.507
1136.45	110.155
1140.15	8.947
1143.84	173.768
1147.53	343.985
1151.22	632.102
1154.91	1970.4
1158.6	3076.42
1162.28	2684.63
1165.97	1568.43
1169.65	806.253
1173.33	398.731
1177.01	385.43
1180.69	275.979
1184.36	415.994
1188.04	630.145
1191.71	832.9
1195.38	394.756
1199.05	386.411
1202.71	241.791
1206.38	165.115
1210.04	71.48
1213.71	141.85
1217.37	236.148
1221.03	162.914
1224.68	97.041
1228.34	154.449
1231.99	279.483
1235.65	216.915
1239.3	198.679
1242.95	223.214
1246.59	173.963
1250.24	151.592
1253.88	33.993
1257.53	123.709
1261.17	146.957
1264.81	171.06
1268.45	158.489
1272.08	83.078
1275.72	20.533
1279.35	1.406
1282.98	84.113
1286.61	175.541
1290.24	60.875
1293.87	43.811
1297.49	118.3
1301.11	69.301
1304.73	87.818
1308.36	82.83
1311.97	17.039
1315.59	14.6
1319.2	69.377
1322.82	44.732
1326.43	51.438
1330.04	86.902
1333.65	16.359
1337.26	91.352
1340.86	141.516
1344.47	15.037
1348.07	2.051
1351.67	81.525
1355.27	256.178
1358.87	223.68
1362.46	165.619
1366.06	132.295
1369.65	280.91
1373.24	352.543
1376.83	171.379
1380.42	216.848
1384	186.08
1387.59	271.461
1391.17	156.52
1394.75	158.248
1398.33	175.387
1401.91	245.668
1405.49	256.895
1409.06	116.314
1412.64	82.707
1416.21	180.068
1419.78	251.572
1423.35	223.166
1426.91	293.605
1430.48	137.193
1434.05	110.451
1437.61	243.262
1441.17	213.477
1444.73	167.943
1448.29	209.121
1451.84	80.9
1455.4	141.057
1458.95	313.459
1462.5	237.27
1466.05	193.945
1469.6	101.574
1473.15	238.049
1476.69	156.383
1480.24	6.469
1483.78	103.316
