Measurement: Raman, 785 nm, unoriented, Raman Data Processed
Mineral: Celestine
Rruff sample: R050008
Ideal chemistry: SrSO_4_
Locality: Scofield Quarry, Maybee, Monroe County, Michigan, USA
Source: Eugene Schlepp
Description: Pale blue tabular crystals
Measured chemistry: Sr_1.00_S_1.00_O_4_
Raman shift (cm-1)	intensity
87.2712	0
90.1639	2.21646
93.0566	3.04331
95.9493	7.2008
98.842	5.00589
101.735	4.94354
104.627	4.2723
107.52	1.38766
110.413	0.579003
113.305	4.72818
116.198	0.789782
119.091	3.92266
121.984	2.43781
124.876	7.30653
127.769	17.3094
130.662	20.0267
133.554	35.9308
136.447	36.7797
139.34	32.7073
142.232	24.6515
145.125	29.1043
148.018	41.483
150.911	57.677
153.803	61.1114
156.696	49.9945
159.589	35.4648
162.481	35.0346
165.374	39.5131
168.267	42.1044
171.16	42.877
174.052	42.9332
176.945	46.1742
179.838	40.8023
182.73	38.0311
185.623	46.8057
188.516	57.3689
191.408	79.9
194.301	98.2699
197.194	118.014
200.087	122.572
202.979	100.555
205.872	53.0862
208.765	29.0404
211.657	17.5844
214.55	12.4364
217.443	11.7048
220.335	8.28041
223.228	9.64256
226.121	7.49268
229.013	6.55338
231.906	5.47058
234.799	5.99603
237.692	7.54995
240.584	1.28949
243.477	2.389
246.37	6.38137
249.262	7.07072
252.155	5.69747
255.048	0.628143
257.941	2.20084
260.833	4.24899
263.726	7.40243
266.619	0.542183
269.511	1.37798
272.404	3.22612
275.297	5.47266
278.19	3.22466
281.082	8.5306
283.975	1.68938
286.868	0.293816
289.76	1.07959
292.653	1.48464
295.546	2.26883
298.438	1.50978
301.331	2.51871
304.224	5.39635
307.116	2.55518
310.009	6.99472
312.902	6.99707
315.795	2.73687
318.687	5.02605
321.58	4.33795
324.473	6.90495
327.365	5.45575
330.258	6.36998
333.151	3.76767
336.043	2.60039
338.936	9.81646
341.829	6.07195
344.721	5.4674
347.614	3.14521
350.507	3.60114
353.4	3.55779
356.292	5.18961
359.185	7.00884
362.078	1.16622
364.97	1.57941
367.863	4.35526
370.756	0.728844
373.649	5.26488
376.541	0.604832
379.434	5.86613
382.327	0.449978
385.219	0.624493
388.112	7.49194
391.005	6.50314
393.897	6.01692
396.79	1.75364
399.683	4.28696
402.575	10.7679
405.468	8.92348
408.361	4.08742
411.254	5.52055
414.146	7.19376
417.039	13.3666
419.932	11.2306
422.824	18.833
425.717	17.6906
428.61	26.1437
431.502	36.888
434.395	62.1796
437.288	94.4343
440.181	173.494
443.073	304.055
445.966	526.827
448.859	942.738
451.751	1532.51
454.644	1857.32
457.537	1581.57
460.43	1588.88
463.322	1115.64
466.215	450.109
469.108	206.527
472	121.051
474.893	67.9422
477.786	48.175
480.678	32.5337
483.571	25.2241
486.464	14.5303
489.356	15.5853
492.249	12.8533
495.142	8.10496
498.035	8.24647
500.927	1.79813
503.82	2.94013
506.713	4.35216
509.605	3.46205
512.498	8.91852
515.391	10.4636
518.284	0.731426
521.176	0.343128
524.069	4.90758
526.962	3.90385
529.854	1.20509
532.747	9.25589
535.64	2.81065
538.533	1.87803
541.425	2.00365
544.318	0.34692
547.211	6.36814
550.103	1.71577
552.996	2.87846
555.889	0.357689
558.781	3.69059
561.674	0.923447
564.567	0.79282
567.459	2.71041
570.352	3.4903
573.245	8.69327
576.138	5.82721
579.03	0.356445
581.923	4.38887
584.816	4.50699
587.708	3.63513
590.601	5.81704
593.494	9.82121
596.386	7.79255
599.279	16.0813
602.172	28.0664
605.064	39.0149
607.957	69.8
610.85	130.707
613.743	228.984
616.635	380.051
619.528	514.399
622.421	423.451
625.313	339.993
628.206	269.31
631.099	264.031
633.991	364.033
636.884	580.256
639.777	659.569
642.67	339.365
645.562	189.507
648.455	215.199
651.348	290.45
654.24	487.957
657.133	573.377
660.026	335.967
662.918	133.932
665.811	68.3823
668.704	31.5734
671.597	17.3513
674.489	17.5993
677.382	7.14145
680.275	4.43965
683.167	3.03902
686.06	2.73618
688.953	6.12226
691.846	1.02393
694.738	0.464836
697.631	0.350628
700.524	6.11131
703.416	4.62775
706.309	4.11897
709.202	2.07768
712.094	3.10032
714.987	2.37286
717.88	2.98544
720.773	1.58715
723.665	0.391872
726.558	3.78099
729.451	2.84222
732.343	1.81017
735.236	9.13913
738.129	8.23967
741.021	7.38598
743.914	6.39137
746.807	10.3904
749.699	5.32017
752.592	8.32369
755.485	10.8341
758.378	4.44962
761.27	7.82574
764.163	6.08764
767.056	6.40111
769.948	10.1756
772.841	6.52891
775.734	10.4879
778.626	5.15073
781.519	3.70995
784.412	3.65769
787.305	10.2776
790.197	5.47389
793.09	4.02882
795.983	7.43145
798.875	5.57786
801.768	7.48881
804.661	5.31282
807.553	7.04317
810.446	6.2947
813.339	10.9593
816.232	12.2597
819.124	10.0443
822.017	8.0419
824.91	6.38603
827.802	9.22701
830.695	5.25498
833.588	4.42772
836.481	7.71608
839.373	3.66008
842.266	8.30302
845.159	10.6864
848.051	1.47687
850.944	5.07518
853.837	7.58995
856.729	9.54388
859.622	4.66816
862.515	4.70601
865.408	1.73247
868.3	1.42083
871.193	3.50636
874.086	4.87119
876.978	1.27589
879.871	2.62413
882.764	1.67929
885.656	1.84546
888.549	3.62071
891.442	1.54451
894.335	2.65914
897.227	8.82087
900.12	13.0831
903.013	3.23381
905.905	2.46523
908.798	1.06513
911.691	3.72699
914.583	0.543468
917.476	3.14746
920.369	6.01562
923.261	3.83649
926.154	2.43166
929.047	0.512856
931.94	0.725208
934.832	2.01757
937.725	1.34961
940.618	1.83595
943.51	1.04441
946.403	1.06991
949.296	0.421864
952.188	7.6566
955.081	7.603
957.974	8.41271
960.867	17.32
963.759	10.1531
966.652	24.0001
969.545	28.6486
972.437	46.0842
975.33	58.1023
978.223	69.539
981.115	98.6327
984.008	140.258
986.901	250.682
989.794	602.216
992.686	1521.2
995.579	3191.9
998.472	8288.33
1001.36	9759.4
1004.26	2701.46
1007.15	728.236
1010.04	334.875
1012.93	186.897
1015.83	133.938
1018.72	90.5888
1021.61	70.6246
1024.51	58.4475
1027.4	44.0229
1030.29	30.5845
1033.18	22.0578
1036.08	14.1231
1038.97	14.6017
1041.86	15.9553
1044.76	3.05
1047.65	6.24416
1050.54	9.14504
1053.43	0.138527
1056.33	1.43504
1059.22	5.50631
1062.11	4.41487
1065	4.26213
1067.9	1.52545
1070.79	0.886856
1073.68	2.42488
1076.58	4.09855
1079.47	4.69436
1082.36	0.590336
1085.25	8.82035
1088.14	30.4707
1091.04	45.8321
1093.93	62.6324
1096.82	45.9547
1099.72	53.0245
1102.61	64.4674
1105.5	105.404
1108.39	165.59
1111.29	174.697
1114.18	101.899
1117.07	38.3588
1119.96	20.512
1122.86	18.4816
1125.75	8.10525
1128.64	8.73504
1131.54	22.835
1134.43	26.0491
1137.32	42.0986
1140.21	66.5584
1143.11	106.989
1146	170.052
1148.89	315.304
1151.79	550.246
1154.68	915.104
1157.57	1032.56
1160.46	945.768
1163.36	648.881
1166.25	391.522
1169.14	206.02
1172.03	128.489
1174.93	82.197
1177.82	64.5688
1180.71	61.151
1183.6	96.5968
1186.5	149.707
1189.39	169.095
1192.28	120.969
1195.17	67.7925
1198.07	41.0488
1200.96	14.7913
1203.85	11.7188
1206.75	6.24177
1209.64	2.22952
1212.53	3.58488
1215.42	8.01021
1218.32	0.377365
1221.21	8.58057
1224.1	6.77888
1226.99	5.37296
1229.89	0.212868
1232.78	0.630928
