Measurement: Raman, 532 nm, unoriented, Raman Data Processed
Mineral: Celsian
Rruff sample: R060152
Ideal chemistry: BaAl_2_Si_2_O_8_
Locality: Benallt mine, Lleyn, Wales
Source: Marcus Origlieri
Description: Colorless to white elongated prismatic crystals
Measured chemistry: (Ba_0.98_K_0.02_[box]_0.02_)_Î£=1_Al_2.00_Si_2.00_O_8_
Raman shift (cm-1)	intensity
145.225	0
148.6	4.81744
151.975	22.2779
155.35	35.8294
158.724	64.2884
162.099	109.671
165.474	121.937
168.849	131.332
172.224	88.3297
175.598	56.9424
178.973	49.6146
182.348	49.0737
185.723	54.392
189.098	69.0623
192.472	105.224
195.847	176.858
199.222	115.504
202.597	14.0339
205.972	2.60416
209.347	5.97342
212.721	4.60193
216.096	1.61841
219.471	17.4701
222.846	33.1184
226.221	25.033
229.596	47.4102
232.97	81.3529
236.345	116.172
239.72	172.151
243.095	253
246.47	312.145
249.845	243.056
253.219	171.894
256.594	161.002
259.969	105.711
263.344	48.0986
266.719	26.424
270.093	17.3978
273.468	15.5101
276.843	16.0213
280.218	12.4613
283.593	10.8782
286.967	11.8675
290.342	20.8013
293.717	27.8301
297.092	37.4019
300.467	50.2604
303.842	72.0525
307.216	78.0396
310.591	38.0112
313.966	12.8327
317.341	5.66795
320.716	1.16421
324.091	0.478874
327.465	3.26276
330.84	2.24589
334.215	1.12373
337.59	3.06725
340.965	9.66128
344.339	18.2962
347.714	25.4445
351.089	37.0338
354.464	49.6037
357.839	49.5352
361.214	32.2467
364.588	12.6433
367.963	5.27003
371.338	2.36401
374.713	5.13935
378.088	13.1821
381.462	15.8634
384.837	19.1238
388.212	30.0179
391.587	41.4278
394.962	28.6491
398.337	4.40597
401.712	0.104485
405.086	0.739128
408.461	7.00954
411.836	17.2177
415.211	23.1116
418.586	28.6238
421.96	43.827
425.335	69.3407
428.71	85.3943
432.085	44.3854
435.46	10.7389
438.834	1.51231
442.209	5.31494
445.584	1.68386
448.959	8.26208
452.334	19.7196
455.709	39.2024
459.083	67.6371
462.458	91.4252
465.833	90.0709
469.208	78.9068
472.583	79.4328
475.957	42.8501
479.332	28.048
482.707	33.5054
486.082	55.8347
489.457	114.334
492.832	242.446
496.207	392.527
499.581	518.778
502.956	713.209
506.331	950.143
509.706	895.051
513.081	414.356
516.455	173.538
519.83	87.9922
523.205	53.6601
526.58	34.3275
529.955	21.693
533.33	12.3956
536.704	9.52921
540.079	12.9457
543.454	19.9699
546.829	29.5031
550.204	43.912
553.578	53.3981
556.953	38.7645
560.328	13.6518
563.703	1.86657
567.078	1.5502
570.452	2.84345
573.827	1.51783
577.202	1.59228
580.577	7.36718
583.952	13.3776
587.327	22.9869
590.702	31.2475
594.076	36.4794
597.451	27.3942
600.826	17.2481
604.201	17.2402
607.576	18.7442
610.95	22.9954
614.325	29.3473
617.7	28.3931
621.075	17.3218
624.45	8.43153
627.824	4.28925
631.199	1.0563
634.574	0.588203
637.949	0.452164
641.324	0.248062
644.699	0.421547
648.073	0.548264
651.448	0.401604
654.823	1.14272
658.198	2.80046
661.573	4.97971
664.947	9.36353
668.322	16.0117
671.697	26.9722
675.072	38.5775
678.447	51.4774
681.822	62.5506
685.197	53.7733
688.571	29.7761
691.946	17.331
695.321	13.2069
698.696	10.2247
702.071	10.7683
705.445	12.4457
708.82	18.5292
712.195	26.6988
715.57	26.2095
718.945	21.3639
722.319	22.0239
725.694	22.5071
729.069	19.3476
732.444	13.7649
735.819	19.0492
739.194	32.0255
742.568	45.8208
745.943	64.6636
749.318	85.4681
752.693	82.4216
756.068	46.4177
759.442	23.5215
762.817	14.1011
766.192	11.4686
769.567	5.62434
772.942	3.85346
776.317	3.55569
779.692	1.84737
783.066	2.99451
786.441	0.266655
789.816	0.037758
793.191	0.479218
796.566	0.444946
799.94	0.129112
803.315	0.180733
806.69	0.172073
810.065	0.932907
813.44	0.116638
816.814	1.26489
820.189	1.96706
823.564	0.330147
826.939	1.61088
830.314	1.35905
833.689	1.15747
837.063	2.01874
840.438	2.62957
843.813	2.70507
847.188	3.1843
850.563	3.24107
853.938	3.14899
857.312	2.33536
860.687	2.95272
864.062	2.24619
867.437	2.17057
870.812	1.6503
874.187	1.33444
877.561	1.78786
880.936	0.557617
884.311	0.190514
887.686	0.400108
891.061	0.02121
894.435	0.020203
897.81	0.523338
901.185	0.707787
904.56	0.543495
907.935	0.073029
911.309	0.528114
914.684	0.205009
918.059	0.518883
921.434	0.466454
924.809	2.71257
928.184	3.77093
931.558	6.67768
934.933	10.8209
938.308	16.0236
941.683	20.4236
945.058	22.8261
948.433	22.7835
951.807	21.3206
955.182	19.9071
958.557	26.5999
961.932	39.055
965.307	54.6127
968.682	75.6803
972.056	87.5108
975.431	75.2084
978.806	79.1416
982.181	103.609
985.556	126.14
988.93	83.979
992.305	58.8114
995.68	53.8324
999.055	45.0662
1002.43	39.1025
1005.8	42.6735
1009.18	52.3237
1012.55	62.0226
1015.93	56.2862
1019.3	34.8119
1022.68	16.9271
1026.05	8.19766
1029.43	4.96921
1032.8	1.07301
1036.18	0.00798
1039.55	1.34587
1042.93	0.781021
1046.3	6.10872
1049.68	13.0576
1053.05	19.8342
1056.43	20.6479
1059.8	14.4624
1063.18	6.90867
1066.55	2.76713
1069.93	0.794846
1073.3	0.555702
1076.68	0.654106
1080.05	0.044151
1083.42	1.30909
1086.8	4.38776
1090.17	6.89687
1093.55	10.1965
1096.92	11.6198
1100.3	9.04668
1103.67	5.8164
1107.05	2.08247
1110.42	1.28347
1113.8	1.37209
1117.17	1.03052
1120.55	0.243027
1123.92	0.671509
1127.3	0.250237
1130.67	0.307709
1134.05	0.132286
1137.42	0.073608
1140.8	0.732468
1144.17	0.570206
1147.55	0.841278
1150.92	0.371956
1154.3	0.955334
1157.67	0.331242
1161.05	0.200275
1164.42	1.24812
1167.8	1.58972
1171.17	1.97223
1174.55	1.6499
1177.92	1.86293
1181.3	1.0262
1184.67	1.95397
1188.05	1.54004
1191.42	1.04146
1194.79	0.808952
1198.17	1.21441
1201.54	1.48343
1204.92	0.876305
1208.29	1.0647
1211.67	1.19036
1215.04	1.57593
1218.42	0.733536
1221.79	3.92408
1225.17	0.989506
1228.54	0.380096
1231.92	1.16802
1235.29	1.09479
1238.67	0.997238
1242.04	0.368431
1245.42	0.414764
1248.79	0.92104
1252.17	0.273853
1255.54	1.55259
1258.92	0.21682
1262.29	0.560661
1265.67	1.91313
1269.04	1.92673
1272.41	1.0609
1275.79	0.085388
1279.16	0.517586
1282.54	0.427635
1285.91	0.847282
1289.29	0.376892
1292.66	0.421089
1296.04	0.66114
1299.41	1.49451
