Measurement: Raman, 780 nm, unoriented, Raman Data Processed
Mineral: Celsian
Rruff sample: R060460
Ideal chemistry: BaAl_2_Si_2_O_8_
Locality: Benallt mine, Rhiw, Leyen Peninsula, Caernarvonshire, Wales
Source: Michael Scott
Description: White prismatic-shaped granular aggregates associated with barite and piemontite
Measured chemistry: Ba_1.00_Al_2.00_Si_2.00_O_8_
Raman shift (cm-1)	intensity
143.638	0
146.531	0.150772
149.424	5.25452
152.316	9.03871
155.209	12.9597
158.102	24.9771
160.994	43.4302
163.887	63.6542
166.78	70.7762
169.673	83.5225
172.565	49.6254
175.458	33.244
178.351	25.2343
181.243	16.3239
184.136	15.5139
187.029	15.2423
189.921	27.8486
192.814	35.3
195.707	59.2952
198.6	46.7828
201.492	10.0961
204.385	0.547165
207.278	1.43136
210.17	2.38641
213.063	1.22725
215.956	1.27141
218.848	9.90162
221.741	16.4571
224.634	16.3931
227.526	23.4064
230.419	32.9262
233.312	40.5465
236.205	54.5603
239.097	72.9078
241.99	93.8926
244.883	120.091
247.775	114.699
250.668	73.3751
253.561	55.7513
256.454	55.9034
259.346	38.7694
262.239	18.0932
265.132	11.8514
268.024	6.75001
270.917	3.31059
273.81	3.60152
276.702	3.6161
279.595	3.99058
282.488	3.2487
285.38	3.51269
288.273	5.87628
291.166	11.3806
294.059	10.6464
296.951	14.8674
299.844	19.5662
302.737	25.0053
305.629	33.6029
308.522	28.8206
311.415	11.8151
314.308	5.4801
317.2	1.11257
320.093	1.77365
322.986	0.116547
325.878	0.767223
328.771	0.205303
331.664	0.340374
334.556	1.03348
337.449	1.74143
340.342	9.87081
343.234	14.5854
346.127	16.7021
349.02	25.8773
351.913	31.2133
354.805	38.2462
357.698	41.3359
360.591	28.6754
363.483	13.9258
366.376	4.86402
369.269	3.34243
372.161	2.69827
375.054	6.96007
377.947	7.69478
380.839	7.60975
383.732	10.5694
386.625	14.2503
389.518	18.2345
392.41	22.7231
395.303	9.14436
398.196	0.30843
401.088	0.345936
403.981	1.52634
406.874	2.02642
409.767	6.17031
412.659	9.89087
415.552	8.76047
418.445	13.7325
421.337	18.5621
424.23	25.8223
427.123	32.9768
430.015	27.2749
432.908	6.94752
435.801	1.41701
438.693	2.85997
441.586	3.37657
444.479	0.274055
447.372	7.29741
450.264	9.53423
453.157	14.8662
456.05	27.59
458.942	39.3798
461.835	48.4508
464.728	45.8877
467.62	38.9931
470.513	40.5516
473.406	29.1967
476.299	16.7819
479.191	13.7299
482.084	17.5356
484.977	28.2715
487.869	52.73
490.762	109.579
493.655	167.493
496.547	202.966
499.44	249.016
502.333	318.155
505.226	411.971
508.118	441.244
511.011	277.416
513.904	125.056
516.796	57.9984
519.689	34.7832
522.582	25.4121
525.474	20.021
528.367	14.8001
531.26	8.92294
534.153	7.39668
537.045	7.79555
539.938	11.2877
542.831	14.6177
545.723	18.8365
548.616	22.4145
551.509	29.8113
554.401	26.9112
557.294	15.1698
560.187	3.23277
563.08	0.50156
565.972	0.011806
568.865	3.47986
571.758	1.50702
574.65	2.83997
577.543	6.34106
580.436	10.0031
583.328	11.8187
586.221	16.1908
589.114	24.1571
592.006	26.5768
594.899	26.3136
597.792	16.339
600.685	10.8618
603.577	15.9006
606.47	13.6094
609.363	18.4353
612.255	18.8823
615.148	20.2843
618.041	19.954
620.933	10.8282
623.826	6.6348
626.719	3.03704
629.611	3.62407
632.504	0.873722
635.397	0.57613
638.29	0.454494
641.182	1.14531
644.075	0.385128
646.968	2.79822
649.86	0.168415
652.753	1.63838
655.646	1.1045
658.538	2.20661
661.431	2.25613
664.324	3.01756
667.217	5.97077
670.109	9.47953
673.002	12.9334
675.895	14.7478
678.787	20.2705
681.68	22.6888
684.573	21.9283
687.466	12.443
690.358	7.46036
693.251	2.9292
696.144	4.0885
699.036	2.96453
701.929	3.25807
704.822	3.00831
707.714	5.80325
710.607	10.7581
713.5	13.1185
716.393	11.3903
719.285	8.86564
722.178	10.1954
725.071	7.7006
727.963	8.70068
730.856	5.52567
733.749	6.15258
736.641	9.80502
739.534	10.9062
742.427	18.5166
745.319	22.7674
748.212	30.3505
751.105	33.3397
753.998	19.9349
756.89	12.4657
759.783	4.88758
762.676	3.8394
765.568	0.839787
768.461	1.0651
771.354	2.09134
774.246	1.29141
777.139	0.222546
780.032	1.59042
782.925	0.141697
785.817	0.003719
788.71	0.088856
791.603	0.081757
794.495	0.764046
797.388	1.09737
800.281	1.00275
803.173	2.30076
806.066	1.98628
808.959	2.47123
811.851	2.87457
814.744	2.27031
817.637	2.88951
820.53	3.70731
823.422	2.9875
826.315	3.18183
829.208	1.74476
832.1	4.02064
834.993	2.91322
837.886	2.25531
840.779	2.75619
843.671	3.24082
846.564	3.51708
849.457	2.47727
852.349	2.754
855.242	4.22454
858.135	3.00922
861.027	3.72382
863.92	3.83732
866.813	1.50097
869.706	2.68987
872.598	2.98578
875.491	3.03091
878.384	3.11888
881.276	1.28242
884.169	3.312
887.062	0.563881
889.954	1.7391
892.847	0.825623
895.74	1.29567
898.632	1.90778
901.525	0.299774
904.418	0.458324
907.311	0.437656
910.203	0.015587
913.096	0.273804
915.989	0.675686
918.881	0.548004
921.774	0.031315
924.667	2.55836
927.559	1.61375
930.452	6.80921
933.345	3.75034
936.237	5.57197
939.13	6.87477
942.023	8.91772
944.916	5.86042
947.808	7.46875
950.701	8.97568
953.594	8.36789
956.486	11.0425
959.379	20.1545
962.272	22.9476
965.164	30.7735
968.057	40.6627
970.95	47.2322
973.843	42.3793
976.735	36.8963
979.628	36.3153
982.521	47.3261
985.413	49.6408
988.306	32.1527
991.199	23.2452
994.091	22.6198
996.984	22.3326
999.877	17.9105
1002.77	17.8202
1005.66	17.2252
1008.55	22.0734
1011.45	24.5539
1014.34	25.4745
1017.23	16.1856
1020.13	10.5505
1023.02	4.25728
1025.91	4.80014
1028.8	1.83553
1031.7	1.64436
1034.59	0.434586
1037.48	0.797092
1040.38	1.02153
1043.27	2.17337
1046.16	5.22755
1049.05	7.70515
1051.94	9.24984
1054.84	10.6304
1057.73	7.66567
1060.62	2.1178
1063.52	1.34821
1066.41	3.24553
1069.3	1.95824
1072.19	1.85409
1075.09	1.18022
1077.98	3.07635
1080.87	2.34246
1083.77	2.25998
1086.66	3.09306
1089.55	4.47691
1092.44	3.08826
1095.34	3.39596
1098.23	3.98108
1101.12	3.13514
1104.01	1.58746
1106.91	0.960896
1109.8	2.91797
1112.69	0.488598
1115.59	2.70261
1118.48	2.40315
1121.37	0.5098
1124.26	1.03956
1127.16	0.627796
1130.05	3.0942
1132.94	0.05534
1135.83	0.769299
1138.73	1.75112
1141.62	1.73924
1144.51	3.505
1147.4	1.04896
1150.3	1.52886
1153.19	0.969109
1156.08	0.904068
1158.97	1.7084
1161.87	4.35616
1164.76	2.23571
1167.65	3.39729
1170.55	1.72286
1173.44	1.20941
1176.33	2.06025
1179.22	3.56483
1182.12	3.0585
1185.01	0.960522
1187.9	4.01978
1190.8	1.7296
1193.69	1.23208
1196.58	0.994377
1199.47	0.160488
1202.37	2.94952
1205.26	0.973434
1208.15	2.61462
1211.04	3.24752
1213.94	3.11021
1216.83	1.96777
1219.72	2.16777
1222.62	1.48415
1225.51	3.81643
1228.4	1.46574
1231.29	0.89064
1234.18	1.53789
1237.08	1.07922
1239.97	1.25691
1242.86	3.26762
1245.76	1.8976
1248.65	2.43655
1251.54	2.98839
1254.43	3.34496
1257.33	0.879658
1260.22	0.815155
1263.11	1.51246
1266.01	1.15479
1268.9	3.07514
1271.79	2.41697
1274.68	0.457096
1277.58	2.91174
1280.47	1.68481
1283.36	1.2587
