Measurement: Raman, 532 nm, unoriented, Raman Data Processed
Mineral: Celsian
Rruff sample: R060460
Ideal chemistry: BaAl_2_Si_2_O_8_
Locality: Benallt mine, Rhiw, Leyen Peninsula, Caernarvonshire, Wales
Source: Michael Scott
Description: White prismatic-shaped granular aggregates associated with barite and piemontite
Measured chemistry: Ba_1.00_Al_2.00_Si_2.00_O_8_
Raman shift (cm-1)	intensity
163.835	0
166.728	9.7233
169.62	57.26
172.513	48.7754
175.406	16.0847
178.298	4.022
181.191	1.23157
184.084	1.31558
186.976	1.49234
189.869	20.8702
192.762	32.5778
195.655	72.6333
198.547	102.565
201.44	39.3029
204.333	0.270874
207.225	0.016876
210.118	2.76065
213.011	1.88864
215.904	0.583801
218.796	7.48022
221.689	16.499
224.582	20.1639
227.474	13.1529
230.367	17.6087
233.26	27.1407
236.152	42.2938
239.045	63.6588
241.938	105.145
244.831	166.798
247.723	203.179
250.616	147.468
253.509	92.104
256.401	91.6542
259.294	81.6629
262.187	38.2912
265.079	17.1327
267.972	7.35513
270.865	5.57297
273.758	3.9444
276.65	3.66745
279.543	4.04529
282.436	6.9249
285.328	1.93668
288.221	4.79318
291.114	5.27341
294.007	9.21075
296.899	16.7358
299.792	19.2595
302.685	30.0815
305.577	48.5812
308.47	57.0412
311.363	27.0157
314.255	11.8979
317.148	4.19971
320.041	5.83814
322.933	6.09906
325.826	0.498627
328.719	2.32599
331.612	0.3815
334.504	2.00565
337.397	2.53449
340.29	2.54684
343.183	7.57724
346.075	11.6665
348.968	18.9272
351.861	28.9183
354.753	43.4563
357.646	54.0583
360.539	47.9982
363.431	28.243
366.324	9.23682
369.217	6.23764
372.11	1.82669
375.002	2.76617
377.895	9.21317
380.788	11.3022
383.68	11.3604
386.573	17.3664
389.466	24.8531
392.358	41.1593
395.251	33.5595
398.144	8.01523
401.036	0.660309
403.929	3.15631
406.822	1.57779
409.715	2.02499
412.607	3.76944
415.5	7.39868
418.393	11.259
421.285	20.0769
424.178	36.8366
427.071	59.1597
429.964	71.1082
432.856	31.6951
435.749	13.0245
438.642	1.11444
441.534	5.05762
444.427	0.949738
447.32	1.25107
450.212	4.09464
453.105	14.4883
455.998	25.0937
458.891	46.7175
461.783	71.0764
464.676	80.9666
467.569	75.311
470.461	68.1552
473.354	69.6936
476.247	46.8894
479.139	25.9449
482.032	22.5285
484.925	18.949
487.818	32.6704
490.71	62.0926
493.603	117.836
496.496	205.131
499.388	292.911
502.281	439.273
505.174	652.64
508.067	836.14
510.959	722.751
513.852	345.072
516.745	156.95
519.637	86.8122
522.53	55.0211
525.423	42.2604
528.316	34.871
531.208	19.1141
534.101	13.769
536.994	9.34225
539.886	9.99051
542.779	8.97131
545.672	14.527
548.564	25.1832
551.457	38.1757
554.35	46.635
557.242	34.3182
560.135	14.374
563.028	2.09287
565.921	1.61237
568.813	1.46683
571.706	0.672913
574.599	1.63275
577.491	3.89389
580.384	4.69995
583.277	13.8882
586.17	19.4231
589.062	34.9714
591.955	51.9861
594.848	49.641
597.74	39.567
600.633	22.9781
603.526	13.4829
606.418	11.4896
609.311	14.7079
612.204	25.2421
615.097	21.7851
617.989	25.1327
620.882	17.6497
623.775	6.7984
626.667	6.42258
629.56	2.40875
632.453	2.18417
635.346	1.18198
638.238	0.996552
641.131	0.266418
644.024	2.74362
646.916	2.04483
649.809	2.52014
652.702	1.55115
655.594	0.963409
658.487	3.34424
661.38	2.73151
664.273	2.02618
667.165	7.71307
670.058	8.84586
672.951	13.5069
675.843	25.1396
678.736	32.6196
681.629	41.6157
684.521	46.2859
687.414	32.8687
690.307	16.7371
693.199	13.1175
696.092	9.65256
698.985	6.71204
701.878	3.017
704.77	4.96085
707.663	13.2014
710.556	12.8502
713.448	19.3731
716.341	22.2432
719.234	14.6362
722.127	13.6211
725.019	18.2643
727.912	14.0088
730.805	12.1474
733.697	10.5701
736.59	12.8882
739.483	15.3397
742.375	24.6583
745.268	33.7754
748.161	59.9238
751.054	71.8033
753.946	62.3034
756.839	32.3951
759.732	17.7315
762.625	10.1674
765.517	5.4718
768.41	4.40149
771.303	3.54974
774.195	0.239349
777.088	1.87906
779.981	1.23438
782.873	1.2341
785.766	3.51215
788.659	0.139648
791.552	0.983704
794.444	1.15103
797.337	0.940948
800.23	2.5694
803.122	0.469604
806.015	2.01468
808.908	4.73166
811.8	3.04633
814.693	4.39893
817.586	3.95377
820.479	0.11673
823.371	2.78024
826.264	4.8346
829.157	2.74664
832.049	6.69013
834.942	2.46249
837.835	4.02786
840.727	5.36172
843.62	4.36273
846.513	2.31168
849.405	0.609467
852.298	3.01974
855.191	2.28043
858.084	2.36801
860.976	4.51465
863.869	4.14172
866.762	3.3493
869.654	2.08804
872.547	3.6536
875.44	4.08728
878.333	2.79086
881.225	3.88968
884.118	4.26431
887.011	2.64334
889.903	4.60092
892.796	2.0286
895.689	5.08246
898.582	0.559631
901.474	1.93423
904.367	0.158447
907.26	1.42975
910.152	1.78326
913.045	1.01035
915.938	0.035156
918.83	0.675934
921.723	2.88507
924.616	3.70297
927.509	3.48328
930.401	2.72107
933.294	3.88312
936.187	9.15793
939.079	10.2616
941.972	10.9435
944.865	11.2898
947.757	11.4976
950.65	12.1044
953.543	9.07538
956.436	10.4071
959.328	14.6428
962.221	26.8755
965.114	42.5222
968.006	67.4577
970.899	91.8223
973.792	95.5455
976.684	70.3261
979.577	59.0591
982.47	78.545
985.362	100.977
988.255	80.7565
991.148	47.0516
994.041	42.524
996.933	42.1105
999.826	34.9984
1002.72	25.3681
1005.61	27.637
1008.5	34.7235
1011.4	46.045
1014.29	55.7343
1017.18	47.7541
1020.08	30.4371
1022.97	12.1119
1025.86	3.68796
1028.75	2.45572
1031.65	4.46536
1034.54	2.01031
1037.43	1.72378
1040.32	0.119049
1043.22	0.853394
1046.11	5.96332
1049	10.8107
1051.89	19.2201
1054.79	29.0984
1057.68	26.5396
1060.57	15.6612
1063.47	6.7431
1066.36	1.84735
1069.25	0.423065
1072.14	0.223145
1075.04	1.79785
1077.93	1.37396
1080.82	1.55328
1083.71	0.173462
1086.61	2.8942
1089.5	4.83829
1092.39	3.71744
1095.29	6.90454
1098.18	5.30865
1101.07	3.58872
1103.96	4.5336
1106.86	3.01703
1109.75	1.78137
1112.64	1.01968
1115.53	0.964203
1118.43	1.18484
1121.32	3.32791
1124.21	5.02445
1127.11	4.42975
1130	0.665802
1132.89	0.535095
1135.78	1.35129
1138.68	1.11157
1141.57	0.562622
1144.46	2.91168
1147.35	1.28433
1150.25	1.26096
1153.14	1.36704
1156.03	4.40402
1158.92	2.41428
1161.82	1.96216
1164.71	5.92618
1167.6	1.39133
1170.5	4.0014
1173.39	3.04401
1176.28	5.80405
1179.17	0.296875
1182.07	4.70047
1184.96	1.92239
1187.85	0.759766
1190.74	3.4899
1193.64	4.47873
1196.53	1.4234
1199.42	2.67526
1202.32	5.60611
1205.21	3.75913
1208.1	3.96716
1210.99	3.35114
1213.89	4.4216
1216.78	0.453369
1219.67	4.59106
1222.56	5.83408
1225.46	2.74783
1228.35	3.98526
1231.24	5.88171
1234.13	6.45126
1237.03	0.256897
1239.92	3.59088
1242.81	2.52335
1245.71	3.75326
1248.6	0.345978
1251.49	4.34134
1254.38	2.67841
1257.28	1.89029
1260.17	0.61087
1263.06	7.32428
1265.95	4.88052
1268.85	4.54855
1271.74	6.43549
1274.63	2.31805
1277.53	0.99173
1280.42	3.85278
1283.31	1.83273
1286.2	3.60205
1289.1	0.836792
1291.99	0.160065
1294.88	3.20868
1297.78	1.35635
1300.67	0.181732
