Measurement: Raman, 780 nm, unoriented, Raman Data Processed
Mineral: Celsian
Rruff sample: R060152
Ideal chemistry: BaAl_2_Si_2_O_8_
Locality: Benallt mine, Lleyn, Wales
Source: Marcus Origlieri
Description: Colorless to white elongated prismatic crystals
Measured chemistry: (Ba_0.98_K_0.02_[box]_0.02_)_Î£=1_Al_2.00_Si_2.00_O_8_
Raman shift (cm-1)	intensity
145.058	0
147.951	0.037239
150.844	1.39494
153.736	1.67153
156.629	2.97559
159.522	5.17569
162.414	9.79869
165.307	15.3164
168.2	22.3544
171.093	17.9452
173.985	8.46148
176.878	4.84025
179.771	3.66565
182.663	2.16573
185.556	1.68775
188.449	1.4519
191.341	2.25898
194.234	3.84333
197.127	5.11272
200.019	2.31123
202.912	0.141703
205.805	0.581526
208.697	0.33143
211.59	0.080254
214.483	0.152542
217.376	0.639914
220.268	1.9643
223.161	3.21219
226.054	3.5597
228.946	4.42953
231.839	5.81406
234.732	8.26211
237.625	10.5665
240.517	14.6535
243.41	19.3859
246.303	21.8552
249.195	19.2987
252.088	12.8238
254.981	10.3948
257.873	9.11119
260.766	5.64527
263.659	3.64845
266.551	2.06019
269.444	1.46219
272.337	1.09823
275.23	1.24334
278.122	1.6846
281.015	0.964821
283.908	1.64055
286.8	1.6693
289.693	1.98679
292.586	2.62812
295.478	2.90265
298.371	4.61547
301.264	5.47196
304.157	7.03639
307.049	8.26234
309.942	4.72019
312.835	2.67847
315.727	0.705368
318.62	0.958576
321.513	0.322088
324.406	0.486763
327.298	0.059959
330.191	0.001093
333.084	0.09264
335.976	0.754118
338.869	0.81793
341.762	2.57076
344.654	3.69993
347.547	4.953
350.44	6.85794
353.332	9.67154
356.225	11.9366
359.118	10.7958
362.01	6.2592
364.903	3.76764
367.796	1.21731
370.689	0.992155
373.581	1.28627
376.474	0.903404
379.367	1.36775
382.259	1.23796
385.152	1.34385
388.045	2.67187
390.938	3.60096
393.83	3.95341
396.723	1.44653
399.616	0.147747
402.508	0.062077
405.401	0.110218
408.294	0.157067
411.186	0.014732
414.079	0.309769
416.972	0.014914
419.865	0.424749
422.757	1.15563
425.65	2.6694
428.543	3.6139
431.435	2.33397
434.328	0.865088
437.221	0.093533
440.113	0.322582
443.006	1.37658
445.899	3.69628
448.791	6.53103
451.684	9.3698
454.577	13.6192
457.47	19.4053
460.362	26.8943
463.255	31.0174
466.148	23.4653
469.04	14.4029
471.933	10.0417
474.826	5.75236
477.719	3.03289
480.611	1.70677
483.504	2.46915
486.397	4.60619
489.289	9.88088
492.182	20.1028
495.075	31.7514
497.967	41.7503
500.86	58.1871
503.753	81.5951
506.645	107.468
509.538	106.972
512.431	62.631
515.323	29.5303
518.216	15.6069
521.109	11.1043
524.002	9.35418
526.894	8.21289
529.787	6.46039
532.68	3.56433
535.572	1.92765
538.465	1.89289
541.358	1.12803
544.25	1.87201
547.143	2.98083
550.036	3.73887
552.929	4.5617
555.821	3.73883
558.714	2.26437
561.607	0.466867
564.499	0.342932
567.392	0.184374
570.285	0.724365
573.178	0.266516
576.07	0.392567
578.963	0.126474
581.856	0.346426
584.748	0.738991
587.641	1.54546
590.534	2.16788
593.426	1.83894
596.319	1.95089
599.212	1.44706
602.105	1.20806
604.997	1.31955
607.89	1.64462
610.783	2.48533
613.675	2.8174
616.568	3.65542
619.461	3.21689
622.353	1.65887
625.246	1.31679
628.139	0.33267
631.031	0.29928
633.924	0.335054
636.817	0.067999
639.71	0.2015
642.602	0.348106
645.495	0.182497
648.388	0.144857
651.28	0.196198
654.173	0.176773
657.066	0.000187
659.958	0.513895
662.851	0.176008
665.744	1.11143
668.636	1.22919
671.529	1.36352
674.422	2.42242
677.315	3.55226
680.207	4.43836
683.1	5.21391
685.993	3.35951
688.885	1.93619
691.778	1.20293
694.671	0.95911
697.563	0.888222
700.456	0.901473
703.349	0.823171
706.242	1.2748
709.134	2.22927
712.027	2.68845
714.92	2.88248
717.812	2.58732
720.705	2.18299
723.598	1.75327
726.49	1.42324
729.383	0.960127
732.276	1.14918
735.169	1.09059
738.061	1.00116
740.954	1.31372
743.847	1.55495
746.739	2.72885
749.632	3.43557
752.525	3.43099
755.418	2.18635
758.31	1.45585
761.203	0.279161
764.096	0.584492
766.988	0.223734
769.881	0.464743
772.774	0.51104
775.666	0.146685
778.559	0.077391
781.452	0.22823
784.345	0.054411
787.237	0.012802
790.13	0.126972
793.023	0.337341
795.915	0.145014
798.808	0.307865
801.701	0.32502
804.593	0.125101
807.486	0.615644
810.379	0.593492
813.271	0.450174
816.164	0.652229
819.057	0.527014
821.949	0.632532
824.842	0.60998
827.735	0.614429
830.628	1.01161
833.52	0.762968
836.413	0.594067
839.306	0.882545
842.198	1.37201
845.091	0.919256
847.984	0.742817
850.876	1.25142
853.769	0.419394
856.662	0.84535
859.555	0.467323
862.447	0.517347
865.34	0.699291
868.233	1.68255
871.125	0.569248
874.018	0.816502
876.911	0.603008
879.803	0.820007
882.696	0.36846
885.589	0.280359
888.482	0.560539
891.374	0.416027
894.267	0.605312
897.16	0.436476
900.052	0.101154
902.945	0.131054
905.838	0.216513
908.731	0.05652
911.623	0.156952
914.516	0.136358
917.409	0.044771
920.301	0.181887
923.194	0.100197
926.087	0.444792
928.979	0.023621
931.872	0.077744
934.765	0.539095
937.658	0.176811
940.55	1.17846
943.443	0.936726
946.336	1.18925
949.228	0.559509
952.121	1.09068
955.014	0.508787
957.906	0.489214
960.799	0.496096
963.692	1.08793
966.584	1.65751
969.477	3.89921
972.37	4.45712
975.263	5.85495
978.155	7.43675
981.048	9.75404
983.941	12.2117
986.833	10.4375
989.726	6.47675
992.619	4.29575
995.511	4.4172
998.404	4.14917
1001.3	3.00982
1004.19	3.12845
1007.08	3.87797
1009.98	4.44804
1012.87	5.40209
1015.76	5.85547
1018.65	4.42847
1021.55	2.39864
1024.44	1.25611
1027.33	0.784821
1030.22	0.513401
1033.12	1.19259
1036.01	0.71081
1038.9	0.037191
1041.8	0.629223
1044.69	1.1579
1047.58	2.33071
1050.47	2.96253
1053.37	3.59159
1056.26	3.76347
1059.15	3.39444
1062.04	1.55444
1064.94	0.912991
1067.83	0.843924
1070.72	0.768875
1073.61	0.10692
1076.51	0.472355
1079.4	0.190275
1082.29	0.557247
1085.18	0.275246
1088.08	0.297337
1090.97	0.580412
1093.86	0.642027
1096.76	0.083111
1099.65	0.224693
1102.54	0.45783
1105.43	0.765982
1108.33	0.117706
1111.22	0.430403
1114.11	0.32918
1117.01	0.124863
1119.9	0.214399
1122.79	0.086855
1125.68	0.445141
1128.58	0.54673
1131.47	0.34675
1134.36	0.432209
1137.25	0.472408
1140.15	0.370609
1143.04	0.310537
1145.93	0.530365
1148.82	0.605732
1151.72	0.429289
1154.61	0.358568
1157.5	0.129631
1160.39	0.650816
1163.29	0.10561
1166.18	0.803692
1169.07	1.06172
1171.97	0.400803
1174.86	0.561125
1177.75	0.310658
1180.64	0.211685
1183.54	0.875336
1186.43	0.193607
1189.32	0.508545
1192.21	0.662443
1195.11	0.66559
1198	0.803583
1200.89	0.887619
1203.79	0.493938
1206.68	0.543102
1209.57	0.590816
1212.46	0.826475
1215.36	0.36669
1218.25	0.609503
1221.14	0.786072
1224.04	0.311319
1226.93	0.380693
1229.82	0.319618
1232.71	0.562847
1235.61	0.297306
1238.5	0.490751
1241.39	0.583923
1244.28	0.879753
1247.18	0.646629
1250.07	0.57089
1252.96	0.284533
1255.85	0.0068
1258.75	0.100605
1261.64	0.971123
1264.53	0.468248
1267.42	0.269745
1270.32	0.292315
1273.21	0.281586
1276.1	0.615845
1279	0.364252
1281.89	0.457636
1284.78	0.005884
