Measurement: Raman, 532 nm, unoriented, Raman Data Processed
Mineral: Cerianite-(Ce)
Rruff sample: R050379
Ideal chemistry: CeO_2_
Locality: Sierra de Bermejillo, Durango, Mexico
Source: University of Arizona Mineral Museum
Description: Black crystals or grains, exhibiting a greasy luster
Raman shift (cm-1)	intensity
145.386	0
148.761	0.051865
152.136	1.57372
155.511	3.83073
158.886	1.70689
162.26	3.20265
165.635	2.85621
169.01	2.86668
172.385	3.07918
175.76	1.72483
179.135	0.191963
182.509	0.471046
185.884	0.02478
189.259	1.02415
192.634	0.411247
196.009	1.79107
199.383	2.9647
202.758	3.91912
206.133	5.16734
209.508	4.57838
212.883	3.88266
216.257	6.63131
219.632	8.54769
223.007	9.63472
226.382	12.4036
229.757	15.9877
233.132	18.6101
236.506	21.6228
239.881	22.0058
243.256	22.5012
246.631	17.9991
250.006	14.1647
253.381	10.9093
256.755	8.88683
260.13	6.44285
263.505	3.84322
266.88	4.36322
270.255	4.966
273.629	7.7587
277.004	10.5204
280.379	15.1046
283.754	18.795
287.129	24.1318
290.503	31.7065
293.878	40.0385
297.253	43.9008
300.628	40.4051
304.003	29.6322
307.378	20.0006
310.752	12.5054
314.127	10.0062
317.502	4.34544
320.877	0.777039
324.252	1.34503
327.627	2.3766
331.001	3.55263
334.376	2.98366
337.751	3.42807
341.126	0.903458
344.5	0.98613
347.875	0.362122
351.25	4.24291
354.625	7.66682
358	10.6414
361.375	16.4529
364.75	22.7367
368.124	30.9249
371.499	40.5193
374.874	52.9012
378.249	67.1542
381.623	81.7785
384.998	95.4031
388.373	107.224
391.748	118.673
395.123	123.172
398.498	123.191
401.872	115.07
405.247	99.4088
408.622	86.0367
411.997	73.662
415.372	67.0517
418.747	63.8349
422.121	65.4522
425.496	68.1206
428.871	76.6209
432.246	92.8757
435.621	113.045
438.995	142.523
442.37	179.97
445.745	224.761
449.12	271.5
452.495	320.502
455.87	355.75
459.244	354.055
462.619	318.07
465.994	258.336
469.369	206.081
472.744	163.395
476.118	128.026
479.493	98.5539
482.868	74.0625
486.243	53.5917
489.618	38.2409
492.993	24.3974
496.367	15.229
499.742	6.10917
503.117	1.91454
506.492	3.16593
509.867	3.89703
513.241	4.8071
516.616	3.85779
519.991	1.77082
523.366	0.060204
526.741	5.09814
530.115	8.67916
533.49	14.5708
536.865	20.7851
540.24	27.0931
543.615	32.649
546.99	36.7912
550.364	37.9062
553.739	35.9822
557.114	30.6808
560.489	25.9084
563.864	21.4815
567.239	15.3985
570.613	9.94232
573.988	5.3204
577.363	2.86295
580.738	0.497406
584.112	0.493614
587.487	0.067886
590.862	0.834808
594.237	0.519615
597.612	1.48235
600.987	0.970154
604.361	1.7534
607.736	2.62334
611.111	2.1816
614.486	3.27321
617.861	5.37138
621.236	5.83333
624.61	8.11352
627.985	12.6308
631.36	15.6734
634.735	22.0157
638.11	26.8538
641.484	32.8897
644.859	38.5448
648.234	41.9149
651.609	43.5363
654.984	43.4392
658.359	42.0331
661.733	40.2741
665.108	39.2091
668.483	36.5943
671.858	34.4541
675.233	34.9499
678.607	33.1631
681.982	32.9797
685.357	31.4404
688.732	27.598
692.107	25.0762
695.481	21.5752
698.856	18.8154
702.231	15.7716
705.606	10.5764
708.981	8.94905
712.356	6.07607
715.73	3.86691
719.105	2.33064
722.48	1.11562
725.855	0.775837
729.23	0.116783
732.605	0.175629
735.979	0.558811
739.354	0.526371
742.729	0.244576
746.104	0.119293
749.479	0.71003
752.853	0.041489
756.228	0.316162
759.603	0.36108
762.978	0.891998
766.353	0.743008
769.727	1.5108
773.102	2.51875
776.477	2.38454
779.852	3.20291
783.227	2.65431
786.602	2.8838
789.976	3.35449
793.351	3.40305
796.726	2.84583
800.101	2.27335
803.476	2.82147
806.851	3.4815
810.225	2.71945
813.6	2.0002
816.975	2.63878
820.35	2.32064
823.725	2.06367
827.099	1.93016
830.474	1.8334
833.849	1.71844
837.224	1.52218
840.599	1.49428
843.973	2.11281
847.348	1.36638
850.723	1.50934
854.098	1.17225
857.473	0.645519
860.847	0.98777
864.222	1.02401
867.597	0.995964
870.972	0.668381
874.347	0.470757
877.722	0.169659
881.096	0.077362
884.471	0.152107
887.846	0.114929
891.221	0.246414
894.596	0.082882
897.971	0.403881
901.345	0.489685
904.72	0.419205
908.095	0.408573
911.47	0.439987
914.845	0.528893
918.219	0.862484
921.594	0.730488
924.969	0.13559
928.344	0.338795
931.719	0.124779
935.093	0.555717
938.468	0.510475
941.843	0.498219
945.218	0.019985
948.593	0.213413
951.968	0.555622
955.342	1.84964
958.717	1.60893
962.092	1.71574
965.467	2.82628
968.842	3.40905
972.216	4.18154
975.591	5.26002
978.966	6.18419
982.341	7.11901
985.716	9.12973
989.091	7.95499
992.465	8.41389
995.84	8.61911
999.215	8.24854
1002.59	6.71933
1005.97	6.88582
1009.34	6.09854
1012.71	5.16719
1016.09	5.12251
1019.46	3.87272
1022.84	3.17257
1026.21	2.35626
1029.59	2.29483
1032.96	1.35059
1036.34	1.59871
1039.71	1.07795
1043.09	0.221752
1046.46	0.607208
1049.84	0.818016
1053.21	0.144176
1056.59	0.040504
1059.96	0.477859
1063.34	0.563747
1066.71	0.425892
1070.09	0.242496
1073.46	0.127083
1076.84	0.64167
1080.21	0.792927
1083.59	1.13578
1086.96	1.18278
1090.34	1.68626
1093.71	1.59334
1097.09	2.28684
1100.46	2.85716
1103.83	3.42
1107.21	3.42407
1110.58	4.01649
1113.96	3.87585
1117.33	4.49264
1120.71	3.77747
1124.08	3.89172
1127.46	3.12521
1130.83	3.24195
1134.21	2.75419
1137.58	2.30233
1140.96	2.11012
1144.33	0.947601
1147.71	1.79674
1151.08	0.30666
1154.46	0.373543
1157.83	0.520756
1161.21	0.611111
1164.58	1.11637
1167.96	0.050255
1171.33	0.649822
1174.71	0.813328
1178.08	0.885845
1181.45	0.945084
1184.83	0.096035
1188.2	0.225216
1191.58	0.060909
1194.95	0.920765
1198.33	0.801395
1201.7	0.830688
1205.08	1.08176
1208.45	1.0223
1211.83	0.904198
1215.2	1.00928
1218.58	0.579937
1221.95	0.468483
1225.33	1.17045
1228.7	0.808723
1232.08	0.978783
1235.45	0.842651
1238.83	0.742229
1242.2	0.084446
1245.58	0.211845
1248.95	0.594814
1252.33	0.140522
1255.7	0.328133
1259.08	0.747425
1262.45	1.14114
1265.83	0.225471
1269.2	0.792305
1272.58	0.828495
1275.95	1.32899
1279.33	0.949566
1282.7	1.20347
1286.07	0.76487
1289.45	1.57123
1292.82	1.29492
1296.2	1.24517
1299.57	1.14304
1302.95	0.008316
