Measurement: Raman, 514 nm, unoriented, Raman Data Processed
Mineral: Cerianite-(Ce)
Rruff sample: R050379
Ideal chemistry: CeO_2_
Locality: Sierra de Bermejillo, Durango, Mexico
Source: University of Arizona Mineral Museum
Description: Black crystals or grains, exhibiting a greasy luster
Raman shift (cm-1)	intensity
135.92	0
140.082	129.129
144.242	156.09
148.4	115.61
152.556	133.09
156.71	201.403
160.862	136.53
165.012	160.396
169.16	174.884
173.306	84.25
177.449	154.316
181.591	127.109
185.731	73.97
189.869	41.847
194.005	31.389
198.139	224.538
202.271	179.919
206.4	264.971
210.528	219.865
214.654	354.746
218.778	426.726
222.9	678.923
227.019	756.31
231.137	892.63
235.253	849.592
239.367	869.848
243.479	952.299
247.589	795.184
251.697	928.361
255.803	801.959
259.906	846.068
264.008	570.682
268.108	685.764
272.206	471.296
276.302	187.285
280.396	123.758
284.488	230.733
288.578	148.229
292.666	66.264
296.753	45.147
300.837	165.229
304.919	95.821
308.999	143.356
313.077	73.153
317.154	57.075
321.228	103.035
325.3	213.341
329.371	73.449
333.439	66.193
337.506	86.133
341.57	5.973
345.633	231.853
349.693	301.721
353.752	312.989
357.809	361.078
361.863	572.979
365.916	830.553
369.967	963.135
374.016	956.067
378.063	1189.36
382.108	1622.96
386.151	1796.75
390.192	2020.64
394.231	2384.57
398.269	2908.54
402.304	3242.76
406.337	3667.41
410.369	4332.49
414.398	5008.03
418.426	5934.09
422.452	6800.66
426.475	7617.68
430.497	9625.17
434.517	11603.2
438.535	14491.6
442.551	18460.5
446.565	24190
450.577	31310
454.588	37330.5
458.596	38739.7
462.602	35069.9
466.607	28249.4
470.61	22085.8
474.61	16742
478.609	13105.8
482.606	10253.4
486.601	8020.69
490.594	6020.49
494.585	4363.34
498.575	3357.12
502.562	2511.62
506.548	2248.95
510.531	1126.65
514.513	674.708
518.493	1373.13
522.47	671.925
526.446	341.112
530.421	130.636
534.393	150.475
538.363	440.608
542.331	311.033
546.298	351.738
550.263	422.723
554.225	603.975
558.186	415.587
562.145	508.053
566.103	472.026
570.058	636.519
574.011	823.573
577.963	1026.93
581.912	973.519
585.86	1120.42
589.806	1149.77
593.75	1307.03
597.692	1226.48
601.632	1035.54
605.571	1218.94
609.507	1361.06
613.442	1282.77
617.375	1279.31
621.306	1335.1
625.235	1422.79
629.162	1840.93
633.087	2224.55
637.011	2626.97
640.932	2943.71
644.852	3610.57
648.77	3762.72
652.686	3987.66
656.6	3738.23
660.513	3242.9
664.423	2838.72
668.332	2673.59
672.239	2079.4
676.144	1565.12
680.047	1249.79
683.948	1144.82
687.848	1079.89
691.746	772.627
695.641	455.902
699.535	408.618
703.427	441.394
707.318	363.344
711.206	314.967
715.093	96.585
718.978	23.111
722.861	157.092
726.742	187.846
730.621	196.124
734.499	14.81
738.374	72.309
742.248	79.268
746.12	23.468
749.99	50.314
753.859	55.621
757.725	149.617
761.59	26.542
765.453	23.941
769.314	48.211
773.174	101.664
777.031	37.646
780.887	94.452
784.741	58.113
788.593	162.637
792.443	162.003
796.291	23.813
800.138	0.809
803.983	21.553
807.826	53.007
811.667	13.97
815.507	193.913
819.344	422.859
823.18	100.894
827.014	118.409
830.847	296.556
834.677	296.126
838.506	122.561
842.333	267.621
846.158	126.414
849.981	190.453
853.803	253.023
857.623	274.701
861.441	265.948
865.257	167.726
869.071	197.195
872.884	325.007
876.695	233.125
880.504	409.977
884.311	282.15
888.117	226.916
891.92	209.436
895.722	313.438
899.523	341.081
903.321	341.225
907.118	258.482
910.913	194.606
914.706	314.695
918.497	407.599
922.287	375.571
926.075	494.78
929.861	290.466
933.645	398.016
937.428	364.584
941.208	216.19
944.987	278.692
948.765	513.054
952.54	356.938
956.314	156.392
960.086	62.156
963.856	139.03
967.625	376.432
971.392	219.469
975.157	180.784
978.92	18.211
982.682	57.075
986.441	103.602
990.199	102.482
993.956	77.741
997.71	302.235
1001.46	362.254
1005.21	252.14
1008.96	131.186
1012.71	0.28
1016.46	288.674
1020.2	436.979
1023.94	346.399
1027.68	254.367
1031.42	262.296
1035.16	150.771
1038.9	28.409
1042.63	66.635
1046.36	415.189
1050.09	453.665
1053.82	462.12
1057.55	219.319
1061.27	16.441
1065	115.315
1068.72	253.247
1072.44	550.51
1076.16	278.869
1079.87	336.846
1083.59	95.685
1087.3	165.025
1091.01	164.124
1094.72	143.632
1098.43	342.701
1102.14	581.674
1105.84	339.924
1109.55	198.756
1113.25	2.442
1116.94	96.987
1120.64	106.975
1124.34	376.085
1128.03	594.23
1131.73	491.211
1135.42	491.323
1139.11	559.576
1142.8	504.373
1146.48	151.812
1150.16	600.682
1153.85	749.811
1157.53	868.572
1161.21	728.398
1164.88	779.812
1168.56	612.416
1172.23	405.23
1175.91	410.496
1179.58	704.492
1183.25	744.105
1186.91	842.404
1190.58	859.971
1194.24	677.26
1197.91	416.318
1201.57	359.471
1205.23	557.699
1208.88	585.941
1212.54	763.391
1216.19	741.723
1219.85	687.125
1223.5	624.26
1227.14	381.801
1230.79	274.844
1234.44	504.473
1238.08	391.543
1241.72	598.309
1245.37	720.141
1249	578.1
1252.64	445.025
1256.28	536.539
1259.91	161.955
1263.54	72.08
1267.17	208.068
1270.8	413.703
1274.43	439.438
1278.06	620.324
1281.68	667.385
1285.3	602.445
1288.92	449.744
1292.54	123.625
1296.16	143.305
1299.78	230.303
1303.39	23.271
1307	39.854
1310.61	361.844
1314.22	623.486
1317.83	434.83
1321.44	315.947
1325.04	166.365
1328.64	96.414
1332.24	123.904
1335.85	15.129
1339.44	173.734
1343.04	512.025
1346.63	459.83
1350.23	697.662
1353.82	546.092
1357.41	512.537
1360.99	318.895
1364.58	155.352
1368.17	331.57
1371.75	177.182
1375.33	72.42
1378.91	537.674
1382.49	584.73
1386.07	632.426
1389.64	795.555
1393.21	598.014
1396.79	358.834
1400.36	289.959
1403.92	32.201
1407.49	107.637
1411.06	126.096
1414.62	392.363
1418.18	674.643
1421.74	800.682
1425.3	758.582
1428.86	682.965
1432.42	532.951
1435.97	437.572
1439.52	139.098
1443.07	152.264
1446.62	44.223
1450.17	236.291
1453.72	262.875
1457.26	503.076
1460.81	900.555
1464.35	937.244
1467.89	952.91
1471.42	867.211
1474.96	840.051
1478.49	432.848
1482.03	387.076
1485.56	287.158
1489.09	63.594
1492.62	25.619
1496.15	153.918
1499.67	344.434
1503.2	427.887
1506.72	963.506
1510.24	1205.52
1513.76	834.523
1517.28	804.422
1520.79	418.799
1524.31	0
