Measurement: Raman, 780 nm, unoriented, Raman Data Processed
Mineral: Cerianite-(Ce)
Rruff sample: R050379
Ideal chemistry: CeO_2_
Locality: Sierra de Bermejillo, Durango, Mexico
Source: University of Arizona Mineral Museum
Description: Black crystals or grains, exhibiting a greasy luster
Raman shift (cm-1)	intensity
144.592	0
147.485	0.823593
150.377	0.730911
153.27	1.26035
156.163	3.46141
159.055	2.94728
161.948	4.65538
164.841	4.9454
167.734	4.21202
170.626	2.79276
173.519	1.75851
176.412	0.197586
179.304	0.940079
182.197	0.867493
185.09	0.675385
187.982	3.73651
190.875	4.57683
193.768	4.61003
196.661	7.99687
199.553	12.3515
202.446	14.6659
205.339	17.4281
208.231	14.7414
211.124	13.5978
214.017	12.2697
216.91	11.8688
219.802	13.1462
222.695	16.3408
225.588	18.4686
228.48	22.3462
231.373	25.6882
234.266	28.4884
237.158	30.7137
240.051	32.1793
242.944	31.6047
245.837	29.6512
248.729	25.5958
251.622	21.6578
254.515	19.4316
257.407	14.3453
260.3	11.1164
263.193	10.7326
266.085	10.7861
268.978	11.4857
271.871	13.2636
274.764	17.9574
277.656	23.5951
280.549	28.6079
283.442	36.6818
286.334	42.4657
289.227	50.4775
292.12	58.8842
295.012	65.0903
297.905	68.0699
300.798	61.4594
303.69	46.3618
306.583	31.9031
309.476	20.5863
312.369	13.7652
315.261	8.82486
318.154	4.43173
321.047	0.901459
323.939	1.09599
326.832	2.85258
329.725	2.92921
332.618	4.93759
335.51	4.78568
338.403	1.96808
341.296	2.56465
344.188	2.09009
347.081	1.72406
349.974	4.45795
352.866	4.64601
355.759	10.5445
358.652	14.9868
361.545	22.4339
364.437	28.8896
367.33	40.2492
370.223	51.3059
373.115	67.4152
376.008	77.7351
378.901	94.626
381.793	107.803
384.686	119.438
387.579	129.649
390.471	134.041
393.364	134.55
396.257	130.742
399.15	124.485
402.042	109.355
404.935	94.5474
407.828	79.5419
410.72	69.4956
413.613	59.9822
416.506	55.5461
419.399	55.5349
422.291	57.827
425.184	62.9279
428.077	76.1205
430.969	90.254
433.862	109.786
436.755	139.322
439.647	176.981
442.54	216.92
445.433	267.819
448.325	316.396
451.218	364.594
454.111	407.025
457.004	431.075
459.896	425.75
462.789	387.003
465.682	330.297
468.574	269.363
471.467	216.904
474.36	175.151
477.252	140.056
480.145	112.192
483.038	90.3578
485.931	70.3674
488.823	55.0833
491.716	41.2666
494.609	31.124
497.501	24.3675
500.394	14.5026
503.287	9.35075
506.18	2.22038
509.072	1.03294
511.965	3.33817
514.858	4.41637
517.75	5.30705
520.643	4.56752
523.536	3.14624
526.428	1.39958
529.321	2.36497
532.214	7.01048
535.106	11.5474
537.999	17.6203
540.892	23.2717
543.785	28.4703
546.677	33.5215
549.57	36.2971
552.463	36.6566
555.355	35.4606
558.248	30.9729
561.141	26.8053
564.034	22.7589
566.926	19.5936
569.819	16.3655
572.712	13.2784
575.604	7.88814
578.497	5.43276
581.39	3.64656
584.282	1.47463
587.175	1.21237
590.068	0.685783
592.96	1.24382
595.853	0.085114
598.746	0.924416
601.639	1.18059
604.531	2.19989
607.424	2.3315
610.317	4.0242
613.209	4.05204
616.102	5.13223
618.995	7.70785
621.888	9.06251
624.78	11.1727
627.673	11.6869
630.566	13.0874
633.458	14.2232
636.351	15.5334
639.244	16.4019
642.136	16.6568
645.029	16.868
647.922	17.7791
650.814	19.0456
653.707	18.9108
656.6	20.8742
659.493	21.3279
662.385	21.0995
665.278	22.0529
668.171	22.4189
671.063	21.8904
673.956	20.1487
676.849	18.3785
679.741	16.3491
682.634	15.5319
685.527	12.5488
688.42	11.6486
691.312	10.1359
694.205	7.57407
697.098	6.76302
699.99	5.45023
702.883	4.6675
705.776	3.40781
708.668	3.0378
711.561	2.31785
714.454	1.21162
717.347	0.427284
720.239	0.177544
723.132	0.596809
726.025	0.110184
728.917	0.24469
731.81	0.803993
734.703	0.103516
737.596	0.194008
740.488	0.429218
743.381	0.39806
746.274	0.304134
749.166	0.805454
752.059	1.03354
754.952	1.61136
757.844	2.68061
760.737	3.61848
763.63	4.55366
766.523	5.48898
769.415	7.33008
772.308	8.48851
775.201	9.87069
778.093	11.4931
780.986	12.4862
783.879	13.7541
786.771	14.3195
789.664	14.792
792.557	15.1915
795.449	13.7544
798.342	12.9732
801.235	12.4763
804.128	11.5121
807.02	10.4744
809.913	8.49522
812.806	6.68811
815.698	6.1609
818.591	5.1906
821.484	4.76024
824.376	4.4669
827.269	4.52142
830.162	4.31585
833.055	4.20616
835.947	3.8679
838.84	3.46448
841.733	3.74956
844.625	3.62415
847.518	3.27238
850.411	4.01274
853.303	3.65655
856.196	3.22988
859.089	3.21977
861.982	3.63026
864.874	3.35349
867.767	3.22714
870.66	2.32606
873.552	2.10443
876.445	1.29004
879.338	1.20791
882.231	1.23198
885.123	0.837852
888.016	0.541935
890.909	0.940277
893.801	0.715149
896.694	0.14727
899.587	0.147751
902.479	0.053322
905.372	0.119381
908.265	0.761196
911.158	0.651493
914.05	0.454441
916.943	0.04834
919.836	0.120045
922.728	0.851517
925.621	0.167191
928.514	0.85247
931.406	0.984898
934.299	1.56343
937.192	0.916504
940.084	0.752342
942.977	0.914574
945.87	1.53455
948.763	0.905674
951.655	0.459118
954.548	0.34893
957.441	0.701588
960.333	0.502445
963.226	0.961861
966.119	0.289936
969.011	0.672649
971.904	0.576557
974.797	0.047276
977.689	0.774529
980.582	0.772427
983.475	1.0195
986.368	1.81243
989.26	1.2069
992.153	2.13176
995.046	3.26332
997.938	2.25226
1000.83	3.37035
1003.72	3.19051
1006.62	3.35072
1009.51	3.30016
1012.4	2.42856
1015.29	2.67607
1018.19	2.77557
1021.08	3.17358
1023.97	2.77866
1026.87	3.04371
1029.76	3.48552
1032.65	2.39588
1035.54	3.3301
1038.44	2.09786
1041.33	2.99303
1044.22	2.5616
1047.11	1.9254
1050.01	1.83011
1052.9	1.8437
1055.79	1.85055
1058.68	0.977577
1061.58	0.879398
1064.47	0.872486
1067.36	0.136036
1070.26	1.07104
1073.15	0.130791
1076.04	0.390976
1078.93	0.14695
1081.83	0.464851
1084.72	0.229866
1087.61	0.842949
1090.51	0.083946
1093.4	0.445618
1096.29	0.309372
1099.18	0.319153
1102.08	0.869049
1104.97	0.382698
1107.86	0.786423
1110.75	0.758476
1113.65	0.164398
1116.54	0.945801
1119.43	0.857986
1122.32	0.568718
1125.22	1.67162
1128.11	1.66665
1131	0.877724
1133.89	1.09663
1136.79	1.11492
1139.68	1.49134
1142.57	1.71186
1145.47	1.9351
1148.36	3.38014
1151.25	2.85056
1154.14	3.51806
1157.04	3.20942
1159.93	2.975
1162.82	4.71171
1165.71	4.34843
1168.61	3.33477
1171.5	4.25771
1174.39	4.00896
1177.29	4.46718
1180.18	3.64089
1183.07	2.6814
1185.96	3.38033
1188.86	4.10274
1191.75	3.20076
1194.64	1.90855
1197.54	1.89518
1200.43	1.21044
1203.32	1.79254
1206.21	0.535469
1209.11	0.552406
1212	0.578453
1214.89	0.94162
1217.78	0.235146
1220.68	1.0842
1223.57	0.120102
1226.46	0.111389
1229.35	1.44592
1232.25	2.0329
1235.14	2.11171
1238.03	3.37395
1240.92	3.60974
1243.82	4.13199
1246.71	5.7179
1249.6	4.31493
1252.5	4.2542
1255.39	4.91925
1258.28	3.01016
1261.17	2.46263
1264.07	2.01035
1266.96	2.25165
1269.85	0.429596
1272.74	1.02669
1275.64	1.30057
1278.53	0.856903
1281.42	2.04855
1284.32	2.08055
