Measurement: Raman, 785 nm, unoriented, Raman Data Processed
Mineral: Cernyite
Rruff sample: R070179
Ideal chemistry: Cu_2_CdSnS_4_
Locality: Hugo mine, Keystone, Keystone District, Pennington County, South Dakota, USA
Source: Michael Scott
Description: Gray metallic massive
Raman shift (cm-1)	intensity
112.632	0
115.524	53.7562
118.417	110.823
121.31	85.4118
124.202	12.1702
127.095	6.94074
129.988	74.6383
132.881	196.107
135.773	142.348
138.666	52.9758
141.559	109.982
144.451	295.691
147.344	522.268
150.237	710.319
153.129	733.114
156.022	568.21
158.915	453.072
161.808	466.518
164.7	537.364
167.593	602.745
170.486	671.45
173.378	636.455
176.271	659.407
179.164	637.872
182.056	682.872
184.949	634.148
187.842	650.388
190.734	627.99
193.627	592.707
196.52	585.055
199.413	574.387
202.305	522.972
205.198	406.525
208.091	351.382
210.983	273.962
213.876	233.572
216.769	162.133
219.661	82.3149
222.554	39.478
225.447	2.02637
228.34	29.6987
231.232	51.8154
234.125	108.353
237.018	78.4888
239.91	6.70654
242.803	1.66455
245.696	94.7812
248.589	133.113
251.481	167.235
254.374	158.47
257.267	255.732
260.159	243.799
263.052	192.311
265.945	300.765
268.837	433.656
271.73	645.813
274.623	930.593
277.515	1289.55
280.408	1721.29
283.301	1805.66
286.194	1725.8
289.086	1754.65
291.979	1736.41
294.872	1674.28
297.764	1735.65
300.657	1907.67
303.55	2534.51
306.442	4074.63
309.335	6582.5
312.228	10610
315.121	16021.7
318.013	23464.7
320.906	32936.5
323.799	41851
326.691	44865.8
329.584	36536.3
332.477	20831.1
335.37	9100.76
338.262	4554.14
341.155	3227.03
344.048	2665.66
346.94	2501.19
349.833	2471.37
352.726	2503.71
355.618	2781.38
358.511	3268.73
361.404	3688.67
364.296	3138.04
367.189	1854.39
370.082	730.277
372.975	282.075
375.867	114.33
378.76	40.0435
381.653	7.98633
384.545	2.87891
387.438	77.1338
390.331	51.9414
393.224	48.0776
396.116	72.0981
399.009	15.9473
401.902	43.002
404.794	66.6133
407.687	94.7419
410.58	209.197
413.472	343.271
416.365	448.029
419.258	561.02
422.151	622.838
425.043	599.664
427.936	578.429
430.829	591.727
433.721	550.748
436.614	498.424
439.507	436.474
442.399	416.844
445.292	357.628
448.185	265.575
451.077	203.701
453.97	137.996
456.863	42.2671
459.756	16.1733
462.648	63.1741
465.541	10.29
468.434	58.0102
471.326	74.1423
474.219	94.5852
477.112	101.72
480.005	168.694
482.897	177.621
485.79	205.364
488.683	272.524
491.575	301.262
494.468	303.246
497.361	343.822
500.253	301.721
503.146	250.185
506.039	239.731
508.931	181.788
511.824	180.73
514.717	154.911
517.61	102.487
520.502	68.3984
523.395	3.51221
526.288	39.5608
529.18	6.9314
532.073	1.19434
534.966	8.78906
537.859	31.022
540.751	73.5063
543.644	75.9641
546.537	106.319
549.429	118.886
552.322	113.261
555.215	140.801
558.107	97.791
561	90.3325
563.893	64.2751
566.785	50.1543
569.678	3.92749
572.571	1.15576
575.463	9.42358
578.356	10.4854
581.249	7.25537
584.142	48.0911
587.034	42.6929
589.927	43.5435
592.82	27.1689
595.712	108.678
598.605	168.364
601.498	282.579
604.39	382.462
607.283	566.514
610.176	676.04
613.069	828.824
615.961	892.804
618.854	940.848
621.747	826.701
624.639	668.382
627.532	620.995
630.425	544.543
633.317	661.993
636.21	760.322
639.103	954.373
641.996	1113.39
644.888	1222.05
647.781	1334.07
650.674	1308.54
653.566	1232.56
656.459	1177.63
659.352	1023.85
662.245	824.365
665.137	638.858
668.03	496.937
670.923	394.394
673.815	268.424
676.708	203.308
679.601	88.0769
682.493	41.2831
685.386	15.3188
688.279	16.5676
691.172	22.6981
694.064	9.8501
696.957	18.9959
699.85	108.07
702.742	197.584
705.635	317.885
708.528	512.504
711.42	747.061
714.313	982.254
717.206	1209.6
720.098	1337.73
722.991	1301.12
725.884	1107.48
728.777	781.359
731.669	464.662
734.562	242.904
737.455	110.911
740.347	33.5732
743.24	10.2046
746.133	11.9535
749.025	13.4692
751.918	26.5931
754.811	6.26581
757.704	16.1382
760.596	11.019
763.489	13.1473
766.382	26.9282
769.274	54.5908
772.167	58.9796
775.06	37.4099
777.952	59.3253
780.845	69.4124
783.738	93.2031
786.631	73.8415
789.523	108.398
792.416	100.541
795.309	91.0897
798.201	107.682
801.094	79.2714
803.987	92.3014
806.88	92.3355
809.772	76.9783
812.665	54.1797
815.558	55.6957
818.45	62.6837
821.343	57.0999
824.236	39.8757
827.128	49.4068
830.021	47.0315
832.914	32.0603
835.807	42.0933
838.699	33.8263
841.592	25.2412
844.485	34.2064
847.377	33.2064
850.27	47.5627
853.163	32.7647
856.055	31.5223
858.948	20.3972
861.841	13.0091
864.734	24.4612
867.626	30.9191
870.519	25.2429
873.412	4.39276
876.304	0.140198
879.197	14.9553
882.09	7.51941
884.982	8.97675
887.875	18.9616
890.768	0.263672
893.66	1.91541
896.553	8.76935
899.446	0.612244
902.339	4.30987
905.231	16.3604
908.124	8.27606
911.017	15.7197
913.909	33.0308
916.802	13.1956
919.695	9.61395
922.587	3.17914
925.48	14.1168
928.373	19.7545
931.266	6.21612
934.158	8.33771
937.051	14.0245
939.944	17.7577
942.836	21.4463
945.729	33.5673
948.622	17.2183
951.514	7.11939
954.407	14.0067
957.3	25.0463
960.192	26.0707
963.085	9.59607
965.978	14.6047
968.871	29.1516
971.763	22.2258
974.656	42.0712
977.549	12.4792
980.441	9.87885
983.334	12.1213
986.227	36.0897
989.12	24.5418
992.012	26.6438
994.905	21.3039
997.798	17.391
1000.69	5.57251
1003.58	18.9215
1006.48	1.26917
1009.37	14.5905
1012.26	12.2054
1015.15	5.49283
1018.05	11.8327
1020.94	20.873
1023.83	6.15936
1026.72	11.7548
1029.62	11.784
1032.51	23.9571
1035.4	15.471
1038.3	2.81696
1041.19	24.7533
1044.08	19.0019
1046.97	9.60739
1049.87	10.3446
1052.76	16.8282
1055.65	19.3885
1058.54	3.41641
1061.44	6.24286
1064.33	9.56631
1067.22	11.7544
1070.12	23.7568
1073.01	16.9184
1075.9	4.23373
1078.79	23.3938
1081.69	14.413
1084.58	23.4374
1087.47	13.7885
1090.36	8.41333
1093.26	23.0924
1096.15	19.6059
1099.04	3.48288
1101.93	3.20923
1104.83	1.40039
1107.72	6.60178
1110.61	12.6063
1113.51	16.2287
1116.4	17.3291
1119.29	12.3017
1122.18	26.4779
1125.08	10.9932
1127.97	20.9289
1130.86	25.353
1133.76	11.143
1136.65	9.04318
1139.54	14.2862
1142.43	16.5749
1145.33	5.57297
1148.22	13.9465
1151.11	11.2455
1154	20.5955
1156.9	18.5153
1159.79	13.3411
1162.68	16.166
1165.57	31.2854
1168.47	16.6393
1171.36	16.4956
1174.25	22.4397
1177.14	18.7755
1180.04	5.75095
1182.93	13.1502
1185.82	1.09824
1188.72	20.0867
1191.61	17.8921
1194.5	16.1974
1197.39	18.3708
1200.29	16.811
1203.18	21.8224
1206.07	18.925
1208.96	11.2995
1211.86	25.0092
1214.75	17.276
1217.64	10.8532
1220.54	16.3696
1223.43	8.78586
1226.32	0.838409
1229.21	6.00244
1232.11	7.25443
1235	1.12756
