Measurement: Raman, 532 nm, unoriented, Raman Data Processed
Mineral: Cernyite
Rruff sample: R070179
Ideal chemistry: Cu_2_CdSnS_4_
Locality: Hugo mine, Keystone, Keystone District, Pennington County, South Dakota, USA
Source: Michael Scott
Description: Gray metallic massive
Raman shift (cm-1)	intensity
132.343	0
135.718	39.9279
139.093	125.501
142.468	76.8341
145.843	66.8403
149.217	88.6489
152.592	121.761
155.967	123.274
159.342	45.1267
162.717	14.0518
166.091	11.3382
169.466	8.45654
172.841	15.0236
176.216	37.3467
179.591	64.1487
182.965	63.849
186.34	78.0831
189.715	92.4352
193.09	71.6934
196.465	43.2106
199.84	62.7871
203.214	24.4766
206.589	43.5681
209.964	34.9724
213.339	23.9808
216.714	16.0255
220.089	21.3934
223.463	45.1199
226.838	17.821
230.213	30.5656
233.588	105.936
236.963	197.64
240.337	347.118
243.712	444.089
247.087	485.98
250.462	443.91
253.837	325.128
257.211	219.302
260.586	154.304
263.961	148.254
267.336	190.68
270.711	284.067
274.086	452.52
277.46	664.847
280.835	816.502
284.21	874.214
287.585	789.536
290.959	731.617
294.334	601.263
297.709	491.996
301.084	500.762
304.459	720.457
307.834	1325.18
311.208	2406.47
314.583	4264.12
317.958	7194.51
321.333	9900.95
324.708	9828.41
328.082	6943.61
331.457	3521.62
334.832	1847.87
338.207	1584.94
341.582	1688.06
344.957	1711.35
348.331	1633.56
351.706	1068.67
355.081	645.481
358.456	495.392
361.831	453.806
365.205	267.825
368.58	80.9817
371.955	24.1773
375.33	65.6693
378.705	47.4742
382.079	5.73425
385.454	3.79773
388.829	17.6492
392.204	22.3038
395.579	1.94653
398.954	38.9779
402.328	55.4915
405.703	57.3765
409.078	82.7017
412.453	68.4707
415.828	51.1936
419.202	53.7412
422.577	48.1084
425.952	48.273
429.327	32.5554
432.702	40.7549
436.077	20.2667
439.451	24.8773
442.826	24.2028
446.201	32.0484
449.576	33.8329
452.951	33.976
456.325	65.2329
459.7	37.1265
463.075	39.2054
466.45	73.0806
469.825	55.7858
473.2	56.1865
476.574	34.7651
479.949	60.6545
483.324	42.9114
486.699	50.3886
490.074	52.8563
493.448	15.5646
496.823	10.9898
500.198	17.1787
503.573	9.45129
506.948	11.3055
510.322	6.54633
513.697	9.57861
517.072	8.69904
520.447	0.405884
523.822	12.7025
527.197	4.12683
530.571	3.81738
533.946	21.915
537.321	17.0024
540.696	0.681519
544.071	3.47925
547.445	13.5723
550.82	4.9137
554.195	23.3331
557.57	2.94556
560.945	3.33887
564.319	23.5585
567.694	18.0048
571.069	34.5879
574.444	15.4182
577.819	7.36487
581.193	27.2515
584.568	25.8871
587.943	34.2398
591.318	29.3926
594.693	43.2974
598.068	70.1263
601.442	92.9718
604.817	99.1683
608.192	68.65
611.567	87.0519
614.942	81.6112
618.317	79.2302
621.691	90.0861
625.066	112.259
628.441	93.2541
631.816	129.793
635.191	194.074
638.565	256.572
641.94	299.788
645.315	350.698
648.69	379.477
652.065	346.462
655.439	283.836
658.814	256.683
662.189	230.48
665.564	201.784
668.939	169.197
672.313	164.956
675.688	162.6
679.063	170.608
682.438	149.187
685.813	118.432
689.188	62.2683
692.562	46.4623
695.937	44.6722
699.312	11.598
702.687	15.7631
706.062	3.19275
709.437	3.38415
712.811	18.1768
716.186	24.0427
719.561	7.80347
722.936	11.9973
726.311	7.33801
729.685	33.1937
733.06	2.67102
736.435	8.14404
739.81	44.7429
743.185	13.9616
746.559	5.87793
749.934	17.51
753.309	3.07373
756.684	5.53369
760.059	36.2522
763.433	27.5064
766.808	15.5663
770.183	50.7882
773.558	27.3253
776.933	22.1752
780.308	31.9613
783.682	38.16
787.057	43.7671
790.432	22.8377
793.807	36.214
797.182	35.0984
800.556	36.8763
803.931	27.5566
807.306	27.8105
810.681	5.35522
814.056	41.2339
817.431	44.4601
820.805	40.0966
824.18	23.2419
827.555	30.5741
830.93	30.0264
834.305	4.06738
837.679	29.2244
841.054	1.04394
844.429	19.9072
847.804	2.3335
851.179	23.0558
854.553	3.85632
857.928	27.105
861.303	24.6148
864.678	39.0256
868.053	33.8215
871.428	10.2909
874.802	46.2874
878.177	2.8667
881.552	19.5569
884.927	0.407349
888.302	15.1233
891.676	21.6359
895.051	15.0581
898.426	11.4186
901.801	21.8123
905.176	14.3744
908.551	14.0099
911.925	14.4533
915.3	18.3662
918.675	23.3256
922.05	27.0082
925.425	11.3304
928.799	13.4852
932.174	32.8956
935.549	15.5701
938.924	11.3227
942.299	22.5372
945.673	25.5328
949.048	15.0392
952.423	30.3641
955.798	23.6674
959.173	33.7869
962.548	28.6446
965.922	59.8124
969.297	59.2726
972.672	64.978
976.047	56.1337
979.422	47.4745
982.796	55.4487
986.171	40.4948
989.546	50.0408
992.921	26.7819
996.296	73.4193
999.67	38.5654
1003.04	31.9093
1006.42	14.8539
1009.79	42.0505
1013.17	22.8267
1016.54	16.9049
1019.92	27.1263
1023.29	17.8721
1026.67	14.6958
1030.04	24.7006
1033.42	40.8081
1036.79	16.5538
1040.17	18.0062
1043.54	34.2595
1046.92	30.719
1050.29	21.8126
1053.67	18.9891
1057.04	33.1344
1060.42	1.70215
1063.79	5.54748
1067.17	11.2463
1070.54	23.8695
1073.92	2.04981
1077.29	1.68274
1080.67	28.767
1084.04	20.9452
1087.42	2.35681
1090.79	29.1665
1094.16	19.7701
1097.54	10.9127
1100.91	36.415
1104.29	28.543
1107.66	25.328
1111.04	17.0231
1114.41	17.161
1117.79	3.56311
1121.16	10.4745
1124.54	33.433
1127.91	11.9668
1131.29	28.9692
1134.66	27.3212
1138.04	0.603882
1141.41	34.2412
1144.79	13.506
1148.16	2.37378
1151.54	22.4639
1154.91	4.08997
1158.29	21.1627
1161.66	19.3755
1165.04	16.439
1168.41	8.86926
1171.79	1.72119
1175.16	19.8405
1178.54	17.783
1181.91	14.6099
1185.29	14.5373
1188.66	2.85327
1192.04	16.1359
1195.41	0.328857
1198.78	5.41333
1202.16	14.663
1205.53	22.5684
1208.91	31.6758
1212.28	37.8147
1215.66	6.18665
1219.03	31.2341
1222.41	20.6041
1225.78	41.6121
1229.16	7.79627
1232.53	23.9683
1235.91	21.5721
1239.28	29.6611
1242.66	7.87122
1246.03	12.3951
1249.41	6.31909
1252.78	19.4977
1256.16	30.2439
1259.53	27.9168
1262.91	39.9134
1266.28	50.5129
1269.66	7.19202
1273.03	24.8805
1276.4	14.2161
1279.78	33.6054
1283.15	45.5841
1286.53	16.9023
1289.9	27.5547
1293.28	20.0701
1296.65	25.0981
1300.03	34.0377
1303.4	8.04126
1306.78	37.5487
1310.15	22.1854
