Measurement: Raman, 514 nm, unoriented, Raman Data Processed
Mineral: Cerussite
Rruff sample: R050023
Ideal chemistry: PbCO_3_
Locality: Mammoth - St Anthony mine, Tiger, Pinal County, Arizona, USA
Source: Eugene Schlepp
Description: Prismatic white single crystals
Measured chemistry: Pb_1.00_CO_3_ ; CO_2_ not measured but estimated by difference and stoichiometry
Raman shift (cm-1)	intensity
54.266	0
58.464	13.584
62.661	97.687
66.856	2191.49
71.048	5625.18
75.239	7369.89
79.427	4855.88
83.614	3133.26
87.798	2443.69
91.981	2194.73
96.161	2446.41
100.34	3149.71
104.516	3463.96
108.691	2884.18
112.864	2653.7
117.034	3060.79
121.203	3077.57
125.369	3052.04
129.534	3278.22
133.696	3170.23
137.857	2478.3
142.016	1776.92
146.172	1457.31
150.327	1318.89
154.48	1157.88
158.63	823.358
162.779	631.334
166.926	473.792
171.07	583.264
175.213	596.513
179.354	596.081
183.493	640.573
187.63	687.289
191.765	761.351
195.898	958.433
200.029	1225.98
204.158	1520.01
208.285	1989.23
212.41	2385.32
216.533	2383.45
220.654	2141.13
224.773	1781.91
228.891	1455.92
233.006	1143.36
237.119	843.151
241.231	651.576
245.34	488.702
249.448	402.114
253.553	287.135
257.657	222.852
261.758	125.132
265.858	85.606
269.956	56.197
274.052	61.169
278.146	39.156
282.237	1.318
286.327	7.056
290.416	28.766
294.502	19.612
298.586	31.185
302.668	28.132
306.749	40.282
310.827	30.24
314.903	65.649
318.978	87.789
323.051	1.362
327.121	61.584
331.19	39.782
335.257	15.067
339.322	37.588
343.385	14.394
347.446	4.251
351.505	17.137
355.563	7.941
359.618	3.455
363.672	0.944
367.723	40.422
371.773	24.926
375.821	22.898
379.866	17.187
383.91	42.802
387.952	38.885
391.992	48.898
396.031	57.49
400.067	68.715
404.101	59.235
408.134	87.604
412.165	92.694
416.193	88.457
420.22	104.592
424.245	104.431
428.268	113.66
432.289	159.647
436.309	129.139
440.326	120.612
444.342	135.13
448.355	163.508
452.367	134.015
456.377	139.632
460.385	130.149
464.391	143.047
468.395	120.445
472.398	166.683
476.398	137.141
480.397	161.679
484.394	125.651
488.389	163.229
492.382	112.746
496.373	113.79
500.362	95.519
504.349	127.039
508.335	88.121
512.319	96.674
516.3	113.283
520.28	93.334
524.259	42.969
528.235	90.642
532.209	45.355
536.182	78.138
540.152	52.686
544.121	78.801
548.088	77.159
552.053	80.93
556.017	81.281
559.978	83.52
563.938	65.189
567.895	56.227
571.851	71.378
575.805	68.475
579.758	53.755
583.708	51.625
587.657	44.726
591.603	36.019
595.548	50.849
599.491	32.704
603.432	72.371
607.372	56.567
611.309	78.176
615.245	72.955
619.179	75.863
623.111	77.555
627.041	109.018
630.97	71.556
634.896	86.145
638.821	76.421
642.744	86.122
646.665	60.858
650.584	57.594
654.502	40.277
658.418	25.493
662.331	32.225
666.244	112.149
670.154	333.444
674.062	729.246
677.969	295.101
681.874	324.876
685.777	214.605
689.678	73.806
693.577	62.32
697.475	66.508
701.371	37.708
705.265	2.143
709.157	47.634
713.047	14.645
716.936	49.409
720.823	32.552
724.708	107.057
728.591	100.83
732.472	59.659
736.352	45.329
740.23	69.499
744.106	40.191
747.98	60.879
751.853	36.107
755.723	25.691
759.592	38.453
763.459	26.89
767.325	38.932
771.188	91.847
775.05	62.768
778.91	46.688
782.768	33.587
786.625	15.522
790.479	33.478
794.332	49.443
798.183	46.17
802.033	35.034
805.88	18.985
809.726	36.689
813.57	4.472
817.413	26.394
821.253	19.639
825.092	40.375
828.929	52.577
832.764	159.589
836.598	679.636
840.429	1127.73
844.259	274.784
848.088	97.824
851.914	60.907
855.739	19.987
859.562	2.183
863.383	2.649
867.203	54.442
871.02	4.369
874.836	34.82
878.65	13.014
882.463	45.22
886.274	41.437
890.083	11.337
893.89	13.89
897.695	2.166
901.499	1.469
905.301	5.213
909.102	30.118
912.9	21.438
916.697	26.492
920.492	27.868
924.285	14.283
928.077	41.059
931.867	18.464
935.655	54.88
939.442	62.329
943.226	26.777
947.009	23.2
950.791	4.648
954.57	49.083
958.348	4.505
962.124	44.915
965.899	1.619
969.671	9.924
973.442	47.355
977.211	41.739
980.979	74.701
984.745	43.022
988.509	77.611
992.271	31.798
996.032	55.712
999.791	107.128
1003.55	48.271
1007.3	33.687
1011.06	83.575
1014.81	118.281
1018.56	135.617
1022.31	139.361
1026.06	130.53
1029.8	233.205
1033.55	445.731
1037.29	259.579
1041.03	368.287
1044.77	542.292
1048.5	1202.94
1052.24	7754.75
1055.97	58663
1059.7	6515.44
1063.43	1165.8
1067.16	440.708
1070.89	287.145
1074.61	201.67
1078.34	171.261
1082.06	142.383
1085.78	151.573
1089.5	134.054
1093.21	94.798
1096.93	115.354
1100.64	133.279
1104.35	132.202
1108.06	80.312
1111.77	103.997
1115.48	57.858
1119.18	56.255
1122.89	57.833
1126.59	31.423
1130.29	52.961
1133.99	59.353
1137.68	52.64
1141.38	32.804
1145.07	22.946
1148.76	20.009
1152.45	64.99
1156.14	39.885
1159.83	20.323
1163.51	43.326
1167.19	12.89
1170.88	12.994
1174.56	15.752
1178.23	13.127
1181.91	18.371
1185.59	59.525
1189.26	1.396
1192.93	7.563
1196.6	22.613
1200.27	66.083
1203.94	37.698
1207.6	16.794
1211.27	12.578
1214.93	31.153
1218.59	31.993
1222.25	34.068
1225.9	24.088
1229.56	39.963
1233.21	16.834
1236.86	8.418
1240.51	13.254
1244.16	42.848
1247.81	75.372
1251.45	18.836
1255.1	53.238
1258.74	10.581
1262.38	24.829
1266.02	60.977
1269.66	20.07
1273.29	12.039
1276.93	20.554
1280.56	60.565
1284.19	122.205
1287.82	89.109
1291.45	102.257
1295.07	148.855
1298.7	161.851
1302.32	193.281
1305.94	175.335
1309.56	273.031
1313.18	305.34
1316.8	373.415
1320.41	320.448
1324.02	396.337
1327.63	412.402
1331.24	406.965
1334.85	430.833
1338.46	462.671
1342.06	527.641
1345.67	548.185
1349.27	742.121
1352.87	861.67
1356.47	1350.11
1360.07	1905.37
1363.66	2401.74
1367.25	2579.69
1370.85	2282.64
1374.44	2126.27
1378.03	2073.64
1381.61	1851.25
1385.2	1322.97
1388.78	839.106
1392.37	472.065
1395.95	362.171
1399.53	247.311
1403.1	97.387
1406.68	169.516
1410.26	157.659
1413.83	173.8
1417.4	180.015
1420.97	199.29
1424.54	214.591
1428.1	237.054
1431.67	198.335
1435.23	189.935
1438.8	246.661
1442.36	140.605
1445.91	166.728
1449.47	156.882
1453.03	217.237
1456.58	188.687
1460.13	261.323
1463.68	296.144
1467.23	280.183
1470.78	312.475
1474.33	387.056
1477.87	433.978
1481.42	482.289
1484.96	397.03
1488.5	288.259
1492.04	297.077
1495.57	182.607
1499.11	94.007
1502.64	50.483
1506.17	34.324
1509.71	0.03
1513.23	12.403
1516.76	0.324
1520.29	24.777
1523.81	0
