Measurement: Raman, 532 nm, unoriented, Raman Data Processed
Mineral: Cerussite
Rruff sample: R050023
Ideal chemistry: PbCO_3_
Locality: Mammoth - St Anthony mine, Tiger, Pinal County, Arizona, USA
Source: Eugene Schlepp
Description: Prismatic white single crystals
Measured chemistry: Pb_1.00_CO_3_ ; CO_2_ not measured but estimated by difference and stoichiometry
Raman shift (cm-1)	intensity
110.61	0
113.985	21.485
117.36	4.55876
120.735	1.91794
124.11	126.788
127.484	399.359
130.859	766.731
134.234	1189.46
137.609	1665.51
140.984	2140.51
144.358	2515.05
147.733	2810.14
151.108	2878.6
154.483	2596.93
157.858	2075.16
161.233	1739.12
164.607	1599.32
167.982	1685.38
171.357	1867.14
174.732	1982.69
178.107	1830.14
181.482	1445.1
184.856	1050.22
188.231	763.348
191.606	607.281
194.981	559.754
198.356	581.94
201.731	635.041
205.105	715.259
208.48	819.953
211.855	939.797
215.23	982.891
218.605	951.268
221.979	934.499
225.354	920.476
228.729	825.35
232.104	689.281
235.479	610.126
238.853	536.441
242.228	467.524
245.603	412.365
248.978	302.449
252.353	179.176
255.727	113.354
259.102	55.1549
262.477	10.0679
265.852	1.91318
269.227	22.1519
272.602	23.8354
275.976	27.0295
279.351	18.9881
282.726	15.1139
286.101	9.94244
289.476	1.37662
292.851	6.09596
296.225	16.4517
299.6	25.5349
302.975	25.8098
306.35	46.9675
309.725	41.5252
313.099	45.2209
316.474	59.5887
319.849	59.1831
323.224	73.0164
326.599	76.8439
329.974	69.422
333.348	62.6246
336.723	68.0069
340.098	75.7491
343.473	61.0758
346.848	54.4823
350.223	59.0747
353.597	51.8457
356.972	50.4791
360.347	52.4629
363.722	48.7963
367.097	54.1438
370.471	55.2531
373.846	49.0412
377.221	42.7305
380.596	32.4836
383.971	33.5087
387.346	29.0762
390.72	26.7649
394.095	31.0861
397.47	17.8361
400.845	25.436
404.219	18.9201
407.594	19.9898
410.969	14.7768
414.344	8.58823
417.719	10.9943
421.094	13.175
424.469	8.06953
427.843	7.86706
431.218	10.2768
434.593	7.56322
437.968	8.51306
441.343	7.64122
444.717	5.1438
448.092	3.23949
451.467	2.79235
454.842	2.98129
458.217	7.84596
461.591	4.74903
464.966	0.896004
468.341	1.29748
471.716	16.9483
475.091	12.8144
478.466	5.88486
481.84	13.2528
485.215	16.4839
488.59	8.86124
491.965	16.1952
495.34	19.3051
498.714	7.54788
502.089	9.11742
505.464	6.58209
508.839	4.77624
512.214	7.66623
515.589	1.14084
518.963	0.799278
522.338	1.14786
525.713	6.15065
529.088	2.65479
532.463	0.469475
535.837	2.31388
539.212	0.038712
542.587	6.27142
545.962	9.3072
549.337	6.41933
552.712	7.51724
556.086	8.47676
559.461	10.1951
562.836	13.3474
566.211	10.2774
569.586	15.7171
572.96	14.7853
576.335	16.2834
579.71	9.60281
583.085	8.0608
586.46	7.21612
589.835	9.98323
593.209	8.83224
596.584	6.38957
599.959	9.46306
603.334	2.55991
606.709	8.32496
610.083	4.96903
613.458	6.577
616.833	9.80035
620.208	22.8198
623.583	22.7816
626.958	20.7234
630.332	26.8412
633.707	24.8693
637.082	20.7769
640.457	12.1396
643.832	7.20448
647.207	4.96163
650.581	8.64136
653.956	4.67716
657.331	17.3295
660.706	56.5715
664.081	117.389
667.455	219.64
670.83	423.881
674.205	678.033
677.58	541.653
680.955	866.038
684.33	522.872
687.704	125.927
691.079	131.641
694.454	283.018
697.829	80.4049
701.204	5.57202
704.578	4.78442
707.953	2.27694
711.328	1.7654
714.703	8.4686
718.078	10.6651
721.452	16.9736
724.827	23.2544
728.202	26.4698
731.577	25.9337
734.952	12.6555
738.327	21.0489
741.701	11.973
745.076	12.2651
748.451	15.976
751.826	3.00456
755.201	1.56167
758.576	6.40746
761.95	5.59304
765.325	8.68465
768.7	6.06879
772.075	7.10368
775.45	1.36749
778.824	6.09403
782.199	8.06922
785.574	9.05804
788.949	2.87823
792.324	6.30973
795.698	0.441994
799.073	0.825188
802.448	2.97872
805.823	4.61424
809.198	4.40091
812.573	1.35009
815.947	16.9462
819.322	18.5473
822.697	35.2828
826.072	67.727
829.447	156.116
832.822	308.144
836.196	651.478
839.571	567.812
842.946	118.531
846.321	44.8687
849.696	21.3128
853.07	9.17807
856.445	10.7698
859.82	6.79002
863.195	4.11113
866.57	7.99429
869.944	2.80116
873.319	4.60196
876.694	4.10575
880.069	2.02002
883.444	2.30015
886.819	3.09132
890.193	0.864182
893.568	4.83889
896.943	0.581558
900.318	5.1954
903.693	1.08014
907.067	0.935493
910.442	6.13549
913.817	4.16291
917.192	6.19398
920.567	3.97002
923.942	17.556
927.316	12.9346
930.691	13.3323
934.066	13.5764
937.441	7.08363
940.816	3.34345
944.191	11.019
947.565	9.16068
950.94	4.76006
954.315	2.07923
957.69	4.52625
961.065	8.60747
964.439	6.51102
967.814	11.4109
971.189	1.37527
974.564	3.23719
977.939	1.17878
981.313	9.38567
984.688	0.37101
988.063	13.6019
991.438	14.3289
994.813	13.6327
998.188	15.5304
1001.56	10.4672
1004.94	13.77
1008.31	11.9203
1011.69	5.68583
1015.06	10.2553
1018.44	11.6473
1021.81	26.9953
1025.19	53.1372
1028.56	76.987
1031.94	139.42
1035.31	76.9813
1038.68	142.638
1042.06	390.17
1045.43	2465.96
1048.81	6865.47
1052.18	15689.2
1055.56	17127.1
1058.93	1658.53
1062.31	274.128
1065.68	117.69
1069.06	58.8541
1072.43	32.4391
1075.81	21.2341
1079.18	12.9729
1082.56	14.6857
1085.93	10.4396
1089.31	14.5791
1092.68	23.6469
1096.06	29.9386
1099.43	28.6186
1102.81	19.4969
1106.18	34.8701
1109.56	20.9334
1112.93	16.9331
1116.31	5.29253
1119.68	4.6818
1123.06	4.33127
1126.43	1.50258
1129.81	2.02863
1133.18	4.49387
1136.56	0.786575
1139.93	1.1868
1143.31	3.51257
1146.68	3.99428
1150.05	2.8162
1153.43	1.14729
1156.8	4.35715
1160.18	4.16282
1163.55	4.68207
1166.93	6.53297
1170.3	8.32587
1173.68	7.85297
1177.05	5.02736
1180.43	10.5886
1183.8	4.1566
1187.18	12.5202
1190.55	15.0166
1193.93	15.0411
1197.3	10.1362
1200.68	21.3221
1204.05	17.3963
1207.43	32.5828
1210.8	27.5629
1214.18	17.529
1217.55	23.9346
1220.93	28.6236
1224.3	13.5738
1227.67	17.4795
1231.05	10.2526
1234.42	7.94637
1237.8	10.0049
1241.17	5.16862
1244.55	4.50966
1247.92	8.29246
1251.3	6.08072
1254.67	17.2364
1258.05	10.6948
1261.42	18.719
1264.8	17.9527
1268.17	37.9574
1271.55	21.0118
1274.92	28.824
1278.3	22.0368
1281.67	15.8404
1285.05	22.1079
1288.42	13.1838
1291.8	7.75333
1295.17	2.32037
