Measurement: Raman, 785 nm, unoriented, Raman Data Processed
Mineral: Cerussite
Rruff sample: R050023
Ideal chemistry: PbCO_3_
Locality: Mammoth - St Anthony mine, Tiger, Pinal County, Arizona, USA
Source: Eugene Schlepp
Description: Prismatic white single crystals
Measured chemistry: Pb_1.00_CO_3_ ; CO_2_ not measured but estimated by difference and stoichiometry
Raman shift (cm-1)	intensity
93.5388	0
96.4315	24.8313
99.3242	47.4535
102.217	69.4673
105.11	101.141
108.002	54.0259
110.895	19.1005
113.788	19.5794
116.68	15.2939
119.573	15.8067
122.466	16.1621
125.359	136.117
128.251	315.826
131.144	606.428
134.037	804.484
136.929	766.061
139.822	844.788
142.715	1094.36
145.607	1575.26
148.5	1966.75
151.393	2110.29
154.286	1833.11
157.178	1541.08
160.071	1337.97
162.964	1294.45
165.856	1422.16
168.749	1529.29
171.642	1650.47
174.534	1745.04
177.427	1753.59
180.32	1612.73
183.212	1433.8
186.105	1261.05
188.998	1179.66
191.891	1165.77
194.783	1265.78
197.676	1390.35
200.569	1587.33
203.461	1818.76
206.354	2014.65
209.247	2275.91
212.139	2387.66
215.032	2342.79
217.925	2168.69
220.818	1872.3
223.71	1602.75
226.603	1342.53
229.496	1165.86
232.388	933.637
235.281	782.287
238.174	693.087
241.066	663.662
243.959	576.06
246.852	509.091
249.745	419.861
252.637	349.305
255.53	247.302
258.423	188.486
261.315	132.382
264.208	72.5441
267.101	50.5966
269.993	2.74676
272.886	11.5436
275.779	14.8357
278.672	11.0585
281.564	13.4894
284.457	17.0447
287.35	11.6104
290.242	7.53088
293.135	10.1832
296.028	18.3803
298.921	32.3662
301.813	15.464
304.706	0.802979
307.599	0.375092
310.491	17.9962
313.384	44.918
316.277	40.0983
319.169	55.8841
322.062	57.6698
324.955	90.8746
327.847	93.7355
330.74	107.29
333.633	115.454
336.526	125.189
339.418	114.656
342.311	151.607
345.204	161.535
348.096	174.346
350.989	189.923
353.882	204.259
356.774	187.627
359.667	175.932
362.56	162.106
365.452	139.742
368.345	132.6
371.238	111.22
374.131	96.6392
377.023	64.2314
379.916	65.3797
382.809	44.8739
385.701	41.1408
388.594	31.3432
391.487	24.4566
394.38	30.5674
397.272	33.3852
400.165	24.377
403.058	29.4524
405.95	6.76975
408.843	12.8526
411.736	19.6864
414.628	10.1148
417.521	10.9327
420.414	10.773
423.307	15.7708
426.199	21.1802
429.092	24.746
431.985	14.884
434.877	26.291
437.77	28.3382
440.663	18.701
443.555	30.748
446.448	25.2601
449.341	21.7931
452.234	27.2215
455.126	34.4586
458.019	27.1268
460.912	19.8207
463.804	36.1402
466.697	27.3592
469.59	29.802
472.483	31.3799
475.375	26.0641
478.268	26.854
481.161	23.4725
484.053	18.8279
486.946	18.8155
489.839	31.8496
492.731	25.2725
495.624	22.8548
498.517	20.7304
501.409	17.2054
504.302	15.832
507.195	18.4393
510.088	10.5503
512.98	4.32132
515.873	4.05867
518.766	2.26016
521.658	2.66809
524.551	4.80145
527.444	2.68092
530.337	1.52174
533.229	0.120712
536.122	1.99001
539.015	6.50841
541.907	1.60942
544.8	14.0063
547.693	16.185
550.585	7.86424
553.478	0.010757
556.371	0.179764
559.263	9.04683
562.156	9.04542
565.049	5.73914
567.942	17.0423
570.834	15.7168
573.727	26.7203
576.62	21.1846
579.512	6.87006
582.405	20.0708
585.298	20.949
588.19	21.5703
591.083	14.8802
593.976	14.5209
596.869	10.2837
599.761	8.10571
602.654	0.236938
605.547	8.03134
608.439	2.49394
611.332	14.2251
614.225	11.2055
617.117	27.515
620.01	17.654
622.903	18.7423
625.795	39.0379
628.688	36.2297
631.581	26.0392
634.474	30.1427
637.366	29.9261
640.259	11.4286
643.152	17.9284
646.044	11.7089
648.937	11.9286
651.83	8.02988
654.722	10.8261
657.615	14.1039
660.508	57.5366
663.401	143.799
666.293	256.151
669.186	519.551
672.079	906.357
674.971	1363.38
677.864	570.999
680.757	408.697
683.649	380.066
686.542	122.219
689.435	78.0029
692.328	106.899
695.22	197.459
698.113	70.4875
701.006	6.34764
703.898	30.3155
706.791	4.56868
709.684	3.10445
712.577	4.85806
715.469	1.84619
718.362	15.1292
721.255	32.6759
724.147	37.9691
727.04	37.1201
729.933	40.7136
732.825	30.8344
735.718	23.8754
738.611	20.3371
741.504	12.2575
744.396	11.2772
747.289	5.89619
750.182	8.1611
753.074	5.39339
755.967	6.47862
758.86	4.95357
761.752	4.07779
764.645	9.46181
767.538	12.9953
770.431	13.1806
773.323	19.8914
776.216	12.1063
779.109	8.71303
782.001	3.61955
784.894	7.07307
787.787	15.1105
790.679	3.34848
793.572	10.8507
796.465	7.4043
799.357	6.17831
802.25	2.91213
805.143	3.81769
808.036	3.02782
810.928	5.94211
813.821	2.52329
816.714	7.42606
819.606	9.20664
822.499	32.6674
825.392	54.2366
828.284	81.9876
831.177	178.006
834.07	358.281
836.963	741.293
839.855	648.191
842.748	222.66
845.641	73.6223
848.533	47.2534
851.426	32.825
854.319	30.7764
857.212	32.94
860.104	21.9017
862.997	25.8979
865.89	22.1952
868.782	17.8957
871.675	23.7362
874.568	16.176
877.46	17.3279
880.353	3.28581
883.246	7.10977
886.139	10.7193
889.031	4.60022
891.924	5.17851
894.817	4.77621
897.709	3.46466
900.602	6.04703
903.495	1.07825
906.388	5.76073
909.28	5.01073
912.173	6.63646
915.066	0.533417
917.958	17.3331
920.851	15.5037
923.744	9.10101
926.636	21.9453
929.529	18.0197
932.422	12.5049
935.314	2.11829
938.207	24.7062
941.1	14.3507
943.993	12.9934
946.885	9.90601
949.778	5.43008
952.671	29.3758
955.563	23.9512
958.456	12.7467
961.349	13.787
964.241	7.60046
967.134	11.0839
970.027	15.6485
972.92	3.27322
975.812	14.1126
978.705	14.5257
981.598	10.5942
984.49	14.6486
987.383	15.6863
990.276	12.7928
993.168	21.7475
996.061	26.817
998.954	25.713
1001.85	6.29077
1004.74	19.5873
1007.63	5.28503
1010.52	3.76852
1013.42	3.01172
1016.31	6.96777
1019.2	4.64911
1022.1	0.489441
1024.99	28.6022
1027.88	54.2151
1030.77	178.818
1033.67	100.804
1036.56	99.8531
1039.45	212.943
1042.34	478.741
1045.24	2269.94
1048.13	5501.43
1051.02	13316.2
1053.91	35402.8
1056.81	15418.3
1059.7	2293.53
1062.59	384.404
1065.49	170.396
1068.38	78.0503
1071.27	42.6534
1074.16	41.9409
1077.06	11.5488
1079.95	18.7598
1082.84	24.0457
1085.73	60.3038
1088.63	37.7461
1091.52	69.4179
1094.41	78.6
1097.31	104.803
1100.2	98.6056
1103.09	142.16
1105.98	126.075
1108.88	78.9938
1111.77	86.8284
1114.66	64.6248
1117.56	56.1174
1120.45	48.6035
1123.34	22.3015
1126.23	1.78931
1129.12	0.732788
1132.02	13.5415
1134.91	12.6608
1137.8	19.4906
1140.7	11.167
1143.59	14.6608
1146.48	26.475
1149.37	20.3069
1152.27	53.0563
1155.16	110.485
1158.05	138.107
1160.94	144.314
1163.84	197.738
1166.73	268.039
1169.62	303.819
1172.52	423.15
1175.41	466.607
1178.3	530.711
1181.19	600.226
1184.09	606.664
1186.98	611.097
1189.87	636.558
1192.77	624.901
1195.66	623.878
1198.55	612.644
1201.44	594.636
1204.34	565.261
1207.23	552.814
1210.12	468.373
1213.01	419.441
1215.91	341.667
1218.8	218.884
1221.69	162.4
1224.58	103.08
1227.48	43.7839
1230.37	0.939697
1233.26	0
