Measurement: Raman, 785 nm, unoriented, Raman Data Processed
Mineral: Cerussite
Rruff sample: R040069
Ideal chemistry: PbCO_3_
Locality: Broken Hill, New South Wales, Australia
Source: University of Arizona Mineral Museum
Description: Reticulated composite of colorless tabular crystals
Measured chemistry: Pb_1.04_C_0.98_O_3_
Raman shift (cm-1)	intensity
120.564	0
123.457	3.49783
126.349	104.538
129.242	344.956
132.135	578.64
135.027	394.998
137.92	413.514
140.813	792.567
143.706	1368.02
146.598	1830.11
149.491	1767.82
152.384	1268.52
155.276	893.704
158.169	629.065
161.062	566.204
163.954	473.283
166.847	479.162
169.74	464.639
172.632	497.553
175.525	520.695
178.418	479.739
181.311	377.846
184.203	288.821
187.096	235.072
189.989	241.024
192.881	276.947
195.774	357.853
198.667	468.408
201.56	627.261
204.452	801.347
207.345	984.505
210.238	1134.88
213.13	1202.36
216.023	1094.24
218.916	914.143
221.808	748.5
224.701	588.807
227.594	452.224
230.487	329.833
233.379	246.254
236.272	184.144
239.165	146.465
242.057	113.357
244.95	83.2785
247.843	71.3975
250.735	35.0385
253.628	24.5103
256.521	21.2783
259.413	13.9942
262.306	6.63983
265.199	17.0811
268.092	24.1713
270.984	24.0695
273.877	19.8904
276.77	17.5105
279.662	15.5649
282.555	2.65234
285.448	3.62607
288.341	8.00543
291.233	32.9804
294.126	9.96854
297.019	25.2954
299.911	12.3492
302.804	29.5332
305.697	42.899
308.589	36.1273
311.482	35.1439
314.375	48.5824
317.267	51.4344
320.16	65.7869
323.053	75.2241
325.946	72.0007
328.838	81.8199
331.731	83.7988
334.624	81.8167
337.516	77.8681
340.409	76.0259
343.302	95.4098
346.195	108.575
349.087	113.69
351.98	125.79
354.873	124.499
357.765	129.99
360.658	117.098
363.551	101.626
366.443	87.6966
369.336	78.4002
372.229	62.1813
375.122	61.8023
378.014	39.2234
380.907	40.891
383.8	38.8072
386.692	25.7249
389.585	12.4506
392.478	8.5023
395.37	15.3923
398.263	19.6302
401.156	13.29
404.048	17.2714
406.941	3.23061
409.834	2.11279
412.727	9.41949
415.619	3.81586
418.512	3.6843
421.405	3.20596
424.297	9.06908
427.19	9.94458
430.083	3.36369
432.976	18.3342
435.868	4.6143
438.761	7.87918
441.654	12.4743
444.546	14.6393
447.439	14.4257
450.332	8.19153
453.224	9.54166
456.117	0.494431
459.01	15.3532
461.902	5.9502
464.795	7.69632
467.688	14.4744
470.581	10.3909
473.473	8.49959
476.366	9.58511
479.259	13.4542
482.151	10.2082
485.044	7.10498
487.937	10.5645
490.829	13.6221
493.722	11.5678
496.615	2.69208
499.508	6.97387
502.4	6.72686
505.293	4.15742
508.186	9.43058
511.078	8.1251
513.971	7.16904
516.864	0.401199
519.756	14.771
522.649	3.86105
525.542	0.960876
528.435	0.352493
531.327	2.69455
534.22	2.89619
537.113	2.36096
540.005	3.46981
542.898	6.48634
545.791	13.6888
548.683	0.31279
551.576	0.055328
554.469	3.35447
557.362	1.77489
560.254	0.227356
563.147	3.07643
566.04	2.6349
568.932	2.14999
571.825	2.22854
574.718	23.5695
577.611	7.6485
580.503	16.5194
583.396	11.1626
586.289	10.7085
589.181	5.83684
592.074	3.45466
594.967	4.91529
597.859	11.3477
600.752	9.24333
603.645	9.28413
606.538	1.10111
609.43	19.1362
612.323	15.6731
615.216	11.109
618.108	4.32578
621.001	14.1883
623.894	12.4485
626.786	13.1002
629.679	17.378
632.572	19.3258
635.465	13.9871
638.357	12.7131
641.25	10.1544
644.143	7.35594
647.035	6.85851
649.928	12.5148
652.821	7.07407
655.713	11.8756
658.606	10.2348
661.499	40.2123
664.391	87.2849
667.284	181.442
670.177	346.276
673.07	596.408
675.962	450.782
678.855	424.433
681.748	753.422
684.64	201.668
687.533	33.3036
690.426	13.2887
693.318	25.8058
696.211	8.5364
699.104	7.08714
701.997	11.1903
704.889	7.26944
707.782	1.08767
710.675	6.55328
713.567	20.0154
716.46	6.19501
719.353	21.7773
722.245	26.7705
725.138	32.0889
728.031	19.9003
730.924	18.4878
733.816	19.5108
736.709	18.1771
739.602	10.3162
742.494	1.88655
745.387	4.23373
748.28	4.27058
751.173	15.5561
754.065	15.4738
756.958	12.8257
759.851	12.9127
762.743	12.7846
765.636	7.70979
768.529	5.22638
771.421	7.78451
774.314	14.8905
777.207	9.1807
780.1	8.34645
782.992	12.3528
785.885	10.1295
788.778	5.52494
791.67	7.39388
794.563	7.92112
797.456	1.71723
800.348	5.52139
803.241	1.31472
806.134	4.66345
809.027	7.27677
811.919	6.8049
814.812	2.91812
817.705	9.26709
820.597	10.3679
823.49	16.1221
826.383	25.8782
829.275	26.0145
832.168	98.0816
835.061	202.649
837.953	343.233
840.846	112.156
843.739	54.1713
846.631	36.148
849.524	22.5283
852.417	22.7535
855.31	11.883
858.202	17.6546
861.095	17.9148
863.988	11.2262
866.88	20.6845
869.773	3.45274
872.666	9.83208
875.558	11.9283
878.451	13.9805
881.344	11.4435
884.237	12.5526
887.129	8.36211
890.022	3.32299
892.915	6.26864
895.807	2.41883
898.7	6.96849
901.593	7.55784
904.486	8.13929
907.378	1.77361
910.271	12.6448
913.164	2.15601
916.056	6.39982
918.949	5.16031
921.842	10.0786
924.734	18.7091
927.627	3.63728
930.52	16.8105
933.413	11.474
936.305	7.7984
939.198	6.06522
942.091	13.6168
944.983	4.07921
947.876	4.35475
950.769	0.02652
953.661	12.3227
956.554	12.8777
959.447	12.0752
962.34	8.48689
965.232	19.1965
968.125	6.13856
971.018	6.87088
973.91	11.0001
976.803	5.82309
979.696	21.6633
982.588	5.91981
985.481	11.3282
988.374	12.2674
991.266	12.4956
994.159	0.8703
997.052	19.9465
999.945	25.6517
1002.84	22.3759
1005.73	14.9529
1008.62	11.8725
1011.51	8.06578
1014.41	17.2952
1017.3	7.13837
1020.19	6.21181
1023.09	15.2323
1025.98	18.5674
1028.87	56.3268
1031.76	80.3894
1034.66	36.0378
1037.55	61.7095
1040.44	109.293
1043.34	184.427
1046.23	672.841
1049.12	2824.9
1052.01	8354.04
1054.91	11972.9
1057.8	969.682
1060.69	193.192
1063.58	96.2297
1066.48	35.1184
1069.37	17.4975
1072.26	16.9062
1075.15	13.1186
1078.05	0.26181
1080.94	4.01779
1083.83	1.61026
1086.73	3.68674
1089.62	11.0491
1092.51	30.3566
1095.4	29.1067
1098.3	23.0199
1101.19	35.113
1104.08	52.4621
1106.97	36.7944
1109.87	40.2665
1112.76	64.0959
1115.65	40.9332
1118.55	48.1595
1121.44	36.1398
1124.33	41.9946
1127.22	51.373
1130.12	29.8216
1133.01	28.317
1135.9	31.4311
1138.79	9.30896
1141.69	5.99762
1144.58	14.1226
1147.47	0.016541
1150.37	1.29449
1153.26	11.6869
1156.15	0.83728
1159.04	37.0823
1161.94	33.2711
1164.83	49.4083
1167.72	85.1672
1170.61	110
1173.51	139.364
1176.4	183.353
1179.29	204.857
1182.18	240.685
1185.08	270.817
1187.97	261.76
1190.86	318.282
1193.76	329.149
1196.65	334.316
1199.54	329.878
1202.43	336.431
1205.33	322.909
1208.22	357.196
1211.11	343.66
1214	312.661
1216.9	294.325
1219.79	244.059
1222.68	202.008
1225.58	143.316
1228.47	114.198
1231.36	90.2679
1234.25	68.1547
1237.15	85.7374
1240.04	113.907
1242.93	151.658
1245.82	146.65
1248.72	173.835
1251.61	211.768
1254.5	132.532
1257.39	91.1849
1260.29	45.3344
1263.18	37.1989
1266.07	20.0783
1268.97	9.26746
1271.86	0
