Measurement: Raman, 780 nm, unoriented, Raman Data Processed
Mineral: Cerussite
Rruff sample: R060017
Ideal chemistry: PbCO_3_
Locality: Gonessa, Sardinia, Italy
Source: American Museum of Natural History
Description: White reticulated composite
Measured chemistry: Pb_1.00_CO_3_ C not measured but estimated by difference and stoichiometry
Raman shift (cm-1)	intensity
113.313	0
116.687	119.368
120.062	179.909
123.437	28.5732
126.812	7.15857
130.187	89.5113
133.561	202.375
136.936	305.66
140.311	460.881
143.686	663.323
147.061	864.221
150.436	954.991
153.81	871.06
157.185	632.515
160.56	443.587
163.935	394.761
167.31	444.346
170.685	535.259
174.059	604.406
177.434	554.255
180.809	394.607
184.184	200.014
187.559	67.7938
190.933	3.83789
194.308	15.5041
197.683	5.98792
201.058	21.3126
204.433	75.429
207.808	135.858
211.182	195.135
214.557	247.369
217.932	270.26
221.307	293.068
224.682	317.481
228.056	323.362
231.431	290.535
234.806	266.71
238.181	246.972
241.556	241.691
244.93	216.517
248.305	176.826
251.68	124.87
255.055	72.9804
258.43	36.229
261.805	18.1266
265.179	10.5389
268.554	2.07721
271.929	0.283813
275.304	0.828094
278.679	0.645493
282.053	4.08981
285.428	6.51875
288.803	7.52969
292.178	13.9009
295.553	17.8723
298.928	20.4603
302.302	25.658
305.677	24.8782
309.052	29.3345
312.427	31.0299
315.802	34.1941
319.176	38.62
322.551	43.203
325.926	46.1667
329.301	48.9789
332.676	46.4663
336.05	40.7638
339.425	34.0158
342.8	26.8447
346.175	22.031
349.55	13.4763
352.925	10.8829
356.299	9.2245
359.674	7.88586
363.049	5.45876
366.424	2.25938
369.799	2.26317
373.173	0.828903
376.548	1.95178
379.923	1.40356
383.298	1.49306
386.673	2.13878
390.048	3.18958
393.422	5.32768
396.797	10.9032
400.172	15.9035
403.547	19.4607
406.922	24.6606
410.296	27.5455
413.671	32.7164
417.046	37.9793
420.421	44.3578
423.796	49.0947
427.171	56.8823
430.545	58.1959
433.92	61.358
437.295	52.5397
440.67	45.2259
444.045	35.6072
447.42	26.4418
450.794	20.6598
454.169	14.6525
457.544	10.7881
460.919	9.01596
464.293	6.02867
467.668	5.29086
471.043	1.99696
474.418	1.17352
477.793	1.13078
481.168	1.50195
484.542	0.023239
487.917	3.1692
491.292	0.448196
494.667	0.381973
498.042	0.202789
501.416	2.23045
504.791	0.129501
508.166	0.405594
511.541	0.713661
514.916	2.42868
518.291	2.48347
521.665	1.72212
525.04	1.32484
528.415	2.82787
531.79	0.141808
535.165	1.99145
538.539	2.74437
541.914	3.66151
545.289	1.55434
548.664	2.94516
552.039	2.63536
555.414	1.87601
558.788	2.03702
562.163	2.53355
565.538	1.57061
568.913	0.573784
572.288	1.21906
575.663	1.84098
579.037	3.18525
582.412	1.98111
585.787	1.59396
589.162	1.77823
592.537	1.51753
595.911	1.26824
599.286	2.01807
602.661	0.177177
606.036	0.657928
609.411	1.17551
612.785	3.62785
616.16	1.71091
619.535	1.91208
622.91	0.910904
626.285	2.2685
629.659	3.218
633.034	3.59032
636.409	1.89439
639.784	1.91438
643.159	0.177643
646.534	0.346924
649.908	0.547356
653.283	5.75644
656.658	11.9336
660.033	20.6447
663.408	31.0665
666.783	73.7607
670.157	111.274
673.532	124.184
676.907	101.386
680.282	197.225
683.657	165.374
687.031	33.5182
690.406	34.4269
693.781	74.7327
697.156	46.1356
700.531	2.51157
703.905	0.142242
707.28	0.364784
710.655	1.32684
714.03	0.922447
717.405	1.91203
720.78	5.01642
724.154	6.89252
727.529	7.64923
730.904	6.34996
734.279	7.85063
737.654	5.78445
741.029	7.7675
744.403	6.20829
747.778	6.16303
751.153	5.10896
754.528	3.86556
757.903	2.11456
761.277	1.06411
764.652	1.62204
768.027	1.62984
771.402	0.296837
774.777	0.664291
778.152	1.80677
781.526	2.04102
784.901	1.50285
788.276	1.4325
791.651	1.81215
795.026	0.740761
798.4	1.76989
801.775	1.73979
805.15	0.803688
808.525	0.722214
811.9	1.47415
815.274	1.44536
818.649	4.8738
822.024	12.7135
825.399	29.9861
828.774	33.3339
832.149	51.0377
835.523	101.908
838.898	132.187
842.273	30.8565
845.648	9.85947
849.023	4.28658
852.397	2.85773
855.772	1.94136
859.147	1.46521
862.522	1.85686
865.897	0.666649
869.271	0.977882
872.646	1.53378
876.021	0.229271
879.396	0.080772
882.771	0.537582
886.146	0.108795
889.52	0.221001
892.895	0.043343
896.27	0.018181
899.645	0.289574
903.02	0.601768
906.394	1.10788
909.769	1.10741
913.144	1.02179
916.519	1.40701
919.894	1.69366
923.269	2.43394
926.643	5.28152
930.018	5.86201
933.393	7.40356
936.768	8.62837
940.143	8.84087
943.518	9.12303
946.892	9.2448
950.267	7.89858
953.642	6.0714
957.017	5.97776
960.391	5.23663
963.766	3.68983
967.141	2.39444
970.516	1.86357
973.891	1.94488
977.266	1.53143
980.64	1.33645
984.015	2.47028
987.39	1.85148
990.765	2.16347
994.14	1.62138
997.514	1.37373
1000.89	0.99379
1004.26	0.262299
1007.64	1.45679
1011.01	1.16178
1014.39	0.30217
1017.76	0.070618
1021.14	2.96224
1024.51	3.14482
1027.89	9.24744
1031.26	24.7932
1034.64	16.7119
1038.01	41.3952
1041.39	313.311
1044.76	512.864
1048.14	854.371
1051.51	1543.68
1054.89	4375.44
1058.26	308.311
1061.64	51.242
1065.01	19.5232
1068.39	10.0142
1071.76	5.36644
1075.13	3.56805
1078.51	0.91555
1081.88	0.156532
1085.26	0.79509
1088.63	0.458328
1092.01	0.795288
1095.38	0.382935
1098.76	1.06752
1102.13	3.22177
1105.51	2.07622
1108.88	2.22861
1112.26	2.07861
1115.63	2.46457
1119.01	2.14829
1122.38	1.93337
1125.76	1.53691
1129.13	4.99149
1132.51	3.98442
1135.88	4.03384
1139.26	4.7477
1142.63	6.28107
1146.01	10.1671
1149.38	14.3727
1152.76	19.1624
1156.13	22.154
1159.51	29.9405
1162.88	38.919
1166.26	47.0792
1169.63	53.4793
1173.01	63.66
1176.38	69.8333
1179.76	74.8397
1183.13	77.5062
1186.5	76.4225
1189.88	70.0468
1193.25	61.8556
1196.63	54.1893
1200	42.7178
1203.38	34.3787
1206.75	25.2766
1210.13	19.7955
1213.5	14.9103
1216.88	10.2671
1220.25	7.89377
1223.63	1.90472
1227	1.95801
1230.38	3.03751
1233.75	1.56882
1237.13	4.36932
1240.5	9.55225
1243.88	17.2462
1247.25	25.7212
1250.63	32.946
1254	38.0603
1257.38	42.765
1260.75	36.753
1264.12	33.3502
1267.5	27.7372
1270.88	24.8556
1274.25	18.2418
1277.62	17.0523
1281	11.8454
1284.37	3.82355
1287.75	0.124817
