Measurement: Raman, 514 nm, unoriented, Raman Data Processed
Mineral: Cerussite
Rruff sample: R050174
Ideal chemistry: PbCO_3_
Locality: Tsumeb mine, Tsumeb, Otavi District, Oshikoto, Namibia
Source: Marcus Origlieri
Description: Colorless single crystal
Measured chemistry: Pb_1.00_CO_3_ ; C not measured but estimated by difference and stoichiometry
Raman shift (cm-1)	intensity
52.866	0
57.065	9.336
61.262	672.636
65.458	5090.96
69.651	13354.1
73.842	14945.9
78.031	9322.91
82.218	5533.67
86.404	3701.67
90.587	2991.92
94.768	2946.36
98.947	3660.07
103.124	3526.57
107.3	2206.4
111.473	1419.8
115.644	1397.81
119.813	1495.25
123.981	2046.49
128.146	2808.89
132.309	2711.31
136.47	2113.97
140.63	1657.29
144.787	1449.45
148.942	1172.22
153.096	926.951
157.247	628.657
161.396	489.488
165.544	392.119
169.689	418.644
173.833	454.239
177.974	538.952
182.114	587.965
186.251	663.276
190.387	735.515
194.52	1037.96
198.652	1309.61
202.782	1722.18
206.909	2162.11
211.035	2506.75
215.159	2346.65
219.281	1791.05
223.4	1268.68
227.518	901.475
231.634	686.583
235.748	462.24
239.86	390.336
243.97	404.481
248.079	222.862
252.185	160.102
256.289	145.086
260.391	56.326
264.492	71.843
268.59	36.002
272.687	25.556
276.781	10.37
280.874	37.037
284.964	17.926
289.053	77.314
293.14	57.13
297.225	33.183
301.308	17.339
305.389	17.921
309.468	66.201
313.545	57.537
317.62	63.484
321.693	52.304
325.765	69.592
329.834	37.2
333.902	64.969
337.967	4.171
342.031	20.862
346.093	17.958
350.153	2.332
354.21	18.305
358.267	11.955
362.321	40.63
366.373	13.122
370.423	40.833
374.471	27.552
378.518	46.778
382.563	81.818
386.605	61.22
390.646	57.672
394.685	95.833
398.722	55.602
402.757	47.297
406.79	79.108
410.821	143.733
414.851	141.269
418.878	107.004
422.904	149.298
426.927	107.442
430.949	175.641
434.969	140.841
438.987	216.48
443.003	120.442
447.018	191.811
451.03	148.467
455.041	144.568
459.049	176.857
463.056	171.242
467.061	239.889
471.064	182.575
475.065	168.078
479.064	200.066
483.062	148.087
487.057	172.363
491.051	182.128
495.043	200.734
499.032	185.912
503.02	164.315
507.007	176.557
510.991	133.315
514.973	170.718
518.954	204.5
522.933	127.177
526.91	85.36
530.885	154.118
534.858	94.286
538.829	122.565
542.799	112.212
546.766	64.302
550.732	155.804
554.696	77.578
558.658	116.513
562.618	137.152
566.576	139.671
570.533	98.579
574.488	118.762
578.44	59.529
582.391	22.07
586.341	105.402
590.288	95.51
594.233	83.248
598.177	94.43
602.119	89.812
606.059	16.024
609.997	129.349
613.933	133.093
617.868	151.04
621.801	67.99
625.731	205.598
629.66	126.841
633.588	168.772
637.513	114.307
641.437	158.317
645.358	121.058
649.278	28.605
653.196	147.08
657.113	57.66
661.027	75.073
664.94	116.083
668.851	148.331
672.76	1066.59
676.667	229.146
680.572	471.87
684.476	98.981
688.378	42.965
692.278	138.161
696.176	7.438
700.072	100.083
703.967	30.315
707.86	80.224
711.751	9.098
715.64	84.489
719.527	149.368
723.413	96.729
727.297	100.069
731.179	113.446
735.059	110.139
738.937	95.381
742.814	149.638
746.689	54.92
750.562	112.677
754.433	72.54
758.303	86.663
762.17	22.563
766.036	113.122
769.901	120.77
773.763	100.861
777.624	39.377
781.482	101.419
785.339	28.401
789.195	65.417
793.048	65.625
796.9	59.497
800.75	72.358
804.598	60.232
808.445	30.637
812.289	9.488
816.132	63.986
819.973	25.722
823.813	91.561
827.65	65.6
831.486	140.316
835.32	798.072
839.152	967.963
842.983	215.412
846.812	52.205
850.639	55.854
854.464	112.347
858.288	60.291
862.11	41.18
865.93	67.224
869.748	67.094
873.564	31.633
877.379	9.31
881.192	68.748
885.004	25.167
888.813	57.912
892.621	131.012
896.427	18.094
900.232	24.025
904.034	49.974
907.835	198.064
911.634	80.27
915.432	114.958
919.227	85.143
923.021	38.37
926.813	101.238
930.604	128.45
934.393	142.636
938.18	201.296
941.965	111.418
945.749	31.595
949.53	87.344
953.311	118.385
957.089	110.485
960.866	128.792
964.641	54.949
968.414	29.048
972.185	37.131
975.955	2.402
979.723	87.243
983.49	88.86
987.254	85.458
991.017	96.413
994.779	218.971
998.538	187.462
1002.3	95.915
1006.05	182.662
1009.81	131.035
1013.56	187.284
1017.31	224.954
1021.06	164.882
1024.81	238.074
1028.55	220.936
1032.3	304.283
1036.04	406.346
1039.78	378.012
1043.52	563.837
1047.26	1072.59
1050.99	6146.21
1054.73	57713.5
1058.46	3106.61
1062.19	820.263
1065.92	418.67
1069.65	336.981
1073.37	312.323
1077.1	73.19
1080.82	237.293
1084.54	280.445
1088.26	259.217
1091.97	88.878
1095.69	190.548
1099.4	190.435
1103.12	116.239
1106.83	25.017
1110.54	127.807
1114.24	132.253
1117.95	14.13
1121.65	119.399
1125.35	109.726
1129.06	7.072
1132.75	132.905
1136.45	179.279
1140.15	48.27
1143.84	100.916
1147.53	57.763
1151.22	23.439
1154.91	19.014
1158.6	47.159
1162.28	20.927
1165.97	109.768
1169.65	67.222
1173.33	96.45
1177.01	57.468
1180.69	2.691
1184.36	126.958
1188.04	84.41
1191.71	48.681
1195.38	56.789
1199.05	104.743
1202.71	106.549
1206.38	59.171
1210.04	27.397
1213.71	83.745
1217.37	121.718
1221.03	78.566
1224.68	86.164
1228.34	17.733
1231.99	60.158
1235.65	23.445
1239.3	38.433
1242.95	10.404
1246.59	170.183
1250.24	154.817
1253.88	95.838
1257.53	53.324
1261.17	29.149
1264.81	107.025
1268.45	59.167
1272.08	61.358
1275.72	36.596
1279.35	70.663
1282.98	23.243
1286.61	51.248
1290.24	66.521
1293.87	64.569
1297.49	56.492
1301.11	133.155
1304.73	232.275
1308.36	180.942
1311.97	230.607
1315.59	342.361
1319.2	269.945
1322.82	204.189
1326.43	392.378
1330.04	278.017
1333.65	234.418
1337.26	284.124
1340.86	449.355
1344.47	424.812
1348.07	538.299
1351.67	660.12
1355.27	978.685
1358.87	1233.73
1362.46	1513.82
1366.06	1681.89
1369.65	1689.93
1373.24	1885.95
1376.83	2211.11
1380.42	2006.71
1384	1483.67
1387.59	968.496
1391.17	629.411
1394.75	475.102
1398.33	248.617
1401.91	311.056
1405.49	152.72
1409.06	224.965
1412.64	350.146
1416.21	258.887
1419.78	291.734
1423.35	265.743
1426.91	359.82
1430.48	259.986
1434.05	266.196
1437.61	362.404
1441.17	322.776
1444.73	248.316
1448.29	324.78
1451.84	328.196
1455.4	334.664
1458.95	384.304
1462.5	274.671
1466.05	241.436
1469.6	311.531
1473.15	122.947
1476.69	197.692
1480.24	198.814
1483.78	292.387
1487.32	174.487
1490.86	205.284
1494.39	324.934
1497.93	173.498
1501.46	213.157
1505	74.204
1508.53	103.051
1512.06	192.238
1515.59	3.746
1519.11	17.833
1522.64	2.514
