Measurement: Raman, 532 nm, unoriented, Raman Data Processed
Mineral: Cerussite
Rruff sample: R050298
Ideal chemistry: PbCO_3_
Locality: Bunker Hill mine, Shoshone County, Idaho, USA
Source: Eugene Schlepp
Description: Group of colorless tabular crystals
Measured chemistry: Pb_1.00_CO_3_
Raman shift (cm-1)	intensity
114.049	0
117.424	47.1993
120.798	156.285
124.173	236.945
127.548	286.655
130.923	431.738
134.298	519.333
137.673	490.471
141.047	457.134
144.422	529.371
147.797	704.347
151.172	814.745
154.547	710.807
157.921	445.402
161.296	319.271
164.671	280.851
168.046	393.591
171.421	572.626
174.796	640.803
178.17	552.578
181.545	407.978
184.92	198.762
188.295	94.6124
191.67	70.8506
195.044	109.054
198.419	147.138
201.794	253.777
205.169	367.115
208.544	524.574
211.918	632.465
215.293	681.576
218.668	570.509
222.043	472.518
225.418	387.151
228.792	333.822
232.167	250.26
235.542	210.623
238.917	215.092
242.292	220.113
245.667	214.248
249.041	144.863
252.416	86.8041
255.791	46.9003
259.166	1.16852
262.541	22.2733
265.916	30.6049
269.29	20.6499
272.665	22.6715
276.04	2.55344
279.415	4.2964
282.79	1.80595
286.164	15.1635
289.539	15.0173
292.914	45.9005
296.289	42.4483
299.664	46.6876
303.038	60.0379
306.413	68.4494
309.788	73.1097
313.163	76.6335
316.538	80.5083
319.913	88.4701
323.287	88.0467
326.662	78.4373
330.037	63.289
333.412	66.5525
336.787	54.1345
340.161	52.6811
343.536	48.1018
346.911	40.6963
350.286	33.5726
353.661	49.4797
357.036	48.2808
360.41	33.925
363.785	44.5793
367.16	38.1682
370.535	25.1708
373.91	22.1551
377.284	22.4529
380.659	18.6492
384.034	14.7504
387.409	22.0956
390.784	15.1727
394.159	13.5694
397.533	2.99866
400.908	9.9366
404.283	14.2476
407.658	7.36613
411.033	4.53076
414.407	8.70167
417.782	1.5854
421.157	10.8107
424.532	3.18069
427.907	1.55971
431.281	6.44086
434.656	6.69118
438.031	3.67668
441.406	3.78159
444.781	2.64154
448.156	2.46507
451.53	0.929184
454.905	3.61537
458.28	7.93874
461.655	6.65122
465.03	6.17271
468.404	0.230671
471.779	6.21491
475.154	1.80962
478.529	8.66696
481.904	2.45697
485.279	8.47675
488.653	17.5773
492.028	9.8828
495.403	21.851
498.778	6.52127
502.153	9.46115
505.527	9.799
508.902	1.80193
512.277	4.56673
515.652	1.70517
519.027	7.93096
522.402	4.28031
525.776	2.86409
529.151	8.73574
532.526	6.80907
535.901	16.6632
539.276	3.52698
542.65	5.44541
546.025	4.35961
549.4	6.23785
552.775	11.9974
556.15	7.39532
559.525	4.97357
562.899	9.70669
566.274	7.93485
569.649	6.15634
573.024	7.91859
576.399	6.2584
579.774	6.1166
583.148	12.8919
586.523	6.12565
589.898	12.4022
593.273	4.52675
596.648	8.1818
600.022	5.88172
603.397	0.695381
606.772	10.4635
610.147	2.85275
613.522	13.2606
616.896	10.8527
620.271	12.2913
623.646	15.8495
627.021	17.2935
630.396	22.6867
633.77	15.8422
637.145	19.9326
640.52	11.9654
643.895	1.00668
647.27	2.56268
650.645	5.10332
654.019	4.55756
657.394	11.1555
660.769	30.7139
664.144	61.7505
667.519	95.99
670.894	185.534
674.268	325.935
677.643	91.2686
681.018	81.8599
684.393	54.6219
687.768	22.6524
691.142	53.6012
694.517	157.291
697.892	30.6605
701.267	0.536148
704.642	3.06978
708.016	5.82158
711.391	1.36317
714.766	13.6659
718.141	10.4088
721.516	22.2491
724.891	26.6503
728.265	27.9341
731.64	15.3148
735.015	15.1622
738.39	8.81413
741.765	10.548
745.139	8.36089
748.514	4.41352
751.889	4.09776
755.264	0.690983
758.639	6.97324
762.014	1.80722
765.388	3.6838
768.763	3.91814
772.138	5.51312
775.513	1.69311
778.888	7.69658
782.263	15.2509
785.637	5.11429
789.012	4.03658
792.387	3.83792
795.762	9.01245
799.136	3.05023
802.511	1.91072
805.886	1.03271
809.261	8.56815
812.636	4.98656
816.011	3.60334
819.385	6.59468
822.76	30.0283
826.135	47.5498
829.51	59.5466
832.885	133.252
836.26	354.257
839.634	320.594
843.009	70.6988
846.384	25.5291
849.759	12.1021
853.134	16.4537
856.508	7.33673
859.883	3.33676
863.258	12.2456
866.633	6.41017
870.008	7.60791
873.383	10.993
876.757	5.60002
880.132	0.595234
883.507	4.3257
886.882	2.6227
890.257	0.861477
893.631	3.22367
897.006	6.6641
900.381	0.227715
903.756	0.293262
907.131	2.39588
910.505	11.8965
913.88	5.24073
917.255	8.15556
920.63	4.6207
924.005	8.4814
927.38	10.1806
930.754	8.1422
934.129	4.56745
937.504	5.33357
940.879	1.89724
944.254	5.83792
947.629	1.74628
951.003	5.59333
954.378	7.94009
957.753	10.0684
961.128	4.34254
964.503	2.91227
967.877	7.97338
971.252	1.7983
974.627	9.16501
978.002	2.29234
981.377	1.3222
984.751	7.93947
988.126	5.83126
991.501	9.18768
994.876	10.9293
998.251	2.62034
1001.63	5.79004
1005	8.82461
1008.38	1.01133
1011.75	11.4109
1015.12	13.6128
1018.5	3.37363
1021.87	16.9319
1025.25	30.7238
1028.62	61.0406
1032	103.31
1035.37	61.9062
1038.75	131.807
1042.12	819.173
1045.5	1561.31
1048.87	2815.92
1052.25	9580.64
1055.62	13655.5
1059	729.766
1062.37	201.926
1065.75	85.6596
1069.12	48.358
1072.5	35.7266
1075.87	21.5491
1079.25	6.30067
1082.62	7.6419
1086	5.49186
1089.37	8.04243
1092.75	4.62602
1096.12	3.25565
1099.49	9.84264
1102.87	12.7789
1106.24	6.71704
1109.62	7.12012
1112.99	7.62067
1116.37	4.292
1119.74	5.9614
1123.12	9.93049
1126.49	0.067547
1129.87	13.4033
1133.24	0.07299
1136.62	1.66195
1139.99	4.13274
1143.37	3.57619
1146.74	13.2545
1150.12	12.499
1153.49	5.67339
1156.87	9.29899
1160.24	10.5098
1163.62	2.43827
1166.99	9.80168
1170.37	7.41089
1173.74	10.0099
1177.12	7.44013
1180.49	0.833141
1183.87	10.2192
1187.24	5.39968
1190.62	3.57209
1193.99	1.61628
1197.37	8.93184
1200.74	7.53779
1204.12	10.8262
1207.49	0.686333
1210.86	9.59207
1214.24	4.08022
1217.61	4.64059
1220.99	7.21529
1224.36	11.4483
1227.74	8.17853
1231.11	13.1826
1234.49	4.72043
1237.86	12.6896
1241.24	3.08601
1244.61	1.53853
1247.99	3.25663
1251.36	4.56123
1254.74	6.64934
1258.11	3.61523
1261.49	9.59471
1264.86	2.82287
1268.24	10.0375
1271.61	12.6945
1274.99	5.62184
1278.36	7.92307
1281.73	15.1937
1285.11	9.18745
1288.48	4.34265
1291.86	6.69136
1295.23	7.26415
1298.61	9.07784
1301.98	10.9633
