Measurement: Raman, 514 nm, unoriented, Raman Data Processed
Mineral: Cerussite
Rruff sample: R050298
Ideal chemistry: PbCO_3_
Locality: Bunker Hill mine, Shoshone County, Idaho, USA
Source: Eugene Schlepp
Description: Group of colorless tabular crystals
Measured chemistry: Pb_1.00_CO_3_
Raman shift (cm-1)	intensity
52.866	0
57.065	19.401
61.262	36.817
65.458	246.281
69.651	428.43
73.842	565.411
78.031	580.303
82.218	683.251
86.404	940.73
90.587	1310.29
94.768	1960.91
98.947	2725.5
103.124	3054.07
107.3	2435.03
111.473	2075.97
115.644	2341.67
119.813	3147.27
123.981	4727.11
128.146	6630.8
132.309	7259.87
136.47	6601.76
140.63	5256.46
144.787	4796.01
148.942	4580.73
153.096	4362.74
157.247	3475.05
161.396	2823.68
165.544	2579.6
169.689	2884.76
173.833	3167.64
177.974	2988.14
182.114	2506.02
186.251	1814.34
190.387	1342.42
194.52	1069.75
198.652	893.557
202.782	747.488
206.909	691.452
211.035	643.756
215.159	611.033
219.281	593.96
223.4	529.579
227.518	566.545
231.634	607.28
235.748	668.519
239.86	788
243.97	818.4
248.079	706.748
252.185	553.845
256.289	391.1
260.391	235.867
264.492	165.694
268.59	114.886
272.687	79.672
276.781	51.43
280.874	42.295
284.964	12.237
289.053	14.222
293.14	12.783
297.225	8.788
301.308	3.831
305.389	13.939
309.468	28.097
313.545	43.321
317.62	8.641
321.693	42.055
325.765	30.594
329.834	19.246
333.902	23.005
337.967	21.896
342.031	25.938
346.093	21.171
350.153	18.638
354.21	1.389
358.267	3.333
362.321	3.439
366.373	1.908
370.423	12.523
374.471	20.744
378.518	8.993
382.563	28.875
386.605	19.981
390.646	20.938
394.685	24.818
398.722	16.875
402.757	37.182
406.79	36.833
410.821	34.726
414.851	46.081
418.878	53.162
422.904	44.061
426.927	43.942
430.949	58.702
434.969	82.218
438.987	86.674
443.003	93.851
447.018	115.928
451.03	100.809
455.041	84.404
459.049	85.936
463.056	102.23
467.061	108.905
471.064	95.176
475.065	112.064
479.064	109.88
483.062	112.821
487.057	116.625
491.051	94.972
495.043	94.708
499.032	92.61
503.02	86.758
507.007	90.452
510.991	78.668
514.973	72.456
518.954	56.387
522.933	54.223
526.91	66.95
530.885	39.895
534.858	34.839
538.829	35.025
542.799	21.315
546.766	28.502
550.732	36.273
554.696	13.553
558.658	26.915
562.618	29.651
566.576	19.531
570.533	21.911
574.488	22.366
578.44	24.8
582.391	20.66
586.341	22.834
590.288	30.084
594.233	13.716
598.177	44.268
602.119	38.75
606.059	22.168
609.997	18.612
613.933	4.875
617.868	18.073
621.801	26.239
625.731	22.354
629.66	33.435
633.588	38.515
637.513	37.576
641.437	43.64
645.358	14.725
649.278	4.808
653.196	14.884
657.113	15.967
661.027	27.068
664.94	6.192
668.851	51.33
672.76	159.484
676.667	138.582
680.572	267.739
684.476	160.789
688.378	66.693
692.278	288.698
696.176	447.587
700.072	92.473
703.967	1.418
707.86	0.545
711.751	1.22
715.64	20.193
719.527	1.593
723.413	26.31
727.297	0.242
731.179	28.16
735.059	13.098
738.937	12.246
742.814	26.475
746.689	9.846
750.562	14.978
754.433	14.331
758.303	3.673
762.17	3.174
766.036	13.47
769.901	5.54
773.763	23.727
777.624	12.967
781.482	22.283
785.339	17.558
789.195	26.908
793.048	9.313
796.9	23.718
800.75	3.039
804.598	21.277
808.445	43.541
812.289	38.812
816.132	63.158
819.973	78.432
823.813	231.805
827.65	217.234
831.486	504.676
835.32	2456.13
839.152	3326.61
842.983	827.094
846.812	189.602
850.639	74.129
854.464	18.677
858.288	16.208
862.11	0.683
865.93	7.768
869.748	12.118
873.564	5.754
877.379	22.571
881.192	2.056
885.004	8.259
888.813	9.441
892.621	1.142
896.427	0.154
900.232	0.393
904.034	4.391
907.835	11.187
911.634	7.981
915.432	13.309
919.227	12.495
923.021	22.307
926.813	20.123
930.604	15.94
934.393	31.75
938.18	16.562
941.965	36.36
945.749	5.186
949.53	47.024
953.311	11.86
957.089	36.722
960.866	43.581
964.641	47.468
968.414	63.402
972.185	104.438
975.955	178.314
979.723	142.375
983.49	93.61
987.254	57.875
991.017	92.11
994.779	91.466
998.538	97.939
1002.3	106.578
1006.05	97.083
1009.81	92.51
1013.56	125.101
1017.31	120.662
1021.06	112.548
1024.81	161.009
1028.55	231.652
1032.3	397.369
1036.04	272.694
1039.78	359.107
1043.52	564.156
1047.26	1288.1
1050.99	7879.14
1054.73	59031.7
1058.46	9160.42
1062.19	1360.34
1065.92	482.349
1069.65	289.681
1073.37	221.434
1077.1	175.19
1080.82	153.673
1084.54	128.868
1088.26	125.397
1091.97	118.645
1095.69	125.205
1099.4	101.732
1103.12	90.748
1106.83	85.538
1110.54	85.69
1114.24	93.809
1117.95	71.401
1121.65	86.348
1125.35	103.492
1129.06	75.93
1132.75	69.854
1136.45	73.727
1140.15	68.097
1143.84	47.432
1147.53	46.622
1151.22	64.987
1154.91	57.698
1158.6	51.134
1162.28	46.644
1165.97	53.525
1169.65	61.17
1173.33	48.584
1177.01	35.015
1180.69	29.973
1184.36	29.194
1188.04	22.323
1191.71	43.444
1195.38	56.97
1199.05	25.918
1202.71	49.811
1206.38	20.975
1210.04	34.899
1213.71	51.599
1217.37	64.072
1221.03	19.33
1224.68	44.367
1228.34	23.214
1231.99	15.876
1235.65	13.353
1239.3	7.667
1242.95	11.182
1246.59	17.704
1250.24	17.328
1253.88	9.799
1257.53	12.695
1261.17	10.459
1264.81	1.75
1268.45	0.203
1272.08	3.659
1275.72	11.909
1279.35	7.16
1282.98	21.421
1286.61	1.045
1290.24	0.942
1293.87	12.262
1297.49	9.856
1301.11	11.295
1304.73	11.656
1308.36	19.981
1311.97	25.505
1315.59	36.596
1319.2	6.697
1322.82	11.465
1326.43	20.815
1330.04	34.805
1333.65	17.513
1337.26	41.542
1340.86	11.01
1344.47	19.436
1348.07	21.781
1351.67	118.659
1355.27	241.354
1358.87	457.543
1362.46	636.838
1366.06	731.117
1369.65	727.093
1373.24	821.026
1376.83	945.187
1380.42	809.719
1384	552.384
1387.59	240.655
1391.17	71.586
1394.75	14.034
1398.33	29.697
1401.91	17.003
1405.49	66.682
1409.06	264.769
1412.64	403.94
1416.21	591.904
1419.78	790.075
1423.35	785.095
1426.91	830.866
1430.48	805.379
1434.05	851.394
1437.61	945.952
1441.17	1073.42
1444.73	1331.08
1448.29	1620.88
1451.84	2099.73
1455.4	2730.44
1458.95	3450.01
1462.5	4227.54
1466.05	5086.81
1469.6	5946.42
1473.15	6650.4
1476.69	7304.27
1480.24	7490.23
1483.78	7195.23
1487.32	6230.81
1490.86	4975.28
1494.39	3702.31
1497.93	2459.79
1501.46	1677.83
1505	1125.65
1508.53	658.176
1512.06	314.636
1515.59	102.784
1519.11	2.523
1522.64	0.203
1526.16	0
