Measurement: Raman, 532 nm, unoriented, Raman Data Processed
Mineral: Cerussite
Rruff sample: R060017
Ideal chemistry: PbCO_3_
Locality: Gonessa, Sardinia, Italy
Source: American Museum of Natural History
Description: White reticulated composite
Measured chemistry: Pb_1.00_CO_3_ C not measured but estimated by difference and stoichiometry
Raman shift (cm-1)	intensity
112.691	0
116.066	66.7239
119.441	101.337
122.815	164.542
126.19	341.179
129.565	490.747
132.94	589.262
136.315	617.65
139.689	697.553
143.064	882.582
146.439	1054.22
149.814	1158.27
153.189	1014.24
156.564	716.189
159.938	469.157
163.313	373.51
166.688	403.138
170.063	485.873
173.438	551.41
176.812	520.807
180.187	395.08
183.562	207.303
186.937	67.0001
190.312	19.5488
193.686	40.3943
197.061	20.1167
200.436	10.8928
203.811	54.1704
207.186	115.833
210.561	192.156
213.935	255.629
217.31	272.168
220.685	282.324
224.06	296.783
227.435	288.751
230.81	259.503
234.184	221.76
237.559	208.344
240.934	202.49
244.309	182.655
247.684	157.63
251.058	106.506
254.433	48.6467
257.808	12.7225
261.183	1.87732
264.558	4.78271
267.933	6.49927
271.307	0.751465
274.682	7.23547
278.057	9.37256
281.432	14.4591
284.807	21.0259
288.181	23.5399
291.556	27.6186
294.931	33.3632
298.306	28.3362
301.681	35.2369
305.055	34.7731
308.43	39.4498
311.805	41.9636
315.18	41.1985
318.555	49.4198
321.93	48.7452
325.304	40.978
328.679	30.8408
332.054	24.9131
335.429	22.8058
338.804	29.9123
342.178	22.5143
345.553	22.8956
348.928	25.7114
352.303	20.1903
355.678	13.186
359.053	11.8286
362.427	18.7742
365.802	12.6268
369.177	8.03149
372.552	4.12634
375.927	6.9104
379.301	9.08203
382.676	15.7258
386.051	8.71741
389.426	5.32861
392.801	1.58081
396.175	2.62952
399.55	0.303589
402.925	4.76294
406.3	2.59595
409.675	1.61121
413.05	4.87561
416.424	11.5404
419.799	5.16772
423.174	10.0846
426.549	5.97742
429.924	2.7843
433.298	6.15564
436.673	9.23059
440.048	9.4115
443.423	12.3649
446.798	6.93481
450.173	3.33106
453.547	6.54004
456.922	7.76502
460.297	5.14685
463.672	4.27344
467.047	2.16284
470.421	6.51062
473.796	8.56665
477.171	13.894
480.546	7.94434
483.921	17.5056
487.296	15.3879
490.67	22.2368
494.045	14.8335
497.42	18.485
500.795	13.3658
504.17	8.89856
507.544	9.70654
510.919	1.66052
514.294	1.74719
517.669	9.37237
521.044	6.88867
524.418	9.78296
527.793	3.76941
531.168	4.58337
534.543	7.10352
537.918	8.36304
541.293	5.91223
544.667	13.8219
548.042	1.04712
551.417	11.4992
554.792	12.2828
558.167	12.7452
561.541	8.59204
564.916	8.99182
568.291	8.7041
571.666	14.681
575.041	4.69665
578.415	2.33728
581.79	3.02271
585.165	10.3745
588.54	21.1636
591.915	7.58972
595.29	8.19934
598.664	1.8999
602.039	4.57434
605.414	6.37305
608.789	4.49085
612.164	8.52637
615.538	0.839478
618.913	10.9799
622.288	7.49707
625.663	11.9673
629.038	16.8719
632.413	10.8621
635.787	0.282227
639.162	13.0444
642.537	10.2034
645.912	3.72644
649.287	0.387085
652.662	0.366089
656.036	5.64075
659.411	18.0859
662.786	35.1075
666.161	63.1348
669.536	124.783
672.91	144.611
676.285	143.518
679.66	194.122
683.035	295.849
686.41	41.1234
689.784	41.6114
693.159	75.3347
696.534	74.0261
699.909	2.93542
703.284	2.03906
706.659	6.62988
710.033	2.57239
713.408	0.876953
716.783	1.79053
720.158	8.10352
723.533	21.2659
726.907	13.2788
730.282	13.9983
733.657	11.7063
737.032	7.41919
740.407	9.46448
743.782	4.12915
747.156	6.78027
750.531	1.4751
753.906	9.23777
757.281	2.97376
760.656	7.69055
764.03	10.0696
767.405	15.5177
770.78	12.7168
774.155	9.08447
777.53	18.59
780.904	12.4452
784.279	22.1211
787.654	20.3834
791.029	0.978516
794.404	16.068
797.779	13.8522
801.153	2.17773
804.528	13.5585
807.903	16.4303
811.278	9.0769
814.653	8.0061
818.028	13.0972
821.402	13.3187
824.777	40.2853
828.152	65.7806
831.527	105.087
834.902	194.692
838.276	311.318
841.651	102.951
845.026	30.6586
848.401	5.07031
851.776	7.5376
855.15	6.75378
858.525	18.4468
861.9	16.1003
865.275	4.66077
868.65	9.56043
872.024	11.3296
875.399	5.51135
878.774	1.89551
882.149	5.479
885.524	6.1001
888.899	0.264404
892.273	0.07251
895.648	3.93066
899.023	4.10046
902.398	11.483
905.773	7.20215
909.148	6.05554
912.522	9.69434
915.897	11.6769
919.272	8.92029
922.647	8.65588
926.022	7.37952
929.396	0.124268
932.771	13.5743
936.146	13.8613
939.521	6.73328
942.896	13.4054
946.27	17.2463
949.645	5.98999
953.02	1.38269
956.395	0.501953
959.77	1.8999
963.144	7.23303
966.519	10.314
969.894	4.4386
973.269	4.24603
976.644	1.64807
980.019	6.56604
983.393	10.9252
986.768	15.2096
990.143	8.71326
993.518	13.0261
996.893	2.11694
1000.27	16.1029
1003.64	1.26196
1007.02	1.11536
1010.39	11.928
1013.77	12.1932
1017.14	2.95361
1020.52	17.5254
1023.89	24.6819
1027.27	25.5551
1030.64	68.3428
1034.02	47.599
1037.39	52.271
1040.77	198.872
1044.14	1086.91
1047.52	1626.76
1050.89	3266.42
1054.27	9834.09
1057.64	1572.01
1061.01	178.591
1064.39	63.4375
1067.76	44.3977
1071.14	16.1859
1074.51	13.245
1077.89	1.30664
1081.26	4.39075
1084.64	1.83106
1088.01	8.93249
1091.39	15.3547
1094.76	5.18241
1098.14	9.91626
1101.51	2.86914
1104.89	1.15466
1108.26	12.6526
1111.64	1.85095
1115.01	4.28345
1118.39	3.35877
1121.76	0.819702
1125.14	9.59448
1128.51	1.12451
1131.88	8.77905
1135.26	11.3945
1138.63	0.740601
1142.01	10.3606
1145.38	13.3169
1148.76	15.8424
1152.13	17.4337
1155.51	9.87793
1158.88	5.53357
1162.26	1.99609
1165.63	1.61975
1169.01	6.93762
1172.38	5.21802
1175.76	6.24731
1179.13	7.42236
1182.51	11.5783
1185.88	2.40149
1189.26	7.24683
1192.63	9.04334
1196.01	7.32654
1199.38	17.2042
1202.76	12.0795
1206.13	8.83972
1209.51	13.556
1212.88	24.2202
1216.26	29.0642
1219.63	22.2573
1223.01	19.1725
1226.38	12.4673
1229.76	18.9935
1233.13	1.56177
1236.51	1.71291
1239.88	6.09973
1243.25	7.2019
1246.63	20.6508
1250	9.2804
1253.38	10.8911
1256.75	7.33521
1260.13	8.57703
1263.5	11.1787
1266.88	15.8374
1270.25	11.7302
1273.63	8.58276
1277	5.95288
1280.38	10.604
1283.75	3.95044
1287.13	6.94507
1290.5	10.3458
1293.88	9.24878
1297.25	2.59033
1300.63	9.7334
1304	4.6687
