Measurement: Raman, 532 nm, unoriented, Raman Data Processed
Mineral: Cerussite
Rruff sample: R050011
Ideal chemistry: PbCO_3_
Locality: Daoping Lead and Zinc mine, Gongcheng, Guangxi, China
Source: Eugene Schlepp
Description: Colorless hexagonal bipyramidal crystals
Measured chemistry: Pb_1.00_CO_3_ ; CO_2_ not measured but estimated by difference and stoichiometry
Raman shift (cm-1)	intensity
123.145	0
126.52	73.2982
129.895	333.769
133.27	594.857
136.645	609.883
140.019	470.416
143.394	339.407
146.769	332.049
150.144	376.141
153.519	334.48
156.894	216.933
160.268	92.3113
163.643	102.36
167.018	146.23
170.393	201.189
173.768	233.569
177.143	282.726
180.517	263.512
183.892	236.633
187.267	250.754
190.642	341.264
194.017	463.652
197.391	649.356
200.766	852.609
204.141	1155.11
207.516	1459.72
210.891	1755.91
214.266	1913.69
217.64	1906.07
221.015	1932.26
224.39	1839.52
227.765	1652.45
231.14	1268.89
234.514	904.792
237.889	655.857
241.264	474.591
244.639	318.719
248.014	246.903
251.388	140.854
254.763	96.2212
258.138	40.7667
261.513	32.0228
264.888	19.5666
268.263	32.4659
271.637	16.7076
275.012	28.9994
278.387	3.30261
281.762	5.32825
285.137	21.3839
288.512	16.7996
291.886	46.0109
295.261	20.6617
298.636	27.1361
302.011	33.3839
305.386	39.1639
308.76	62.2806
312.135	85.4296
315.51	57.4103
318.885	42.9686
322.26	87.6921
325.635	67.3541
329.009	74.4559
332.384	56.8796
335.759	51.8378
339.134	61.9215
342.509	66.9394
345.883	56.3976
349.258	56.5121
352.633	59.7444
356.008	26.0508
359.383	52.9522
362.757	51.0555
366.132	53.2894
369.507	60.8474
372.882	8.0708
376.257	50.9028
379.632	10.4696
383.006	12.6289
386.381	24.0421
389.756	34.6867
393.131	11.8477
396.506	26.9434
399.88	42.0481
403.255	13.801
406.63	22.9102
410.005	10.687
413.38	27.5151
416.755	38.3275
420.129	36.0426
423.504	7.09375
426.879	34.7153
430.254	11.5761
433.629	23.813
437.003	14.7225
440.378	25.4492
443.753	8.04114
447.128	22.365
450.503	43.901
453.878	38.8195
457.252	23.3574
460.627	2.74683
464.002	16.8901
467.377	46.6893
470.752	14.7837
474.127	10.3475
477.501	37.3441
480.876	25.8899
484.251	33.8369
487.626	36.146
491.001	13.9282
494.375	25.344
497.75	5.75391
501.125	59.7937
504.5	15.8599
507.875	25.5935
511.25	8.53906
514.624	22.1318
517.999	2.07861
521.374	46.9228
524.749	34.4793
528.124	18.8833
531.498	18.1775
534.873	14.1721
538.248	11.0381
541.623	25.1523
544.998	3.2207
548.372	17.8435
551.747	13.3498
555.122	13.937
558.497	28.5774
561.872	48.344
565.247	13.1548
568.621	13.6179
571.996	7.33447
575.371	7.2207
578.746	20.5234
582.121	35.5591
585.495	8.32227
588.87	40.5911
592.245	9.2085
595.62	1.81811
598.995	42.5972
602.37	11.2878
605.744	40.2895
609.119	51.2261
612.494	12.8274
615.869	18.2991
619.244	39.217
622.619	36.1047
625.993	42.0303
629.368	44.1585
632.743	51.248
636.118	40.7419
639.493	18.3809
642.867	5.66138
646.242	30.6143
649.617	29.2895
652.992	37.8359
656.367	41.8352
659.741	56.6138
663.116	272.578
666.491	463.428
669.866	623.902
673.241	699.587
676.616	317.96
679.99	99.7124
683.365	72.1328
686.74	57.4473
690.115	22.5703
693.49	46.5022
696.865	36.5977
700.239	11.8984
703.614	8.66455
706.989	10.9373
710.364	2.74243
713.739	20.8496
717.113	40.6728
720.488	28.4851
723.863	82.9665
727.238	63.061
730.613	35.269
733.987	68.1394
737.362	53.2441
740.737	34.4548
744.112	23.3457
747.487	51.0027
750.862	14.2153
754.236	10.4817
757.611	7.0647
760.986	49.1135
764.361	11.2976
767.736	35.0786
771.111	21.8015
774.485	38.9082
777.86	24.5098
781.235	61.5056
784.61	78.6812
787.985	52.9297
791.359	38.6335
794.734	20.5767
798.109	54.0024
801.484	12.4146
804.859	46.2715
808.234	31.877
811.608	52.3
814.983	51.874
818.358	13.6997
821.733	75.741
825.108	144.777
828.482	224.045
831.857	353.071
835.232	597.09
838.607	646.56
841.982	230.067
845.356	89.4853
848.731	80.9085
852.106	22.3564
855.481	49.615
858.856	48.1445
862.231	27.8848
865.605	30.4058
868.98	62.4048
872.355	6.66821
875.73	3.52246
879.105	9.72363
882.48	26.7873
885.854	29.7219
889.229	6.64624
892.604	8.25024
895.979	6.927
899.354	35.6306
902.729	3.00488
906.103	11.9128
909.478	39.8728
912.853	14.416
916.228	13.1467
919.602	36.4343
922.977	32.4053
926.352	24.7146
929.727	71.6797
933.102	34.3342
936.477	62.8415
939.851	55.1523
943.226	93.9268
946.601	69.9248
949.976	73.4583
953.351	43.2947
956.726	45.531
960.1	94.551
963.475	28.5093
966.85	0.430664
970.225	38.9111
973.6	55.5364
976.974	8.56152
980.349	53.8127
983.724	33.9163
987.099	37.9578
990.474	32.1636
993.848	55.3147
997.223	11.1655
1000.6	0.586182
1003.97	12.6533
1007.35	17.0352
1010.72	29.9544
1014.1	0.830811
1017.47	5.67529
1020.85	5.41894
1024.22	100.575
1027.6	90.9831
1030.97	227.34
1034.35	183.64
1037.72	279.566
1041.1	577.782
1044.47	3473.44
1047.85	12535.4
1051.22	23011.9
1054.6	31870.9
1057.97	5905.05
1061.35	716.704
1064.72	274.39
1068.09	111.473
1071.47	71.2224
1074.84	8.5581
1078.22	13.7063
1081.59	20.4585
1084.97	37.0107
1088.34	20.9678
1091.72	46.2234
1095.09	42.0405
1098.47	56.5269
1101.84	38.6384
1105.22	35.6045
1108.59	7.94116
1111.97	8.90698
1115.34	20.9985
1118.72	23.1326
1122.09	29.8235
1125.47	18.2585
1128.84	6.6394
1132.22	41.8618
1135.59	58.9451
1138.97	67.9795
1142.34	63.7336
1145.71	54.8894
1149.09	90.4595
1152.46	71.8652
1155.84	58.4812
1159.21	95.5205
1162.59	96.7705
1165.96	41.2664
1169.34	79.4429
1172.71	71.9951
1176.09	67.4189
1179.46	55.6807
1182.84	88.2729
1186.21	74.9795
1189.59	61.0786
1192.96	75.2031
1196.34	85.9385
1199.71	63.1792
1203.09	46.1187
1206.46	66.1343
1209.84	68.6753
1213.21	36.7793
1216.59	55.6587
1219.96	74.8687
1223.34	30.8159
1226.71	0.388672
1230.09	16.4751
1233.46	36.1929
1236.84	2.11523
1240.21	8.16065
1243.59	0.522949
1246.96	44.1123
1250.34	45.2515
1253.71	43.5952
1257.08	64.1035
1260.46	12.4253
1263.83	50.1875
1267.21	75.9922
1270.58	59.8467
1273.96	58.6816
1277.33	57.666
1280.71	7.60742
1284.08	93.0117
1287.46	79.1235
1290.83	19.5171
1294.21	0.389648
1297.58	15.4146
