Measurement: Raman, 514 nm, unoriented, Raman Data Processed
Mineral: Cerussite
Rruff sample: R050011
Ideal chemistry: PbCO_3_
Locality: Daoping Lead and Zinc mine, Gongcheng, Guangxi, China
Source: Eugene Schlepp
Description: Colorless hexagonal bipyramidal crystals
Measured chemistry: Pb_1.00_CO_3_ ; CO_2_ not measured but estimated by difference and stoichiometry
Raman shift (cm-1)	intensity
54.266	0
58.464	29.299
62.661	2.199
66.856	114.376
71.048	188.491
75.239	377.584
79.427	492.122
83.614	719.153
87.798	1064.73
91.981	1540.57
96.161	2286.78
100.34	3363.55
104.516	3919.14
108.691	2970.1
112.864	2313.13
117.034	2474
121.203	2963.54
125.369	4180.73
129.534	5858.46
133.696	6824.41
137.857	5981.57
142.016	4591.04
146.172	3791.76
150.327	3418.92
154.48	2916.61
158.63	2245.91
162.779	1887
166.926	1638.66
171.07	1630.9
175.213	1659.68
179.354	1550.93
183.493	1382.69
187.63	1158.74
191.765	969.352
195.898	856.692
200.029	780.914
204.158	756.106
208.285	746.92
212.41	696.97
216.533	643.112
220.654	603.74
224.773	549.923
228.891	552.587
233.006	518.674
237.119	462.946
241.231	470.241
245.34	444.346
249.448	381.412
253.553	374.004
257.657	258.043
261.758	204.31
265.858	202.563
269.956	151.506
274.052	131.639
278.146	94.983
282.237	91.272
286.327	81.878
290.416	76.891
294.502	86.2
298.586	60.776
302.668	60.994
306.749	33.157
310.827	42.109
314.903	22.856
318.978	1.566
323.051	5.026
327.121	28.151
331.19	6.505
335.257	16.741
339.322	15.594
343.385	18.335
347.446	15.292
351.505	10.636
355.563	15.725
359.618	9.976
363.672	17.484
367.723	17.307
371.773	11.18
375.821	24.13
379.866	27.469
383.91	21.1
387.952	7.266
391.992	14.502
396.031	7.79
400.067	4.245
404.101	25.351
408.134	25.252
412.165	32.437
416.193	12.378
420.22	37.004
424.245	26.508
428.268	22.061
432.289	16.904
436.309	42.703
440.326	2.706
444.342	6.607
448.355	3.865
452.367	46.504
456.377	50.684
460.385	23.47
464.391	39.955
468.395	72.102
472.398	88.66
476.398	38.43
480.397	86.322
484.394	62.68
488.389	78.294
492.382	66.344
496.373	100.837
500.362	69.521
504.349	79.99
508.335	35.236
512.319	50.335
516.3	95.499
520.28	103.583
524.259	96.877
528.235	42.599
532.209	81.544
536.182	80.442
540.152	53.625
544.121	112.112
548.088	69.906
552.053	54.538
556.017	38.095
559.978	64.299
563.938	59.109
567.895	96.769
571.851	9.527
575.805	87.177
579.758	43.48
583.708	15.322
587.657	48.706
591.603	49.592
595.548	65.707
599.491	15.239
603.432	61.434
607.372	35.3
611.309	83.134
615.245	44.358
619.179	92.493
623.111	5.574
627.041	84.465
630.97	18.694
634.896	76.931
638.821	72.93
642.744	99.721
646.665	87.442
650.584	42.297
654.502	73.994
658.418	72.459
662.331	39.669
666.244	63.692
670.154	94.875
674.062	162.01
677.969	192.997
681.874	508.603
685.777	363.534
689.678	60.321
693.577	91.222
697.475	108.404
701.371	71.64
705.265	16.873
709.157	11.896
713.047	23.13
716.936	60.78
720.823	57.258
724.708	67.653
728.591	89.932
732.472	72.1
736.352	40.21
740.23	21.639
744.106	49.51
747.98	70.956
751.853	23.649
755.723	0.337
759.592	35.217
763.459	7.93
767.325	6.584
771.188	53.227
775.05	113.364
778.91	42.533
782.768	49.215
786.625	62.695
790.479	54.264
794.332	116.704
798.183	27.22
802.033	34.469
805.88	50.599
809.726	92.788
813.57	75.471
817.413	88.687
821.253	135.865
825.092	247.271
828.929	231.696
832.764	503.022
836.598	2078.28
840.429	3261.55
844.259	702.803
848.088	154.051
851.914	110.391
855.739	22.465
859.562	83.77
863.383	22.726
867.203	46.054
871.02	30.839
874.836	1.004
878.65	16.331
882.463	59.719
886.274	25.826
890.083	42.572
893.89	61.688
897.695	80.836
901.499	22.341
905.301	56.665
909.102	56.289
912.9	90.378
916.697	63.686
920.492	99.012
924.285	52.051
928.077	36.469
931.867	65.985
935.655	1.486
939.442	63.896
943.226	54.148
947.009	25.491
950.791	73.881
954.57	85.411
958.348	99.658
962.124	56.969
965.899	95.299
969.671	57.106
973.442	57.752
977.211	105.124
980.979	195.812
984.745	104.825
988.509	93.124
992.271	73.086
996.032	100.8
999.791	206.484
1003.55	63.366
1007.3	114.382
1011.06	185.529
1014.81	162.714
1018.56	188.886
1022.31	133.765
1026.06	216.754
1029.8	290.995
1033.55	426.329
1037.29	245.058
1041.03	362.103
1044.77	555.366
1048.5	1163.61
1052.24	6150.63
1055.97	53981.3
1059.7	7250.57
1063.43	1120.25
1067.16	465.626
1070.89	328.495
1074.61	230.011
1078.34	117.222
1082.06	197.123
1085.78	197.664
1089.5	190.931
1093.21	139.543
1096.93	166.189
1100.64	161.79
1104.35	88.788
1108.06	101.644
1111.77	126.759
1115.48	131.248
1119.18	118.445
1122.89	124.878
1126.59	136.864
1130.29	68.526
1133.99	30.829
1137.68	68.259
1141.38	60.535
1145.07	68.277
1148.76	45.84
1152.45	8.422
1156.14	34.915
1159.83	16.284
1163.51	5.705
1167.19	32.106
1170.88	8.253
1174.56	13.861
1178.23	40.221
1181.91	43.044
1185.59	42.589
1189.26	42.927
1192.93	15.058
1196.6	53.009
1200.27	59.781
1203.94	58.351
1207.6	16.643
1211.27	40.694
1214.93	25.569
1218.59	18.277
1222.25	21.822
1225.9	37.214
1229.56	57.429
1233.21	3.599
1236.86	29.598
1240.51	24.472
1244.16	11.811
1247.81	18.338
1251.45	79.834
1255.1	42.553
1258.74	29.657
1262.38	21.071
1266.02	3.974
1269.66	26.969
1273.29	63.037
1276.93	6.545
1280.56	33.321
1284.19	36.123
1287.82	61.864
1291.45	31.255
1295.07	24.352
1298.7	8.205
1302.32	78.555
1305.94	111.23
1309.56	99.798
1313.18	152.454
1316.8	150.942
1320.41	81.804
1324.02	57.497
1327.63	162.301
1331.24	67.565
1334.85	85.104
1338.46	156.364
1342.06	151.082
1345.67	161.658
1349.27	172.423
1352.87	294.343
1356.47	493.256
1360.07	730.182
1363.66	974.584
1367.25	1300.63
1370.85	1642.18
1374.44	2284.27
1378.03	2925.34
1381.61	2841.74
1385.2	1965.65
1388.78	1172.16
1392.37	730.464
1395.95	546.089
1399.53	295.692
1403.1	244.763
1406.68	183.705
1410.26	214.71
1413.83	368.585
1417.4	348.228
1420.97	422.307
1424.54	344.514
1428.1	352.031
1431.67	349.767
1435.23	328.585
1438.8	385.556
1442.36	312.837
1445.91	399.213
1449.47	316.627
1453.03	588.949
1456.58	706.164
1460.13	869.849
1463.68	961.189
1467.23	1164.04
1470.78	1363.5
1474.33	1512.58
1477.87	1665.24
1481.42	1649.55
1484.96	1631.61
1488.5	1310.55
1492.04	1039.67
1495.57	817.263
1499.11	410.575
1502.64	348.975
1506.17	169.068
1509.71	49.67
1513.23	1.542
1516.76	17.568
1520.29	51.63
1523.81	48.547
