Measurement: Raman, 785 nm, unoriented, Raman Data Processed
Mineral: Cerussite
Rruff sample: R050011
Ideal chemistry: PbCO_3_
Locality: Daoping Lead and Zinc mine, Gongcheng, Guangxi, China
Source: Eugene Schlepp
Description: Colorless hexagonal bipyramidal crystals
Measured chemistry: Pb_1.00_CO_3_ ; CO_2_ not measured but estimated by difference and stoichiometry
Raman shift (cm-1)	intensity
80.5216	0
83.4143	11.7767
86.307	32.1279
89.1997	55.4715
92.0924	76.0577
94.9851	100.288
97.8778	140.282
100.77	154.501
103.663	106.836
106.556	66.0937
109.449	25.0196
112.341	14.5778
115.234	18.9823
118.127	32.7032
121.019	22.8404
123.912	56.2364
126.805	137.886
129.697	233.21
132.59	253.817
135.483	192.293
138.376	170.748
141.268	277.668
144.161	411.359
147.054	522.447
149.946	511.819
152.839	437.334
155.732	384.891
158.625	353.676
161.517	364.761
164.41	379.179
167.303	422.025
170.195	447.954
173.088	430.848
175.981	437.353
178.873	450.011
181.766	451.753
184.659	413.214
187.552	443.399
190.444	377.814
193.337	383.215
196.23	439.462
199.122	439.521
202.015	496.494
204.908	576.115
207.8	673.351
210.693	819.27
213.586	922.715
216.478	1020.91
219.371	1044.36
222.264	1118.99
225.157	1117.48
228.049	1048.72
230.942	884.985
233.835	786.593
236.727	649.761
239.62	648.872
242.513	706.182
245.405	724.435
248.298	801.28
251.191	853.967
254.084	853.995
256.976	838.457
259.869	760.085
262.762	641.476
265.654	476.764
268.547	356.223
271.44	249.78
274.332	175.367
277.225	115.632
280.118	97.9595
283.011	68.1982
285.903	51.8657
288.796	30.6887
291.689	-3.56391
294.581	0.547751
297.474	5.91316
300.367	8.04173
303.26	8.10846
306.152	1.28457
309.045	29.9567
311.938	62.2201
314.83	144.751
317.723	210.671
320.616	322.005
323.508	439.801
326.401	547.602
329.294	657.731
332.187	694.713
335.079	709.105
337.972	704.612
340.865	715.492
343.757	771.614
346.65	821.021
349.543	853.403
352.435	941.332
355.328	939.702
358.221	931.579
361.113	859.956
364.006	750.471
366.899	635.805
369.792	496.418
372.684	413.806
375.577	348.698
378.47	259.712
381.362	207.555
384.255	157.146
387.148	137.896
390.041	80.479
392.933	66.487
395.826	50.9199
398.719	34.1079
401.611	21.0796
404.504	10.6012
407.397	0.756775
410.289	2.75378
413.182	3.19904
416.075	5.97217
418.967	11.1418
421.86	12.806
424.753	27.7591
427.646	42.2129
430.538	41.6698
433.431	73.6555
436.324	86.8784
439.216	110.214
442.109	113.842
445.002	128.884
447.894	118.363
450.787	176.166
453.68	187.018
456.573	223.006
459.465	213.648
462.358	225.831
465.251	207.92
468.143	199.49
471.036	196.301
473.929	145.098
476.822	131.845
479.714	107.374
482.607	110.674
485.5	76.707
488.392	73.8019
491.285	47.8276
494.178	70.4403
497.07	58.7396
499.963	57.1255
502.856	51.3009
505.748	49.7404
508.641	53.2123
511.534	50.87
514.427	50.196
517.319	39.1265
520.212	49.9947
523.105	15.1038
525.997	1.4169
528.89	9.16904
531.783	7.74884
534.676	1.4017
537.568	10.5426
540.461	8.49085
543.354	4.84808
546.246	1.94836
549.139	7.48669
552.032	2.95798
554.924	18.0914
557.817	11.1731
560.71	17.2856
563.602	7.71622
566.495	34.8602
569.388	18.4281
572.281	24.0427
575.173	32.7244
578.066	47.4483
580.959	40.9589
583.851	54.2068
586.744	52.267
589.637	57.1172
592.529	65.3342
595.422	56.1507
598.315	51.6555
601.208	39.3041
604.1	20.7062
606.993	6.056
609.886	11.0446
612.778	10.1688
615.671	8.91016
618.564	0.998505
621.457	3.58716
624.349	7.10141
627.242	1.15707
630.135	20.4865
633.027	17.439
635.92	23.0256
638.813	40.1568
641.705	57.3997
644.598	79.7557
647.491	86.7151
650.384	98.0905
653.276	140.056
656.169	165.435
659.062	226.148
661.954	283.244
664.847	364.911
667.74	468.892
670.632	558.282
673.525	539.326
676.418	339.26
679.311	182.717
682.203	144.408
685.096	93.3699
687.989	59.4223
690.881	49.8603
693.774	41.1998
696.667	18.8153
699.559	14.4633
702.452	12.8008
705.345	24.4771
708.237	21.7179
711.13	22.9643
714.023	40.2216
716.916	42.2746
719.808	37.3807
722.701	32.3334
725.594	34.1895
728.486	33.3854
731.379	10.863
734.272	9.80432
737.164	14.8762
740.057	5.96463
742.95	7.07355
745.843	28.7779
748.735	20.7699
751.628	24.5534
754.521	27.5998
757.413	38.7924
760.306	58.4731
763.199	48.6118
766.091	46.6157
768.984	44.2927
771.877	33.7382
774.77	27.8876
777.662	22.1231
780.555	13.2731
783.448	15.4085
786.34	28.553
789.233	26.4155
792.126	23.1793
795.019	19.426
797.911	20.9509
800.804	2.91553
803.697	28.4662
806.589	2.1019
809.482	10.8368
812.375	6.72162
815.267	11.7146
818.16	1.45813
821.053	14.0667
823.946	5.67883
826.838	27.7753
829.731	31.3274
832.624	85.0739
835.516	129.073
838.409	153.154
841.302	83.9899
844.194	51.7043
847.087	74.8913
849.98	78.1853
852.872	86.3479
855.765	98.4723
858.658	135.616
861.551	145.112
864.443	146.522
867.336	141.801
870.229	141.439
873.121	118.798
876.014	103.183
878.907	91.9004
881.799	56.2173
884.692	23.7722
887.585	15.5868
890.478	30.043
893.37	12.3027
896.263	28.0345
899.156	28.909
902.048	42.1666
904.941	10.8051
907.834	2.64154
910.726	24.4512
913.619	28.4534
916.512	36.3024
919.405	14.1193
922.297	24.7443
925.19	17.9928
928.083	13.0951
930.975	19.9281
933.868	54.2148
936.761	15.2889
939.654	11.4248
942.546	16.3927
945.439	2.72961
948.332	9.99609
951.224	1.57703
954.117	1.1084
957.01	7.83496
959.902	7.22815
962.795	28.853
965.688	16.2191
968.581	16.5885
971.473	36.6449
974.366	15.9878
977.259	18.2792
980.151	40.1075
983.044	41.7219
985.937	36.6328
988.829	25.8201
991.722	38.3844
994.615	38.1783
997.508	55.1299
1000.4	5.17798
1003.29	16.2012
1006.19	6.12988
1009.08	15.4226
1011.97	21.4187
1014.86	14.0381
1017.76	7.75488
1020.65	1.30689
1023.54	4.7395
1026.43	15.9497
1029.33	20.0259
1032.22	39.3337
1035.11	49.0725
1038.01	52.626
1040.9	112.596
1043.79	272.124
1046.68	1201.51
1049.58	2610.43
1052.47	6718.48
1055.36	5360.73
1058.25	1370.57
1061.15	290.081
1064.04	147.949
1066.93	177.85
1069.83	199.727
1072.72	314.773
1075.61	399.704
1078.5	570.054
1081.4	682.574
1084.29	862.792
1087.18	1045.7
1090.07	1240.86
1092.97	1467.68
1095.86	1697.64
1098.75	1837.2
1101.64	2026.55
1104.54	2090.52
1107.43	2016.68
1110.32	1979.97
1113.21	1766.03
1116.11	1534.51
1119	1283
1121.89	1035.15
1124.79	762.609
1127.68	541.413
1130.57	347.65
1133.46	177.487
1136.36	17.5811
1139.25	9.36816
1142.14	51.3174
1145.04	75.7978
1147.93	30.8398
1150.82	33.4678
1153.71	13.4316
1156.61	106.978
1159.5	322.159
1162.39	422.423
1165.28	651.886
1168.18	927.153
1171.07	1252.42
1173.96	1541.18
1176.86	1851.2
1179.75	2251.36
1182.64	2327.64
1185.53	2411.77
1188.43	2400.15
1191.32	2383.47
1194.21	2330.16
1197.1	2367.98
1200	2308.3
1202.89	2299.91
1205.78	2060.72
1208.67	1837.45
1211.57	1491.17
1214.46	1046.73
1217.35	637.155
1220.24	299.446
1223.14	22.6992
1226.03	23.1602
