Measurement: Raman, 514 nm, unoriented, Raman Data Processed
Mineral: Cerussite
Rruff sample: R040069
Ideal chemistry: PbCO_3_
Locality: Broken Hill, New South Wales, Australia
Source: University of Arizona Mineral Museum
Description: Reticulated composite of colorless tabular crystals
Measured chemistry: Pb_1.04_C_0.98_O_3_
Raman shift (cm-1)	intensity
112.864	0
117.034	52.811
121.203	316.184
125.369	784.875
129.534	1294.46
133.696	1169.83
137.857	784.762
142.016	502.191
146.172	339.054
150.327	200.712
154.48	71.039
158.63	16.151
162.779	14.638
166.926	15.328
171.07	27.452
175.213	56.392
179.354	101.35
183.493	145.318
187.63	227.504
191.765	389.645
195.898	596.195
200.029	810.74
204.158	1137.67
208.285	1503.64
212.41	1625.73
216.533	1521.71
220.654	1115
224.773	767.201
228.891	540.719
233.006	444.345
237.119	282.713
241.231	284.337
245.34	183.336
249.448	139.703
253.553	104.289
257.657	76.08
261.758	46.3
265.858	56.056
269.956	17.129
274.052	4.534
278.146	4.165
282.237	5.572
286.327	8.332
290.416	11.829
294.502	1.323
298.586	17.138
302.668	6.338
306.749	4.695
310.827	18.364
314.903	2.631
318.978	3.798
323.051	7.873
327.121	6.123
331.19	11.182
335.257	3.032
339.322	3.681
343.385	4.454
347.446	0.899
351.505	5.749
355.563	14.143
359.618	33.218
363.672	31.859
367.723	35.113
371.773	31.034
375.821	37.739
379.866	27.162
383.91	50.208
387.952	44.063
391.992	53.682
396.031	61.189
400.067	58.369
404.101	68.411
408.134	69.283
412.165	75.723
416.193	72.534
420.22	90.831
424.245	72.618
428.268	88.055
432.289	86.933
436.309	86.738
440.326	68.304
444.342	74.83
448.355	73.923
452.367	72.999
456.377	74.478
460.385	56.35
464.391	74.042
468.395	79.713
472.398	65.927
476.398	69.421
480.397	82.982
484.394	55.783
488.389	58.026
492.382	70.541
496.373	74.889
500.362	53.363
504.349	49.326
508.335	47.817
512.319	36.271
516.3	39.825
520.28	51.387
524.259	39.869
528.235	25.368
532.209	25.804
536.182	25.296
540.152	38.624
544.121	23.529
548.088	24.423
552.053	20.927
556.017	19.41
559.978	32.874
563.938	29.324
567.895	13.726
571.851	29.111
575.805	23.505
579.758	11.985
583.708	33.47
587.657	22.106
591.603	16.73
595.548	21.295
599.491	15.878
603.432	12.719
607.372	15.626
611.309	21.527
615.245	41.337
619.179	45.068
623.111	52.846
627.041	30.685
630.97	44.57
634.896	19.489
638.821	30.419
642.744	34.646
646.665	12.63
650.584	6.911
654.502	9.896
658.418	10.457
662.331	16.446
666.244	42.403
670.154	215.406
674.062	606.421
677.969	150.42
681.874	124.443
685.777	14.43
689.678	15.481
693.577	1.544
697.475	12.504
701.371	7.535
705.265	1.417
709.157	8.633
713.047	20.602
716.936	4.118
720.823	32.207
724.708	32.251
728.591	62.504
732.472	35.722
736.352	9.364
740.23	22.709
744.106	26.065
747.98	16.626
751.853	14.932
755.723	0.003
759.592	1.081
763.459	2.728
767.325	27.834
771.188	17.212
775.05	19.66
778.91	6.135
782.768	24.548
786.625	22.034
790.479	16.466
794.332	10.909
798.183	22.356
802.033	5.429
805.88	13.146
809.726	10.4
813.57	7.485
817.413	10.954
821.253	20.897
825.092	49.384
828.929	44.88
832.764	122.384
836.598	710.899
840.429	466.422
844.259	98.957
848.088	44.342
851.914	19.402
855.739	34.944
859.562	18.922
863.383	31.474
867.203	4.991
871.02	10.647
874.836	16.305
878.65	8.988
882.463	21.682
886.274	11.384
890.083	18.089
893.89	3.798
897.695	2.488
901.499	32.225
905.301	5.945
909.102	0.37
912.9	3.129
916.697	13.482
920.492	35.095
924.285	14.827
928.077	1.562
931.867	29.298
935.655	2.039
939.442	12.698
943.226	11.445
947.009	22.195
950.791	13.641
954.57	21.069
958.348	22.832
962.124	5.029
965.899	13.888
969.671	6.351
973.442	11.402
977.211	29.158
980.979	20.918
984.745	42.681
988.509	43.495
992.271	57.531
996.032	60.304
999.791	34.081
1003.55	36.087
1007.3	37.201
1011.06	68.328
1014.81	67.619
1018.56	56.344
1022.31	65.654
1026.06	103.889
1029.8	184.19
1033.55	177.223
1037.29	158.031
1041.03	257.82
1044.77	398.712
1048.5	1064.22
1052.24	11368.2
1055.97	29628.1
1059.7	1620.95
1063.43	425.039
1067.16	212.838
1070.89	117.717
1074.61	93.525
1078.34	96.202
1082.06	66.011
1085.78	60.756
1089.5	56.566
1093.21	55.376
1096.93	46.187
1100.64	46.003
1104.35	60.822
1108.06	32.522
1111.77	25.344
1115.48	24.746
1119.18	12.111
1122.89	31.942
1126.59	43.775
1130.29	30.609
1133.99	2.446
1137.68	30.283
1141.38	9.119
1145.07	9.953
1148.76	10.79
1152.45	10.626
1156.14	20.544
1159.83	13.251
1163.51	3.045
1167.19	2.182
1170.88	9.428
1174.56	7.7
1178.23	7.005
1181.91	44.71
1185.59	4.582
1189.26	19.127
1192.93	5.838
1196.6	0.555
1200.27	7.276
1203.94	14.002
1207.6	8.255
1211.27	6.486
1214.93	5.761
1218.59	6.997
1222.25	20.766
1225.9	10.546
1229.56	4.344
1233.21	11.155
1236.86	23.979
1240.51	7.816
1244.16	32.664
1247.81	22.518
1251.45	11.377
1255.1	26.244
1258.74	22.118
1262.38	29.904
1266.02	15.8
1269.66	18.706
1273.29	41.621
1276.93	38.545
1280.56	53.432
1284.19	60.377
1287.82	85.068
1291.45	53.039
1295.07	82.024
1298.7	82.801
1302.32	120.166
1305.94	116.198
1309.56	162.749
1313.18	194.359
1316.8	210.541
1320.41	212.328
1324.02	209.454
1327.63	246.36
1331.24	229.24
1334.85	260.327
1338.46	243.381
1342.06	269.626
1345.67	291.75
1349.27	383.012
1352.87	486.938
1356.47	657.334
1360.07	901.726
1363.66	1079.25
1367.25	1086.79
1370.85	1025.72
1374.44	1036.45
1378.03	1180.14
1381.61	937.78
1385.2	683.503
1388.78	445.734
1392.37	265.951
1395.95	197.19
1399.53	133.451
1403.1	123.733
1406.68	96.038
1410.26	96.373
1413.83	102.734
1417.4	105.157
1420.97	118.653
1424.54	134.25
1428.1	104.944
1431.67	106.689
1435.23	80.489
1438.8	98.34
1442.36	95.244
1445.91	64.193
1449.47	42.18
1453.03	58.174
1456.58	72.188
1460.13	48.246
1463.68	64.392
1467.23	47.636
1470.78	64.988
1474.33	70.461
1477.87	63.055
1481.42	39.77
1484.96	43.615
1488.5	64.603
1492.04	25.761
1495.57	25.131
1499.11	6.248
1502.64	10.66
1506.17	18.903
1509.71	10.559
1513.23	25.733
1516.76	34.275
1520.29	22.146
1523.81	25.937
1527.34	0
