Measurement: Raman, 532 nm, unoriented, Raman Data Processed
Mineral: Cerussite
Rruff sample: R050174
Ideal chemistry: PbCO_3_
Locality: Tsumeb mine, Tsumeb, Otavi District, Oshikoto, Namibia
Source: Marcus Origlieri
Description: Colorless single crystal
Measured chemistry: Pb_1.00_CO_3_ ; C not measured but estimated by difference and stoichiometry
Raman shift (cm-1)	intensity
140.541	0
143.916	342.994
147.29	1905.72
150.665	3834.51
154.04	4567.69
157.415	3155.61
160.79	1571.13
164.164	1297.82
167.539	2294.32
170.914	4025.84
174.289	5203.51
177.664	5271.19
181.038	3988.03
184.413	2279.98
187.788	915.085
191.163	106.953
194.538	184.842
197.913	132.507
201.287	173.171
204.662	632.795
208.037	1193.66
211.412	1791.2
214.787	2193.51
218.161	2075.62
221.536	1702.71
224.911	1421.49
228.286	1323.83
231.661	1344.5
235.036	1463.78
238.41	1710.55
241.785	1973.73
245.16	2029.32
248.535	1759.41
251.91	1258.44
255.284	681.557
258.659	340.263
262.034	118.231
265.409	15.707
268.784	37.4651
272.159	15.6794
275.533	4.3811
278.908	17.302
282.283	35.3201
285.658	103.881
289.033	146.075
292.407	178.856
295.782	218.538
299.157	232.025
302.532	258.838
305.907	280.139
309.281	300.845
312.656	332.36
316.031	348.116
319.406	342.119
322.781	343.148
326.156	317.154
329.53	280.285
332.905	278.038
336.28	236.424
339.655	225.004
343.03	219.203
346.404	192.105
349.779	177.266
353.154	186.263
356.529	154.732
359.904	140.45
363.279	142.033
366.653	101.265
370.028	105.421
373.403	73.4263
376.778	75.4661
380.153	47.6873
383.527	59.6643
386.902	37.8792
390.277	5.04883
393.652	22.3359
397.027	6.05029
400.402	7.90723
403.776	1.64038
407.151	0.650635
410.526	10.9702
413.901	4.26782
417.276	7.09766
420.65	1.11816
424.025	21.8191
427.4	7.14185
430.775	2.59766
434.15	16.8628
437.524	2.00562
440.899	2.75244
444.274	6.15527
447.649	16.3169
451.024	6.94629
454.399	7.64331
457.773	12.7998
461.148	3.25537
464.523	21.7922
467.898	21.563
471.273	29.554
474.647	48.9277
478.022	65.4356
481.397	63.5569
484.772	78.5298
488.147	40.4321
491.522	77.8823
494.896	70.9382
498.271	99.1775
501.646	54.0413
505.021	21.4456
508.396	33.6504
511.771	32.551
515.145	43.3806
518.52	46.2048
521.895	11.0137
525.27	15.7073
528.644	21.3855
532.019	0.304443
535.394	23.5083
538.769	8.44971
542.144	0.619629
545.519	0.458984
548.893	8.88525
552.268	15.4175
555.643	18.4194
559.018	18.114
562.393	25.3462
565.768	10.0842
569.142	12.346
572.517	27.7383
575.892	48.9377
579.267	34.96
582.642	33.7617
586.016	40.2419
589.391	56.7205
592.766	24.4392
596.141	30.2036
599.516	30.5164
602.89	6.60889
606.265	3.64624
609.64	6.08325
613.015	53.334
616.39	32.9333
619.765	80.5469
623.139	57.1685
626.514	83.0286
629.889	89.2156
633.264	97.8581
636.639	57.5691
640.014	46.8023
643.388	19.1335
646.763	9.78003
650.138	25.2459
653.513	14.9233
656.888	21.3919
660.262	84.4805
663.637	165.617
667.012	281.926
670.387	691.246
673.762	1272.79
677.136	892.577
680.511	417.964
683.886	533.034
687.261	244.999
690.636	446.125
694.011	1007
697.385	1028.59
700.76	81.0913
704.135	1.87524
707.51	5.27319
710.885	9.43091
714.259	15.4363
717.634	37.7812
721.009	75.9458
724.384	93.426
727.759	98.6628
731.134	89.2068
734.508	58.6548
737.883	65.8296
741.258	42.5588
744.633	8.04492
748.008	27.8696
751.382	6.11182
754.757	25.9739
758.132	2.91846
761.507	12.0361
764.882	14.8992
768.256	38.011
771.631	47.9109
775.006	59.8547
778.381	47.8093
781.756	44.3628
785.131	17.0806
788.505	37.3096
791.88	24.2881
795.255	12.106
798.63	0.576416
802.005	21.5032
805.38	22.1289
808.754	15.9436
812.129	24.0195
815.504	14.1977
818.879	45.6606
822.254	114.825
825.628	292.981
829.003	334.44
832.378	622.716
835.753	1532.34
839.128	2839.33
842.502	735.312
845.877	207.258
849.252	80.6587
852.627	43.3901
856.002	35.6077
859.376	31.4243
862.751	16.2324
866.126	4.87476
869.501	13.4153
872.876	24.4199
876.251	23.6509
879.625	18.8096
883	3.25098
886.375	18.0923
889.75	5.83106
893.125	1.54858
896.5	9.25488
899.874	24.3403
903.249	12.4797
906.624	17.9873
909.999	40.2783
913.374	34.1208
916.748	35.0017
920.123	37.6306
923.498	29.9624
926.873	30.0627
930.248	30.1748
933.622	15.6443
936.997	58.5034
940.372	38.1204
943.747	23.6773
947.122	44.8689
950.497	10.2683
953.871	5.77246
957.246	2.37109
960.621	0.859863
963.996	6.31226
967.371	15.3855
970.745	0.283691
974.12	25.4158
977.495	6.07275
980.87	18.5979
984.245	1.58887
987.62	8.19971
990.994	46.127
994.369	40.77
997.744	45.1208
1001.12	46.3906
1004.49	52.0264
1007.87	19.1729
1011.24	30.0869
1014.62	48.2383
1017.99	71.5415
1021.37	82.4795
1024.74	124.37
1028.12	180.967
1031.49	553.731
1034.87	306.68
1038.24	478.72
1041.62	2125.34
1044.99	6870.7
1048.37	11009.6
1051.74	28081.7
1055.12	108626
1058.49	13504.6
1061.87	1708.24
1065.24	655.96
1068.62	355.523
1071.99	177.676
1075.37	95.8731
1078.74	70.6904
1082.11	50.4116
1085.49	26.1309
1088.86	36.7637
1092.24	21.4209
1095.61	20.4238
1098.99	33.5347
1102.36	41.5581
1105.74	30.7905
1109.11	26.7588
1112.49	25.7388
1115.86	40.4824
1119.24	17.2749
1122.61	14.8452
1125.99	2.69287
1129.36	0.467285
1132.74	8.98145
1136.11	2.76611
1139.49	35.3945
1142.86	16.8916
1146.24	14.9033
1149.61	30.1343
1152.98	18.1069
1156.36	14.2529
1159.73	23.9819
1163.11	35.0225
1166.48	21.4936
1169.86	23.1431
1173.23	19.7549
1176.61	15.1367
1179.98	33.0859
1183.36	14.0615
1186.73	32.4077
1190.11	30.9785
1193.48	32.3355
1196.86	29.4795
1200.23	43.6977
1203.61	40.9951
1206.98	52.7671
1210.36	40.5772
1213.73	47.9898
1217.11	40.7412
1220.48	71.6421
1223.86	65.105
1227.23	48.6377
1230.61	6.26123
1233.98	19.0679
1237.36	23.5435
1240.73	11.3447
1244.11	28.352
1247.48	19.3892
1250.86	5.34375
1254.23	15.2656
1257.61	11.2983
1260.98	30.7285
1264.35	45.8628
1267.73	22.3438
1271.1	27.5723
1274.48	25.3384
1277.85	24.4683
1281.23	7.97803
1284.6	23.5991
1287.98	25.7686
1291.35	20.3696
1294.73	32.1382
1298.1	37.7832
1301.48	15.2446
1304.85	10.3149
