Measurement: Raman, 532 nm, unoriented, Raman Data Processed
Mineral: Cerussite
Rruff sample: R040069
Ideal chemistry: PbCO_3_
Locality: Broken Hill, New South Wales, Australia
Source: University of Arizona Mineral Museum
Description: Reticulated composite of colorless tabular crystals
Measured chemistry: Pb_1.04_C_0.98_O_3_
Raman shift (cm-1)	intensity
121.04	0
124.415	230.362
127.79	926.972
131.165	1423.86
134.539	1665.62
137.914	2087.83
141.289	3052.65
144.664	4284.92
148.038	4851.57
151.413	4407.57
154.788	3245.46
158.163	2047.31
161.538	1551.23
164.913	1512.35
168.287	1765.77
171.662	2238.82
175.037	2438.66
178.412	2106.11
181.787	1347.47
185.161	683.793
188.536	179.745
191.911	53.5149
195.286	120.394
198.661	73.7832
202.036	79.3408
205.41	286.156
208.785	527.486
212.16	685.851
215.535	780.564
218.91	693.898
222.284	630.102
225.659	627.773
229.034	578.405
232.409	508.188
235.784	506.352
239.159	586.068
242.533	558.343
245.908	526.279
249.283	388.497
252.658	229.507
256.033	68.6546
259.407	16.5104
262.782	11.8475
266.157	23.1051
269.532	0.248718
272.907	9.74109
276.281	21.7181
279.656	28.8355
283.031	53.2415
286.406	62.7424
289.781	86.8862
293.156	121.155
296.53	125.112
299.905	164.803
303.28	175.037
306.655	198.346
310.03	184.269
313.404	213.339
316.779	206.26
320.154	217.858
323.529	210.161
326.904	198.478
330.279	180.282
333.653	146.413
337.028	145.848
340.403	121.443
343.778	127.85
347.153	116.541
350.527	120.428
353.902	107.304
357.277	107.856
360.652	98.6136
364.027	83.6328
367.401	73.4827
370.776	91.8733
374.151	72.4335
377.526	49.6179
380.901	44.5508
384.276	47.1592
387.65	36.3677
391.025	25.896
394.4	18.4203
397.775	20.6482
401.15	22.3594
404.524	12.2817
407.899	18.6873
411.274	8.23982
414.649	2.68356
418.024	4.06348
421.399	6.2901
424.773	7.76605
428.148	3.71936
431.523	3.52451
434.898	5.70361
438.273	2.78381
441.647	2.03883
445.022	2.0639
448.397	0.581055
451.772	7.08263
455.147	4.52878
458.522	0.294876
461.896	1.85239
465.271	1.92291
468.646	3.62424
472.021	15.4134
475.396	14.6867
478.77	21.525
482.145	25.8455
485.52	37.247
488.895	20.13
492.27	31.3524
495.644	30.8714
499.019	28.3552
502.394	21.3026
505.769	20.2084
509.144	18.7842
512.519	4.94867
515.893	16.9642
519.268	13.8189
522.643	15.0587
526.018	0.54184
529.393	10.039
532.767	8.0316
536.142	0.239685
539.517	4.43594
542.892	4.40897
546.267	7.95607
549.641	6.26328
553.016	6.7953
556.391	7.93219
559.766	11.9629
563.141	13.4624
566.515	12.7804
569.89	12.8286
573.265	12.6526
576.64	20.3465
580.015	8.77171
583.39	15.1847
586.764	27.2374
590.139	21.0091
593.514	16.7508
596.889	10.2347
600.264	10.7456
603.639	12.2133
607.013	17.1166
610.388	8.39052
613.763	19.6755
617.138	28.1177
620.513	33.1205
623.887	40.4007
627.262	47.3036
630.637	33.7207
634.012	46.9781
637.387	24.5516
640.761	17.5687
644.136	6.23341
647.511	10.8704
650.886	2.15956
654.261	3.03484
657.635	18.8904
661.01	71.7059
664.385	137.366
667.76	359.778
671.135	540.013
674.51	923.359
677.884	813.795
681.259	1543.01
684.634	716.125
688.009	182.124
691.384	209.099
694.759	429.866
698.133	91.0262
701.508	6.58768
704.883	2.26531
708.258	0.849838
711.633	5.57112
715.007	14.1754
718.382	27.7149
721.757	46.55
725.132	46.4694
728.507	43.0471
731.881	44.7891
735.256	20.6949
738.631	23.1884
742.006	15.9876
745.381	12.9338
748.755	12.5243
752.13	22.757
755.505	15.1801
758.88	7.37256
762.255	4.6138
765.63	14.6844
769.004	10.4234
772.379	13.428
775.754	17.4403
779.129	26.4607
782.504	7.46748
785.878	5.17766
789.253	10.1301
792.628	10.055
796.003	8.17665
799.378	9.6564
802.753	5.03601
806.127	13.2414
809.502	14.2571
812.877	15.5657
816.252	40.2597
819.627	87.5002
823.001	187.02
826.376	341.066
829.751	589.589
833.126	1115.49
836.501	1936.67
839.875	1526.92
843.25	276.542
846.625	96.0885
850	45.4847
853.375	17.8885
856.75	14.7157
860.124	13.4098
863.499	9.63527
866.874	8.23959
870.249	4.27713
873.624	10.4746
876.998	7.11691
880.373	2.52565
883.748	8.32002
887.123	0.55278
890.498	1.99286
893.872	8.77211
897.247	9.19885
900.622	0.46904
903.997	9.37421
907.372	7.43346
910.747	11.0903
914.121	2.56702
917.496	10.7802
920.871	6.26112
924.246	4.36722
927.621	0.906967
930.995	8.5137
934.37	8.81522
937.745	23.0588
941.12	4.95319
944.495	3.43338
947.87	2.05106
951.244	12.2878
954.619	6.33466
957.994	1.79951
961.369	0.213806
964.744	7.08914
968.118	1.72397
971.493	1.16038
974.868	2.15949
978.243	6.05014
981.618	5.30983
984.992	20.2254
988.367	20.982
991.742	20.5265
995.117	16.9186
998.492	19.0847
1001.87	17.833
1005.24	15.9997
1008.62	23.8371
1011.99	16.2724
1015.37	20.5225
1018.74	21.989
1022.12	49.921
1025.49	96.8601
1028.87	186.459
1032.24	285.296
1035.62	220.414
1038.99	541.262
1042.36	2687.89
1045.74	6764.98
1049.11	15621.6
1052.49	31231.4
1055.86	29329.9
1059.24	1563.08
1062.61	508.485
1065.99	236.607
1069.36	122.849
1072.74	81.4715
1076.11	47.7177
1079.49	27.5743
1082.86	8.01569
1086.24	8.00935
1089.61	10.3349
1092.99	16.3283
1096.36	28.9099
1099.74	29.746
1103.11	35.5276
1106.49	22.9942
1109.86	20.0165
1113.23	19.2371
1116.61	5.82033
1119.98	4.04108
1123.36	3.14771
1126.73	11.908
1130.11	2.468
1133.48	9.55254
1136.86	8.53105
1140.23	8.23952
1143.61	2.91867
1146.98	0.466614
1150.36	6.88532
1153.73	2.41789
1157.11	10.5272
1160.48	10.599
1163.86	0.163544
1167.23	12.4534
1170.61	11.7209
1173.98	9.58417
1177.36	6.1246
1180.73	7.4113
1184.11	9.22488
1187.48	21.6205
1190.86	24.5952
1194.23	20.8941
1197.61	30.7526
1200.98	37.7211
1204.36	29.01
1207.73	36.5366
1211.11	34.3973
1214.48	36.0359
1217.86	23.5229
1221.23	26.3678
1224.6	16.4525
1227.98	19.2156
1231.35	25.504
1234.73	4.88568
1238.1	5.78055
1241.48	1.07831
1244.85	3.51236
1248.23	5.20685
1251.6	21.4343
1254.98	7.97363
1258.35	11.0713
1261.73	27.0391
1265.1	27.5316
1268.48	18.7213
1271.85	25.6205
1275.23	19.9805
1278.6	21.5095
1281.98	7.56763
1285.35	22.5973
1288.73	5.49383
1292.1	1.10974
1295.47	7.14356
