Measurement: Raman, 780 nm, unoriented, Raman Data Processed
Mineral: Cerussite
Rruff sample: R050174
Ideal chemistry: PbCO_3_
Locality: Tsumeb mine, Tsumeb, Otavi District, Oshikoto, Namibia
Source: Marcus Origlieri
Description: Colorless single crystal
Measured chemistry: Pb_1.00_CO_3_ ; C not measured but estimated by difference and stoichiometry
Raman shift (cm-1)	intensity
145.517	0
148.409	281.819
151.302	580.74
154.195	747.773
157.087	436.63
159.98	51.8027
162.873	55.6558
165.765	66.751
168.658	316.521
171.551	649.106
174.444	959.75
177.336	1115.09
180.229	1159.57
183.122	1261.93
186.014	1459.78
188.907	1884.93
191.8	2532.11
194.692	3261
197.585	4098.55
200.478	4949.07
203.37	5889.07
206.263	6849.48
209.156	7743.74
212.049	8255.37
214.941	7990.62
217.834	6884.05
220.727	5440.65
223.619	4210.85
226.512	3332.04
229.405	2610.23
232.298	2085.18
235.19	1712.48
238.083	1439.76
240.976	1222.97
243.868	1044.95
246.761	842.569
249.654	684.511
252.546	501.882
255.439	365.842
258.332	251.98
261.224	164.028
264.117	89.3946
267.01	45.9961
269.903	17.5916
272.795	5.72375
275.688	20.5603
278.581	27.2765
281.473	21.2465
284.366	7.01514
287.259	2.62122
290.151	5.16711
293.044	15.3783
295.937	30.1206
298.83	46.8297
301.722	71.844
304.615	78.4871
307.508	108.015
310.4	104.612
313.293	133.967
316.186	158.878
319.079	156.835
321.971	179.758
324.864	192.554
327.757	185.015
330.649	197.7
333.542	178.679
336.435	156.019
339.327	129.757
342.22	114.576
345.113	104.569
348.005	85.6619
350.898	87.914
353.791	74.3681
356.683	63.7583
359.576	59.682
362.469	51.0646
365.362	37.0006
368.254	37.1194
371.147	17.7428
374.04	5.3598
376.932	5.21967
379.825	0.298523
382.718	2.64819
385.611	2.99225
388.503	5.86414
391.396	5.59625
394.289	19.3367
397.181	18.7902
400.074	28.0896
402.967	30.8509
405.859	38.3242
408.752	38.0533
411.645	41.8301
414.538	32.3179
417.43	45.4143
420.323	43.0284
423.216	44.4432
426.108	41.0795
429.001	44.9374
431.894	47.9389
434.786	46.322
437.679	35.6085
440.572	30.9326
443.464	24.4483
446.357	18.0163
449.25	3.56348
452.143	1.664
455.035	0.451538
457.928	2.53345
460.821	3.66394
463.713	4.4053
466.606	1.12695
469.499	7.25385
472.392	4.14584
475.284	13.4847
478.177	11.8592
481.07	16.2743
483.962	13.1331
486.855	13.7202
489.748	8.9924
492.64	10.9531
495.533	2.28006
498.426	1.72241
501.318	0.854492
504.211	1.65247
507.104	1.8479
509.997	0.735077
512.889	1.22931
515.782	2.26743
518.675	0.147736
521.567	5.42456
524.46	5.86334
527.353	5.37988
530.245	1.96805
533.138	6.95941
536.031	9.50775
538.924	4.74277
541.816	14.3034
544.709	9.97089
547.602	9.94476
550.494	15.0077
553.387	8.90842
556.28	9.8172
559.173	10.5265
562.065	0.899078
564.958	6.31278
567.851	7.66742
570.743	11.6253
573.636	8.67386
576.529	13.4417
579.421	6.58481
582.314	11.4941
585.207	7.40396
588.099	12.4186
590.992	8.76837
593.885	4.14145
596.778	2.24103
599.67	2.77948
602.563	3.47138
605.456	4.01364
608.348	5.22473
611.241	18.0812
614.134	33.6766
617.026	51.2793
619.919	63.2367
622.812	70.4265
625.705	69.3563
628.597	70.442
631.49	73.0773
634.383	73.5967
637.275	52.3451
640.168	26.6509
643.061	15.0133
645.953	10.2621
648.846	11.8135
651.739	14.7101
654.631	62.6914
657.524	210.781
660.417	333.344
663.31	379.069
666.202	599.038
669.095	944.059
671.988	1921.67
674.88	2930.51
677.773	553.318
680.666	342.582
683.558	287.404
686.451	103.033
689.344	94.062
692.237	179.4
695.129	368.383
698.022	71.4081
700.915	5.604
703.807	11.1437
706.7	3.36249
709.593	9.34796
712.486	25.8048
715.378	33.1151
718.271	53.4443
721.164	76.9345
724.056	101.484
726.949	113.175
729.842	102.536
732.734	90.7737
735.627	75.5364
738.52	65.9281
741.413	53.8593
744.305	45.6383
747.198	39.2998
750.091	39.2308
752.983	29.3908
755.876	23.3226
758.769	20.2484
761.661	15.6657
764.554	11.3517
767.447	10.0202
770.34	11.8778
773.232	17.9334
776.125	24.8925
779.018	20.9952
781.91	19.6549
784.803	26.9618
787.696	16.0015
790.588	12.0177
793.481	9.93372
796.374	10.0097
799.266	0.541138
802.159	2.38117
805.052	3.09201
807.945	1.89593
810.837	5.65518
813.73	0.267517
816.623	14.5463
819.515	34.5334
822.408	154.51
825.301	254.912
828.193	260.994
831.086	387.771
833.979	676.488
836.872	1572.05
839.764	1239.63
842.657	328.345
845.55	132.896
848.442	71.4364
851.335	53.2878
854.228	35.6701
857.12	28.4533
860.013	24.9494
862.906	17.9891
865.799	16.5922
868.691	21.1557
871.584	26.4589
874.477	10.9099
877.369	17.82
880.262	9.08122
883.155	6.18652
886.047	5.31366
888.94	5.77367
891.833	5.28659
894.726	1.08269
897.618	1.93301
900.511	2.13452
903.404	1.76561
906.296	2.6729
909.189	0.960754
912.082	5.71227
914.974	1.05664
917.867	14.6202
920.76	13.4778
923.653	28.1433
926.545	31.3329
929.438	23.8278
932.331	31.7108
935.223	19.0535
938.116	25.927
941.009	20.8397
943.901	26.5399
946.794	24.7915
949.687	16.9532
952.58	9.77534
955.472	8.06831
958.365	6.67259
961.258	9.85959
964.15	4.98265
967.043	4.06854
969.936	1.51529
972.828	1.81284
975.721	0.093811
978.614	6.5549
981.506	0.514771
984.399	1.0119
987.292	0.118774
990.185	5.97064
993.077	6.59378
995.97	10.4756
998.863	5.8671
1001.75	4.65369
1004.65	3.16364
1007.54	4.72678
1010.43	1.93588
1013.33	5.44397
1016.22	16.7912
1019.11	52.1234
1022	61.1176
1024.9	99.0546
1027.79	174.391
1030.68	469.445
1033.58	323.31
1036.47	505.451
1039.36	2050.76
1042.25	7547.11
1045.15	7934.16
1048.04	12655.9
1050.93	20637.9
1053.82	75449.7
1056.72	20867.6
1059.61	2098.04
1062.5	706.876
1065.39	363.959
1068.29	210.177
1071.18	128.124
1074.07	91.4376
1076.97	55.4166
1079.86	29.3883
1082.75	22.4382
1085.64	13.9787
1088.54	14.7524
1091.43	18.889
1094.32	22.6376
1097.21	23.8539
1100.11	23.9152
1103	19.6406
1105.89	13.878
1108.79	23.7188
1111.68	3.2832
1114.57	3.7619
1117.46	2.05383
1120.36	2.67627
1123.25	2.95935
1126.14	0.260559
1129.03	6.81213
1131.93	9.5191
1134.82	12.5401
1137.71	7.68231
1140.61	14.1767
1143.5	22.152
1146.39	30.3779
1149.28	37.6305
1152.18	38.942
1155.07	58.0605
1157.96	66.7849
1160.85	83.8552
1163.75	87.1669
1166.64	101.503
1169.53	119.113
1172.42	126.492
1175.32	133.843
1178.21	141.278
1181.1	136.425
1183.99	133.946
1186.89	119.385
1189.78	98.9396
1192.67	94.3573
1195.57	72.5929
1198.46	51.9955
1201.35	41.7416
1204.24	31.155
1207.14	17.9293
1210.03	9.9248
1212.92	7.60901
1215.82	0.779785
1218.71	2.8114
1221.6	4.73547
1224.49	1.72669
1227.39	0.741577
1230.28	14.1829
1233.17	39.106
1236.06	55.9915
1238.96	77.0178
1241.85	97.0414
1244.74	121.624
1247.63	148.249
1250.53	170.46
1253.42	167.637
1256.31	148.778
1259.21	143.458
1262.1	140.552
1264.99	110.478
1267.88	98.6516
1270.78	80.7759
1273.67	49.4807
1276.56	31.9219
1279.45	13.5881
1282.35	15.123
1285.24	5.96265
