Measurement: Raman, 532 nm, unoriented, Raman Data Processed
Mineral: Ceruleite
Rruff sample: R060261
Ideal chemistry: Cu_2_Al_7_(As^5+^O_4_)_4_(OH)_13_11.5H_2_O
Locality: Emma Luisa Gold mine, Huanaco, Taltal Province, Chile
Source: Michael Scott
Description: Pale blue fine-grained massive
Raman shift (cm-1)	intensity
181.13	0
184.023	1.97354
186.916	0.979828
189.808	21.4252
192.701	48.0326
195.594	78.5221
198.486	89.6922
201.379	107.271
204.272	152.68
207.164	182.45
210.057	149.706
212.95	82.2692
215.843	39.9178
218.735	24.6457
221.628	19.3803
224.521	32.6955
227.413	59.111
230.306	75.0756
233.199	67.7252
236.091	73.5962
238.984	74.6791
241.877	63.7714
244.769	18.9277
247.662	23.4386
250.555	39.9298
253.448	63.264
256.34	92.5338
259.233	126.976
262.126	154.336
265.018	130.394
267.911	82.3594
270.804	36.746
273.697	27.7938
276.589	37.2805
279.482	34.1683
282.375	23.8539
285.267	9.7027
288.16	0.469543
291.053	8.84305
293.945	5.80606
296.838	1.87396
299.731	9.86945
302.623	14.4486
305.516	6.4538
308.409	4.03043
311.302	20.78
314.194	31.0438
317.087	35.4261
319.98	36.6859
322.872	39.6112
325.765	53.3289
328.658	64.9061
331.55	81.6446
334.443	86.9817
337.336	63.426
340.229	28.9359
343.121	13.1069
346.014	4.97086
348.907	3.50714
351.799	8.60129
354.692	30.1365
357.585	63.5841
360.478	92.3903
363.37	122.473
366.263	179.367
369.156	233.554
372.048	257.974
374.941	236.281
377.834	181.124
380.726	143.511
383.619	130.911
386.512	126.255
389.404	134.104
392.297	133.459
395.19	138.254
398.083	146.166
400.975	150.131
403.868	130.771
406.761	120.483
409.653	111.59
412.546	103.345
415.439	101.276
418.332	87.0609
421.224	72.7339
424.117	48.3375
427.01	35.8828
429.902	24.6053
432.795	9.69199
435.688	6.50638
438.58	1.76553
441.473	6.87115
444.366	2.43326
447.259	5.23581
450.151	10.1371
453.044	12.1538
455.937	23.4827
458.829	28.2984
461.722	30.421
464.615	33.0627
467.507	20.0428
470.4	2.48193
473.293	4.94205
476.185	1.00049
479.078	9.36758
481.971	18.5568
484.864	38.4115
487.756	52.1508
490.649	63.3918
493.542	84.1285
496.434	96.7063
499.327	115.393
502.22	123.323
505.113	131.772
508.005	137.495
510.898	139.222
513.791	130.792
516.683	118.22
519.576	105.601
522.469	81.8875
525.361	60.4375
528.254	41.6241
531.147	19.3514
534.04	10.9782
536.932	4.60428
539.825	0.123413
542.718	2.5994
545.61	2.76978
548.503	2.10373
551.396	6.65729
554.288	11.5498
557.181	19.6864
560.074	35.8033
562.967	55.5346
565.859	60.6067
568.752	71.0696
571.645	88.0901
574.537	107.96
577.43	133.671
580.323	172.244
583.216	214.667
586.108	262.623
589.001	295.991
591.894	337.481
594.786	348.56
597.679	327.008
600.572	262.122
603.464	188.671
606.357	126.129
609.25	86.6987
612.142	60.2912
615.035	41.9931
617.928	24.5989
620.821	16.4104
623.713	10.5349
626.606	8.03003
629.499	3.70261
632.391	2.55896
635.284	1.07614
638.177	2.76236
641.069	3.55243
643.962	1.42709
646.855	2.06354
649.747	8.17578
652.64	10.1604
655.533	8.73819
658.426	12.9704
661.318	17.8677
664.211	9.83237
667.104	9.70392
669.996	15.756
672.889	8.64694
675.782	8.54559
678.674	11.1283
681.567	17.711
684.46	14.2902
687.353	12.2861
690.245	16.4862
693.138	10.6427
696.031	14.8003
698.923	12.8383
701.816	15.289
704.709	13.5524
707.601	14.0447
710.494	13.3282
713.387	14.6741
716.28	18.1449
719.172	17.5415
722.065	16.8375
724.958	14.5271
727.85	17.625
730.743	18.7201
733.636	21.4923
736.529	19.8438
739.421	16.1408
742.314	16.0784
745.207	10.4808
748.099	9.83292
750.992	11.4971
753.885	3.78583
756.777	6.12872
759.67	0.932159
762.563	1.12881
765.456	7.49567
768.348	0.621246
771.241	1.55643
774.134	3.0289
777.026	0.791351
779.919	4.16324
782.812	6.59998
785.704	4.41135
788.597	4.33441
791.49	2.95175
794.383	2.79276
797.275	6.81763
800.168	16.9656
803.061	29.4471
805.953	37.2227
808.846	62.6851
811.739	87.1209
814.631	116.601
817.524	149.407
820.417	187.235
823.309	214.595
826.202	218.389
829.095	214.198
831.988	187.585
834.88	154.074
837.773	129.07
840.666	117.25
843.558	100.356
846.451	77.1096
849.344	50.6366
852.236	22.5175
855.129	17.8067
858.022	12.9358
860.915	30.8881
863.807	46.757
866.7	58.5431
869.593	68.9072
872.485	61.675
875.378	36.6612
878.271	19.4717
881.163	11.4009
884.056	22.9381
886.949	48.8687
889.842	95.6755
892.734	153.153
895.627	211.397
898.52	275.935
901.412	309.041
904.305	283.111
907.198	218.758
910.091	156.076
912.983	107.657
915.876	77.449
918.769	68.0637
921.661	75.5565
924.554	88.4512
927.447	107.563
930.339	113.511
933.232	117.867
936.125	110.397
939.018	98.4778
941.91	102.208
944.803	89.9937
947.696	97.5293
950.588	91.8365
953.481	90.5135
956.374	70.3241
959.266	51.5543
962.159	41.1503
965.052	30.52
967.944	23.9968
970.837	9.31812
973.73	2.33542
976.623	4.62158
979.515	2.88596
982.408	6.51978
985.301	2.26633
988.193	1.67822
991.086	0.647827
993.979	1.98004
996.871	0.043945
999.764	4.86685
1002.66	7.51294
1005.55	9.53195
1008.44	5.6106
1011.34	8.24991
1014.23	16.6071
1017.12	7.77191
1020.01	15.7077
1022.91	14.009
1025.8	14.6719
1028.69	16.112
1031.58	22.3209
1034.48	25.4298
1037.37	25.1387
1040.26	28.6968
1043.15	24.4321
1046.05	17.032
1048.94	16.9564
1051.83	16.9293
1054.73	13.112
1057.62	11.1777
1060.51	11.6775
1063.4	9.15012
1066.3	6.54416
1069.19	5.77106
1072.08	5.24521
1074.97	1.52316
1077.87	6.68173
1080.76	6.93903
1083.65	3.2326
1086.55	2.90555
1089.44	6.38953
1092.33	4.26639
1095.22	6.17059
1098.12	4.90717
1101.01	3.5159
1103.9	1.90128
1106.79	5.8851
1109.69	8.93512
1112.58	11.3399
1115.47	3.25787
1118.37	3.79022
1121.26	5.56293
1124.15	4.14322
1127.04	4.83151
1129.94	2.92798
1132.83	3.94464
1135.72	8.49036
1138.61	3.05466
1141.51	5.78784
1144.4	7.41483
1147.29	4.93887
1150.18	1.92297
1153.08	6.39923
1155.97	4.75836
1158.86	1.00711
1161.76	3.55893
1164.65	2.96225
1167.54	4.31869
1170.43	3.80243
1173.33	2.72553
1176.22	3.88931
1179.11	0.985352
1182	4.28976
1184.9	1.29022
1187.79	3.37527
1190.68	0.964905
1193.58	1.40292
1196.47	3.03519
1199.36	3.24869
1202.25	3.87051
1205.15	0.373291
1208.04	3.29211
1210.93	2.23749
1213.82	2.44916
1216.72	1.37073
1219.61	0.916168
1222.5	2.38577
1225.39	6.42896
1228.29	3.96921
1231.18	4.02829
1234.07	7.52576
1236.97	8.09622
1239.86	6.0719
1242.75	5.54834
1245.64	7.9957
1248.54	1.38562
1251.43	4.03696
1254.32	4.70233
1257.21	3.35699
1260.11	7.0932
1263	8.4906
1265.89	1.40378
1268.79	7.78568
1271.68	4.9205
1274.57	0.814606
1277.46	8.42856
1280.36	5.12833
1283.25	8.15027
1286.14	3.23932
1289.03	1.93222
1291.93	11.2726
1294.82	5.8103
1297.71	0.141022
1300.61	2.33014
