Measurement: Raman, 780 nm, unoriented, Raman Data Processed
Mineral: Ceruleite
Rruff sample: R060261
Ideal chemistry: Cu_2_Al_7_(As^5+^O_4_)_4_(OH)_13_11.5H_2_O
Locality: Emma Luisa Gold mine, Huanaco, Taltal Province, Chile
Source: Michael Scott
Description: Pale blue fine-grained massive
Raman shift (cm-1)	intensity
155.655	0
158.547	0.456593
161.44	6.56339
164.333	3.76085
167.226	4.21537
170.118	5.61338
173.011	4.98309
175.904	10.4907
178.796	6.93359
181.689	6.16732
184.582	9.31601
187.474	12.8955
190.367	20.4049
193.26	26.966
196.153	38.5525
199.045	37.3467
201.938	42.7989
204.831	55.4223
207.723	51.1061
210.616	36.6215
213.509	24.6617
216.401	18.1358
219.294	10.5475
222.187	18.294
225.079	22.7455
227.972	25.7331
230.865	25.8863
233.758	24.8814
236.65	28.7431
239.543	24.873
242.436	20.4431
245.328	15.4641
248.221	20.1319
251.114	30.0309
254.006	32.3982
256.899	43.009
259.792	49.6906
262.685	49.649
265.577	33.5079
268.47	23.9295
271.363	12.1097
274.255	8.73943
277.148	14.8473
280.041	7.48582
282.933	4.37129
285.826	3.40712
288.719	3.8203
291.612	1.25201
294.504	0.446434
297.397	1.41698
300.29	2.1296
303.182	4.00317
306.075	7.21903
308.968	5.19283
311.861	13.1845
314.753	13.5125
317.646	10.5949
320.539	12.3703
323.431	16.1989
326.324	18.2036
329.217	20.7366
332.109	20.8339
335.002	20.0538
337.895	10.7513
340.788	2.99539
343.68	1.87833
346.573	4.76849
349.466	7.11285
352.358	15.0974
355.251	25.0032
358.144	31.801
361.036	41.7002
363.929	46.1803
366.822	63.9117
369.715	75.1932
372.607	67.7115
375.5	58.9753
378.393	48.2634
381.285	45.2662
384.178	41.1794
387.071	41.2166
389.964	43.1299
392.856	41.5838
395.749	41.5368
398.642	39.8654
401.534	42.1494
404.427	33.6356
407.32	26.9592
410.212	26.0689
413.105	24.5524
415.998	23.4272
418.89	19.5687
421.783	12.8917
424.676	8.09912
427.569	6.64722
430.461	2.01661
433.354	0.743984
436.247	0.304329
439.139	1.16561
442.032	2.79491
444.925	2.1213
447.817	4.798
450.71	6.64674
453.603	7.65903
456.496	7.28957
459.388	9.79083
462.281	7.39856
465.174	1.93051
468.066	4.60958
470.959	0.455742
473.852	5.7997
476.745	2.18476
479.637	8.09051
482.53	10.3961
485.423	19.2984
488.315	20.3973
491.208	27.6167
494.101	32.9985
496.993	28.6563
499.886	36.501
502.779	37.4718
505.671	41.7546
508.564	39.6515
511.457	36.8076
514.35	32.23
517.242	28.5803
520.135	20.7704
523.028	20.0976
525.92	9.86615
528.813	4.1731
531.706	3.10216
534.598	5.87601
537.491	0.07082
540.384	0.036804
543.277	0.286476
546.169	0.487225
549.062	1.72671
551.955	7.12843
554.847	5.30253
557.74	10.4226
560.633	14.1088
563.525	19.8008
566.418	21.7407
569.311	26.5838
572.204	32.2795
575.096	46.8885
577.989	51.1258
580.882	63.2398
583.774	71.8675
586.667	81.6427
589.56	87.9366
592.452	90.5958
595.345	89.43
598.238	73.9069
601.131	53.1536
604.023	36.0346
606.916	23.0802
609.809	16.0318
612.701	8.19546
615.594	7.11219
618.487	6.40738
621.38	1.91522
624.272	4.15662
627.165	1.15403
630.058	0.336544
632.95	0.981834
635.843	1.12219
638.736	0.647247
641.628	1.46223
644.521	0.215881
647.414	3.93949
650.307	2.21936
653.199	0.114666
656.092	3.31433
658.985	8.9027
661.877	0.013613
664.77	3.90396
667.663	9.26911
670.555	3.47751
673.448	5.29925
676.341	7.80397
679.234	11.2661
682.126	5.3644
685.019	6.85807
687.912	8.42176
690.804	4.95206
693.697	6.68156
696.59	6.13796
699.482	5.52017
702.375	5.23243
705.268	6.45924
708.16	5.58931
711.053	6.672
713.946	5.2715
716.839	7.15166
719.731	5.80228
722.624	7.32356
725.517	8.4261
728.409	4.99799
731.302	6.67451
734.195	5.42982
737.087	6.47137
739.98	4.76347
742.873	3.99327
745.766	0.307377
748.658	1.46722
751.551	6.59535
754.444	3.04671
757.336	2.99254
760.229	0.171164
763.122	5.35805
766.014	0.208233
768.907	1.77309
771.8	0.996983
774.693	4.05941
777.585	0.689018
780.478	1.17772
783.371	1.51789
786.263	0.771034
789.156	0.156872
792.049	3.30435
794.942	4.7311
797.834	8.72075
800.727	8.23056
803.62	12.103
806.512	21.1541
809.405	23.958
812.298	29.884
815.19	38.733
818.083	49.9583
820.976	49.1297
823.869	58.8329
826.761	57.0125
829.654	51.2576
832.547	46.1453
835.439	34.3272
838.332	26.873
841.225	24.0102
844.117	19.1051
847.01	13.1184
849.903	8.2311
852.795	2.32568
855.688	2.95767
858.581	6.39183
861.474	6.71069
864.366	10.0015
867.259	12.5982
870.152	11.7191
873.044	12.2477
875.937	4.76322
878.83	6.05513
881.722	6.492
884.615	18.0794
887.508	23.7505
890.401	36.2782
893.293	50.765
896.186	61.9042
899.079	68.0243
901.971	72.4042
904.864	54.5857
907.757	39.8298
910.649	28.1856
913.542	23.6294
916.435	16.6365
919.328	16.5232
922.22	18.5606
925.113	23.3135
928.006	29.4983
930.898	25.2065
933.791	29.5998
936.684	25.0087
939.577	28.5165
942.469	22.6872
945.362	28.426
948.255	28.0838
951.147	22.5556
954.04	18.3854
956.933	10.2017
959.825	12.3583
962.718	6.77278
965.611	4.04145
968.504	1.81807
971.396	2.55342
974.289	2.15158
977.182	1.26537
980.074	2.28537
982.967	2.89781
985.86	2.45874
988.752	0.323708
991.645	1.08922
994.538	0.89872
997.431	3.05421
1000.32	5.05842
1003.22	1.81488
1006.11	3.21589
1009	4.43047
1011.89	2.60667
1014.79	3.97844
1017.68	2.92563
1020.57	4.98585
1023.47	3.72248
1026.36	2.79137
1029.25	6.12532
1032.14	7.01155
1035.04	7.36071
1037.93	8.46125
1040.82	11.4751
1043.71	1.97526
1046.61	5.33519
1049.5	5.4071
1052.39	5.17067
1055.29	2.79818
1058.18	3.23067
1061.07	3.19662
1063.96	0.897679
1066.86	3.16203
1069.75	3.76131
1072.64	2.28576
1075.53	2.27967
1078.43	5.84332
1081.32	2.63792
1084.21	0.885892
1087.1	3.67724
1090	3.15925
1092.89	0.185442
1095.78	3.42543
1098.67	4.08399
1101.57	5.96811
1104.46	5.79872
1107.35	4.86622
1110.25	0.182149
1113.14	3.30046
1116.03	2.91776
1118.92	5.61188
1121.82	7.05274
1124.71	1.79019
1127.6	5.21793
1130.49	5.18174
1133.39	0.729746
1136.28	0.760943
1139.17	3.24105
1142.07	5.56569
1144.96	1.50496
1147.85	4.5672
1150.74	2.60147
1153.64	3.76236
1156.53	1.4712
1159.42	3.66916
1162.31	5.15186
1165.21	2.61916
1168.1	5.04473
1170.99	3.3687
1173.88	2.91811
1176.78	3.50765
1179.67	3.66416
1182.56	1.95859
1185.46	2.52827
1188.35	5.98599
1191.24	0.495441
1194.13	1.48842
1197.03	4.23826
1199.92	5.11423
1202.81	2.25064
1205.7	5.79267
1208.6	6.10574
1211.49	6.58282
1214.38	1.33189
1217.28	3.73507
1220.17	6.42059
1223.06	1.98986
1225.95	6.30142
1228.85	6.81306
1231.74	7.21786
1234.63	2.59891
1237.53	1.5125
1240.42	1.23403
1243.31	2.84494
1246.2	4.44673
1249.1	1.93182
1251.99	7.19596
1254.88	3.6683
1257.77	4.11825
1260.67	7.98379
1263.56	2.5005
1266.45	6.62234
1269.34	0.50454
1272.24	2.55089
1275.13	6.29294
1278.02	2.89617
1280.91	0.47729
1283.81	3.48597
