Measurement: Raman, 780 nm, unoriented, Raman Data Processed
Mineral: Cerussite
Rruff sample: R050298
Ideal chemistry: PbCO_3_
Locality: Bunker Hill mine, Shoshone County, Idaho, USA
Source: Eugene Schlepp
Description: Group of colorless tabular crystals
Measured chemistry: Pb_1.00_CO_3_
Raman shift (cm-1)	intensity
114.701	0
118.076	15.3074
121.45	4.56027
124.825	13.8818
128.2	49.9896
131.575	92.1885
134.95	147.464
138.325	175.035
141.699	219.882
145.074	364.14
148.449	482.788
151.824	606.015
155.199	577.423
158.573	408.657
161.948	352.884
165.323	360.855
168.698	435.067
172.073	532.536
175.447	567.755
178.822	468.735
182.197	333.21
185.572	212.728
188.947	121.701
192.322	68.0481
195.696	64.1278
199.071	57.4809
202.446	58.0289
205.821	82.3503
209.196	115.011
212.571	140.72
215.945	151.875
219.32	116.24
222.695	100.292
226.07	93.3001
229.445	72.3806
232.819	69.7985
236.194	86.2871
239.569	108.261
242.944	110.36
246.319	97.3729
249.693	84.1741
253.068	48.2902
256.443	31.3358
259.818	6.23988
263.193	2.88673
266.567	6.25518
269.942	9.49609
273.317	7.97614
276.692	1.04794
280.067	1.22635
283.442	1.48428
286.816	7.71447
290.191	14.6394
293.566	8.3889
296.941	20.2336
300.316	9.5389
303.69	19.7085
307.065	19.9941
310.44	24.8821
313.815	22.0703
317.19	24.8493
320.565	26.0983
323.939	29.7839
327.314	24.0835
330.689	20.3434
334.064	10.3818
337.439	12.1405
340.813	13.9262
344.188	13.7607
347.563	12.3102
350.938	11.0056
354.313	15.5021
357.688	12.749
361.062	10.5235
364.437	19.1168
367.812	12.1902
371.187	9.77752
374.562	8.5493
377.937	8.35773
381.311	5.33151
384.686	0.444141
388.061	9.52345
391.436	0.529438
394.81	5.65086
398.185	1.17519
401.56	2.69978
404.935	2.95214
408.31	1.90381
411.685	0.222332
415.059	6.26865
418.434	3.22272
421.809	0.606432
425.184	3.858
428.559	1.44531
431.933	5.74821
435.308	4.02006
438.683	1.99604
442.058	3.37597
445.433	1.88205
448.808	2.72835
452.182	1.36749
455.557	2.1069
458.932	2.8678
462.307	0.257317
465.682	3.23432
469.057	5.33573
472.431	5.63051
475.806	8.36292
479.181	2.83447
482.556	0.751455
485.931	4.27481
489.305	0.650211
492.68	6.91915
496.055	10.6238
499.43	4.99586
502.805	2.6587
506.18	4.34402
509.554	0.67927
512.929	3.78417
516.304	1.2244
519.679	2.57368
523.053	0.437471
526.428	1.66088
529.803	1.67698
533.178	2.38782
536.553	1.14804
539.928	2.46186
543.302	3.24119
546.677	7.94283
550.052	4.4577
553.427	7.99074
556.802	4.08114
560.177	2.60009
563.551	2.49532
566.926	11.0939
570.301	3.97575
573.676	4.09328
577.051	2.68628
580.425	6.17758
583.8	2.33562
587.175	6.22253
590.55	2.73791
593.925	5.00323
597.299	3.42942
600.674	3.5491
604.049	5.18951
607.424	2.84815
610.799	8.46254
614.174	5.62913
617.548	2.83206
620.923	4.00455
624.298	7.13836
627.673	8.2754
631.048	4.48068
634.423	4.54076
637.797	8.26778
641.172	3.55032
644.547	2.05071
647.922	5.89933
651.297	2.35383
654.671	6.70364
658.046	13.7266
661.421	21.3285
664.796	20.7309
668.171	35.2348
671.545	65.6557
674.92	137.659
678.295	28.676
681.67	18.5466
685.045	17.0067
688.42	24.0182
691.794	45.6677
695.169	126.416
698.544	15.4274
701.919	1.46642
705.294	4.60425
708.668	4.59035
712.043	2.68478
715.418	3.61636
718.793	1.8699
722.168	3.98131
725.543	11.1014
728.917	10.0665
732.292	1.85286
735.667	3.00989
739.042	7.8603
742.417	0.700796
745.791	3.3584
749.166	1.75006
752.541	0.685762
755.916	1.89566
759.291	3.80192
762.665	0.351908
766.04	3.40788
769.415	1.87297
772.79	0.292677
776.165	2.34741
779.54	0.89217
782.914	2.67017
786.289	5.18983
789.664	4.24496
793.039	3.4371
796.414	2.44321
799.788	3.21899
803.163	4.98972
806.538	5.98872
809.913	8.33137
813.288	4.42343
816.663	0.950872
820.037	5.65008
823.412	14.2513
826.787	13.6348
830.162	19.2781
833.537	27.3971
836.911	105.931
840.286	57.4348
843.661	16.9376
847.036	4.6539
850.411	2.72798
853.785	1.46381
857.16	1.39691
860.535	3.47445
863.91	5.04855
867.285	5.51935
870.66	5.29725
874.034	4.088
877.409	0.791523
880.784	4.36483
884.159	2.7428
887.534	6.51993
890.909	5.05892
894.283	1.86091
897.658	1.45824
901.033	3.93178
904.408	1.82313
907.783	2.67764
911.157	1.37195
914.532	2.17643
917.907	4.49313
921.282	2.42638
924.657	0.183619
928.032	3.68878
931.406	5.29306
934.781	4.61912
938.156	4.58226
941.531	3.14492
944.906	6.62748
948.28	4.38718
951.655	6.86479
955.03	2.8389
958.405	1.60074
961.78	3.64071
965.154	7.20232
968.529	3.29954
971.904	2.76342
975.279	4.7357
978.654	4.53503
982.029	7.9197
985.403	2.57462
988.778	0.479679
992.153	3.47064
995.528	6.16193
998.903	4.13294
1002.28	3.46064
1005.65	2.18116
1009.03	2.93305
1012.4	6.83994
1015.78	4.41459
1019.15	7.61593
1022.53	0.214853
1025.9	11.8328
1029.28	21.6124
1032.65	34.573
1036.03	26.0676
1039.4	94.0454
1042.78	414.885
1046.15	492.484
1049.53	952.857
1052.9	2979.02
1056.28	2275
1059.65	125.529
1063.02	46.522
1066.4	20.8205
1069.77	15.5266
1073.15	6.0299
1076.52	0.560616
1079.9	3.58465
1083.27	8.39331
1086.65	0.187374
1090.02	6.34678
1093.4	1.74125
1096.77	4.85212
1100.15	6.25888
1103.52	1.91461
1106.9	12.0116
1110.27	7.45139
1113.65	1.48121
1117.02	2.2893
1120.4	3.72214
1123.77	0.797554
1127.15	1.80567
1130.52	3.2764
1133.89	4.09057
1137.27	2.38392
1140.64	0.924788
1144.02	4.75251
1147.39	3.39883
1150.77	1.97728
1154.14	10.1632
1157.52	9.42543
1160.89	2.96914
1164.27	6.05831
1167.64	6.70462
1171.02	4.67245
1174.39	4.16348
1177.77	6.62991
1181.14	4.36934
1184.52	7.49307
1187.89	5.01919
1191.27	7.39662
1194.64	9.82146
1198.02	6.53298
1201.39	11.2685
1204.77	6.09049
1208.14	10.1128
1211.52	4.24857
1214.89	8.53933
1218.27	11.2693
1221.64	15.4927
1225.02	5.6395
1228.39	5.97921
1231.77	1.3164
1235.14	2.18797
1238.52	2.18023
1241.89	6.78139
1245.26	6.24889
1248.64	4.59874
1252.01	4.79399
1255.39	4.76217
1258.76	1.07943
1262.14	5.02094
1265.51	3.37383
1268.89	7.28231
1272.26	2.49807
1275.64	3.02407
1279.01	1.63533
1282.39	1.96859
1285.76	1.55646
