Measurement: Raman, 532 nm, unoriented, Raman Data Processed
Mineral: Cervantite
Rruff sample: R060667
Ideal chemistry: Sb^3+^Sb^5+^O_4_
Locality: Touliac, Cantal, France
Source: Michael Scott
Description: Tan colored massive, spongelike, associated with quartz and romeite
Raman shift (cm-1)	intensity
92.1938	0
95.5686	1076.81
98.9434	1339.4
102.318	1209.42
105.693	29.1016
109.068	51.7891
112.443	46.1562
115.817	60.2773
119.192	77.1992
122.567	110.301
125.942	350.492
129.317	773.734
132.692	1154.04
136.066	1586.58
139.441	2771.71
142.816	4604.44
146.191	5885.15
149.566	2567.26
152.94	967.922
156.315	314.625
159.69	105.805
163.065	289.164
166.44	802.586
169.815	1847.42
173.189	3968.71
176.564	7176.01
179.939	12295.4
183.314	20452.4
186.689	30569.4
190.064	41815.4
193.438	53238.3
196.813	69080.1
200.188	80103.9
203.563	71525.4
206.938	50150.3
210.312	30959.5
213.687	19531.6
217.062	13278.4
220.437	9843.98
223.812	7805.85
227.186	5352.48
230.561	2455.34
233.936	1013.8
237.311	887.203
240.686	1488.38
244.06	2253.5
247.435	2430.21
250.81	2318.7
254.185	2872.44
257.56	4351.81
260.935	6149.55
264.309	6344.84
267.684	4396.3
271.059	3086.99
274.434	2242.38
277.809	1622.48
281.183	1284.66
284.558	805.625
287.933	425.789
291.308	167.641
294.683	7.44531
298.058	93.0781
301.432	218.602
304.807	172.023
308.182	76.8125
311.557	111.75
314.932	6.09375
318.307	74.0391
321.681	173.914
325.056	148.312
328.431	145.805
331.806	193.367
335.181	98.2422
338.555	368.281
341.93	582.406
345.305	700.609
348.68	807.242
352.055	858.102
355.43	1036.91
358.804	767.875
362.179	760.344
365.554	844.234
368.929	843.266
372.304	881.797
375.678	1302.27
379.053	2198.66
382.428	3619.33
385.803	6064.34
389.178	9245.05
392.553	13039.1
395.927	18689.7
399.302	25227.2
402.677	27493.8
406.052	22576.8
409.427	16241.7
412.801	12198.8
416.176	9917.23
419.551	8010.69
422.926	6075.91
426.301	4230.13
429.675	3122.74
433.05	2429.98
436.425	2256.77
439.8	2472.84
443.175	3297.71
446.55	4397.61
449.924	5780.7
453.299	7713.11
456.674	10162.5
460.049	12365.5
463.424	13254.7
466.798	10985.4
470.173	6988.23
473.548	3491.71
476.923	1120.26
480.298	8.5
483.673	429.883
487.047	225.359
490.422	9.97656
493.797	288.93
497.172	669.547
500.547	1637.42
503.921	3057.25
507.296	4862.63
510.671	6993.9
514.046	9283.84
517.421	11026.7
520.795	12811
524.17	13339.5
527.545	12026.5
530.92	9153.04
534.295	6159.59
537.67	3809.25
541.044	2051.3
544.419	1010.31
547.794	638.867
551.169	289.773
554.544	191.133
557.918	91.9531
561.293	246.484
564.668	473.641
568.043	234.953
571.418	169.523
574.793	261.078
578.167	315.984
581.542	318.023
584.917	388.695
588.292	493.281
591.667	730.812
595.042	831.891
598.416	1144.66
601.791	1283.77
605.166	1486.84
608.541	1960.33
611.916	2165.99
615.29	2028.6
618.665	2016.94
622.04	1985.56
625.415	1951.02
628.79	1717.84
632.164	1618.7
635.539	1330.03
638.914	1229.3
642.289	1166.86
645.664	1154.58
649.039	978.828
652.413	1023.41
655.788	588.406
659.163	249.547
662.538	109.062
665.913	227.078
669.288	373.828
672.662	89.75
676.037	242.172
679.412	156.469
682.787	129.25
686.162	82.9062
689.536	218.641
692.911	265.953
696.286	69.8438
699.661	223.797
703.036	419.5
706.41	638.219
709.785	756.609
713.16	927.234
716.535	983.375
719.91	1009.23
723.284	1290.86
726.659	1409.12
730.034	1165.38
733.409	925.594
736.784	1079.33
740.159	1260.52
743.533	1172.95
746.908	1472.53
750.283	1679.67
753.658	1380.58
757.033	1094.98
760.408	821.391
763.782	828.938
767.157	543.688
770.532	554.172
773.907	415.328
777.282	269.062
780.656	39.5312
784.031	317.906
787.406	204.984
790.781	259.938
794.156	44.4531
797.53	61.6406
800.905	215.141
804.28	550.562
807.655	1036.2
811.03	1012.53
814.405	1202.58
817.779	1314.22
821.154	1988.17
824.529	1482.06
827.904	1187.5
831.279	1141.81
834.654	873.344
838.028	594.672
841.403	894.25
844.778	1199.12
848.153	742.5
851.528	627.109
854.902	523.688
858.277	771.344
861.652	709.797
865.027	531.625
868.402	121.844
871.777	435.797
875.151	298.031
878.526	142.859
881.901	148.625
885.276	162.031
888.651	236.5
892.025	470.266
895.4	435.703
898.775	305.016
902.15	267.906
905.525	533.469
908.899	352.484
912.274	297.719
915.649	180.203
919.024	102.266
922.399	444.672
925.774	599.953
929.148	398.453
932.523	318.844
935.898	171.359
939.273	176.734
942.648	392.25
946.023	465.391
949.397	498.922
952.772	306.719
956.147	181.984
959.522	50.4219
962.896	260.922
966.271	489.297
969.646	794.828
973.021	812.406
976.396	726.969
979.771	768.719
983.145	887.875
986.52	1002.19
989.895	957.328
993.27	610.484
996.645	590.438
1000.02	743.281
1003.39	622.484
1006.77	496.156
1010.14	655.578
1013.52	770.969
1016.89	677.328
1020.27	429.781
1023.64	301.891
1027.02	573.688
1030.39	279.703
1033.77	408.938
1037.14	650.547
1040.52	726.562
1043.89	605.094
1047.27	338.812
1050.64	252.703
1054.02	265.25
1057.39	103.219
1060.77	114.906
1064.14	158.391
1067.52	177.406
1070.89	215.875
1074.27	88.6406
1077.64	160.969
1081.02	20.4062
1084.39	171.609
1087.77	247.641
1091.14	178.406
1094.51	70.8125
1097.89	141.734
1101.26	416.656
1104.64	54.4062
1108.01	70.6406
1111.39	741.844
1114.76	394.812
1118.14	310.438
1121.51	468.469
1124.89	180.453
1128.26	31.3906
1131.64	157.5
1135.01	100.688
1138.39	247.594
1141.76	532.469
1145.14	436.266
1148.51	288.078
1151.89	441.578
1155.26	1047.62
1158.64	881.594
1162.01	679.5
1165.38	631
1168.76	410.359
1172.13	651.203
1175.51	749.719
1178.88	695.766
1182.26	833.25
1185.63	995.781
1189.01	763.859
1192.38	1002.92
1195.76	629.016
1199.13	532.469
1202.51	411.594
1205.88	764.188
1209.26	602.625
1212.63	530.125
1216.01	583.094
1219.38	687.859
1222.76	419.906
1226.13	112.172
1229.51	63.8125
1232.88	53.2344
1236.26	169.25
1239.63	252.922
1243.01	345.453
1246.38	435.984
1249.76	435.609
1253.13	561
1256.51	673.266
1259.88	517.938
1263.26	300.281
1266.63	20.2812
1270.01	67.0312
1273.38	101.344
1276.76	53.4688
1280.13	270.391
1283.5	289.75
1286.88	357.203
1290.25	448.031
1293.63	439.797
1297	104.234
1300.38	37.4688
