Measurement: Raman, 785 nm, unoriented, Raman Data Processed
Mineral: Cervantite
Rruff sample: R060667
Ideal chemistry: Sb^3+^Sb^5+^O_4_
Locality: Touliac, Cantal, France
Source: Michael Scott
Description: Tan colored massive, spongelike, associated with quartz and romeite
Raman shift (cm-1)	intensity
139.366	0
142.258	1375.45
145.151	2492.4
148.044	2808.22
150.936	2592.57
153.829	2248.43
156.722	2036.35
159.615	2159
162.507	2628.92
165.4	3140.89
168.293	3624.06
171.185	4099.2
174.078	4547.17
176.971	5462.05
179.863	6933.32
182.756	9180.57
185.649	12774.9
188.542	17572.1
191.434	23493.8
194.327	30970.7
197.22	37534.4
200.112	37821.9
203.005	31580.8
205.898	23136.9
208.79	16396.2
211.683	12083.8
214.576	9507.1
217.469	8098.33
220.361	7196.31
223.254	6195.45
226.147	4951.83
229.04	3956.4
231.932	3419.96
234.825	3190.98
237.718	3140.98
240.61	3138.67
243.503	3038.87
246.396	2877.75
249.288	2796.69
252.181	2995.91
255.074	3416.17
257.966	4072.39
260.859	4263.32
263.752	3618.55
266.645	2812.03
269.537	2297.98
272.43	1878.65
275.323	1687.93
278.215	1430.38
281.108	1388.88
284.001	1200.5
286.893	918.815
289.786	762.992
292.679	667.597
295.572	542.525
298.464	529.858
301.357	532.531
304.25	439.581
307.142	463.769
310.035	356.531
312.928	268.007
315.82	140.113
318.713	88.254
321.606	43.739
324.499	6.767
327.391	86.62
330.284	59.729
333.177	49.911
336.069	9.914
338.962	111.385
341.855	151.436
344.747	274.564
347.64	383.651
350.533	423.146
353.426	440.72
356.318	361.666
359.211	254.421
362.104	291.843
364.996	292.801
367.889	343.13
370.782	395.304
373.674	557.236
376.567	699.897
379.46	942.402
382.353	1283.07
385.245	1937.77
388.138	3029.11
391.031	4834.87
393.923	7261.02
396.816	9973.64
399.709	11570.5
402.602	10449.7
405.494	8233.96
408.387	6227.53
411.28	5124.65
414.172	4399.12
417.065	3797.1
419.958	3203.89
422.85	2610.52
425.743	2168.09
428.636	1794.29
431.529	1713.92
434.421	1646.63
437.314	1635.65
440.207	1774.75
443.099	1952.76
445.992	2311.69
448.885	2702.9
451.777	3326.04
454.67	4090.29
457.563	5010.65
460.456	5635.97
463.348	5453.06
466.241	4267.81
469.134	3000.26
472.026	1987.16
474.919	1315.93
477.812	914.106
480.704	673.657
483.597	594.547
486.49	558.719
489.383	591.949
492.275	688.37
495.168	878.812
498.061	1049.81
500.953	1415.37
503.846	1810.96
506.739	2488.8
509.631	3145.97
512.524	3938.31
515.417	4730.9
518.31	5601.33
521.202	6194.47
524.095	6091.04
526.988	5367.96
529.88	4861.96
532.773	3456.58
535.666	2773.44
538.558	1685.8
541.451	1203.33
544.344	855.968
547.237	697.282
550.129	608.814
553.022	542.435
555.915	557.542
558.807	604.731
561.7	662.797
564.593	647.145
567.485	588.682
570.378	500.08
573.271	500.403
576.164	429.004
579.056	416.926
581.949	454.947
584.842	429.545
587.734	428.145
590.627	518.167
593.52	552.735
596.412	619.801
599.305	646.28
602.198	697.538
605.091	745.869
607.983	740.111
610.876	794.658
613.769	768.608
616.661	759.539
619.554	729.983
622.447	667.273
625.339	683.505
628.232	611.019
631.125	503.234
634.018	528.622
636.91	370.514
639.803	395.394
642.696	344.97
645.588	325.062
648.481	225.048
651.374	181.894
654.266	164.877
657.159	62.002
660.052	92.417
662.945	1.432
665.837	74.337
668.73	28.177
671.623	40.344
674.515	79.422
677.408	92.328
680.301	94.179
683.193	106.687
686.086	65.356
688.979	114.028
691.872	90.25
694.764	30.713
697.657	73.061
700.55	67.091
703.442	70.62
706.335	59.67
709.228	19.925
712.12	22.716
715.013	3.219
717.906	14.129
720.799	34.15
723.691	0.519
726.584	12.388
729.477	35.895
732.369	28.295
735.262	25.94
738.155	77.183
741.047	93.42
743.94	84.731
746.833	56.874
749.726	81.303
752.618	136.089
755.511	92.189
758.404	63.358
761.296	40.2
764.189	26.759
767.082	8.536
769.974	5.005
772.867	28.514
775.76	35.948
778.653	46.007
781.545	65.639
784.438	94.118
787.331	6.905
790.223	15.766
793.116	4.896
796.009	19.373
798.901	17.963
801.794	58.354
804.687	107.024
807.58	142.845
810.472	142.004
813.365	229.651
816.258	236.651
819.15	320.301
822.043	343.043
824.936	355.356
827.828	357.209
830.721	344.251
833.614	269.507
836.507	260.74
839.399	245.765
842.292	152.094
845.185	180.581
848.077	158.317
850.97	156.675
853.863	114.35
856.755	170.2
859.648	104.203
862.541	88.488
865.434	13.143
868.326	68.766
871.219	11.616
874.112	20.47
877.004	46.712
879.897	71.623
882.79	17.15
885.682	6.78
888.575	7.857
891.468	21.489
894.361	38.355
897.253	65.392
900.146	3.521
903.039	30.992
905.931	4.321
908.824	20.322
911.717	20.134
914.61	84.681
917.502	14.038
920.395	29.305
923.288	16.536
926.18	23.198
929.073	34.956
931.966	70.473
934.859	40.478
937.751	38.73
940.644	57.372
943.537	17.672
946.429	21.739
949.322	23.996
952.215	68.75
955.107	17.645
958	9.978
960.893	13.622
963.786	61.589
966.678	14.93
969.571	38.84
972.464	59.12
975.356	6.575
978.249	23.25
981.142	50.31
984.034	38.026
986.927	36.404
989.82	9.364
992.713	5.257
995.605	3.771
998.498	11.949
1001.39	52.361
1004.28	59.487
1007.18	43.601
1010.07	1.762
1012.96	30.867
1015.85	48.059
1018.75	16.616
1021.64	31.318
1024.53	21.146
1027.42	51.166
1030.32	50.092
1033.21	8.262
1036.1	51.779
1039	20.105
1041.89	16.958
1044.78	0.243
1047.67	34.033
1050.57	0.889
1053.46	5.758
1056.35	42.914
1059.24	0.804
1062.14	11.318
1065.03	17.954
1067.92	14.002
1070.82	22.144
1073.71	17.639
1076.6	1.741
1079.49	2.847
1082.39	32.165
1085.28	12.364
1088.17	32.328
1091.06	4.282
1093.96	18.132
1096.85	89.24
1099.74	57.067
1102.63	18.344
1105.53	27.903
1108.42	5.779
1111.31	46.238
1114.21	61.884
1117.1	51.166
1119.99	21.76
1122.88	12.433
1125.78	15.075
1128.67	37.382
1131.56	27.386
1134.45	57.105
1137.35	22.174
1140.24	2.081
1143.13	13.884
1146.03	56.392
1148.92	29.571
1151.81	15.081
1154.7	17.119
1157.6	29.921
1160.49	12.045
1163.38	42.122
1166.28	20.459
1169.17	9.861
1172.06	19.175
1174.95	21.203
1177.85	5.063
1180.74	16.08
1183.63	9.099
1186.52	27.112
1189.42	14.995
1192.31	5.359
1195.2	8.016
1198.09	33.84
1200.99	62.573
1203.88	5.132
1206.77	6.535
1209.66	19.456
1212.56	36.383
1215.45	27.336
1218.34	41.781
1221.24	36.439
1224.13	51.962
1227.02	46.668
1229.91	1.095
1232.81	32.014
1235.7	10.858
1238.59	11.196
1241.48	21.217
1244.38	35.76
1247.27	45.569
1250.16	63.783
1253.06	4
