Measurement: Raman, 532 nm, unoriented, Raman Data Processed
Mineral: Cervantite
Rruff sample: R070420
Ideal chemistry: Sb^3+^Sb^5+^O_4_
Locality: Wadley District, Catorce Mountains, San Luis Potosi, Mexico
Source: Rafael Barboza
Description: Light yellow massive pseudomorph after stibnite
Raman shift (cm-1)	intensity
161.715	0
164.607	16.6621
167.5	111.824
170.393	1106.88
173.286	2631.4
176.178	5083.85
179.071	8600.99
181.964	13555.7
184.856	20350.6
187.749	28474.9
190.642	37652.1
193.535	46313.7
196.427	53909.9
199.32	55863.7
202.213	50579.5
205.105	41059.9
207.998	30023.6
210.891	20510.1
213.783	13954.1
216.676	10294.5
219.569	7877.04
222.462	5993.85
225.354	4231.16
228.247	2799.4
231.14	1668.45
234.032	1108.12
236.925	1089.53
239.818	1182.54
242.71	1420.31
245.603	1497.6
248.496	1714.58
251.388	2189.25
254.281	2884.62
257.174	3625.21
260.067	4079.94
262.959	3542.2
265.852	2539.64
268.745	1835.28
271.637	1188.9
274.53	740.613
277.423	607.606
280.315	446.91
283.208	268.318
286.101	53.4258
288.994	76.4004
291.886	87.2305
294.779	10.3438
297.672	20.4473
300.564	56.084
303.457	9.64453
306.35	4.61523
309.243	38.4922
312.135	48.2734
315.028	36.5273
317.921	129.893
320.813	77.75
323.706	103.541
326.599	184.344
329.491	92.3086
332.384	108.606
335.277	81.5078
338.17	189.762
341.062	267.422
343.955	413.789
346.848	528.797
349.74	505.012
352.633	685.57
355.526	609.391
358.418	433.648
361.311	572.867
364.204	644.191
367.097	874.375
369.989	1059.83
372.882	1353.59
375.775	1659.28
378.667	2345.38
381.56	3581.21
384.453	5364.36
387.346	7624.75
390.238	11032.1
393.131	14568
396.024	18177.5
398.916	20296.5
401.809	19541.1
404.702	16221.7
407.594	12918.3
410.487	10464.4
413.38	8666.04
416.272	7287.09
419.165	5932.85
422.058	4834.79
424.951	3886.02
427.843	3447.85
430.736	3130.93
433.629	2818.19
436.521	2971.65
439.414	3177.96
442.307	3519.33
445.2	4133.3
448.092	4934.12
450.985	6369.64
453.878	7744
456.77	8531.1
459.663	9211.55
462.556	8392.68
465.448	6636.29
468.341	4150.3
471.234	2474.43
474.127	1383.24
477.019	598.305
479.912	65.8359
482.805	21.3034
485.697	24.4297
488.59	36.6671
491.483	179.512
494.375	694.961
497.268	1510.91
500.161	2315
503.053	3364.85
505.946	4508.95
508.839	5546.25
511.732	6655.43
514.624	7325.55
517.517	7696.68
520.41	7421.18
523.302	6691.56
526.195	5639.03
529.088	4463.71
531.981	3331.9
534.873	2494.57
537.766	1716.51
540.659	1109.1
543.551	508.883
546.444	378.719
549.337	94.1211
552.229	29.5508
555.122	10.6016
558.015	36.1055
560.908	36.0703
563.8	71.9648
566.693	11.8828
569.586	42.4609
572.478	5.06641
575.371	239.324
578.264	351.562
581.156	591.309
584.049	668.606
586.942	781.672
589.835	929.301
592.727	986.422
595.62	1257.41
598.513	1386.23
601.405	1439.79
604.298	1512.62
607.191	1524.75
610.083	1535.91
612.976	1824.63
615.869	1519.46
618.762	1532.55
621.654	1407.98
624.547	1505.5
627.44	1313.58
630.332	1238.28
633.225	1236.5
636.118	1213.12
639.01	1094.42
641.903	953.406
644.796	856.543
647.689	966.227
650.581	889.051
653.474	679.508
656.367	435.856
659.259	671.18
662.152	402.082
665.045	351.106
667.938	233.453
670.83	120.688
673.723	68.5625
676.616	48.1445
679.508	55.7305
682.401	33.8906
685.294	55.4375
688.186	80.7773
691.079	44.8828
693.972	116.762
696.865	60.5273
699.757	153.727
702.65	67.4609
705.543	216.523
708.435	271.473
711.328	324.168
714.221	257.062
717.113	170.512
720.006	337.027
722.899	536.039
725.792	518.754
728.684	319.586
731.577	543.68
734.47	498.133
737.362	513.09
740.255	607.078
743.148	597.461
746.04	496.086
748.933	404.656
751.826	518.019
754.719	366.277
757.611	479.977
760.504	269.699
763.397	178.402
766.289	174.258
769.182	182.504
772.075	241.621
774.967	127.402
777.86	130.121
780.753	151.652
783.646	67.8633
786.538	164.137
789.431	208.367
792.324	67.7148
795.216	9.78516
798.109	187.863
801.002	183.984
803.894	375.848
806.787	528.738
809.68	711.652
812.573	765.344
815.465	839.106
818.358	1029.48
821.251	1100.23
824.143	893.816
827.036	1136.58
829.929	960.394
832.822	780.801
835.714	706.402
838.607	505.664
841.5	445.336
844.392	536.84
847.285	427.008
850.178	272.762
853.07	324.394
855.963	258.562
858.856	205.047
861.749	207.164
864.641	155.84
867.534	308.711
870.427	5.3125
873.319	77.0352
876.212	11.1094
879.105	84.8594
881.997	101.441
884.89	42.4062
887.783	92.8164
890.676	84.3906
893.568	155.41
896.461	124.848
899.354	17.7734
902.246	31.8477
905.139	142.953
908.032	132.727
910.924	59.9062
913.817	113.062
916.71	213.992
919.602	134.344
922.495	296.949
925.388	127.172
928.281	243.695
931.173	181.18
934.066	107.418
936.959	188.195
939.851	268.219
942.744	261.945
945.637	203.117
948.529	311.957
951.422	123.856
954.315	347.773
957.208	397.453
960.1	275.609
962.993	327.32
965.886	405.559
968.778	326.402
971.671	84.2148
974.564	262.769
977.457	315.449
980.349	266.457
983.242	308.594
986.135	281.023
989.027	191.227
991.92	255.379
994.813	383.047
997.705	112.543
1000.6	28.1797
1003.49	57.5508
1006.38	235.777
1009.28	94.8516
1012.17	3.96484
1015.06	173.238
1017.95	155.785
1020.85	21.3008
1023.74	222.211
1026.63	202.211
1029.53	166.715
1032.42	139.457
1035.31	103.453
1038.2	392.269
1041.1	192.035
1043.99	70.7695
1046.88	170.672
1049.77	126.773
1052.67	8.24609
1055.56	129.348
1058.45	45.0859
1061.35	158.18
1064.24	252.977
1067.13	127.375
1070.02	57.8555
1072.92	110.625
1075.81	245.582
1078.7	165.785
1081.59	4.90234
1084.49	23.0039
1087.38	83.9805
1090.27	39.0938
1093.16	180.988
1096.06	53.1523
1098.95	1.30078
1101.84	0.625
1104.73	20.2305
1107.63	180.641
1110.52	85.6172
1113.41	202.691
1116.31	69.5938
1119.2	57.3203
1122.09	5.19922
1124.98	184.301
1127.88	78.8281
1130.77	65.3984
1133.66	142.18
1136.56	245.606
1139.45	311.289
1142.34	345.359
1145.23	277.742
1148.13	113.039
1151.02	167.379
1153.91	103.07
1156.8	86.3242
1159.7	52.0352
1162.59	164.918
1165.48	220.184
1168.38	224.441
1171.27	77.0312
1174.16	103.516
1177.05	365.973
1179.95	198.316
1182.84	204.973
1185.73	107.629
1188.62	171.402
1191.52	249.957
1194.41	220.238
1197.3	77.0898
1200.19	193.781
1203.09	214.875
1205.98	58.6211
1208.87	194.137
1211.77	245.195
1214.66	92.0859
1217.55	1.26172
1220.44	131.414
1223.34	168.859
1226.23	62.1016
1229.12	23.5
1232.01	221.504
1234.91	165.332
1237.8	191.492
1240.69	91.4883
1243.59	252.641
1246.48	123.883
1249.37	37.832
1252.26	209.488
1255.16	151.547
1258.05	250.062
1260.94	138.164
1263.83	143.812
1266.73	162.969
1269.62	185.695
1272.51	293.219
1275.4	347.758
1278.3	85.9453
1281.19	117.992
1284.08	372.57
1286.98	57.8047
1289.87	156.266
1292.76	195.055
1295.65	202.805
1298.55	41.4062
1301.44	137.203
1304.33	1.60156
