Measurement: Raman, 785 nm, unoriented, Raman Data Processed
Mineral: Cervantite
Rruff sample: R070420
Ideal chemistry: Sb^3+^Sb^5+^O_4_
Locality: Wadley District, Catorce Mountains, San Luis Potosi, Mexico
Source: Rafael Barboza
Description: Light yellow massive pseudomorph after stibnite
Raman shift (cm-1)	intensity
143.197	0
146.089	16.8795
148.982	59.5624
151.875	40.6465
154.768	34.4629
157.66	19.5994
160.553	27.0986
163.446	79.92
166.338	151.241
169.231	243.153
172.124	333.296
175.017	470.298
177.909	663.495
180.802	949.956
183.695	1348.44
186.587	1903.67
189.48	2463.71
192.373	3053.32
195.265	3647.51
198.158	4152.18
201.051	4234.24
203.944	3691.83
206.836	2949.89
209.729	2145.68
212.622	1483.53
215.514	1045.9
218.407	819.693
221.3	680.454
224.192	549.318
227.085	424
229.978	308.904
232.87	211.142
235.763	165.238
238.656	163.657
241.549	209.95
244.441	222.729
247.334	189.011
250.227	220.041
253.119	278.142
256.012	341.854
258.905	311.742
261.798	312.493
264.69	231.774
267.583	162.849
270.476	119.816
273.368	101.547
276.261	71.6645
279.154	62.4818
282.046	54.9225
284.939	37.5372
287.832	28.1829
290.724	24.7299
293.617	15.2141
296.51	3.09686
299.403	12.4404
302.295	10.1576
305.188	10.9231
308.081	5.57916
310.973	11.129
313.866	4.09247
316.759	3.60773
319.651	15.7376
322.544	4.4776
325.437	16.3196
328.33	7.52777
331.222	17.1656
334.115	0.26886
337.008	12.7405
339.9	32.1034
342.793	3.2879
345.686	31.7941
348.579	31.5614
351.471	42.9648
354.364	38.9938
357.257	41.8725
360.149	36.7939
363.042	40.414
365.935	32.2211
368.827	78.5625
371.72	93.0361
374.613	109.121
377.505	149.997
380.398	191.729
383.291	240.867
386.184	364.622
389.076	526.331
391.969	727.236
394.862	970.066
397.754	1223.31
400.647	1353.99
403.54	1238.42
406.433	1007.38
409.325	770.53
412.218	659.13
415.111	562.726
418.003	445.988
420.896	341.774
423.789	297.588
426.681	245.814
429.574	223.238
432.467	181.624
435.36	189.9
438.252	176.619
441.145	192.564
444.038	252.302
446.93	272.704
449.823	345.119
452.716	421.391
455.608	467.845
458.501	526.03
461.394	562.131
464.286	532.752
467.179	394.369
470.072	263.211
472.965	142.604
475.857	51.7347
478.75	13.0686
481.643	19.5158
484.535	20.1604
487.428	4.2157
490.321	13.3665
493.214	16.8139
496.106	75.1172
498.999	136.516
501.892	181.572
504.784	260.442
507.677	323.249
510.57	421.33
513.462	479.086
516.355	540.715
519.248	555.976
522.14	553.731
525.033	479.707
527.926	382.206
530.819	296.101
533.711	220.14
536.604	179.621
539.497	109.244
542.389	72.4419
545.282	42.1793
548.175	30.6284
551.067	2.41693
553.96	15.1829
556.853	0.13623
559.745	5.99322
562.638	24.9308
565.531	7.49029
568.424	14.5204
571.316	19.8244
574.209	5.45099
577.102	17.4501
579.994	5.27814
582.887	14.2637
585.78	18.1763
588.673	11.2421
591.565	39.6672
594.458	46.8939
597.351	50.7571
600.243	57.3062
603.136	68.291
606.029	67.6984
608.921	65.882
611.814	82.2909
614.707	90.0779
617.6	72.7995
620.492	71.3313
623.385	69.8751
626.278	57.807
629.17	65.3703
632.063	60.038
634.956	30.8986
637.848	55.147
640.741	44.9582
643.634	43.1384
646.527	39.9172
649.419	30.5263
652.312	30.6741
655.205	18.2092
658.097	16.9521
660.99	30.2932
663.883	8.69488
666.775	13.2665
669.668	3.73022
672.561	4.8609
675.454	5.94702
678.346	6.68951
681.239	12.0707
684.132	13.5812
687.024	6.00403
689.917	4.56451
692.81	13.7476
695.702	21.5075
698.595	15.8293
701.488	35.259
704.381	11.8623
707.273	6.80987
710.166	32.8462
713.059	13.6644
715.951	38.7244
718.844	21.387
721.737	31.0052
724.63	29.8557
727.522	45.9447
730.415	22.5484
733.308	31.7744
736.2	42.1244
739.093	35.2918
741.986	32.2357
744.878	49.2179
747.771	31.8365
750.664	26.4049
753.557	27.5244
756.449	15.1777
759.342	37.29
762.235	16.8862
765.127	9.30664
768.02	12.6909
770.913	1.75079
773.805	7.58591
776.698	6.69711
779.591	4.41696
782.484	1.10611
785.376	7.70334
788.269	14.6179
791.162	9.31171
794.054	24.0663
796.947	23.898
799.84	11.5088
802.732	12.998
805.625	23.8072
808.518	25.837
811.41	43.0697
814.303	47.5286
817.196	46.2817
820.089	51.2912
822.981	62.5105
825.874	67.3641
828.767	52.541
831.659	52.1661
834.552	50.2123
837.445	41.105
840.337	23.8244
843.23	36.3416
846.123	29.4356
849.016	12.1497
851.908	38.9812
854.801	32.6711
857.694	6.20465
860.586	16.3516
863.479	13.2247
866.372	10.5508
869.264	6.6286
872.157	9.90942
875.05	0.209503
877.943	0.169769
880.835	20.799
883.728	11.0322
886.621	13.2895
889.513	8.84973
892.406	1.14624
895.299	20.8312
898.192	1.59799
901.084	12.9698
903.977	2.7096
906.87	3.26727
909.762	0.640472
912.655	6.51221
915.548	27.0959
918.44	13.4381
921.333	22.385
924.226	17.426
927.119	13.6838
930.011	12.2555
932.904	10.7526
935.797	22.7132
938.689	11.6179
941.582	11.3795
944.475	18.7195
947.367	11.1519
950.26	9.08447
953.153	15.292
956.045	5.34967
958.938	2.7308
961.831	23.1398
964.724	9.63205
967.616	6.78299
970.509	6.48441
973.402	0.732025
976.294	12.3431
979.187	11.0844
982.08	9.61075
984.972	8.54648
987.865	19.0989
990.758	2.79364
993.651	15.7611
996.543	5.68042
999.436	5.44367
1002.33	13.5575
1005.22	1.36401
1008.11	17.7646
1011.01	4.62915
1013.9	14.4696
1016.79	2.94287
1019.68	18.6795
1022.58	9.60461
1025.47	13.3153
1028.36	20.6082
1031.26	2.67743
1034.15	4.0824
1037.04	20.6875
1039.93	8.6933
1042.83	35.1182
1045.72	7.21909
1048.61	9.26346
1051.51	13.8906
1054.4	14.8553
1057.29	8.4519
1060.18	14.2807
1063.08	1.24612
1065.97	0.007355
1068.86	7.75018
1071.75	22.591
1074.65	3.48053
1077.54	22.3464
1080.43	4.11572
1083.32	15.4469
1086.22	13.7844
1089.11	9.24213
1092	5.20749
1094.89	19.6834
1097.79	26.5497
1100.68	12.4393
1103.57	14.5674
1106.47	25.0777
1109.36	5.74347
1112.25	13.4519
1115.14	12.5053
1118.04	8.771
1120.93	15.1143
1123.82	4.96234
1126.71	18.6827
1129.61	5.59381
1132.5	12.3557
1135.39	9.11182
1138.29	13.1048
1141.18	28.1171
1144.07	11.8816
1146.96	11.9336
1149.86	14.851
1152.75	28.5098
1155.64	19.1412
1158.53	0.199066
1161.43	13.5974
1164.32	19.9712
1167.21	15.5593
1170.11	17.6666
1173	11.9305
1175.89	8.98074
1178.78	20.6217
1181.68	12.417
1184.57	8.20569
1187.46	8.6105
1190.35	10.3742
1193.25	5.88413
1196.14	12.1073
1199.03	10.6316
1201.92	13.1776
1204.82	16.6757
1207.71	15.5017
1210.6	8.21692
1213.5	14.323
1216.39	8.9342
1219.28	14.306
1222.17	12.9176
1225.07	11.9083
1227.96	13.3446
1230.85	2.26703
1233.74	4.1611
1236.64	14.6053
