Measurement: Raman, 532 nm, unoriented, Raman Data Processed
Mineral: Cesbronite
Rruff sample: R070198
Ideal chemistry: Cu_5_(Te^4+^O_3_)_2_(OH)_6_2H_2_O
Locality: Bambollita Mine (Oriental Mine), Moctezuma, Municipio de Moctezuma, Sonora, Mexico
Source: Michael Scott
Description: Dark green prismatic crystals associated with quartz
Raman shift (cm-1)	intensity
143.914	0
147.289	42.9624
150.664	83.6523
154.038	143.435
157.413	117.212
160.788	126.802
164.163	102.841
167.538	64.397
170.913	122.967
174.287	134.883
177.662	90.3911
181.037	59.1709
184.412	32.7539
187.787	75.7241
191.161	10.9995
194.536	33.4429
197.911	48.5938
201.286	13.2651
204.661	28.1343
208.036	57.623
211.41	95.8638
214.785	190.021
218.16	284.713
221.535	276.651
224.91	452.274
228.284	677.454
231.659	917.109
235.034	1400.89
238.409	2101.28
241.784	3204.49
245.159	4371.69
248.533	5912.2
251.908	7206.67
255.283	8102.02
258.658	7492.94
262.033	5853.73
265.407	4307.09
268.782	3199.02
272.157	2405.63
275.532	1907.39
278.907	1619.89
282.281	1438.74
285.656	1295.69
289.031	1250.27
292.406	1248.87
295.781	1360.31
299.156	1367.65
302.53	1402.02
305.905	1462.15
309.28	1417.13
312.655	1303.47
316.03	1272.67
319.404	1075.87
322.779	943.515
326.154	834.835
329.529	608.011
332.904	408.296
336.279	322.187
339.653	231.798
343.028	156.551
346.403	56.751
349.778	102.81
353.152	5.85547
356.527	46.4287
359.902	16.2861
363.277	34.4414
366.652	49.728
370.027	10.1733
373.401	21.2041
376.776	19.8794
380.151	23.5278
383.526	23.4077
386.901	29.436
390.276	67.0581
393.65	18.3682
397.025	44.1435
400.4	18.8428
403.775	13.9116
407.15	40.479
410.524	36.4883
413.899	70.4136
417.274	169.814
420.649	261.729
424.024	454.998
427.398	740.085
430.773	1067.68
434.148	1509.65
437.523	2066.63
440.898	2605.94
444.272	3278.6
447.647	3924.25
451.022	4602.79
454.397	5090.45
457.772	5336.54
461.147	5264.05
464.521	4910.39
467.896	4383.23
471.271	3702.67
474.646	3121.31
478.021	2620.77
481.396	2224.68
484.77	2042.54
488.145	1898.67
491.52	1716.55
494.895	1760.59
498.269	1815.6
501.644	1872.56
505.019	1912.6
508.394	1746.65
511.769	1553.88
515.144	1358.4
518.518	1145.9
521.893	993.159
525.268	806.857
528.643	686.083
532.018	593.33
535.393	461.516
538.767	318.537
542.142	122.798
545.517	96.0488
548.892	26.7061
552.266	119.536
555.641	129.705
559.016	175.558
562.391	195.038
565.766	193.463
569.141	128.419
572.515	16.9189
575.89	87.666
579.265	368.044
582.64	724.642
586.015	1398.64
589.389	2159.99
592.764	3063.91
596.139	4008.01
599.514	5086.08
602.889	5671.24
606.264	6164.38
609.638	6227.47
613.013	6059.48
616.388	5795.54
619.763	5460.17
623.138	5363.92
626.513	5263.1
629.887	5196.86
633.262	5355.18
636.637	5501.69
640.012	5786.23
643.386	6209.6
646.761	6771.15
650.136	7434.94
653.511	7947.23
656.886	8705.24
660.261	9548.23
663.635	10337.5
667.01	11027.2
670.385	11698.5
673.76	12131
677.135	12286.2
680.51	12246.5
683.884	11688.9
687.259	10839.6
690.634	9813.99
694.009	8642.29
697.384	7382.48
700.758	6175.29
704.133	4972.58
707.508	3932.6
710.883	2995.67
714.258	2267.89
717.632	1611.65
721.007	1113.55
724.382	721.762
727.757	418.766
731.132	178.958
734.506	39.5557
737.881	21.0703
741.256	136.603
744.631	179.902
748.006	168.794
751.381	184.741
754.755	114.012
758.13	94.4394
761.505	69.938
764.88	46.2007
768.255	101.847
771.63	125.593
775.004	188.204
778.379	293.377
781.754	348.372
785.129	411.269
788.504	440.893
791.878	554.066
795.253	520.857
798.628	672.007
802.003	684.999
805.378	689.557
808.752	720.932
812.127	730.883
815.502	676.625
818.877	616.759
822.252	631.917
825.626	613.036
829.001	578.141
832.376	519.396
835.751	508.893
839.126	508.671
842.5	459.517
845.875	397.47
849.25	406.753
852.625	331.4
856	345.09
859.375	284.382
862.749	286.805
866.124	278.477
869.499	226.856
872.874	249.241
876.249	194.473
879.624	161.058
882.998	133.226
886.373	131.048
889.748	84.1958
893.123	149.238
896.498	84.8442
899.872	86.0649
903.247	125.188
906.622	23.7207
909.997	68.8999
913.372	41.4697
916.746	35.519
920.121	10.5054
923.496	62.043
926.871	27.6401
930.246	22.04
933.62	45.7852
936.995	21.3936
940.37	80.0947
943.745	10.0122
947.12	71.5679
950.495	72.4868
953.869	44.3193
957.244	11.8765
960.619	70.5483
963.994	55.8706
967.369	35.104
970.744	40.206
974.118	40.3877
977.493	26.1929
980.868	13.7144
984.243	5.04394
987.618	19.1514
990.992	20.5269
994.367	23.3648
997.742	4.56055
1001.12	13.4971
1004.49	44.6274
1007.87	58.6079
1011.24	93.6719
1014.62	0.276367
1017.99	19.311
1021.37	91.814
1024.74	63.148
1028.12	41.2329
1031.49	69.9326
1034.87	102.39
1038.24	10.6685
1041.62	63.3833
1044.99	67.9629
1048.36	46.2568
1051.74	44.2134
1055.11	62.958
1058.49	10.1987
1061.86	66.6875
1065.24	74.8154
1068.61	89.7627
1071.99	22.1914
1075.36	75.0117
1078.74	84.3857
1082.11	94.2847
1085.49	18.0054
1088.86	48.8008
1092.24	39.6182
1095.61	3.80078
1098.99	16.1895
1102.36	71.1309
1105.74	104.334
1109.11	44.6426
1112.49	100.941
1115.86	50.1157
1119.23	30.4341
1122.61	42.2007
1125.98	107.802
1129.36	108.934
1132.73	84.5469
1136.11	122.159
1139.48	83.2168
1142.86	90.0586
1146.23	80.6728
1149.61	162.863
1152.98	129.12
1156.36	56.8906
1159.73	83.1011
1163.11	96.4429
1166.48	48.2915
1169.86	79.2153
1173.23	93.0019
1176.61	61.2856
1179.98	75.8081
1183.36	32.6929
1186.73	56.8198
1190.11	55.0317
1193.48	63.0078
1196.86	80.0552
1200.23	66.1655
1203.61	45.4395
1206.98	45.0732
1210.36	26.4448
1213.73	1.72656
1217.11	8.5415
1220.48	16.3755
1223.85	50.0405
1227.23	41.5757
1230.6	24.9956
1233.98	16.5205
1237.35	85.4858
1240.73	15.481
1244.1	9.24756
1247.48	34.9019
1250.85	21.9448
1254.23	0.727051
1257.6	20.4145
1260.98	28.0293
1264.35	5.88086
1267.73	30.7188
1271.1	80.0127
1274.48	116.772
1277.85	90.8428
1281.23	67.9717
1284.6	168.743
1287.98	84.6743
1291.35	111.976
1294.73	101.733
1298.1	78.2729
1301.47	67.3286
1304.85	63.8882
1308.22	60.4458
1311.6	0.083984
1314.97	0
