Measurement: Raman, 780 nm, unoriented, Raman Data Processed
Mineral: Cesbronite
Rruff sample: R080003
Ideal chemistry: Cu_5_(Te^4+^O_3_)_2_(OH)_6_2H_2_O
Locality: Montezuma mine, Sonora, Mexico
Source: William Pinch
Description: Green, sharp bipyramidal chisel-shaped crystals, associated with green prismatic jensenite. Holotype specimen
Raman shift (cm-1)	intensity
174.059	0
176.952	0.650013
179.845	0.228191
182.737	0.298201
185.63	0.029236
188.523	0.87945
191.416	0.121986
194.308	0.146812
197.201	1.61516
200.094	1.27687
202.986	0.240343
205.879	0.653936
208.772	0.925568
211.664	1.4457
214.557	1.6064
217.45	2.8465
220.343	4.32514
223.235	5.75394
226.128	7.89819
229.021	11.2049
231.913	14.6241
234.806	17.9976
237.699	22.5948
240.591	25.1785
243.484	28.073
246.377	29.201
249.269	29.1951
252.162	27.0364
255.055	22.9291
257.948	18.4548
260.84	14.2009
263.733	10.3177
266.626	7.90064
269.518	6.16767
272.411	5.17166
275.304	4.04701
278.197	2.91893
281.089	3.10812
283.982	2.75219
286.875	2.44765
289.767	3.33389
292.66	3.23825
295.553	3.1784
298.445	3.41531
301.338	3.73385
304.231	3.41486
307.123	3.0951
310.016	3.12992
312.909	2.87675
315.802	2.33364
318.694	2.59878
321.587	2.12753
324.48	1.29014
327.372	1.14166
330.265	1.5795
333.158	0.721249
336.05	0.306774
338.943	0.121819
341.836	0.177677
344.729	0.17861
347.621	0.534641
350.514	0.05549
353.407	0.036808
356.299	0.411978
359.192	0.225674
362.085	0.109793
364.978	0.031286
367.87	0.375751
370.763	0.513556
373.656	0.930046
376.548	0.748049
379.441	0.831133
382.334	1.255
385.226	1.76374
388.119	2.04553
391.012	1.91282
393.904	1.9337
396.797	1.65811
399.69	1.58403
402.583	0.925163
405.475	0.645771
408.368	0.493649
411.261	0.002588
414.153	0.398123
417.046	0.029301
419.939	0.428082
422.832	0.777714
425.724	1.38755
428.617	1.76625
431.51	2.0153
434.402	2.79026
437.295	4.32256
440.188	4.8931
443.08	5.71994
445.973	7.17584
448.866	7.62631
451.759	7.77109
454.651	7.65825
457.544	7.74402
460.437	6.81659
463.329	6.6124
466.222	5.03654
469.115	4.71901
472.007	3.31166
474.9	3.46073
477.793	2.93149
480.685	2.41009
483.578	2.87101
486.471	2.96607
489.364	3.26533
492.256	3.26745
495.149	3.72895
498.042	3.70244
500.934	4.01725
503.827	3.33871
506.72	3.29575
509.613	2.91894
512.505	3.00526
515.398	2.13126
518.291	2.13936
521.183	1.16894
524.076	1.01041
526.969	0.554989
529.861	0.42351
532.754	0.079376
535.647	0.12075
538.539	0.114912
541.432	0.094893
544.325	0.000546
547.218	0.281185
550.11	0.556324
553.003	0.404942
555.896	0.287226
558.788	0.035389
561.681	0.061687
564.574	0.640091
567.466	0.504663
570.359	1.31395
573.252	1.19744
576.145	1.92529
579.037	3.16533
581.93	4.0046
584.823	4.94792
587.715	5.82118
590.608	6.87116
593.501	8.0122
596.394	8.08217
599.286	8.55411
602.179	9.06613
605.072	8.87159
607.964	9.40333
610.857	9.18137
613.75	9.58549
616.642	10.108
619.535	9.86323
622.428	9.81068
625.321	10.3771
628.213	10.2882
631.106	11.2163
633.999	11.1665
636.891	11.382
639.784	11.7069
642.677	12.1003
645.569	11.9165
648.462	11.6132
651.355	12.122
654.247	12.4043
657.14	12.5207
660.033	12.4072
662.926	12.4739
665.818	11.9963
668.711	10.9966
671.604	11.1704
674.496	9.93156
677.389	9.83477
680.282	8.09718
683.174	7.17452
686.067	6.44646
688.96	5.23692
691.853	4.4633
694.745	4.22435
697.638	2.95282
700.531	2.37588
703.423	1.81108
706.316	1.17973
709.209	1.25423
712.101	0.576782
714.994	0.107596
717.887	0.073722
720.78	0.020656
723.672	0.147039
726.565	0.246052
729.458	0.357109
732.35	0.327521
735.243	0.226045
738.136	0.390563
741.029	0.004529
743.921	0.006416
746.814	0.425079
749.707	0.066926
752.599	0.02924
755.492	0.23215
758.385	0.517302
761.277	0.429094
764.17	0.264075
767.063	0.384542
769.956	0.426353
772.848	0.723298
775.741	0.957759
778.634	0.957786
781.526	0.902669
784.419	0.915636
787.312	1.21339
790.204	0.961428
793.097	0.967298
795.99	1.19894
798.883	1.17196
801.775	0.95963
804.668	0.926937
807.561	1.19063
810.453	1.05117
813.346	0.765342
816.239	1.14591
819.131	0.795908
822.024	0.513173
824.917	1.00135
827.809	0.773326
830.702	0.625911
833.595	0.86601
836.487	1.15652
839.38	0.579241
842.273	1.01296
845.166	0.756407
848.058	1.19374
850.951	0.947909
853.844	0.702713
856.736	0.804059
859.629	0.34662
862.522	0.569917
865.415	0.960178
868.307	0.793509
871.2	0.652632
874.093	0.71731
876.985	0.671195
879.878	0.256758
882.771	0.755369
885.663	0.365729
888.556	0.710896
891.449	0.29122
894.342	0.283327
897.234	0.075099
900.127	0.149166
903.02	0.405894
905.912	0.281164
908.805	0.02861
911.698	0.028993
914.591	0.118532
917.483	0.162253
920.376	0.019798
923.269	0.188164
926.161	0.115423
929.054	0.530688
931.947	0.005866
934.839	0.015111
937.732	0.366371
940.625	0.375834
943.518	0.248643
946.41	0.063586
949.303	0.273393
952.196	0.004304
955.088	0.476549
957.981	0.350387
960.874	0.209306
963.766	0.410194
966.659	0.167773
969.552	0.316187
972.444	0.152209
975.337	0.569827
978.23	0.078758
981.123	0.18822
984.015	0.236989
986.908	0.287048
989.801	0.454371
992.693	0.455773
995.586	0.099472
998.479	0.43493
1001.37	0.588886
1004.26	0.480643
1007.16	0.069463
1010.05	0.111364
1012.94	0.249727
1015.84	0.474777
1018.73	0.015509
1021.62	0.115926
1024.51	0.47404
1027.41	0.296839
1030.3	0.078309
1033.19	0.289879
1036.08	0.5452
1038.98	0.328671
1041.87	0.10681
1044.76	0.04779
1047.65	0.133847
1050.55	0.104798
1053.44	0.579585
1056.33	0.447778
1059.22	0.033927
1062.12	0.128385
1065.01	0.399364
1067.9	0.349954
1070.8	0.422908
1073.69	0.100425
1076.58	0.132723
1079.47	0.288706
1082.37	0.228184
1085.26	0.418612
1088.15	0.645012
1091.05	0.027418
1093.94	0.085641
1096.83	0.258438
1099.72	0.126573
1102.62	0.34544
1105.51	0.029609
1108.4	0.496424
1111.29	0.20656
1114.19	0.324671
1117.08	0.650002
1119.97	0.038144
1122.87	0.076474
1125.76	0.120143
1128.65	0.205666
1131.54	0.060764
1134.44	0.279747
1137.33	0.36158
1140.22	0.314208
1143.11	0.458865
1146.01	0.177069
1148.9	0.575405
1151.79	0.548618
1154.68	0.098954
1157.58	0.179734
1160.47	0.409537
1163.36	0.403082
1166.26	0.025012
1169.15	0.488469
1172.04	0.393173
1174.93	0.280704
1177.83	0.552792
1180.72	0.472742
1183.61	0.429092
1186.5	0.170773
1189.4	0.681634
1192.29	0.555033
1195.18	0.396092
1198.08	0.0803
1200.97	0.278588
1203.86	0.191437
1206.75	0.68101
1209.65	0.486107
1212.54	0.456103
1215.43	0.571874
1218.32	0.472455
1221.22	0.276691
1224.11	0.38732
1227	0.070723
1229.89	0.330062
1232.79	0.314391
1235.68	0.648995
1238.57	0.262154
1241.47	0.355361
1244.36	0.347836
1247.25	0.601873
1250.14	0.131692
1253.04	0.562674
1255.93	0.457852
1258.82	0.458263
1261.71	0.365423
1264.61	0.279241
1267.5	0.444012
1270.39	0.388639
1273.29	0.314326
1276.18	0.468721
1279.07	0.26052
1281.96	0.030701
1284.86	0.477883
1287.75	0.05558
