Measurement: Raman, 532 nm, unoriented, Raman Data Processed
Mineral: Cesbronite
Rruff sample: R080003
Ideal chemistry: Cu_5_(Te^4+^O_3_)_2_(OH)_6_2H_2_O
Locality: Montezuma mine, Sonora, Mexico
Source: William Pinch
Description: Green, sharp bipyramidal chisel-shaped crystals, associated with green prismatic jensenite. Holotype specimen
Raman shift (cm-1)	intensity
153.189	0
156.081	1.92935
158.974	3.51874
161.867	1.63873
164.76	3.49844
167.652	9.11023
170.545	6.36258
173.438	9.68445
176.33	9.41159
179.223	9.09323
182.116	4.93207
185.008	4.12237
187.901	3.33838
190.794	2.27707
193.686	2.75552
196.579	1.3479
199.472	0.424713
202.365	0.723267
205.257	0.292297
208.15	1.95663
211.043	6.18637
213.935	11.0733
216.828	14.4012
219.721	17.0845
222.613	20.4273
225.506	25.514
228.399	33.6618
231.292	48.2613
234.184	69.5341
237.077	101.85
239.97	139.551
242.862	180.724
245.755	226.942
248.648	279.949
251.541	339.001
254.433	397.657
257.326	413.261
260.219	359.516
263.111	273.365
266.004	203.163
268.897	152.664
271.789	121.886
274.682	99.8341
277.575	87.5535
280.467	78.628
283.36	75.6309
286.253	74.7418
289.146	79.8055
292.038	86.1503
294.931	91.6526
297.824	95.0722
300.716	102.483
303.609	111.168
306.502	115.844
309.394	114.951
312.287	111.652
315.18	105.461
318.073	100.029
320.965	88.1907
323.858	75.8841
326.751	62.9616
329.643	53.3729
332.536	44.1791
335.429	30.0169
338.322	21.8453
341.214	14.4533
344.107	11.5511
347	3.74558
349.892	2.07114
352.785	1.60031
355.678	1.07559
358.57	2.45648
361.463	3.34259
364.356	1.4776
367.248	1.78934
370.141	1.38599
373.034	1.22821
375.926	0.49411
378.819	2.89447
381.712	3.77072
384.605	4.68832
387.497	5.72678
390.39	6.68539
393.283	9.44293
396.175	6.98959
399.068	2.96414
401.961	1.75089
404.853	0.287323
407.746	0.257263
410.639	0.066711
413.532	0.089935
416.424	3.01584
419.317	5.43802
422.21	11.6579
425.102	15.9742
427.995	29.11
430.888	37.0046
433.781	53.9484
436.673	73.4963
439.566	96.846
442.459	119.67
445.351	149.825
448.244	171.399
451.137	196.16
454.029	216.209
456.922	226.18
459.815	228.202
462.707	219.801
465.6	194.313
468.493	166.677
471.386	144.684
474.278	120.993
477.171	101.578
480.064	90.5029
482.956	80.9782
485.849	74.2099
488.742	71.3499
491.635	70.1205
494.527	75.9037
497.42	78.5246
500.313	80.8
503.205	81.7601
506.098	78.8376
508.991	68.796
511.883	59.9802
514.776	47.6905
517.669	42.1743
520.562	35.2877
523.454	29.5905
526.347	22.8418
529.24	18.895
532.132	14.6293
535.025	13.7503
537.918	7.74725
540.81	4.37369
543.703	3.10223
546.596	0.223694
549.489	3.57178
552.381	3.02057
555.274	3.5993
558.167	6.97199
561.059	7.68951
563.952	6.63098
566.845	5.66089
569.737	3.20123
572.63	0.235107
575.523	3.73383
578.415	11.0981
581.308	22.0922
584.201	36.5785
587.094	56.8099
589.986	86.5699
592.879	114.49
595.772	148.656
598.664	184.061
601.557	212.892
604.45	233.072
607.342	243.786
610.235	241.912
613.128	229.391
616.021	214.413
618.913	201.903
621.806	189.567
624.699	185.608
627.591	183.369
630.484	181.871
633.377	181.265
636.269	182.158
639.162	184.477
642.055	195.919
644.948	205.054
647.84	214.082
650.733	225.053
653.626	242.432
656.518	261.822
659.411	278.237
662.304	304.267
665.197	323.228
668.089	342.543
670.982	357.217
673.875	365.8
676.767	377.624
679.66	371.531
682.553	362.28
685.445	346.695
688.338	322.509
691.231	302.35
694.124	273.913
697.016	238.243
699.909	209.14
702.802	175.88
705.694	148.579
708.587	121.754
711.48	98.6649
714.372	79.276
717.265	59.3251
720.158	45.5286
723.051	31.3781
725.943	22.3158
728.836	12.8874
731.729	7.74234
734.621	1.59976
737.514	0.369354
740.407	5.1012
743.299	6.59036
746.192	5.65472
749.085	6.75098
751.977	5.32608
754.87	2.47437
757.763	3.92459
760.656	0.225098
763.548	1.52048
766.441	2.78888
769.334	4.49939
772.226	5.69772
775.119	8.00366
778.012	11.1544
780.904	14.5013
783.797	15.2707
786.69	18.0251
789.582	17.5378
792.475	19.5598
795.368	22.4319
798.261	22.551
801.153	21.6238
804.046	20.9056
806.939	23.0158
809.831	22.1806
812.724	21.7842
815.617	19.5202
818.51	18.3483
821.402	18.2669
824.295	17.3727
827.188	16.3567
830.08	15.2242
832.973	14.791
835.866	14.662
838.758	15.0182
841.651	13.1573
844.544	13.9346
847.437	12.8387
850.329	8.73825
853.222	10.2756
856.115	9.66238
859.007	9.19864
861.9	8.33447
864.793	8.68607
867.685	7.58993
870.578	7.02664
873.471	7.20254
876.364	5.08499
879.256	4.82498
882.149	2.32101
885.042	3.98587
887.934	2.26843
890.827	1.78058
893.72	2.15332
896.612	1.76514
899.505	4.03857
902.398	1.4042
905.29	3.4234
908.183	1.27292
911.076	1.20135
913.969	2.43735
916.861	0.284607
919.754	1.59097
922.647	1.54157
925.539	1.633
928.432	0.29837
931.325	0.612885
934.217	2.47443
937.11	1.43445
940.003	3.12323
942.896	3.47644
945.788	3.52533
948.681	4.50766
951.574	0.664856
954.466	5.6568
957.359	2.26657
960.252	2.5611
963.144	3.73798
966.037	1.78473
968.93	2.88385
971.823	2.39905
974.715	2.90729
977.608	1.24316
980.501	1.29041
983.393	0.2453
986.286	0.141327
989.179	0.916351
992.072	1.04968
994.964	0.173126
997.857	0.254211
1000.75	0.79071
1003.64	0.474854
1006.53	0.948517
1009.43	1.67026
1012.32	1.4144
1015.21	0.911407
1018.11	0.79007
1021	2.21982
1023.89	0.044556
1026.78	1.4639
1029.68	1.91833
1032.57	2.17416
1035.46	2.79102
1038.36	0.858978
1041.25	1.48148
1044.14	1.39441
1047.03	2.25208
1049.93	2.77506
1052.82	3.72952
1055.71	1.90686
1058.6	1.60333
1061.5	2.97592
1064.39	0.999847
1067.28	0.527496
1070.17	0.13382
1073.07	2.87985
1075.96	2.70062
1078.85	2.81235
1081.74	2.27789
1084.64	1.99191
1087.53	2.39401
1090.42	0.13916
1093.32	1.73621
1096.21	1.54446
1099.1	0.969788
1101.99	1.58063
1104.89	0.678833
1107.78	1.16769
1110.67	1.69827
1113.57	2.09558
1116.46	0.147339
1119.35	0.831665
1122.24	2.20618
1125.14	2.70221
1128.03	2.31421
1130.92	4.4783
1133.81	3.37265
1136.71	3.30243
1139.6	5.79089
1142.49	4.64789
1145.38	3.42825
1148.28	7.14853
1151.17	5.68683
1154.06	5.99676
1156.95	5.42346
1159.85	5.29538
1162.74	4.59085
1165.63	5.58798
1168.53	6.16574
1171.42	2.76886
1174.31	3.28149
1177.2	2.82931
1180.1	4.24353
1182.99	3.85895
1185.88	0.869568
1188.78	1.63257
1191.67	1.82123
1194.56	2.94901
1197.45	2.76071
1200.35	2.23825
1203.24	2.52881
1206.13	1.98883
1209.02	2.44202
1211.92	2.97855
1214.81	1.07703
1217.7	2.45871
1220.6	4.14142
1223.49	1.75732
1226.38	2.99649
1229.27	0.85675
1232.17	1.24905
1235.06	1.50198
1237.95	1.06476
1240.84	0.201447
1243.74	1.28561
1246.63	2.91333
1249.52	2.16467
1252.41	1.08139
1255.31	0.192139
1258.2	0.574249
1261.09	2.61511
1263.98	1.84155
1266.88	1.42831
1269.77	0.200104
1272.66	1.46298
1275.56	0.300385
1278.45	1.08905
1281.34	1.89676
1284.23	2.72739
1287.13	0.644592
1290.02	1.10727
1292.91	0.373657
1295.81	1.1774
1298.7	0.144073
1301.59	0.506287
1304.48	0.901215
