Measurement: Raman, 785 nm, unoriented, Raman Data Processed
Mineral: Chabazite-Ca
Rruff sample: R050075
Ideal chemistry: Ca_2_Al_4_Si_8_O_24_13H_2_O
Locality: Victoria, Australia
Source: Rock Currier
Description: White pseudohexagonal crystals
Measured chemistry: (Ca_0.79_Na_0.22_K_0.14_)_Σ=1.15_(Si_4.08_Al_1.92_)O_12_·6H_2_O
Raman shift (cm-1)	intensity
134.037	0
136.929	2.14777
139.822	20.7723
142.715	78.3813
145.607	331.742
148.5	643.623
151.393	902.861
154.286	866.637
157.178	769.106
160.071	707.125
162.964	733.29
165.856	765.853
168.749	788.285
171.642	756.783
174.534	728.935
177.427	688.356
180.32	624.587
183.212	600.425
186.105	523.589
188.998	473.455
191.891	418.332
194.783	387.434
197.676	341.465
200.569	317.392
203.461	281.832
206.354	203.522
209.247	221.889
212.139	137.194
215.032	153.378
217.925	114.977
220.818	72.812
223.71	78.0263
226.603	54.2554
229.496	45.8735
232.388	23.5458
235.281	20.9274
238.174	2.98273
241.066	0.478149
243.959	14.8138
246.852	14.0288
249.745	2.23169
252.637	13.2458
255.53	13.6601
258.423	2.85181
261.315	10.1948
264.208	1.93933
267.101	14.3328
269.993	5.79858
272.886	16.9546
275.779	46.1357
278.672	50.6032
281.564	70.5034
284.457	97.9634
287.35	104.276
290.242	117.281
293.135	121.954
296.028	132.346
298.921	141.852
301.813	138.03
304.706	151.014
307.599	148.855
310.491	151.731
313.384	166.488
316.277	210.018
319.169	247.285
322.062	272.626
324.955	269.701
327.847	286.703
330.74	317.9
333.633	292.255
336.526	302.106
339.418	271.368
342.311	220.711
345.204	205.112
348.096	145.982
350.989	127.769
353.882	114.164
356.774	59.3795
359.667	65.7446
362.56	55.0925
365.452	9.0567
368.345	12.8879
371.238	18.6855
374.131	10.437
377.023	18.9929
379.916	0.529114
382.809	16.0444
385.701	0.50415
388.594	12.7121
391.487	18.5115
394.38	11.7336
397.272	5.35053
400.165	20.4193
403.058	40.0767
405.95	32.3062
408.843	46.7249
411.736	66.365
414.628	75.6308
417.521	145.679
420.414	180.675
423.307	226.426
426.199	330.494
429.092	441.216
431.985	533.702
434.877	690.848
437.77	868.675
440.663	1028.27
443.555	1231.71
446.448	1464.19
449.341	1667.04
452.234	1799.01
455.126	1975.42
458.019	2111.28
460.912	2200.39
463.804	2321.34
466.697	2416.98
469.59	2522.45
472.483	2669.8
475.375	2793.07
478.268	2814.93
481.161	2717.18
484.053	2482.54
486.946	2144
489.839	1796.95
492.731	1412.2
495.624	1153.21
498.517	840.542
501.409	648.931
504.302	517.594
507.195	383.887
510.088	290.938
512.98	224.445
515.873	168.185
518.766	109.28
521.658	85.7054
524.551	51.8332
527.444	26.3002
530.337	18.5427
533.229	11.1945
536.122	5.16864
539.015	7.84418
541.907	2.28259
544.8	8.08179
547.693	4.67902
550.585	16.2658
553.478	2.52411
556.371	1.66089
559.263	3.57489
562.156	15.1901
565.049	15.1418
567.942	11.6943
570.834	17.0632
573.727	7.28796
576.62	21.3145
579.512	14.3072
582.405	6.19556
585.298	24.9071
588.19	41.5814
591.083	22.9093
593.976	38.095
596.869	42.3564
599.761	38.8294
602.654	34.917
605.547	52.7624
608.439	47.2807
611.332	37.5456
614.225	40.2842
617.117	30.8376
620.01	32.266
622.903	25.4787
625.795	27.7601
628.688	12.0124
631.581	49.9852
634.474	29.1302
637.366	32.564
640.259	37.2157
643.152	30.7068
646.044	36.6647
648.937	19.0463
651.83	22.7717
654.722	28.7064
657.615	7.26678
660.508	29.8683
663.401	24.1887
666.293	4.23059
669.186	30.1054
672.079	10.7574
674.971	4.64471
677.864	19.3815
680.757	0.523102
683.649	3.85919
686.542	15.4626
689.435	20.1716
692.328	2.31589
695.22	28.2114
698.113	25.8848
701.006	24.611
703.898	9.24475
706.791	35.5661
709.684	27.069
712.577	41.6622
715.469	48.4344
718.362	38.0787
721.255	39.2845
724.147	25.3073
727.04	11.5296
729.933	17.2503
732.825	7.25192
735.718	13.0015
738.611	2.92285
741.504	10.9182
744.396	4.10834
747.289	16.6739
750.182	13.0961
753.074	7.7612
755.967	12.6644
758.86	34.9888
761.752	19.6811
764.645	41.041
767.538	36.9534
770.431	31.5651
773.323	48.8071
776.216	43.5786
779.109	62.7551
782.001	68.6354
784.894	64.826
787.787	105.341
790.679	84.7977
793.572	90.3595
796.465	85.2588
799.357	75.1138
802.25	62.6562
805.143	62.9975
808.036	29.3105
810.928	8.12485
813.821	12.873
816.714	10.857
819.606	10.5503
822.499	15.6684
825.392	9.41397
828.284	12.755
831.177	2.10605
834.07	7.75678
836.963	14.5185
839.855	14.4046
842.748	25.7046
845.641	1.12761
848.533	15.0619
851.426	18.8385
854.319	21.1165
857.212	4.91962
860.104	27.7601
862.997	17.4224
865.89	16.855
868.782	26.7016
871.675	15.38
874.568	18.2033
877.46	41.2659
880.353	20.2571
883.246	19.3728
886.139	13.2139
889.031	18.1335
891.924	20.8927
894.817	20.8255
897.709	24.8959
900.602	19.1862
903.495	37.7577
906.388	26.7522
909.28	16.6012
912.173	31.2039
915.066	24.4701
917.958	11.1929
920.851	16.27
923.744	22.5359
926.636	13.9908
929.529	16.9379
932.422	13.7092
935.314	6.18022
938.207	7.58676
941.1	18.6425
943.993	7.67712
946.885	5.6658
949.778	24.7826
952.671	8.59012
955.563	4.14618
958.456	0.629852
961.349	10.2002
964.241	8.5954
967.134	3.33347
970.027	18.7518
972.92	17.3705
975.812	10.6272
978.705	19.5407
981.598	2.03638
984.49	13.3235
987.383	27.5474
990.276	21.69
993.168	34.6176
996.061	34.5294
998.954	0.455536
1001.85	14.917
1004.74	2.22714
1007.63	40.6175
1010.52	33.2084
1013.42	45.8695
1016.31	12.9904
1019.2	39.0078
1022.1	31.638
1024.99	10.273
1027.88	33.7232
1030.77	5.15985
1033.67	26.6625
1036.56	0.270294
1039.45	4.02457
1042.34	0.444275
1045.24	3.14862
1048.13	15.3108
1051.02	41.9088
1053.91	19.2869
1056.81	18.3789
1059.7	21.1748
1062.59	39.012
1065.49	53.5861
1068.38	47.0808
1071.27	37.0754
1074.16	95.3975
1077.06	71.0992
1079.95	62.8972
1082.84	73.4133
1085.73	89.2398
1088.63	75.7604
1091.52	94.5226
1094.41	98.6937
1097.31	93.7051
1100.2	86.5352
1103.09	101.731
1105.98	92.1023
1108.88	80.3823
1111.77	83.9079
1114.66	87.779
1117.56	71.9328
1120.45	66.6248
1123.34	79.4022
1126.23	75.8133
1129.12	76.6751
1132.02	51.4251
1134.91	47.4291
1137.8	66.0776
1140.7	52.5282
1143.59	28.7874
1146.48	67.533
1149.37	52.7054
1152.27	53.824
1155.16	48.6065
1158.05	20.3701
1160.94	30.0383
1163.84	14.5034
1166.73	22.9699
1169.62	15.6428
1172.52	15.9739
1175.41	3.91791
1178.3	3.95728
1181.19	7.82172
1184.09	5.06574
1186.98	5.4081
1189.87	15.2823
1192.77	23.5318
1195.66	18.1867
1198.55	9.22279
1201.44	21.1602
1204.34	32.332
1207.23	32.0126
1210.12	32.3196
1213.01	28.8917
1215.91	15.9652
1218.8	11.5673
1221.69	16.9191
1224.58	16.72
1227.48	6.38046
1230.37	14.8883
1233.26	20.6465
