Measurement: Raman, 785 nm, unoriented, Raman Data Processed
Mineral: Chabazite-Ca
Rruff sample: R050014
Ideal chemistry: Ca_2_Al_4_Si_8_O_24_13H_2_O
Locality: Tablo Mountain, Baja California, Mexico
Source: University of Arizona Mineral Museum
Description: Light tan colored rhombohedral single crystals
Measured chemistry: (Ca_0.72_Mg_0.11_K_0.09_Sr_0.06_Na_0.01_)_Σ=1_(Si_4.12_Al_1.88_)O_12_·6H_2_O
Raman shift (cm-1)	intensity
168.749	0
171.642	24.0972
174.534	46.5449
177.427	180.313
180.32	238.454
183.212	231.018
186.105	216.317
188.998	307.15
191.891	255.289
194.783	307.466
197.676	295.512
200.569	230.579
203.461	182.406
206.354	171.566
209.247	166.811
212.139	53.5566
215.032	96.7676
217.925	97.5644
220.818	95.5102
223.71	110.97
226.603	2.7749
229.496	86.9819
232.388	16.4185
235.281	5.73926
238.174	37.544
241.066	24.1113
243.959	29.9556
246.852	10.0547
249.745	16.7534
252.637	22.6699
255.53	7.91992
258.423	26.6973
261.315	52.9053
264.208	114.58
267.101	5.40723
269.993	53.147
272.886	68.5239
275.779	47.521
278.672	99.1543
281.564	94.9585
284.457	134.109
287.35	202.022
290.242	234.791
293.135	204.968
296.028	200.421
298.921	222.763
301.813	237.792
304.706	279.519
307.599	314.24
310.491	291.216
313.384	348.81
316.277	341.09
319.169	292.771
322.062	397.482
324.955	419.962
327.847	520.983
330.74	579.095
333.633	511.995
336.526	518.52
339.418	441.471
342.311	352.314
345.204	334.97
348.096	169.931
350.989	237.175
353.882	168.487
356.774	130.56
359.667	54.9497
362.56	18.0679
365.452	65.6792
368.345	18.5195
371.238	7.7832
374.131	54.6719
377.023	41.8994
379.916	6.16943
382.809	20.186
385.701	17.9238
388.594	15.1196
391.487	30.4111
394.38	47.7861
397.272	39.5596
400.165	31.6284
403.058	11.1528
405.95	5.93311
408.843	34.2666
411.736	14.2129
414.628	87.355
417.521	133.084
420.414	219.075
423.307	321.281
426.199	423.715
429.092	509.646
431.985	713.093
434.877	955.996
437.77	1216.49
440.663	1492.54
443.555	1875.9
446.448	2230.17
449.341	2604.37
452.234	2854.93
455.126	3020.98
458.019	3036.08
460.912	3061.62
463.804	2958.74
466.697	2835.32
469.59	2884.19
472.483	2904.78
475.375	2861.65
478.268	2705.97
481.161	2506.36
484.053	2246.31
486.946	1890.6
489.839	1446.37
492.731	1147.95
495.624	889.519
498.517	678.374
501.409	484.791
504.302	360.315
507.195	281.584
510.088	253.417
512.98	124.338
515.873	104.658
518.766	87.4639
521.658	70.8769
524.551	30.9565
527.444	36.7046
530.337	34.1909
533.229	5.66504
536.122	7.15332
539.015	11.4702
541.907	20.917
544.8	54.7656
547.693	20.7285
550.585	20.4761
553.478	21.0483
556.371	16.4414
559.263	58.4995
562.156	12.9434
565.049	72.8047
567.942	31.5527
570.834	45.2065
573.727	7.50195
576.62	53.898
579.512	78.4038
582.405	29.1323
585.298	59.4111
588.19	79.1763
591.083	64.9473
593.976	65.4634
596.869	62.3594
599.761	147.095
602.654	71.6909
605.547	27.2124
608.439	20.5166
611.332	45.731
614.225	38.4917
617.117	26.2998
620.01	20.0054
622.903	64.5703
625.795	15.8828
628.688	86.1436
631.581	62.8232
634.474	79.6123
637.366	34.8916
640.259	77.2998
643.152	82.48
646.044	27.1963
648.937	102.397
651.83	65.0024
654.722	89.2158
657.615	57.0337
660.508	12.4521
663.401	21.8462
666.293	86.8296
669.186	28.1538
672.079	6.53711
674.971	23.0205
677.864	33.6387
680.757	17.7588
683.649	29.4038
686.542	3.6206
689.435	8.3667
692.328	32.167
695.22	43.9966
698.113	21.6968
701.006	76.8115
703.898	81.6675
706.791	6.95117
709.684	15.52
712.577	54.7935
715.469	86.1665
718.362	0.696289
721.255	11.7075
724.147	27.4766
727.04	63.4858
729.933	44.5342
732.825	65.8106
735.718	12.7158
738.611	32.4902
741.504	65.6997
744.396	90.4741
747.289	1.66943
750.182	76.0147
753.074	112.113
755.967	77.8931
758.86	98.5811
761.752	110.783
764.645	122.671
767.538	128.168
770.431	90.8901
773.323	163.622
776.216	154.816
779.109	140.87
782.001	135.899
784.894	49.8638
787.787	134.472
790.679	117.516
793.572	116.534
796.465	52.5386
799.357	30.6685
802.25	52.7183
805.143	35.3589
808.036	57.2578
810.928	56.874
813.821	9.31348
816.714	73.8071
819.606	23.1265
822.499	46.8257
825.392	25.8828
828.284	18.3442
831.177	33.3433
834.07	30.1987
836.963	30.9448
839.855	27.7319
842.748	55.6768
845.641	50.5537
848.533	45.4878
851.426	47.6773
854.319	68.4751
857.212	33.9409
860.104	19.0107
862.997	49.9307
865.89	104.365
868.782	57.8091
871.675	74.9072
874.568	63.6509
877.46	42.6504
880.353	33.4815
883.246	108.111
886.139	104.061
889.031	82.1089
891.924	54.7026
894.817	17.4351
897.709	84.5083
900.602	42.1982
903.495	43.4565
906.388	98.25
909.28	71.5762
912.173	144.529
915.066	58.3662
917.958	75.5147
920.851	51.626
923.744	42.9775
926.636	43.2153
929.529	68.8169
932.422	87.7729
935.314	16.8384
938.207	33.3599
941.1	39.8276
943.993	102.916
946.885	19.9487
949.778	28.5801
952.671	36.4155
955.563	63.1914
958.456	60.084
961.349	21.5205
964.241	17.4229
967.134	40.541
970.027	55.0405
972.92	5.54883
975.812	52.977
978.705	48.0176
981.598	40.5137
984.49	5.69238
987.383	33.0347
990.276	27.6509
993.168	26.1724
996.061	24.1816
998.954	50.0767
1001.85	57.8916
1004.74	66.9824
1007.63	52.8579
1010.52	50.0391
1013.42	69.6479
1016.31	14.1912
1019.2	48.8806
1022.1	26.7173
1024.99	31.0886
1027.88	39.9319
1030.77	45.8648
1033.67	55.8289
1036.56	42.9429
1039.45	26.0444
1042.34	10.7441
1045.24	49.375
1048.13	14.7297
1051.02	20.9712
1053.91	8.69214
1056.81	27.4121
1059.7	81.7148
1062.59	18.7141
1065.49	96.6265
1068.38	54.7261
1071.27	81.272
1074.16	123.226
1077.06	92.9172
1079.95	97.3586
1082.84	138.989
1085.73	135.378
1088.63	116.69
1091.52	162.836
1094.41	147.63
1097.31	138.834
1100.2	168.581
1103.09	166.22
1105.98	182.299
1108.88	148.222
1111.77	118.704
1114.66	154.46
1117.56	161.065
1120.45	137.56
1123.34	105.761
1126.23	119.386
1129.12	185.66
1132.02	100.899
1134.91	125.153
1137.8	83.9624
1140.7	95.9587
1143.59	86.9648
1146.48	105.829
1149.37	69.2051
1152.27	65.7637
1155.16	61.7019
1158.05	61.1352
1160.94	62.0217
1163.84	31.5862
1166.73	28.0054
1169.62	25.8567
1172.52	0.829834
1175.41	20.9004
1178.3	17.5989
1181.19	21.6008
1184.09	0.986572
1186.98	24.2573
1189.87	4.71973
1192.77	29.3406
1195.66	27.0076
1198.55	44.3159
1201.44	18.1379
1204.34	29.1074
1207.23	28.2036
1210.12	13.3577
1213.01	67.3958
1215.91	78.3018
1218.8	40.7849
1221.69	49.624
1224.58	29.7488
1227.48	34.0559
1230.37	37.5952
1233.26	2.41577
1236.15	0
