Measurement: Raman, 532 nm, unoriented, Raman Data Processed
Mineral: Chabazite-Ca
Rruff sample: R070353
Ideal chemistry: Ca_2_Al_4_Si_8_O_24_13H_2_O
Locality: Maze, Niigata perfecture, Japan
Source: Michael Scott
Description: Colorless vitreous pseudocubic crystals in cavity
Measured chemistry: (Ca_0.90_Na_0.08_K_0.02_)_Σ=1_(Si_4.10_Al_1.90_)O_12_·5.89H_2_O ; H_2_O estimated by difference
Raman shift (cm-1)	intensity
148.215	0
151.59	173.667
154.965	514.066
158.34	670.56
161.715	702.021
165.09	772.337
168.464	850.894
171.839	1047.05
175.214	1052.71
178.589	1053.14
181.964	961.792
185.339	854.955
188.713	872.388
192.088	810.715
195.463	739.066
198.838	670.812
202.213	581.631
205.587	418.197
208.962	322.29
212.337	251.974
215.712	161.282
219.087	80.8652
222.462	19.2812
225.836	17.1553
229.211	43.9087
232.586	7.71338
235.961	41.4273
239.336	22.5811
242.71	18.4541
246.085	15.4824
249.46	53.2031
252.835	65.3501
256.21	70.0532
259.584	138.845
262.959	111.863
266.334	193.951
269.709	192.565
273.084	155.727
276.459	316.525
279.833	326.231
283.208	357.7
286.583	409.924
289.958	466.332
293.333	517.489
296.707	497.207
300.082	516.514
303.457	568.7
306.832	619.565
310.207	729.226
313.582	786.569
316.956	926.934
320.331	1119.16
323.706	1124.38
327.081	1183.6
330.456	1197.15
333.83	1092.86
337.205	1012.48
340.58	885.519
343.955	794.529
347.33	675.903
350.705	542.905
354.079	432.777
357.454	315.594
360.829	283.428
364.204	242.306
367.579	179.012
370.954	158.115
374.328	102.61
377.703	72.1367
381.078	26.9653
384.453	55.4219
387.828	30.5757
391.202	36.0557
394.577	58.0523
397.952	24.3892
401.327	78.1216
404.702	46.6685
408.077	21.9097
411.451	103.567
414.826	285.295
418.201	356.563
421.576	678.668
424.951	1004.3
428.325	1391.07
431.7	1880.51
435.075	2572.48
438.45	3242.5
441.825	3970.14
445.2	4763.95
448.574	5525.69
451.949	6110.11
455.324	6521.57
458.699	6772.79
462.074	6953.67
465.448	7019.37
468.823	7309.26
472.198	7813.23
475.573	8322.13
478.948	8552.01
482.322	8467.3
485.697	7746.07
489.072	6696.49
492.447	5534.9
495.822	4451.26
499.197	3453.23
502.571	2616.48
505.946	1970.33
509.321	1472.91
512.696	990.849
516.071	705.159
519.446	478.894
522.82	315.307
526.195	182.707
529.57	113.356
532.945	91.4434
536.32	23.7895
539.694	3.68701
543.069	5.86963
546.444	9.09595
549.819	45.654
553.194	50.8801
556.568	0.429688
559.943	15.561
563.318	72.2661
566.693	94.05
570.068	167.286
573.443	96.8796
576.817	126.53
580.192	119.777
583.567	147.605
586.942	131.811
590.317	123.483
593.692	89.7241
597.066	65.042
600.441	14.3318
603.816	42.6589
607.191	36.3064
610.566	24.5312
613.94	4.18189
617.315	41.096
620.69	7.68604
624.065	5.32275
627.44	13.5496
630.814	52.7854
634.189	33.2622
637.564	40.4853
640.939	34.4141
644.314	104.976
647.689	100.914
651.063	92.7808
654.438	91.2424
657.813	113.999
661.188	34.9277
664.563	80.446
667.938	85.5374
671.312	17.2375
674.687	53.8794
678.062	13.8879
681.437	26.0225
684.812	48.2864
688.186	24.8591
691.561	60.4075
694.936	56.1401
698.311	80.6665
701.686	63.1773
705.061	39.1267
708.435	87.9287
711.81	74.8284
715.185	61.7795
718.56	93.6575
721.935	125.7
725.309	59.1841
728.684	82.2454
732.059	104.515
735.434	79.7869
738.809	125.946
742.183	125.537
745.558	168.168
748.933	216.318
752.308	196.391
755.683	235.255
759.058	229.286
762.432	271.989
765.807	277.432
769.182	268.709
772.557	255.345
775.932	190.437
779.307	235.485
782.681	198.896
786.056	136.185
789.431	189.367
792.806	85.1086
796.181	87.5762
799.555	58.4397
802.93	11.7039
806.305	1.49048
809.68	12.5703
813.055	6.14648
816.429	2.91211
819.804	17.7405
823.179	15.3169
826.554	15.4524
829.929	6.02173
833.304	33.0957
836.678	48.3164
840.053	43.2866
843.428	35.3252
846.803	41.9451
850.178	80.8923
853.553	64.3064
856.927	100.069
860.302	67.0735
863.677	68.0383
867.052	78.5696
870.427	88.5584
873.801	74.9785
877.176	93.1094
880.551	124.276
883.926	148.561
887.301	121.405
890.676	103.556
894.05	99.3596
897.425	119.092
900.8	106.123
904.175	74.7795
907.55	86.042
910.924	106.65
914.299	73.8125
917.674	61.1797
921.049	81.5442
924.424	36.4834
927.798	9.677
931.173	10.2551
934.548	7.76318
937.923	2.39844
941.298	52.4983
944.673	15.2163
948.047	3.64185
951.422	7.44702
954.797	38.5356
958.172	12.1023
961.547	53.1143
964.922	17.9253
968.296	61.5635
971.671	39.1475
975.046	59.4302
978.421	77.0347
981.796	119.749
985.17	117.616
988.545	80.5979
991.92	111.23
995.295	98.7022
998.67	86.5772
1002.04	73.3018
1005.42	35.8816
1008.79	60.7759
1012.17	97.5952
1015.54	58.5459
1018.92	68.1201
1022.29	36.0471
1025.67	74.5796
1029.04	42.8691
1032.42	37.072
1035.79	25.3279
1039.17	29.9963
1042.54	44.7273
1045.92	19.2734
1049.29	37.9331
1052.67	107.633
1056.04	200.845
1059.42	222.758
1062.79	266.278
1066.17	354.408
1069.54	367.926
1072.92	355.271
1076.29	399.225
1079.66	345.436
1083.04	402.755
1086.41	419.587
1089.79	417.379
1093.16	349.416
1096.54	404.268
1099.91	435.723
1103.29	415.004
1106.66	411.087
1110.04	343.279
1113.41	383.864
1116.79	336.281
1120.16	350.594
1123.54	377.973
1126.91	287.535
1130.29	340.777
1133.66	270.818
1137.04	222.091
1140.41	203.551
1143.79	197.345
1147.16	180.862
1150.54	126.831
1153.91	120.367
1157.29	90.8931
1160.66	86.2585
1164.04	33.2837
1167.41	14.9114
1170.79	0.256348
1174.16	18.0991
1177.54	3.09473
1180.91	3.12305
1184.29	30.8301
1187.66	22.8743
1191.03	15.4526
1194.41	13.5649
1197.78	25.3594
1201.16	4.16772
1204.53	38.4514
1207.91	44.3462
1211.28	53.1777
1214.66	59.4502
1218.03	75.2661
1221.41	111.674
1224.78	98.8762
1228.16	123.414
1231.53	102.787
1234.91	110.318
1238.28	141.716
1241.66	123.83
1245.03	67.364
1248.41	85.2666
1251.78	100.029
1255.16	51.4419
1258.53	83.418
1261.91	60.6365
1265.28	86.5203
1268.65	52.7478
1272.03	94.4062
1275.4	92.2683
1278.78	59.9766
1282.15	83.3101
1285.53	72.0603
1288.9	49.3679
1292.28	28.8484
1295.65	39.262
1299.03	40.927
1302.4	48.4219
1305.78	8.34204
1309.15	73.8767
1312.53	9.96851
