Measurement: Raman, 532 nm, unoriented, Raman Data Processed
Mineral: Chabazite-Ca
Rruff sample: R050014
Ideal chemistry: Ca_2_Al_4_Si_8_O_24_13H_2_O
Locality: Tablo Mountain, Baja California, Mexico
Source: University of Arizona Mineral Museum
Description: Light tan colored rhombohedral single crystals
Measured chemistry: (Ca_0.72_Mg_0.11_K_0.09_Sr_0.06_Na_0.01_)_Σ=1_(Si_4.12_Al_1.88_)O_12_·6H_2_O
Raman shift (cm-1)	intensity
151.59	0
154.965	66.6323
158.34	57.7466
161.715	65.2534
165.09	119.656
168.464	220.8
171.839	280.228
175.214	267.398
178.589	284.609
181.964	256.639
185.339	229.134
188.713	246.12
192.088	252.846
195.463	201.617
198.838	129.576
202.213	172.049
205.587	128.79
208.962	104.415
212.337	65.4453
215.712	63.2344
219.087	89.6626
222.462	12.6216
225.836	12.3965
229.211	59.5147
232.586	20.062
235.961	22.7725
239.336	15.3213
242.71	10.6841
246.085	11.0205
249.46	48.1445
252.835	1.5874
256.21	40.4282
259.584	28.5615
262.959	7.08789
266.334	42.5996
269.709	34.2637
273.084	24.7759
276.459	61.8149
279.833	96.6045
283.208	73.9062
286.583	108.883
289.958	173.595
293.333	140.939
296.707	158.94
300.082	143.181
303.457	195.421
306.832	178.372
310.207	169.089
313.582	208.053
316.956	180.389
320.331	195.173
323.706	225.632
327.081	174.714
330.456	222.133
333.83	208.634
337.205	224.57
340.58	178.526
343.955	106.58
347.33	115.567
350.705	93.3101
354.079	87.0347
357.454	67.6406
360.829	19.5859
364.204	29.1567
367.579	5.31494
370.954	71.292
374.328	31.2436
377.703	45.5625
381.078	65.791
384.453	29.1958
387.828	29.2949
391.202	50.8828
394.577	35.6219
397.952	40.9441
401.327	45.8177
404.702	32.983
408.077	31.3652
411.451	75.4668
414.826	87.0195
418.201	57.208
421.576	85.0498
424.951	112.946
428.325	184.397
431.7	300.882
435.075	451.87
438.45	583.338
441.825	714.435
445.2	928.121
448.574	1161.51
451.949	1302.99
455.324	1353.46
458.699	1343.21
462.074	1352.47
465.448	1360.26
468.823	1265.23
472.198	1358.93
475.573	1329.71
478.948	1247.78
482.322	1105.6
485.697	846.707
489.072	635.211
492.447	489.104
495.822	355.12
499.197	295.662
502.571	176.213
505.946	122.085
509.321	121.13
512.696	50.0527
516.071	103.845
519.446	5.32129
522.82	55.1006
526.195	61.1797
529.57	21.2822
532.945	5.05273
536.32	74.7588
539.694	10.5664
543.069	1.68945
546.444	84.2959
549.819	17.4219
553.194	108.717
556.568	5.51465
559.943	49.2285
563.318	34.917
566.693	79.7695
570.068	59.9033
573.443	115.496
576.817	114.356
580.192	75.5814
583.567	118.168
586.942	119.968
590.317	4.28613
593.692	83.2686
597.066	45.4375
600.441	134.031
603.816	71.8731
607.191	50.6279
610.566	34.4502
613.94	59.9053
617.315	19.7881
620.69	94.1025
624.065	1.46973
627.44	124.922
630.814	77.2627
634.189	91.1611
637.564	130.335
640.939	24.6807
644.314	136.806
647.689	182.454
651.063	122.85
654.438	104.695
657.813	46.7246
661.188	115.039
664.563	75.3662
667.938	178.872
671.312	39.9434
674.687	2.83496
678.062	79.9316
681.437	60.2978
684.812	70.7734
688.186	6.79394
691.561	120.98
694.936	96.2461
698.311	23.9834
701.686	78.1582
705.061	95.8096
708.435	55.0068
711.81	65.2432
715.185	45.3916
718.56	87.3711
721.935	162.843
725.309	74.3975
728.684	93.5967
732.059	66.0381
735.434	11.2012
738.809	67.5019
742.183	52.5147
745.558	64.1191
748.933	85.9443
752.308	147.874
755.683	72.3545
759.058	75.9853
762.432	113.103
765.807	140.535
769.182	215.156
772.557	118.419
775.932	141.159
779.307	144.918
782.681	121.469
786.056	165.524
789.431	79.7441
792.806	70.9746
796.181	133.124
799.555	98.7559
802.93	114.562
806.305	137.826
809.68	75.9492
813.055	27.415
816.429	103.085
819.804	37.5205
823.179	89.2734
826.554	104.91
829.929	197.357
833.304	23.2998
836.678	46.5215
840.053	111.607
843.428	35.4785
846.803	35.3086
850.178	70.8203
853.553	119.473
856.927	126.494
860.302	76.9883
863.677	145.795
867.052	99.9824
870.427	2.30859
873.801	133.529
877.176	14.5332
880.551	55.5879
883.926	43.8203
887.301	54.5645
890.676	134.635
894.05	91.707
897.425	13.4492
900.8	123.955
904.175	68.2012
907.55	67.6016
910.924	91.7891
914.299	152.815
917.674	132.99
921.049	134.41
924.424	52.6777
927.798	67.5879
931.173	56.3223
934.548	144.033
937.923	88.7969
941.298	154.668
944.673	92.9668
948.047	8.96289
951.422	109.264
954.797	156.057
958.172	13.2207
961.547	119.244
964.922	131.965
968.296	0.111328
971.671	18.5742
975.046	160.316
978.421	60.248
981.796	167.533
985.17	110.475
988.545	70.418
991.92	110.178
995.295	173.1
998.67	226.643
1002.04	105.902
1005.42	143.998
1008.79	102.607
1012.17	16.9141
1015.54	12.2168
1018.92	104.408
1022.29	47.1562
1025.67	159.277
1029.04	91.1641
1032.42	147.787
1035.79	72.4727
1039.17	117.188
1042.54	94.7559
1045.92	45.1387
1049.29	79.9277
1052.67	61.5156
1056.04	27.9004
1059.42	115.205
1062.79	135.279
1066.17	4.86719
1069.54	111.926
1072.92	25.084
1076.29	63.1348
1079.66	81.8809
1083.04	78.6016
1086.41	105.141
1089.79	59.873
1093.16	75.1836
1096.54	184.699
1099.91	111.939
1103.29	57.2715
1106.66	171.367
1110.04	203.885
1113.41	134.553
1116.79	154.857
1120.16	144.484
1123.54	210.334
1126.91	126.188
1130.29	92.541
1133.66	127.688
1137.04	143.824
1140.41	174.227
1143.79	171.91
1147.16	250.719
1150.54	161.904
1153.91	205.516
1157.29	154.068
1160.66	186.373
1164.04	96.9316
1167.41	172.363
1170.79	89.8438
1174.16	134.697
1177.54	58.4688
1180.91	4.49219
1184.29	133.227
1187.66	130.125
1191.03	143.727
1194.41	137.434
1197.78	108.889
1201.16	7.18945
1204.53	160.01
1207.91	155.744
1211.28	64.1113
1214.66	144.006
1218.03	103.428
1221.41	136.832
1224.78	46.4551
1228.16	121.941
1231.53	15.0938
1234.91	151.023
1238.28	5.93164
1241.66	59.8223
1245.03	41.3066
1248.41	156.549
1251.78	39.707
1255.16	179.283
1258.53	132.691
1261.91	5.18555
1265.28	49.8086
1268.65	141.588
1272.03	192.188
1275.4	140.113
1278.78	183.397
1282.15	59.4336
1285.53	147.42
1288.9	18.332
1292.28	64.1953
1295.65	187.834
1299.03	84.2519
1302.4	79.1113
1305.78	30.4355
1309.15	0
