Measurement: Raman, 785 nm, unoriented, Raman Data Processed
Mineral: Chabourneite
Rruff sample: R070371
Ideal chemistry: Tl_4_Pb_2_(Sb,As)_20_S_34_
Locality: Jas Roux, Pelvoux Mt., Valgaudemar, Hautes-Alpes, Provence-Alpes-CÃ´te d'Azur, France
Source: Michael Scott
Description: Black metallic with conchoidal fracture, associated with yellow-red realgar and deep-red smithite, R070642, (with good cleavage).
Raman shift (cm-1)	intensity
163.446	0
166.338	440.334
169.231	360.65
172.124	146.227
175.017	150.988
177.909	731.562
180.802	2220.39
183.695	4269.88
186.587	6517.21
189.48	8285.22
192.373	9013.65
195.265	8198.56
198.158	6932.47
201.051	5289.1
203.944	4148.84
206.836	3421.54
209.729	3218.19
212.622	2973.1
215.514	3053.33
218.407	3820.93
221.3	5170.01
224.192	6745.83
227.085	8666.51
229.978	10933.4
232.87	13469.7
235.763	15561.5
238.656	16635
241.549	16123.9
244.441	13971.6
247.334	11347.1
250.227	9298.07
253.119	7942.15
256.012	7091.91
258.905	6696.98
261.798	6191.99
264.69	5960.42
267.583	6340.88
270.476	8182.9
273.368	11810.9
276.261	16435.6
279.154	22399.7
282.046	29764
284.939	37416.5
287.832	43414.4
290.724	47961.5
293.617	51857.8
296.51	56433.3
299.403	61261
302.295	64538
305.188	64363
308.081	59933.8
310.973	52923.3
313.866	44091.9
316.759	33744.8
319.651	22962.7
322.544	14689.4
325.437	9545.96
328.33	6110.85
331.222	3379.89
334.115	1511.85
337.008	189.391
339.9	1462.64
342.793	1560.08
345.686	433.4
348.579	1296.07
351.471	3771.18
354.364	6978.68
357.257	9806.38
360.149	8914.78
363.042	5831.19
365.935	3094.02
368.827	1578.7
371.72	1346.04
374.613	1678.16
377.505	1974.78
380.398	2105.34
383.291	2021.11
386.184	1222.62
389.076	444.75
391.969	53.0395
394.862	22.2378
397.754	157.427
400.647	311.813
403.54	185.2
406.433	190.268
409.325	599.545
412.218	1007.82
415.111	1385.7
418.003	1766.94
420.896	2090.79
423.789	2417.15
426.681	2652.98
429.574	2998.73
432.467	3248.11
435.36	3493.81
438.252	3701.24
441.145	3872.14
444.038	4067.26
446.93	4125.33
449.823	3977.27
452.716	3792.96
455.608	3499.85
458.501	3135.96
461.394	2789.65
464.286	2565.29
467.179	2369.81
470.072	2244.4
472.965	2140.18
475.857	2015.9
478.75	1901.82
481.643	1840.29
484.535	1739.58
487.428	1654.89
490.321	1559.35
493.214	1491.23
496.106	1385.85
498.999	1283.59
501.892	1182.5
504.784	1096.94
507.677	988.627
510.57	900.738
513.462	785.304
516.355	721.776
519.248	636.049
522.14	586.021
525.033	554.414
527.926	469.734
530.819	438.056
533.711	380.704
536.604	315.426
539.497	261.077
542.389	233.398
545.282	168.759
548.175	126.039
551.067	96.6221
553.96	55.2135
556.853	26.0994
559.745	29.8562
562.638	20.0186
565.531	27.1932
568.424	38.7126
571.316	72.1728
574.209	77.8414
577.102	26.4459
579.994	50.1917
582.887	56.8488
585.78	45.2822
588.673	14.5502
591.565	24.9666
594.458	8.08972
597.351	16.0526
600.243	13.6924
603.136	0.79248
606.029	9.78247
608.921	20.8391
611.814	38.6675
614.707	28.6357
617.6	29.6448
620.492	23.5216
623.385	52.1471
626.278	35.6481
629.17	13.2855
632.063	48.9325
634.956	22.7721
637.848	24.8913
640.741	6.23639
643.634	28.0707
646.527	29.1917
649.419	30.6877
652.312	18.5814
655.205	30.083
658.097	25.4837
660.99	43.3618
663.883	42.6687
666.775	32.9511
669.668	44.8486
672.561	42.7644
675.454	36.9677
678.346	64.8942
681.239	47.6987
684.132	39.312
687.024	40.3997
689.917	41.604
692.81	57.8642
695.702	46.1124
698.595	45.6045
701.488	41.331
704.381	35.9956
707.273	62.7714
710.166	46.003
713.059	65.882
715.951	68.4778
718.844	82.8495
721.737	86.1046
724.63	79.2279
727.522	71.9947
730.415	71.2884
733.308	54.5389
736.2	67.1143
739.093	77.6095
741.986	58.9371
744.878	54.3967
747.771	59.4942
750.664	55.8867
753.557	50.0245
756.449	51.3203
759.342	43.6802
762.235	45.5664
765.127	40.3736
768.02	37.754
770.913	26.2427
773.805	31.6639
776.698	24.2233
779.591	24.0191
782.484	12.498
785.376	20.7972
788.269	11.5596
791.162	20.7039
794.054	19.9894
796.947	11.1471
799.84	10.8024
802.732	2.33754
805.625	10.2014
808.518	15.3836
811.41	13.9449
814.303	20.2103
817.196	5.94427
820.089	11.4192
822.981	2.14677
825.874	8.60578
828.767	13.427
831.659	7.02134
834.552	13.5502
837.445	8.20766
840.337	13.5943
843.23	9.88726
846.123	8.52689
849.016	2.01419
851.908	4.14059
854.801	5.89001
857.694	4.00203
860.586	2.97784
863.479	2.42167
866.372	1.49792
869.264	0.258186
872.157	0.40094
875.05	3.94988
877.943	3.39415
880.835	1.90891
883.728	0.48671
886.621	4.68503
889.513	1.04394
892.406	7.89092
895.299	1.2293
898.192	5.14967
901.084	7.20262
903.977	5.96228
906.87	2.0312
909.762	3.23281
912.655	4.00037
915.548	18.299
918.44	3.40189
921.333	12.7026
924.226	13.6322
927.119	10.2102
930.011	3.953
932.904	6.4938
935.797	7.4491
938.689	1.68978
941.582	6.17707
944.475	13.0103
947.367	16.0504
950.26	22.0517
953.153	10.8122
956.045	8.37073
958.938	10.4081
961.831	11.2017
964.724	2.35912
967.616	2.87164
970.509	6.4814
973.402	1.78226
976.294	13.0918
979.187	2.34043
982.08	15.1996
984.972	10.8064
987.865	14.8133
990.758	12.4366
993.651	14.5924
996.543	11.3029
999.436	6.01423
1002.33	12.9888
1005.22	8.24161
1008.11	4.74302
1011.01	6.28141
1013.9	11.4526
1016.79	10.5882
1019.68	9.60566
1022.58	19.5453
1025.47	8.48918
1028.36	8.09864
1031.26	7.94215
1034.15	7.3821
1037.04	1.15922
1039.93	6.72701
1042.83	10.5172
1045.72	8.79236
1048.61	5.59338
1051.51	10.6176
1054.4	10.7177
1057.29	8.08941
1060.18	5.88943
1063.08	2.35724
1065.97	4.45464
1068.86	8.08124
1071.75	6.55273
1074.65	10.557
1077.54	11.0916
1080.43	8.22256
1083.32	7.99724
1086.22	4.86025
1089.11	5.5639
1092	1.03061
1094.89	11.0978
1097.79	0.556862
1100.68	8.41644
1103.57	6.73212
1106.47	6.06371
1109.36	2.28167
1112.25	14.9847
1115.14	13.6796
1118.04	7.56151
1120.93	7.97008
1123.82	4.07883
1126.71	5.68809
1129.61	11.2916
1132.5	15.9614
1135.39	9.05445
1138.29	15.5284
1141.18	17.0169
1144.07	14.9374
1146.96	7.98721
1149.86	6.59922
1152.75	8.87761
1155.64	10.1396
1158.53	12.2913
1161.43	7.70683
1164.32	6.65768
1167.21	4.19919
1170.11	10.0995
1173	4.11407
1175.89	9.91381
1178.78	10.4319
1181.68	0.346973
1184.57	16.4553
1187.46	10.9323
1190.35	0.578857
1193.25	9.09423
1196.14	7.42929
1199.03	4.52566
1201.92	12.3891
1204.82	8.96185
1207.71	13.2051
1210.6	0.539433
1213.5	6.12643
1216.39	9.08085
1219.28	10.3017
1222.17	8.04298
1225.07	2.22675
1227.96	2.73711
1230.85	1.9567
1233.74	6.02277
1236.64	1.55347
1239.53	3.59586
1242.42	0.144344
