Measurement: Raman, 532 nm, unoriented, Raman Data Processed
Mineral: Chabazite-Ca
Rruff sample: R061096
Ideal chemistry: Ca_2_Al_4_Si_8_O_24_13H_2_O
Locality: Tyul'bnyunuai Valley, Lovosero, Kola Pen, Russia
Source: Michael Scott
Description: Colorless rhombohedral crystals associated with aegirine
Measured chemistry: (Ca_0.58_K_0.23_Na_0.03_)_Σ=0.84_(Si_4.58_Al_1.42_)_Σ=6_O_12_·4.74H_2_O
Raman shift (cm-1)	intensity
120.118	0
123.493	520.151
126.868	1453.49
130.243	1483.7
133.618	1259.56
136.993	1193.63
140.367	1138.82
143.742	964.304
147.117	908.635
150.492	754.92
153.867	653.849
157.241	611.774
160.616	555.707
163.991	621.068
167.366	582.581
170.741	579.26
174.115	679.652
177.49	680.777
180.865	557.166
184.24	427.451
187.615	418.304
190.989	291.414
194.364	202.718
197.739	172.44
201.114	86.2317
204.489	30.9429
207.864	7.97046
211.238	27.4678
214.613	34.384
217.988	37.176
221.363	21.4946
224.738	63.3518
228.113	12.2827
231.487	5.41846
234.862	0.08252
238.237	17.5254
241.612	24.7478
244.987	74.8928
248.361	77.0823
251.736	128.632
255.111	199.923
258.486	196.351
261.861	211.725
265.236	215.358
268.61	275.902
271.985	287.601
275.36	299.085
278.735	336.428
282.11	377.656
285.484	358.073
288.859	387.291
292.234	360.729
295.609	417.408
298.984	398.284
302.358	365.544
305.733	423.245
309.108	447.799
312.483	490.191
315.858	549.551
319.233	637.02
322.607	663.73
325.982	703.281
329.357	635.727
332.732	543.651
336.107	474.7
339.481	428.953
342.856	329.129
346.231	279.177
349.606	177.302
352.981	123.315
356.355	114.045
359.73	62.9939
363.105	37.3396
366.48	26.6184
369.855	46.1282
373.229	29.3701
376.604	37.9258
379.979	43.3447
383.354	23.5613
386.729	22.1592
390.104	20.2915
393.478	49.8516
396.853	19.6939
400.228	3.29346
403.603	31.7812
406.978	12.2349
410.353	61.0107
413.727	81.6394
417.102	166.172
420.477	202.107
423.852	267.527
427.227	420.558
430.601	581.28
433.976	823.641
437.351	1114.51
440.726	1413.59
444.101	1828.78
447.475	2296.65
450.85	2627.88
454.225	2977.93
457.6	3221.4
460.975	3185.03
464.349	3299.89
467.724	3323.86
471.099	3431.4
474.474	3495.37
477.849	3366.67
481.224	3008.14
484.598	2455.94
487.973	1860.31
491.348	1364.64
494.723	905.327
498.098	693.784
501.473	449.453
504.847	310.264
508.222	187.964
511.597	102.055
514.972	95.0566
518.347	64.8394
521.721	15.0493
525.096	19.9443
528.471	12.8286
531.846	11.3257
535.221	22.333
538.595	27.0405
541.97	8.28833
545.345	22.7444
548.72	6.70312
552.095	4.75049
555.47	3.34155
558.844	3.86377
562.219	32.9321
565.594	23.0369
568.969	10.6382
572.344	31.4285
575.718	19.0508
579.093	67.9233
582.468	44.6721
585.843	46.5486
589.218	19.0774
592.592	16.3538
595.967	20.4211
599.342	32.1157
602.717	52.7102
606.092	73.6936
609.467	60.491
612.841	48.0239
616.216	55.3403
619.591	44.532
622.966	92.7541
626.341	85.1909
629.715	77.1423
633.09	58.7732
636.465	49.7737
639.84	27.6431
643.215	24.5232
646.59	38.4475
649.964	12.2197
653.339	3.4353
656.714	13.7095
660.089	16.8355
663.464	22.6768
666.838	30.426
670.213	0.628418
673.588	31.2554
676.963	17.8875
680.338	40.3931
683.712	18.6025
687.087	27.1841
690.462	49.521
693.837	42.7571
697.212	31.0264
700.587	36.6511
703.961	49.6965
707.336	70.0815
710.711	40.5293
714.086	96.1326
717.461	67.5884
720.835	61.2905
724.21	57.8135
727.585	46.6006
730.96	35.6345
734.335	56.1585
737.71	35.5801
741.084	49.8191
744.459	35.6665
747.834	52.8186
751.209	8.90161
754.584	127.895
757.958	66.8486
761.333	172.495
764.708	147.912
768.083	161.523
771.458	128.503
774.832	116.689
778.207	130.283
781.582	129.408
784.957	79.2502
788.332	130.698
791.707	84.1143
795.081	111.481
798.456	95.8801
801.831	78.9246
805.206	42.2507
808.581	23.9123
811.955	1.72778
815.33	30.5437
818.705	13.2861
822.08	40.1499
825.455	61.783
828.83	99.0862
832.204	40.3276
835.579	105.427
838.954	95.0137
842.329	77.9634
845.704	68.845
849.078	41.7647
852.453	76.9851
855.828	104.799
859.203	80.9299
862.578	86.3538
865.952	70.2847
869.327	74.9133
872.702	19.8848
876.077	67.5151
879.452	41.6841
882.827	39.6965
886.201	51.1509
889.576	39.522
892.951	40.8584
896.326	37.0408
899.701	40.3032
903.075	27.0623
906.45	21.0161
909.825	25.4959
913.2	10.8367
916.575	16.3394
919.949	31.415
923.324	5.41235
926.699	28.3528
930.074	38.4893
933.449	2.82715
936.823	21.3972
940.198	32.4502
943.573	27.4963
946.948	57.8066
950.323	41.7632
953.698	14.5898
957.072	30.7546
960.447	30.0386
963.822	46.1187
967.197	34.8943
970.572	90.7283
973.947	69.75
977.321	82.0012
980.696	3.07959
984.071	21.3518
987.446	16.1814
990.821	30.7602
994.195	27.7366
997.57	61.9163
1000.95	64.7322
1004.32	46.3264
1007.7	69.2185
1011.07	42.1594
1014.44	3.4187
1017.82	61.4541
1021.19	45.4751
1024.57	62.4465
1027.94	59.3479
1031.32	94.2351
1034.69	66.4919
1038.07	64.1196
1041.44	58.8027
1044.82	93.697
1048.19	32.0491
1051.57	76.7568
1054.94	24.97
1058.32	23.0832
1061.69	21.5315
1065.07	13.562
1068.44	35.677
1071.82	65.679
1075.19	72.3037
1078.57	68.2922
1081.94	111.114
1085.32	120.409
1088.69	101.607
1092.07	205.782
1095.44	179.591
1098.82	206.986
1102.19	222.855
1105.56	242.98
1108.94	220.864
1112.31	234.108
1115.69	272.563
1119.06	251.195
1122.44	214.728
1125.81	198.88
1129.19	228.483
1132.56	221.133
1135.94	270.966
1139.31	245.157
1142.69	227.805
1146.06	230.32
1149.44	194.565
1152.81	187.598
1156.19	160.195
1159.56	158.821
1162.94	96.5352
1166.31	117.536
1169.69	104.076
1173.06	89.2773
1176.43	119.727
1179.81	11.6096
1183.18	50.6728
1186.56	25.2771
1189.93	32.8545
1193.31	12.6001
1196.68	10.0637
1200.06	5.66699
1203.43	35.5281
1206.81	19.3684
1210.18	28.2954
1213.56	26.3814
1216.93	24.3616
1220.31	9.43481
1223.68	19.397
1227.06	20.8919
1230.43	29.0835
1233.81	22.6311
1237.18	73.2314
1240.56	48.4053
1243.93	53.4612
1247.31	47.2349
1250.68	42.3357
1254.06	76.0867
1257.43	83.7402
1260.81	47.6655
1264.18	34.2332
1267.56	43.8401
1270.93	45.0723
1274.31	53.887
1277.68	8.32739
1281.06	14.8723
1284.43	36.4263
1287.8	18.9216
