Measurement: Raman, 514 nm, unoriented, Raman Data Processed
Mineral: Chabazite-Ca
Rruff sample: R050075
Ideal chemistry: Ca_2_Al_4_Si_8_O_24_13H_2_O
Locality: Victoria, Australia
Source: Rock Currier
Description: White pseudohexagonal crystals
Measured chemistry: (Ca_0.79_Na_0.22_K_0.14_)_Σ=1.15_(Si_4.08_Al_1.92_)O_12_·6H_2_O
Raman shift (cm-1)	intensity
93.375	0
97.554	80.225
101.732	357.694
105.908	885.814
110.082	1127.37
114.254	1672.42
118.424	1849.99
122.592	2039.57
126.758	2073.08
130.922	2525.36
135.083	2306.4
139.243	2556.78
143.401	2415.27
147.557	2336.61
151.711	2096.77
155.863	1835.65
160.013	1694.15
164.161	1746.83
168.308	1703.89
172.452	1898.65
176.594	1956.32
180.734	1764.33
184.872	1678.87
189.008	1396.19
193.143	1314.88
197.275	1288.91
201.405	1107.56
205.534	1142.59
209.66	887.75
213.784	351.81
217.907	293.43
222.027	165.341
226.146	83.482
230.263	46.875
234.377	79.444
238.49	208.583
242.601	31.155
246.709	154.523
250.816	164.584
254.921	187.985
259.024	85.267
263.125	5.016
267.224	30.209
271.321	78.57
275.416	79.458
279.51	180.516
283.601	476.473
287.69	669.203
291.778	781.682
295.863	663.849
299.947	800.442
304.029	932.326
308.108	962.653
312.186	1299.67
316.262	1556.49
320.336	1738.99
324.408	2053.89
328.478	2155.95
332.546	2325.14
336.612	2109.64
340.677	1864.47
344.739	1810.42
348.799	1382.47
352.858	1190.92
356.915	1102.95
360.969	958.737
365.022	1041.26
369.073	1033.5
373.122	867.437
377.169	1008.53
381.215	850.842
385.258	905.771
389.299	895.302
393.339	1100.21
397.376	1136.69
401.412	1069.35
405.446	1166.12
409.478	1233.9
413.508	1296.44
417.536	1539.82
421.562	1922.93
425.586	2309.82
429.609	2768.5
433.629	3672.28
437.648	4579.66
441.665	5743.17
445.68	7030.1
449.693	8264.29
453.704	9087.81
457.713	9574.32
461.721	9843.26
465.726	10166.3
469.73	10752.7
473.731	11904
477.731	12404.1
481.729	11823.7
485.725	10287
489.72	8341.25
493.712	6302.05
497.703	4713.7
501.691	3645.62
505.678	2723.2
509.663	2051.95
513.646	1584.52
517.627	1362.96
521.607	862.061
525.584	721.019
529.56	709.445
533.534	490.362
537.506	413.124
541.476	379.902
545.444	343.423
549.41	307.382
553.375	196.553
557.337	33.446
561.298	57.163
565.257	17.983
569.214	206.189
573.17	121.031
577.123	25.204
581.075	221.032
585.024	24.93
588.972	177.161
592.918	90.578
596.863	16.685
600.805	95.97
604.746	111.225
608.685	15.447
612.621	11.601
616.557	42.586
620.49	39.461
624.421	24.161
628.351	171.69
632.279	164.959
636.205	100.11
640.129	132.21
644.051	76.263
647.972	186.263
651.89	212.203
655.807	161.797
659.722	84.449
663.636	87.307
667.547	100.688
671.457	9.11
675.365	93.591
679.271	76.501
683.175	142.688
687.077	125.183
690.978	320.969
694.877	379.47
698.774	215.107
702.669	237.613
706.562	491.114
710.454	423.995
714.344	132.021
718.232	187.686
722.118	348.78
726.002	162.617
729.885	246.909
733.766	229.255
737.645	289.316
741.522	133.684
745.397	408.967
749.271	412.18
753.143	273.366
757.013	396.436
760.881	423.534
764.748	457.886
768.613	405.355
772.476	307.103
776.337	497.917
780.196	457.069
784.054	515.01
787.91	446.527
791.764	544.533
795.616	452.881
799.467	182.262
803.316	79.561
807.163	279.734
811.008	196.695
814.851	37.924
818.693	32.656
822.533	14.248
826.371	16.941
830.208	70.131
834.042	6.033
837.875	19.352
841.706	46.414
845.536	60.883
849.363	72.629
853.189	6.576
857.013	273.859
860.836	113.555
864.656	187
868.475	28.273
872.292	16.85
876.108	58.852
879.922	91.135
883.733	46.922
887.544	131.68
891.352	175.119
895.159	40.457
898.964	53.805
902.767	66.064
906.568	7.85
910.368	184.654
914.166	96.391
917.962	6.035
921.757	188.588
925.55	124.67
929.341	169.547
933.13	99.979
936.918	79.381
940.703	184.814
944.488	131.191
948.27	299.49
952.051	279.73
955.83	324.553
959.607	99.674
963.383	322.422
967.156	544.295
970.928	399.734
974.699	409.164
978.468	474.416
982.234	387.217
986	611.221
989.763	544.463
993.525	707.568
997.285	756.73
1001.04	793.975
1004.8	751.078
1008.55	788.27
1012.31	921.32
1016.06	736.703
1019.81	654.332
1023.56	739.598
1027.31	925.875
1031.05	936.246
1034.79	1090.83
1038.53	1001.7
1042.27	1023.52
1046.01	1010.69
1049.75	1117.74
1053.48	1198.19
1057.22	1269.4
1060.95	941.383
1064.68	1333.89
1068.4	1619.85
1072.13	1359.78
1075.86	1524.29
1079.58	1526.04
1083.3	1330.64
1087.02	1502.93
1090.74	1511.72
1094.45	1472.34
1098.17	1477.35
1101.88	1625.19
1105.59	1602.81
1109.3	1274.92
1113.01	1229.99
1116.71	1315.54
1120.42	1420.37
1124.12	1221.85
1127.82	1269.96
1131.52	1315.97
1135.22	1084.32
1138.91	1219.07
1142.61	925.383
1146.3	1065.62
1149.99	704.27
1153.68	809.129
1157.37	710.406
1161.06	666.166
1164.74	472.918
1168.42	636.645
1172.1	511.67
1175.78	456.943
1179.46	451.01
1183.14	460.092
1186.81	217.705
1190.48	172.881
1194.15	81.506
1197.83	403.482
1201.49	151.572
1205.16	326.693
1208.82	87.785
1212.49	316.699
1216.15	316.076
1219.81	392.482
1223.46	223.693
1227.12	253.199
1230.78	274.703
1234.43	159.65
1238.08	387.283
1241.73	377.916
1245.38	213.064
1249.03	266.988
1252.67	200.316
1256.31	57.279
1259.95	116.074
1263.6	201.184
1267.23	367.332
1270.87	63.469
1274.51	185.492
1278.14	40.162
1281.77	148.555
1285.4	146.662
1289.03	214.201
1292.66	78.17
1296.28	80.551
1299.91	76.271
1303.53	76.648
1307.15	71.658
1310.77	262.225
1314.38	229.844
1318	116.324
1321.61	91.865
1325.23	267.002
1328.84	110.705
1332.45	25.295
1336.06	121.385
1339.66	274.828
1343.27	215.824
1346.87	145.277
1350.47	45.26
1354.07	292.854
1357.67	299.209
1361.26	334.371
1364.86	461.889
1368.45	548.539
1372.04	454.77
1375.63	389.637
1379.22	260.42
1382.81	281.363
1386.39	277.984
1389.98	269.695
1393.56	243.486
1397.14	233.807
1400.72	393
1404.3	248.434
1407.87	119.588
1411.45	73.369
1415.02	408.117
1418.59	141.957
1422.16	322.34
1425.73	184.52
1429.29	190.58
1432.86	328.623
1436.42	341.986
1439.98	325.98
1443.54	260.484
1447.1	323.865
1450.66	26.607
1454.21	243.262
1457.77	75.404
1461.32	479.223
1464.87	406.156
1468.42	127.211
1471.96	511.201
1475.51	331.162
1479.06	146.234
1482.6	35.951
1486.14	30.771
1489.68	66.9
1493.22	162.16
1496.75	258.246
