Measurement: Raman, 780 nm, unoriented, Raman Data Processed
Mineral: Chabourneite
Rruff sample: R140106
Ideal chemistry: Tl^1+^_4_Pb^2+^_2_(Sb^3+^,As^3+^)_20_S^2-^_34_
Locality: Jas Roux, La Chapelle En Valgaudemard, Hautes-Alpes, Provence-Alpes-CÃ´te D'Azur, France
Source: Rock Currier
Description: Black metallic grains with conchoidal fracture, associated with red realgar, yellow braded or fibrous wakabayashilite (R150064), and colorless massive or tabular celestine.
Raman shift (cm-1)	intensity
91.5599	0
94.9347	396.326
98.3096	156.572
101.684	4.79944
105.059	5.66528
108.434	24.5482
111.809	68.8939
115.184	172.104
118.558	360.58
121.933	595.629
125.308	782.779
128.683	955.181
132.058	1038.38
135.433	738.333
138.807	378.485
142.182	132.105
145.557	50.0276
148.932	140.772
152.307	387.306
155.681	694.341
159.056	715.369
162.431	248.777
165.806	81.9851
169.181	151.606
172.555	48.9595
175.93	134.099
179.305	366.519
182.68	654.896
186.055	976.573
189.43	1214.39
192.804	1217.74
196.179	984.826
199.554	699.883
202.929	518.346
206.304	431.719
209.678	406.089
213.053	423.804
216.428	479.973
219.803	564.215
223.178	696.275
226.553	829.244
229.927	991.073
233.302	1215.51
236.677	1400.95
240.052	1457.01
243.427	1292.27
246.801	1005.72
250.176	722.601
253.551	523.56
256.926	378.366
260.301	294.32
263.675	242.98
267.05	293.593
270.425	443.817
273.8	723.229
277.175	1169.88
280.55	1800.16
283.924	2608.88
287.299	3440.61
290.674	4186.2
294.049	4922.61
297.424	5833.64
300.798	6758
304.173	7196.75
307.548	6833.53
310.923	5775.81
314.298	4522.38
317.673	3129.59
321.047	1688.96
324.422	750.344
327.797	313.472
331.172	96.2761
334.547	20.8223
337.921	75.4035
341.296	79.8611
344.671	40.5604
348.046	18.0453
351.421	83.8744
354.796	139.195
358.17	181.144
361.545	150.096
364.92	61.384
368.295	3.19855
371.67	5.49237
375.044	6.91785
378.419	24.0467
381.794	43.2112
385.169	66.043
388.544	82.2675
391.918	97.9069
395.293	104.842
398.668	97.5083
402.043	86.7123
405.418	93.6082
408.793	104.402
412.167	117.937
415.542	126.072
418.917	133.971
422.292	145.481
425.667	146.115
429.041	136.427
432.416	115.129
435.791	102.388
439.166	88.9385
442.541	83.7047
445.915	74.6381
449.29	65.8068
452.665	63.1805
456.04	58.7048
459.415	54.7524
462.789	49.5237
466.164	46.9763
469.539	40.8199
472.914	37.4485
476.289	32.8773
479.664	30.2355
483.038	25.2328
486.413	22.4658
489.788	18.8687
493.163	16.025
496.538	11.0728
499.913	10.9053
503.287	11.8788
506.662	9.00574
510.037	9.19675
513.412	11.4664
516.787	7.42575
520.161	7.34848
523.536	4.36807
526.911	1.90506
530.286	4.02945
533.661	0.721252
537.035	0.406647
540.41	2.00159
543.785	1.57062
547.16	2.16321
550.535	0.933105
553.909	2.01663
557.284	4.64841
560.659	3.96359
564.034	0.273468
567.409	2.47971
570.784	4.18469
574.158	0.284302
577.533	0.339905
580.908	0.582184
584.283	1.63687
587.658	1.94992
591.033	6.0571
594.407	6.3244
597.782	10.0202
601.157	8.65973
604.532	7.25253
607.907	17.2958
611.281	13.6853
614.656	13.6508
618.031	6.45676
621.406	6.46213
624.781	9.92905
628.155	8.19284
631.53	6.62808
634.905	6.89291
638.28	5.82989
641.655	5.42725
645.029	3.67377
648.404	4.42575
651.779	2.80035
655.154	12.13
658.529	4.85944
661.904	3.35742
665.278	2.1471
668.653	2.96509
672.028	2.40543
675.403	2.47553
678.778	1.74014
682.153	2.5734
685.527	1.73874
688.902	3.09323
692.277	4.6759
695.652	2.50732
699.027	4.59964
702.401	5.7717
705.776	4.49985
709.151	3.93002
712.526	4.17841
715.901	4.83817
719.275	5.82925
722.65	4.67896
726.025	4.19171
729.4	5.31857
732.775	5.18918
736.149	4.64478
739.524	3.00021
742.899	1.87701
746.274	1.85416
749.649	3.25659
753.024	1.95218
756.398	2.12891
759.773	0.732056
763.148	1.44311
766.523	0.579651
769.898	2.52811
773.273	2.76373
776.647	1.87353
780.022	1.60162
783.397	1.58676
786.772	3.02591
790.146	1.05902
793.521	0.727203
796.896	0.994965
800.271	1.43094
803.646	0.235596
807.021	2.23398
810.395	0.626678
813.77	0.391968
817.145	2.6846
820.52	1.60547
823.895	1.68933
827.269	3.12408
830.644	1.43539
834.019	0.273071
837.394	0.867035
840.769	0.809723
844.144	0.295776
847.518	1.16342
850.893	0.734863
854.268	0.027573
857.643	1.8508
861.018	1.83119
864.393	1.7749
867.767	0.087708
871.142	0.346558
874.517	0.494415
877.892	0.587646
881.266	0.061981
884.641	0.487045
888.016	0.459076
891.391	1.52588
894.766	0.977676
898.141	0.731262
901.515	0.375748
904.89	1.88568
908.265	0.301544
911.64	1.26062
915.015	0.447998
918.389	1.2502
921.764	2.29097
925.139	0.392395
928.514	1.42532
931.889	2.39221
935.264	0.104218
938.638	1.35814
942.013	0.876801
945.388	1.04723
948.763	1.4398
952.138	2.54758
955.512	2.62796
958.887	2.0051
962.262	1.46791
965.637	2.31006
969.012	1.91104
972.386	2.8625
975.761	0.33287
979.136	0.020889
982.511	1.96445
985.886	1.8512
989.261	3.06162
992.635	2.38152
996.01	3.22844
999.385	2.48904
1002.76	0.195023
1006.13	3.41885
1009.51	3.13541
1012.88	1.72429
1016.26	1.99776
1019.63	3.4577
1023.01	2.42989
1026.38	3.25824
1029.76	1.92964
1033.13	2.57462
1036.51	1.8808
1039.88	2.18312
1043.26	1.1884
1046.63	0.457687
1050.01	4.57365
1053.38	3.37323
1056.76	1.048
1060.13	1.44133
1063.51	3.0266
1066.88	2.54082
1070.26	3.74214
1073.63	5.29906
1077.01	2.17853
1080.38	1.56247
1083.76	1.68897
1087.13	2.02586
1090.51	0.805176
1093.88	2.07036
1097.26	1.98975
1100.63	0.859161
1104	1.74853
1107.38	2.43153
1110.75	1.53162
1114.13	6.27811
1117.5	0.169876
1120.88	1.35477
1124.25	0.419846
1127.63	0.418777
1131	1.7498
1134.38	1.01715
1137.75	1.66513
1141.13	1.57343
1144.5	3.29387
1147.88	2.30388
1151.25	1.15505
1154.63	2.5367
1158	2.24422
1161.38	0.543365
1164.75	1.21005
1168.13	0.159927
1171.5	1.07571
1174.88	3.752
1178.25	2.18622
1181.62	2.40237
1185	3.15037
1188.38	2.78519
1191.75	3.82803
1195.12	0.84642
1198.5	2.0273
1201.87	1.35982
1205.25	0.501404
1208.62	0.804321
1212	1.35103
1215.37	1.09238
1218.75	1.54581
1222.12	1.59532
1225.5	1.75011
1228.87	2.60439
1232.25	0.753067
1235.62	1.29668
1239	0.123123
1242.37	12.9556
1245.75	1.08351
1249.12	1.18753
1252.5	1.36572
1255.87	1.37888
1259.25	2.18684
1262.62	2.73512
1265.99	1.30612
1269.37	1.09259
1272.74	2.11188
1276.12	0.70369
1279.49	1.18523
1282.87	8.42122
