Measurement: Raman, 532 nm, unoriented, Raman Data Processed
Mineral: Chabazite-Na
Rruff sample: R061095
Ideal chemistry: (Na_3_K)Al_4_Si_8_O_24_11H_2_O
Locality: Vaitape, Bora Bora, French Polynesia
Source: Michael Scott
Description: Clusters and druse of clear, colorless rhombohedral crystals
Raman shift (cm-1)	intensity
119.154	0
122.529	725.438
125.904	2617.12
129.279	2956.63
132.654	2442.14
136.028	2092.56
139.403	2137.16
142.778	2063.34
146.153	1912.15
149.528	1688.19
152.902	1513.71
156.277	1335.09
159.652	1293.38
163.027	1320.75
166.402	1222.35
169.776	1186.91
173.151	1159.5
176.526	1106.91
179.901	917.576
183.276	827.307
186.65	770.254
190.025	630.473
193.4	496.763
196.775	425.63
200.15	248.683
203.525	169.689
206.899	144.967
210.274	114.854
213.649	6.87891
217.024	27.3657
220.399	56.5161
223.774	76.9399
227.148	39.9951
230.523	47.9468
233.898	40.8555
237.273	56.3809
240.648	9.25635
244.022	5.29224
247.397	8.50879
250.772	79.1885
254.147	115.414
257.522	221.235
260.896	220.564
264.271	271.681
267.646	258.959
271.021	274.47
274.396	395.823
277.771	466.615
281.145	452.443
284.52	527.274
287.895	539.81
291.27	555.434
294.645	545.376
298.019	606.011
301.394	598.671
304.769	626.609
308.144	676.936
311.519	813.984
314.893	973.442
318.268	1059.39
321.643	1156.27
325.018	1245.65
328.393	1227.51
331.767	1177.23
335.142	1002.21
338.517	881.597
341.892	766.688
345.267	651.115
348.642	491.021
352.016	373.064
355.391	276.583
358.766	243.009
362.141	200.291
365.516	156.536
368.89	102.713
372.265	77.3188
375.64	13.8066
379.015	26.0337
382.39	26.1987
385.765	12.9829
389.139	46.8901
392.514	32.894
395.889	25.2461
399.264	28.9634
402.639	37.9072
406.013	23.48
409.388	111.139
412.763	185.107
416.138	293.729
419.513	441.877
422.887	696.223
426.262	1001.99
429.637	1375.05
433.012	1898.8
436.387	2461.24
439.762	3229.18
443.136	4067.11
446.511	4847.79
449.886	5546.38
453.261	6186.92
456.636	6605.29
460.01	6827.63
463.385	7255.94
466.76	7646.45
470.135	8128.35
473.51	8522.83
476.885	8610.11
480.259	8075.45
483.634	7107.72
487.009	5807.51
490.384	4469.45
493.759	3417.14
497.133	2601.26
500.508	1905.7
503.883	1360.55
507.258	1020.2
510.633	720.6
514.008	495.479
517.382	343.816
520.757	260.616
524.132	139.356
527.507	62.3101
530.882	35.7158
534.256	28.271
537.631	28.2217
541.006	22.4153
544.381	14.4529
547.756	47.5107
551.13	22.2878
554.505	61.1023
557.88	26.5461
561.255	9.67505
564.63	26.2883
568.005	22.4597
571.379	38.2725
574.754	66.613
578.129	115.09
581.504	65.9334
584.879	76.3801
588.253	111.515
591.628	79.6404
595.003	107.8
598.378	85.9001
601.753	92.8621
605.128	85.6731
608.502	79.0015
611.877	39.5359
615.252	46.2214
618.627	75.7827
622.001	76.5979
625.376	68.8401
628.751	75.906
632.126	73.5151
635.501	26.4736
638.876	6.98779
642.25	47.9338
645.625	34.4094
649	12.5276
652.375	39.0852
655.75	44.574
659.125	26.8826
662.499	35.395
665.874	11.7097
669.249	9.49976
672.624	6.28418
675.999	59.9695
679.373	9.64136
682.748	9.30298
686.123	32.3374
689.498	77.5459
692.873	64.6714
696.247	103.885
699.622	93.675
702.997	93.6182
706.372	110.244
709.747	125.153
713.121	112.423
716.496	107.579
719.871	81.4211
723.246	108.059
726.621	108.473
729.996	98.2212
733.37	139.231
736.745	145.894
740.12	126.985
743.495	87.0842
746.87	183.536
750.245	228.225
753.619	230.373
756.994	257.207
760.369	267.697
763.744	323.177
767.119	324.973
770.493	286.108
773.868	313.961
777.243	265.522
780.618	298.991
783.993	206.623
787.367	171.909
790.742	198.14
794.117	165.453
797.492	88.8603
800.867	41.9133
804.241	24.0432
807.616	11.1218
810.991	6.44385
814.366	12.4121
817.741	32.0217
821.116	69.7776
824.49	85.4475
827.865	121.729
831.24	125.928
834.615	143.377
837.99	181.309
841.365	122.396
844.739	170.925
848.114	74.8042
851.489	162.48
854.864	128.824
858.239	169.911
861.613	147.827
864.988	137.092
868.363	141.536
871.738	105.548
875.113	79.364
878.487	112.924
881.862	125.398
885.237	110.631
888.612	149.142
891.987	94.8474
895.361	81.3276
898.736	110.445
902.111	82.2058
905.486	75.7751
908.861	95.9602
912.236	67.9182
915.61	46.8889
918.985	90.7661
922.36	31.2564
925.735	57.9529
929.11	80.9402
932.485	16.3984
935.859	5.73633
939.234	5.99561
942.609	0.400879
945.984	42.1099
949.359	40.8638
952.733	13.103
956.108	22.2793
959.483	5.51856
962.858	19.48
966.233	1.80957
969.607	27.457
972.982	61.7471
976.357	16.0874
979.732	52.5435
983.107	81.8525
986.481	87.1323
989.856	60.8999
993.231	116.548
996.606	116.85
999.981	53.2476
1003.36	39.0732
1006.73	42.8691
1010.11	62.3101
1013.48	76.7485
1016.86	18.1387
1020.23	46.9312
1023.6	38.1841
1026.98	78.1553
1030.35	36.8667
1033.73	15.0166
1037.1	59.4273
1040.48	8.03662
1043.85	29.8179
1047.23	54.0972
1050.6	125.427
1053.98	99.2954
1057.35	79.9751
1060.73	152.524
1064.1	188.625
1067.48	208.611
1070.85	263.37
1074.23	304.424
1077.6	280.952
1080.98	399.494
1084.35	363.545
1087.73	364.644
1091.1	364.973
1094.48	419.807
1097.85	453.84
1101.22	424.643
1104.6	370.05
1107.97	382.887
1111.35	342.633
1114.72	356.094
1118.1	373.118
1121.47	303.766
1124.85	293.734
1128.22	306.149
1131.6	271.723
1134.97	283.06
1138.35	278.377
1141.72	256.651
1145.1	186.792
1148.47	159.525
1151.85	195.649
1155.22	138.826
1158.6	109.525
1161.97	58.3066
1165.35	47.3794
1168.72	19.6133
1172.1	4.45898
1175.47	22.9766
1178.85	10.081
1182.22	7.04346
1185.6	10.4727
1188.97	27.5967
1192.35	1.6665
1195.72	22.5405
1199.1	31.5439
1202.47	44.9307
1205.84	52.563
1209.22	107.883
1212.59	24.2388
1215.97	63.082
1219.34	66.4429
1222.72	81.3262
1226.09	111.193
1229.47	129.207
1232.84	139.338
1236.22	74.4868
1239.59	123.368
1242.97	125.082
1246.34	98.0923
1249.72	107.209
1253.09	115.356
1256.47	74.0527
1259.84	119.156
1263.22	116.92
1266.59	74.2637
1269.97	52.602
1273.34	116.346
1276.72	156.346
1280.09	56.8594
1283.46	22.3516
