Measurement: Raman, 785 nm, unoriented, Raman Data Processed
Mineral: Chabazite-Ca
Rruff sample: R070353
Ideal chemistry: Ca_2_Al_4_Si_8_O_24_13H_2_O
Locality: Maze, Niigata perfecture, Japan
Source: Michael Scott
Description: Colorless vitreous pseudocubic crystals in cavity
Measured chemistry: (Ca_0.90_Na_0.08_K_0.02_)_Σ=1_(Si_4.10_Al_1.90_)O_12_·5.89H_2_O ; H_2_O estimated by difference
Raman shift (cm-1)	intensity
147.536	0
150.429	178.946
153.321	313.911
156.214	210.858
159.107	95.7202
161.999	242.584
164.892	400.002
167.785	626.6
170.677	814.514
173.57	829.733
176.463	766.944
179.356	779.371
182.248	736.151
185.141	670.86
188.034	644.676
190.926	615.592
193.819	585.252
196.712	534.607
199.604	514.182
202.497	451.3
205.39	349.949
208.282	315.743
211.175	179.165
214.068	119.23
216.961	124.769
219.853	78.3054
222.746	93.813
225.639	13.7905
228.531	15.8738
231.424	89.2935
234.317	63.439
237.209	26.1694
240.102	13.2332
242.995	16.6323
245.888	19.1504
248.78	21.6011
251.673	57.1443
254.566	27.0674
257.458	50.3767
260.351	81.9648
263.244	80.7905
266.137	77.4048
269.029	136.434
271.922	128.874
274.815	161.321
277.707	201.225
280.6	212.723
283.493	253.588
286.385	289.957
289.278	312.585
292.171	344.228
295.063	366.999
297.956	352.16
300.849	409.419
303.742	414.754
306.634	437.99
309.527	488.347
312.42	558.612
315.312	623.526
318.205	696.984
321.098	783.831
323.99	798.13
326.883	870.053
329.776	825.961
332.669	820.484
335.561	771.482
338.454	694.914
341.347	614.054
344.239	525.001
347.132	503.425
350.025	413.679
352.918	361.276
355.81	287.943
358.703	211.351
361.596	189.06
364.488	138.366
367.381	121.388
370.274	50.937
373.166	85.3521
376.059	67.4817
378.952	24.8408
381.844	37.4875
384.737	17.7129
387.63	2.44775
390.523	10.1653
393.415	3.88794
396.308	23.0877
399.201	46.2395
402.093	10.6409
404.986	47.6641
407.879	12.6604
410.772	88.4085
413.664	155.202
416.557	185.16
419.45	296.417
422.342	505.612
425.235	623.492
428.128	831.241
431.02	1093.98
433.913	1412.6
436.806	1721.14
439.699	2091.86
442.591	2463.15
445.484	2870.37
448.377	3276.63
451.269	3631.75
454.162	3888.05
457.055	4050.93
459.947	4169
462.84	4283.93
465.733	4369.15
468.625	4512.81
471.518	4801.63
474.411	5060.89
477.304	5162.87
480.196	5274.82
483.089	5176.34
485.982	4801.75
488.874	4237.99
491.767	3688.51
494.66	3074.95
497.553	2516.66
500.445	2021.04
503.338	1579.02
506.231	1268.74
509.123	947.721
512.016	746.678
514.909	531.912
517.802	390.699
520.694	271.979
523.587	172.862
526.48	125.331
529.372	86.1122
532.265	35.7533
535.158	50.0758
538.05	10.9508
540.943	5.98767
543.836	28.0649
546.729	29.8101
549.621	10.3339
552.514	48.3037
555.407	3.06152
558.299	5.56995
561.192	16.3949
564.085	32.2861
566.977	6.75806
569.87	72.3072
572.763	74.8207
575.655	60.0405
578.548	57.391
581.441	105.407
584.333	61.5559
587.226	80.6963
590.119	66.7499
593.012	92.2931
595.904	65.3136
598.797	50.7786
601.69	45.1085
604.582	38.2352
607.475	52.7893
610.368	2.69897
613.26	9.66504
616.153	17.0872
619.046	11.1433
621.939	10.6171
624.831	12.4514
627.724	6.40405
630.617	18.8455
633.509	2.54504
636.402	1.12024
639.295	6.17078
642.188	20.4863
645.08	44.4565
647.973	14.9242
650.866	25.8021
653.758	42.8137
656.651	56.0065
659.544	61.0147
662.436	30.5809
665.329	20.6909
668.222	17.2754
671.115	18.8481
674.007	21.6002
676.9	16.2876
679.793	1.11914
682.685	32.1281
685.578	31.1233
688.471	21.8854
691.363	51.1049
694.256	22.1676
697.149	65.8903
700.042	41.447
702.934	27.9196
705.827	35.7319
708.72	50.632
711.612	62.0467
714.505	35.5905
717.398	74.0468
720.29	56.3776
723.183	55.0853
726.076	52.8502
728.968	46.4327
731.861	65.4726
734.754	69.4253
737.647	56.1877
740.539	105.038
743.432	122.712
746.325	99.3401
749.217	131.351
752.11	126.431
755.003	141.38
757.895	156.258
760.788	176.505
763.681	142.615
766.574	163.138
769.466	170.547
772.359	131.567
775.252	149.235
778.144	140.612
781.037	116.626
783.93	90.0322
786.822	75.6085
789.715	79.9963
792.608	67.8403
795.501	54.7233
798.393	26.9696
801.286	13.377
804.179	9.11798
807.071	22.7148
809.964	13.6475
812.857	21.4729
815.75	35.8591
818.642	19.0397
821.535	10.7907
824.428	13.2595
827.32	23.8353
830.213	26.0661
833.106	3.91138
835.998	4.29498
838.891	5.83728
841.784	5.81928
844.677	29.5403
847.569	33.8466
850.462	42.4434
853.355	44.2089
856.247	18.1201
859.14	45.2965
862.033	86.0585
864.925	35.3222
867.818	29.064
870.711	41.5245
873.604	52.9363
876.496	21.2742
879.389	30.3998
882.282	40.6813
885.174	42.2563
888.067	37.2708
890.96	64.4153
893.852	35.65
896.745	15.7616
899.638	52.2717
902.53	49.9982
905.423	27.1415
908.316	31.468
911.209	15.4453
914.101	29.6906
916.994	21.1583
919.887	46.889
922.779	15.4894
925.672	8.06158
928.565	29.3649
931.457	8.68134
934.35	18.4463
937.243	7.18085
940.136	9.32971
943.028	8.10321
945.921	0.185913
948.814	9.64179
951.706	22.0068
954.599	1.44336
957.492	15.2826
960.385	0.384583
963.277	32.1912
966.17	25.3022
969.063	30.1556
971.955	10.6356
974.848	28.7594
977.741	30.7065
980.633	16.6749
983.526	5.22614
986.419	9.60474
989.312	32.1545
992.204	22.6371
995.097	35.9269
997.99	19.5652
1000.88	41.8794
1003.77	8.56506
1006.67	52.914
1009.56	17.4166
1012.45	38.5386
1015.35	6.11652
1018.24	23.2064
1021.13	24.0689
1024.02	43.8295
1026.92	2.64398
1029.81	22.0498
1032.7	28.9379
1035.6	9.91235
1038.49	32.7578
1041.38	29.8878
1044.27	48.4291
1047.17	60.2604
1050.06	86.124
1052.95	71.2751
1055.84	126.091
1058.74	143.769
1061.63	143.319
1064.52	159.542
1067.41	150.561
1070.31	171.53
1073.2	190.435
1076.09	203.108
1078.98	184.227
1081.88	198.228
1084.77	229.157
1087.66	216.835
1090.56	171.384
1093.45	209.096
1096.34	188.68
1099.23	190.542
1102.13	185.477
1105.02	175.959
1107.91	183.697
1110.81	196.072
1113.7	153.534
1116.59	158.945
1119.48	159.898
1122.38	166.724
1125.27	195.304
1128.16	151.596
1131.05	121.299
1133.95	143.167
1136.84	117.066
1139.73	95.1105
1142.62	111.882
1145.52	65.5717
1148.41	44.0691
1151.3	66.7845
1154.19	54.2126
1157.09	42.314
1159.98	33.1143
1162.87	7.25409
1165.77	9.59326
1168.66	4.95129
1171.55	11.7355
1174.44	1.45209
1177.34	0.091553
1180.23	31.1216
1183.12	27.2803
1186.02	10.4355
1188.91	4.62311
1191.8	23.7291
1194.69	47.4645
1197.59	48.5951
1200.48	66.5064
1203.37	56.0341
1206.26	62.0788
1209.16	63.3036
1212.05	61.5477
1214.94	51.3781
1217.84	33.4008
1220.73	49.0198
1223.62	37.8066
1226.51	68.7241
1229.41	20.4732
1232.3	39.532
1235.19	38.3669
1238.08	34.8861
1240.98	6.74826
