Measurement: Raman, 532 nm, unoriented, Raman Data Processed
Mineral: Chabazite-Ca
Rruff sample: R050075
Ideal chemistry: Ca_2_Al_4_Si_8_O_24_13H_2_O
Locality: Victoria, Australia
Source: Rock Currier
Description: White pseudohexagonal crystals
Measured chemistry: (Ca_0.79_Na_0.22_K_0.14_)_Σ=1.15_(Si_4.08_Al_1.92_)O_12_·6H_2_O
Raman shift (cm-1)	intensity
137.609	0
140.984	93.3108
144.358	1.7041
147.733	129.532
151.108	378.342
154.483	551.528
157.858	579.523
161.233	538.738
164.607	582.629
167.982	635.541
171.357	701.409
174.732	677.712
178.107	643.239
181.482	575.458
184.856	594.408
188.231	552.933
191.606	508.085
194.981	411.625
198.356	347.478
201.731	258.872
205.105	211.199
208.48	162.399
211.855	134.091
215.23	54.8765
218.605	35.3987
221.979	3.70508
225.354	12.1941
228.729	49.0764
232.104	0.407959
235.479	21.7705
238.853	6.38123
242.228	4.61621
245.603	43.611
248.978	20.1569
252.353	56.0326
255.727	55.5287
259.102	101.646
262.477	123.541
265.852	134.313
269.227	183.044
272.602	210.622
275.976	223.793
279.351	241.611
282.726	270.924
286.101	291.227
289.476	363.677
292.851	344.57
296.225	345.398
299.6	337.372
302.975	328.536
306.35	329.058
309.725	352.109
313.099	353.769
316.474	430.742
319.849	454.676
323.224	526.314
326.599	550.34
329.974	568.946
333.348	536.638
336.723	490.811
340.098	417.976
343.473	344.147
346.848	295.443
350.223	204.902
353.597	132.722
356.972	122.365
360.347	70.5543
363.722	29.3047
367.097	29.9498
370.471	36.6221
373.846	38.8586
377.221	19.0563
380.596	25.83
383.971	14.2787
387.346	2.21558
390.72	1.1731
394.095	19.2704
397.47	6.04956
400.845	29.9265
404.219	25.6122
407.594	16.1533
410.969	51.4969
414.344	116.605
417.719	207.376
421.094	380.063
424.469	496.049
427.843	718.406
431.218	981.621
434.593	1308.77
437.968	1695.56
441.343	2121.61
444.717	2617.7
448.092	3091.26
451.467	3457.01
454.842	3689
458.217	3771.07
461.591	3771.95
464.966	3716.56
468.341	3807.62
471.716	3884.3
475.091	3967.8
478.466	3917.4
481.84	3750.11
485.215	3188.78
488.59	2632.55
491.965	2061.14
495.34	1596.39
498.714	1185.68
502.089	861.618
505.464	624.638
508.839	416.458
512.214	291.743
515.589	216.581
518.963	155.186
522.338	95.5294
525.713	48.2828
529.088	47.3047
532.463	33.6171
535.837	0.505127
539.212	18.6885
542.587	12.9756
545.962	11.493
549.337	27.0288
552.712	41.9269
556.086	15.0682
559.461	6.974
562.836	33.2401
566.211	4.93616
569.586	26.0814
572.96	33.4404
576.335	57.0128
579.71	56.8857
583.085	58.5536
586.46	62.999
589.835	44.239
593.209	81.5939
596.584	86.7484
599.959	76.8481
603.334	63.2775
606.709	65.3743
610.083	54.8076
613.458	35.9166
616.833	33.2279
620.208	9.5979
623.583	16.5298
626.958	13.6627
630.332	23.7138
633.707	30.9563
637.082	41.0394
640.457	38.0894
643.832	33.6009
647.207	39.3624
650.581	49.8484
653.956	49.408
657.331	33.6493
660.706	20.8735
664.081	12.3345
667.455	15.2134
670.83	7.72009
674.205	0.211914
677.58	7.26001
680.955	8.97827
684.33	23.2994
687.704	28.6209
691.079	4.48596
694.454	36.1547
697.829	34.6036
701.204	13.4391
704.578	46.4468
707.953	36.9254
711.328	36.9156
714.703	25.4264
718.078	58.832
721.452	41.5273
724.827	56.3966
728.202	16.1252
731.577	0.949707
734.952	39.3186
738.327	39.9696
741.701	51.8304
745.076	67.5323
748.451	85.7207
751.826	104.04
755.201	105.498
758.576	127.447
761.95	107.416
765.325	142.199
768.7	159.376
772.075	162.392
775.45	144.284
778.824	179.339
782.199	155.816
785.574	117.76
788.949	133.178
792.324	115.615
795.698	95.4203
799.073	70.442
802.448	65.502
805.823	32.7681
809.198	25.6127
812.573	0.488586
815.947	24.7349
819.322	12.9126
822.697	15.7385
826.072	0.717407
829.447	12.7351
832.822	2.61536
836.196	7.60815
839.571	38.5989
842.946	11.7703
846.321	14.1179
849.696	17.3953
853.07	3.57159
856.445	46.4711
859.82	28.5405
863.195	32.8282
866.57	34.1996
869.944	42.0809
873.319	31.8508
876.694	39.1643
880.069	50.1849
883.444	65.4118
886.819	32.0147
890.193	40.5062
893.568	34.8589
896.943	47.8126
900.318	44.4286
903.693	43.1187
907.067	45.3629
910.442	32.7773
913.817	50.8724
917.192	29.7676
920.567	40.2312
923.942	19.4327
927.316	15.7632
930.691	12.0984
934.066	23.818
937.441	8.76135
940.816	17.0163
944.191	5.00452
947.565	0.48999
950.94	18.3729
954.315	6.1012
957.69	1.86603
961.065	21.9103
964.439	13.7309
967.814	23.3073
971.189	6.31995
974.564	35.6759
977.939	27.347
981.313	14.9678
984.688	32.2612
988.063	42.1335
991.438	69.1863
994.813	61.7906
998.188	50.9813
1001.56	50.2771
1004.94	66.4369
1008.31	58.9957
1011.69	77.0391
1015.06	76.7373
1018.44	23.3334
1021.81	44.136
1025.19	77.1652
1028.56	37.9418
1031.94	56.531
1035.31	31.9493
1038.68	3.58557
1042.06	10.5348
1045.43	15.7198
1048.81	4.36194
1052.18	43.9492
1055.56	65.5602
1058.93	73.9136
1062.31	90.5828
1065.68	116.794
1069.06	120.429
1072.43	182.688
1075.81	174.15
1079.18	188.036
1082.56	192.081
1085.93	234.731
1089.31	208.057
1092.68	223.833
1096.06	199.042
1099.43	249.82
1102.81	238.422
1106.18	254.231
1109.56	211.471
1112.93	255.896
1116.31	231.565
1119.68	204.799
1123.06	224.059
1126.43	177.751
1129.81	202.036
1133.18	195.796
1136.56	179.556
1139.93	169.169
1143.31	125.094
1146.68	142.447
1150.05	129.605
1153.43	131.488
1156.8	95.6274
1160.18	82.7336
1163.55	93.9683
1166.93	51.6984
1170.3	38.7623
1173.68	24.1068
1177.05	24.4525
1180.43	6.39984
1183.8	25.4819
1187.18	6.03436
1190.55	5.31195
1193.93	8.45209
1197.3	0.751404
1200.68	6.15338
1204.05	5.86822
1207.43	24.2269
1210.8	31.4987
1214.18	33.453
1217.55	7.31061
1220.93	49.5656
1224.3	35.298
1227.67	52.7939
1231.05	34.0213
1234.42	48.7538
1237.8	71.1326
1241.17	73.5022
1244.55	45.0547
1247.92	36.3694
1251.3	50.1547
1254.67	72.2451
1258.05	40.0222
1261.42	49.5391
1264.8	28.8295
1268.17	37.2425
1271.55	34.3633
1274.92	30.9164
1278.3	31.6542
1281.67	36.2418
1285.05	36.4954
1288.42	38.2155
1291.8	26.2772
1295.17	27.038
1298.55	3.55463
1301.92	0
