Measurement: Raman, 785 nm, unoriented, Raman Data Processed
Mineral: Chabazite-Ca
Rruff sample: R061096
Ideal chemistry: Ca_2_Al_4_Si_8_O_24_13H_2_O
Locality: Tyul'bnyunuai Valley, Lovosero, Kola Pen, Russia
Source: Michael Scott
Description: Colorless rhombohedral crystals associated with aegirine
Measured chemistry: (Ca_0.58_K_0.23_Na_0.03_)_Σ=0.84_(Si_4.58_Al_1.42_)_Σ=6_O_12_·4.74H_2_O
Raman shift (cm-1)	intensity
120.665	0
123.558	3.92609
126.451	156.284
129.343	476.651
132.236	1002.29
135.129	940.339
138.021	925.781
140.914	1033.41
143.807	1572.35
146.699	2004.49
149.592	2087
152.485	2018.27
155.377	1780
158.27	1474.08
161.163	1359.76
164.056	1245.39
166.948	1234.59
169.841	1215.06
172.734	1204.16
175.626	1088.56
178.519	1013.48
181.412	880.024
184.304	793.188
187.197	695.316
190.09	592.098
192.983	557.743
195.875	470.796
198.768	394.5
201.661	385.673
204.553	255.612
207.446	242.293
210.339	214.369
213.232	145.102
216.124	142.309
219.017	97.6821
221.91	89.894
224.802	66.2727
227.695	2.64062
230.588	13.3945
233.48	31.3987
236.373	16.5864
239.266	25.498
242.159	5.1853
245.051	10.7898
247.944	12.7776
250.837	18.0167
253.729	12.7306
256.622	9.73718
259.515	29.3645
262.407	44.4926
265.3	45.7244
268.193	58.4225
271.086	61.4622
273.978	96.1649
276.871	97.2425
279.764	122.322
282.656	165.111
285.549	196.245
288.442	214.278
291.334	263.991
294.227	284.753
297.12	301.205
300.012	339.014
302.905	339.384
305.798	361.735
308.691	394.167
311.583	438.186
314.476	506.349
317.369	562.466
320.261	576.306
323.154	623.133
326.047	611.128
328.94	644.45
331.832	541.746
334.725	487.509
337.618	412.308
340.51	332.464
343.403	277.117
346.296	211.245
349.188	156.686
352.081	103.492
354.974	74.225
357.866	41.112
360.759	12.3581
363.652	1.81427
366.545	10.8706
369.437	4.46729
372.33	10.4582
375.223	20.9815
378.115	22.8445
381.008	1.8833
383.901	18.7076
386.793	30.3538
389.686	17.1776
392.579	23.9101
395.472	16.2728
398.364	3.44226
401.257	19.8696
404.15	28.1393
407.042	2.5542
409.935	46.7097
412.828	49.0442
415.72	89.9976
418.613	117.395
421.506	187.232
424.399	251.291
427.291	308.636
430.184	433.325
433.077	620.535
435.969	783.266
438.862	1012.53
441.755	1296.54
444.647	1576.63
447.54	1976.29
450.433	2305.69
453.325	2630.04
456.218	2803.18
459.111	2814.51
462.004	2748.85
464.896	2676.81
467.789	2587.51
470.682	2665.58
473.574	2690.91
476.467	2713.86
479.36	2624.11
482.252	2291.17
485.145	1948.27
488.038	1522.2
490.931	1177.9
493.823	881.037
496.716	680.335
499.609	468.13
502.501	344.867
505.394	255.143
508.287	205.332
511.18	139.065
514.072	102.645
516.965	88.8113
519.858	28.3456
522.75	19.828
525.643	1.63428
528.536	12.1169
531.428	11.1872
534.321	14.7358
537.214	19.1456
540.106	18.1874
542.999	20.9434
545.892	13.4644
548.785	2.86243
551.677	22.5941
554.57	8.06024
557.463	0.339172
560.355	13.8231
563.248	12.7877
566.141	27.3658
569.034	7.28046
571.926	3.39075
574.819	15.2655
577.712	29.0754
580.604	41.4804
583.497	27.0278
586.39	21.8519
589.282	42.6152
592.175	10.3826
595.068	46.157
597.96	44.6199
600.853	46.4037
603.746	47.9493
606.639	21.1434
609.531	58.4731
612.424	44.2369
615.317	42.6921
618.209	70.329
621.102	48.3648
623.995	32.9476
626.888	27.351
629.78	38.5378
632.673	27.3726
635.566	36.0783
638.458	42.6584
641.351	43.7953
644.244	13.8375
647.136	55.0049
650.029	41.005
652.922	57.2097
655.814	15.4805
658.707	22.9706
661.6	1.72479
664.493	12.195
667.385	2.60995
670.278	16.5312
673.171	24.3247
676.063	12.9581
678.956	25.1244
681.849	3.21381
684.741	1.61514
687.634	4.67127
690.527	14.0051
693.42	11.4248
696.312	1.32629
699.205	29.0742
702.098	41.9017
704.99	19.5956
707.883	21.2473
710.776	9.74368
713.668	4.74234
716.561	27.8344
719.454	34.6719
722.346	27.3764
725.239	28.434
728.132	21.0654
731.025	4.2822
733.917	31.1313
736.81	28.8493
739.703	20.3568
742.595	19.5005
745.488	75.4983
748.381	34.5027
751.274	39.6676
754.166	64.263
757.059	70.6859
759.952	85.6326
762.844	80.1212
765.737	63.9564
768.63	101.025
771.522	117.524
774.415	93.3319
777.308	94.6888
780.201	114.232
783.093	103.729
785.986	119.634
788.879	108.682
791.771	110.128
794.664	74.6284
797.557	58.1841
800.449	51.9374
803.342	32.9754
806.235	41.7136
809.128	19.5627
812.02	19.1591
814.913	6.68231
817.806	5.3486
820.698	4.26654
823.591	2.30789
826.484	19.3832
829.376	8.99054
832.269	0.835541
835.162	5.80444
838.054	2.36389
840.947	14.8277
843.84	2.49396
846.733	7.08978
849.625	7.12589
852.518	29.464
855.411	21.2992
858.303	8.37665
861.196	8.84137
864.089	29.9694
866.981	31.8156
869.874	36.284
872.767	31.1807
875.659	42.9344
878.552	16.6218
881.445	29.3618
884.338	18.0104
887.23	21.7345
890.123	29.3373
893.016	20.3709
895.908	37.7159
898.801	25.1986
901.694	24.7883
904.587	22.9706
907.479	10.1641
910.372	30.9685
913.265	10.8859
916.157	26.0645
919.05	10.2123
921.943	17.02
924.835	14.8921
927.728	31.5047
930.621	20.0463
933.514	14.2775
936.406	25.9822
939.299	16.5321
942.192	26.1592
945.084	19.9582
947.977	42.8555
950.87	38.7176
953.763	29.9697
956.655	40.0823
959.548	39.3305
962.441	39.2677
965.333	56.5449
968.226	42.4295
971.119	44.2158
974.011	17.3914
976.904	14.6316
979.797	17.9731
982.689	5.21341
985.582	28.7733
988.475	14.2675
991.368	15.9745
994.26	3.1933
997.153	3.87326
1000.05	11.5114
1002.94	9.75351
1005.83	24.5702
1008.72	20.9876
1011.62	28.3709
1014.51	23.3434
1017.4	27.8617
1020.29	13.7045
1023.19	15.465
1026.08	11.8495
1028.97	30.1544
1031.87	22.6504
1034.76	15.7231
1037.65	31.5587
1040.54	48.1025
1043.44	53.6574
1046.33	33.8801
1049.22	17.2216
1052.11	35.6068
1055.01	6.91849
1057.9	3.86356
1060.79	14.6062
1063.68	4.94644
1066.58	24.65
1069.47	34.8873
1072.36	39.7276
1075.26	50.5615
1078.15	54.745
1081.04	47.6204
1083.93	102.644
1086.83	57.0613
1089.72	97.8168
1092.61	105.193
1095.51	91.9949
1098.4	96.1965
1101.29	95.0698
1104.18	94.8707
1107.08	118.927
1109.97	116.056
1112.86	118.268
1115.75	111.256
1118.65	131.389
1121.54	137.237
1124.43	124.777
1127.32	108.672
1130.22	128.474
1133.11	130.507
1136	104.924
1138.89	99.5207
1141.79	87.0213
1144.68	77.1775
1147.57	88.8541
1150.47	68.3792
1153.36	94.4434
1156.25	50.7409
1159.14	72.52
1162.04	57.6078
1164.93	64.576
1167.82	44.9718
1170.71	25.6807
1173.61	21.1239
1176.5	16.4809
1179.39	40.7872
1182.29	3.31409
1185.18	23.2306
1188.07	4.23917
1190.96	33.2005
1193.86	20.835
1196.75	6.69275
1199.64	22.4266
1202.54	12.9574
1205.43	21.1962
1208.32	5.75452
1211.21	25.1155
1214.11	37.7018
1217	4.05896
1219.89	30.2362
1222.78	31.4954
1225.68	38.3388
1228.57	57.7927
1231.46	39.7941
1234.35	45.0449
1237.25	5.6318
1240.14	35.1132
1243.03	26.7251
1245.92	29.2351
1248.82	48.6487
1251.71	17.4897
1254.6	2.27115
