Measurement: Raman, 785 nm, unoriented, Raman Data Processed
Mineral: Chabazite-Na
Rruff sample: R061095
Ideal chemistry: (Na_3_K)Al_4_Si_8_O_24_11H_2_O
Locality: Vaitape, Bora Bora, French Polynesia
Source: Michael Scott
Description: Clusters and druse of clear, colorless rhombohedral crystals
Raman shift (cm-1)	intensity
138.504	0
141.396	96.3049
144.289	685.874
147.181	1386.67
150.074	1564.54
152.967	1427.93
155.86	1067.22
158.752	751.669
161.645	731.551
164.538	728.47
167.43	711.904
170.323	668.746
173.216	654.396
176.108	565.586
179.001	526.289
181.894	445.659
184.787	400.554
187.679	389.268
190.572	315.881
193.465	299.982
196.357	244.377
199.25	226.394
202.143	213.509
205.036	149.216
207.928	109.81
210.821	49.8749
213.714	17.9193
216.606	10.0969
219.499	19.8625
222.392	2.67688
225.284	4.24988
228.177	45.0178
231.07	8.82056
233.963	2.25623
236.855	25.9006
239.748	0.259155
242.641	27.6849
245.533	26.1457
248.426	2.05383
251.319	51.2963
254.211	58.4004
257.104	65.2223
259.997	90.1185
262.889	86.9805
265.782	101.355
268.675	121.148
271.568	142.938
274.46	152.7
277.353	162.702
280.246	184.846
283.138	206.934
286.031	208.76
288.924	207.041
291.817	237.685
294.709	255.865
297.602	244.116
300.495	269.044
303.387	289.109
306.28	301.723
309.173	307.674
312.065	345.187
314.958	360.181
317.851	399.888
320.743	455.348
323.636	450.679
326.529	468.853
329.422	489.81
332.314	441.584
335.207	409.183
338.1	362.891
340.992	309.818
343.885	246.654
346.778	192.994
349.671	167.145
352.563	112.57
355.456	92.8047
358.349	73.5446
361.241	57.8154
364.134	40.6252
367.027	26.3783
369.919	20.3722
372.812	11.4965
375.705	7.65393
378.598	0.565552
381.49	18.2867
384.383	20.2877
387.276	28.9159
390.168	10.553
393.061	2.5437
395.954	22.2236
398.846	18.7263
401.739	30.7365
404.632	1.93359
407.524	20.6252
410.417	14.2388
413.31	57.3926
416.202	68.3554
419.095	143.501
421.988	188.335
424.881	321.489
427.773	434.765
430.666	538.892
433.559	759.239
436.451	930.634
439.344	1192.6
442.237	1476.24
445.13	1782.16
448.022	2072.93
450.915	2350.39
453.808	2525.95
456.7	2624.65
459.593	2652.16
462.486	2655.63
465.378	2642.43
468.271	2704.19
471.164	2818.79
474.057	2881.86
476.949	2933.49
479.842	2808.44
482.735	2613.86
485.627	2256.74
488.52	1935.11
491.413	1551.99
494.305	1269.25
497.198	998.181
500.091	764.37
502.983	602.789
505.876	450.858
508.769	357.998
511.662	270.262
514.554	183.61
517.447	140.675
520.34	97.7427
523.232	84.7648
526.125	66.839
529.018	16.9866
531.91	4.21582
534.803	6.38434
537.696	2.63147
540.589	6.41724
543.481	0.831421
546.374	2.6391
549.267	5.19305
552.159	16.4257
555.052	1.60217
557.945	11.1232
560.837	3.03943
563.73	12.4271
566.623	5.86566
569.516	19.5508
572.408	27.3732
575.301	12.103
578.194	51.2904
581.086	45.1869
583.979	28.8163
586.872	43.6703
589.764	49.6995
592.657	29.1101
595.55	39.6732
598.443	43.7149
601.335	18.5636
604.228	38.8333
607.121	16.9919
610.013	42.0783
612.906	26.887
615.799	17.8346
618.692	21.0161
621.584	30.024
624.477	31.8475
627.37	7.79309
630.262	27.2827
633.155	17.1115
636.048	24.441
638.94	16.1039
641.833	44.6826
644.726	3.72229
647.619	38.5609
650.511	14.8418
653.404	37.8523
656.297	0.826782
659.189	20.0409
662.082	1.23108
664.975	16.8453
667.867	15.1702
670.76	19.2786
673.653	9.87506
676.545	9.08148
679.438	23.5054
682.331	6.66772
685.224	9.28052
688.116	6.60626
691.009	7.84442
693.902	44.8286
696.794	0.854492
699.687	25.5996
702.58	23.6553
705.472	28.391
708.365	17.6151
711.258	30.0347
714.151	8.42749
717.043	45.0892
719.936	38.8973
722.829	25.2443
725.721	57.2145
728.614	52.8673
731.507	35.0029
734.399	60.3962
737.292	48.6851
740.185	73.0997
743.077	37.7163
745.97	92.3787
748.863	82.7477
751.756	79.5776
754.648	95.1064
757.541	117.571
760.434	95.1462
763.326	118.858
766.219	94.7457
769.112	90.1871
772.005	103.13
774.897	71.9773
777.79	88.2051
780.683	90.9639
783.575	76.7905
786.468	61.1949
789.361	66.409
792.253	34.5882
795.146	20.962
798.039	8.8692
800.932	18.3204
803.824	11.8377
806.717	14.9168
809.61	7.10754
812.502	15.6121
815.395	2.8898
818.288	0.072876
821.18	4.08063
824.073	11.7921
826.966	12.5717
829.859	1.1647
832.751	10.8244
835.644	25.7728
838.537	8.53455
841.429	24.5187
844.322	18.2945
847.215	18.5066
850.107	25.4633
853	18.7394
855.893	41.9098
858.785	24.3695
861.678	3.36469
864.571	25.6059
867.464	11.7418
870.356	9.62244
873.249	39.9296
876.142	45.5624
879.034	40.4351
881.927	36.8357
884.82	29.4737
887.712	22.8884
890.605	26.627
893.498	40.7358
896.391	58.4437
899.283	35.9297
902.176	24.3782
905.069	37.3253
907.961	20.5191
910.854	22.6957
913.747	21.3592
916.639	26.0863
919.532	22.4511
922.425	11.2447
925.318	8.74426
928.21	38.2694
931.103	32.0736
933.996	31.1188
936.888	12.1468
939.781	18.1653
942.674	17.4936
945.567	12.2419
948.459	17.9906
951.352	12.513
954.245	20.5245
957.137	23.3447
960.03	16.4748
962.923	9.33508
965.815	1.85571
968.708	22.1971
971.601	17.0712
974.494	6.61737
977.386	24.0647
980.279	28.5337
983.172	52.2518
986.064	10.085
988.957	9.32349
991.85	1.48834
994.742	14.9202
997.635	3.80621
1000.53	14.126
1003.42	17.9443
1006.31	24.8466
1009.21	24.2679
1012.1	17.7571
1014.99	10.353
1017.88	12.584
1020.78	3.75043
1023.67	8.091
1026.56	13.998
1029.45	15.6099
1032.35	20.6826
1035.24	15.0949
1038.13	21.086
1041.03	24.4736
1043.92	38.4317
1046.81	42.0265
1049.7	21.5583
1052.6	41.4624
1055.49	73.1889
1058.38	58.8154
1061.27	63.7491
1064.17	82.4271
1067.06	113.972
1069.95	92.4528
1072.85	70.6263
1075.74	141.254
1078.63	124.793
1081.52	95.4341
1084.42	127.5
1087.31	91.4769
1090.2	137.084
1093.09	127.133
1095.99	129.252
1098.88	124.135
1101.77	111.787
1104.66	88.311
1107.56	135.335
1110.45	107.218
1113.34	99.0647
1116.24	87.9937
1119.13	85.1066
1122.02	98.9828
1124.91	95.2181
1127.81	91.4714
1130.7	100.557
1133.59	87.3026
1136.48	66.1179
1139.38	61.7512
1142.27	46.7118
1145.16	50.1517
1148.06	38.3961
1150.95	45.1512
1153.84	37.1916
1156.73	15.2946
1159.63	54.5497
1162.52	41.7443
1165.41	11.1733
1168.3	6.38998
1171.2	10.5864
1174.09	1.8804
1176.98	17.1278
1179.88	6.05707
1182.77	0.992035
1185.66	23.8949
1188.55	0.213043
1191.45	2.45404
1194.34	29.4565
1197.23	5.87176
1200.12	51.5953
1203.02	15.0087
1205.91	18.6401
1208.8	16.6685
1211.69	33.115
1214.59	47.427
1217.48	46.3459
1220.37	25.0673
1223.27	42.8212
1226.16	57.9053
1229.05	35.8922
1231.94	37.5655
1234.84	24.7567
1237.73	23.8027
1240.62	33.7019
