Measurement: Raman, 514 nm, unoriented, Raman Data Processed
Mineral: Chabazite-Ca
Rruff sample: R050014
Ideal chemistry: Ca_2_Al_4_Si_8_O_24_13H_2_O
Locality: Tablo Mountain, Baja California, Mexico
Source: University of Arizona Mineral Museum
Description: Light tan colored rhombohedral single crystals
Measured chemistry: (Ca_0.72_Mg_0.11_K_0.09_Sr_0.06_Na_0.01_)_Σ=1_(Si_4.12_Al_1.88_)O_12_·6H_2_O
Raman shift (cm-1)	intensity
111.473	0
115.644	581.562
119.813	740.082
123.981	882.473
128.146	1136.03
132.309	1646.33
136.47	1532.91
140.63	1897.21
144.787	1687.51
148.942	1747.13
153.096	1377.65
157.247	1338.84
161.396	1541.42
165.544	1768.04
169.689	1959.76
173.833	2297.32
177.974	2792.42
182.114	2732.17
186.251	2812.98
190.387	2300.09
194.52	2294.91
198.652	1999.79
202.782	1828.36
206.909	1819.2
211.035	1251.17
215.159	417.006
219.281	297.68
223.4	4.598
227.518	23.092
231.634	56.516
235.748	178.598
239.86	232.254
243.97	228.482
248.079	43.623
252.185	178.902
256.289	86.861
260.391	42.725
264.492	94.867
268.59	32.701
272.687	164.135
276.781	105.84
280.874	252.193
284.964	722.779
289.053	882.541
293.14	1068.78
297.225	1039.13
301.308	1267.24
305.389	1463.1
309.468	1584.4
313.545	1922.88
317.62	2165.51
321.693	2567.63
325.765	2971.63
329.834	3132.03
333.902	3329.1
337.967	3076.16
342.031	2870.59
346.093	2663.98
350.153	2162.69
354.21	2028.83
358.267	1739.89
362.321	1614.66
366.373	1471.47
370.423	1562.15
374.471	1413.29
378.518	1399.81
382.563	1388.72
386.605	1440.81
390.646	1508.04
394.685	1557.33
398.722	1762.84
402.757	1409.33
406.79	1549.41
410.821	1751.93
414.851	1881.17
418.878	2077.63
422.904	2663.47
426.927	3378.34
430.949	4466.9
434.969	5373.5
438.987	6725.95
443.003	8662.53
447.018	11257.5
451.03	13357.5
455.041	15507.4
459.049	15568
463.056	15127.5
467.061	14766.6
471.064	14800.6
475.065	15600.8
479.064	15099.7
483.062	14127.3
487.057	11871.9
491.051	9141.84
495.043	6796.84
499.032	5046.55
503.02	3753.33
507.007	2797.77
510.991	2199.14
514.973	1592.01
518.954	1521.93
522.933	1131.2
526.91	828.688
530.885	729.193
534.858	608.223
538.829	697.111
542.799	322.725
546.766	516.586
550.732	470.438
554.696	295.146
558.658	184.525
562.618	239.408
566.576	216.867
570.533	221.896
574.488	248.408
578.44	32.314
582.391	287.529
586.341	481.08
590.288	416.836
594.233	119.639
598.177	137.754
602.119	150.654
606.059	118.488
609.997	107.84
613.933	163.482
617.868	110.398
621.801	156.998
625.731	110.814
629.66	172.865
633.588	446.084
637.513	120.002
641.437	103.684
645.358	7.137
649.278	110.355
653.196	64.979
657.113	137.42
661.027	318.85
664.94	17.504
668.851	357.035
672.76	19.818
676.667	81.99
680.572	199.061
684.476	261.854
688.378	364.82
692.278	307.92
696.176	505.254
700.072	145.906
703.967	208.361
707.86	602.238
711.751	487.762
715.64	194.701
719.527	377.652
723.413	455.344
727.297	483.959
731.179	485.594
735.059	411.531
738.937	455.562
742.814	668.045
746.689	639.357
750.562	724.572
754.433	799.371
758.303	630.004
762.17	1217.59
766.036	958.268
769.901	719.359
773.763	773.242
777.624	961.779
781.482	811.221
785.339	768.818
789.195	570.516
793.048	519.568
796.9	662.723
800.75	250.164
804.598	90.387
808.445	321.301
812.289	57.211
816.132	118.361
819.973	50.789
823.813	4.904
827.65	78.672
831.486	117.844
835.32	33.877
839.152	100.102
842.983	340.219
846.812	95.768
850.639	145.057
854.464	88.25
858.288	337.086
862.11	6.49
865.93	127.32
869.748	162.385
873.564	176.076
877.379	28.402
881.192	302.312
885.004	173.82
888.813	65.941
892.621	123.604
896.427	124.695
900.232	127.133
904.034	63.705
907.835	46.715
911.634	25.586
915.432	237.723
919.227	187.229
923.021	392.416
926.813	372.898
930.604	324.184
934.393	148.328
938.18	117.328
941.965	260.166
945.749	158.797
949.53	418.156
953.311	339.867
957.089	335.01
960.866	416.014
964.641	275.684
968.414	458.176
972.185	698.129
975.955	768.508
979.723	432.312
983.49	735.469
987.254	686.301
991.017	1005.52
994.779	1043.38
998.538	847.781
1002.3	1332.44
1006.05	1072.63
1009.81	1124.98
1013.56	1097.78
1017.31	1146.55
1021.06	951.695
1024.81	1206.96
1028.55	1235.55
1032.3	1376.29
1036.04	1203.08
1039.78	1380.45
1043.52	1356.51
1047.26	1468.93
1050.99	1598.72
1054.73	1690.76
1058.46	1810.35
1062.19	1418.63
1065.92	1851.02
1069.65	2033.37
1073.37	2096.34
1077.1	2225.59
1080.82	2306.75
1084.54	2113.81
1088.26	2161.02
1091.97	2199.5
1095.69	2137.6
1099.4	2107.28
1103.12	2071
1106.83	2232.06
1110.54	1826.47
1114.24	1815.49
1117.95	2015.85
1121.65	1837.97
1125.35	1893
1129.06	1875.49
1132.75	1628.91
1136.45	1313.22
1140.15	1509.88
1143.84	1130.62
1147.53	1321.85
1151.22	1058.88
1154.91	1222.58
1158.6	775.586
1162.28	1045.16
1165.97	704.016
1169.65	441.453
1173.33	487.738
1177.01	668.855
1180.69	416.789
1184.36	597.086
1188.04	350.324
1191.71	200.523
1195.38	142.691
1199.05	273.148
1202.71	102.715
1206.38	365.949
1210.04	48.113
1213.71	368.281
1217.37	273.59
1221.03	257.188
1224.68	24.598
1228.34	232.891
1231.99	298.184
1235.65	201.625
1239.3	440.84
1242.95	336.496
1246.59	168.715
1250.24	17.57
1253.88	297.715
1257.53	73.992
1261.17	209.379
1264.81	108.508
1268.45	77.891
1272.08	87.238
1275.72	106.035
1279.35	45.168
1282.98	164.766
1286.61	164.949
1290.24	242.055
1293.87	2.891
1297.49	17.289
1301.11	128.516
1304.73	35.371
1308.36	639.297
1311.97	563.211
1315.59	143.988
1319.2	331.617
1322.82	88.23
1326.43	44.562
1330.04	45.539
1333.65	184.355
1337.26	292.797
1340.86	12.148
1344.47	176.988
1348.07	294.965
1351.67	242.633
1355.27	489.828
1358.87	472.52
1362.46	524.391
1366.06	474.543
1369.65	423.543
1373.24	678.793
1376.83	587.074
1380.42	197.59
1384	398.547
1387.59	675.438
1391.17	570.758
1394.75	820.344
1398.33	645.691
1401.91	574.809
1405.49	445.207
1409.06	326.84
1412.64	333.031
1416.21	652.059
1419.78	323.75
1423.35	643.383
1426.91	650.27
1430.48	423.398
1434.05	561.211
1437.61	838.047
1441.17	538.637
1444.73	652.453
1448.29	479.203
1451.84	430.863
1455.4	585.621
1458.95	798.992
1462.5	802.02
1466.05	901.418
1469.6	557.621
1473.15	698.383
1476.69	721.508
1480.24	639.059
1483.78	323.914
1487.32	471.668
1490.86	366.93
1494.39	528.625
1497.93	504.094
1501.46	13.227
1505	11.973
1508.53	87.242
1512.06	173.855
1515.59	417.055
1519.11	0.613
