Measurement: Raman, 780 nm, unoriented, Raman Data Processed
Mineral: Chabazite-K
Rruff sample: R120032
Ideal chemistry: (K_2_NaCa_0.5_)Al_4_Si_8_O_24_11H_2_O
Locality: Kirovskii mine, Rasvumchorr Mt, Khibiny Massif, Kola Peninsula, Murmanskaja Oblast, Northern Region, Russia
Source: Donald Doell
Description: Druse of colorless rhombohedral crystals
Raman shift (cm-1)	intensity
112.817	0
116.192	0.145752
119.566	8.47412
122.941	7.75488
126.316	14.5102
129.691	20.4398
133.066	22.0204
136.44	31.3344
139.815	31.9674
143.19	31.0319
146.565	34.5646
149.94	29.7983
153.315	27.2105
156.689	24.6656
160.064	24.2518
163.439	22.3458
166.814	24.0193
170.189	31.3136
173.563	26.3954
176.938	28.2931
180.313	27.7881
183.688	27.1072
187.063	26.6679
190.437	21.5801
193.812	15.9609
197.187	13.0249
200.562	4.98547
203.937	2.70459
207.311	4.7644
210.686	0.861694
214.061	0.260742
217.436	1.45044
220.811	4.07471
224.186	3.16431
227.56	4.78381
230.935	0.482178
234.31	2.77539
237.685	1.16406
241.06	4.31567
244.435	5.474
247.809	3.53626
251.184	5.28125
254.559	5.13684
257.934	7.5047
261.309	13.6376
264.683	15.513
268.058	14.338
271.433	15.8104
274.808	16.3131
278.183	20.0556
281.558	22.0558
284.932	21.1069
288.307	22.8092
291.682	26.0473
295.057	26.2793
298.432	26.3449
301.806	30.1043
305.181	29.3275
308.556	33.8228
311.931	32.4266
315.306	38.15
318.68	45.4138
322.055	50.8094
325.43	56.6402
328.805	61.4562
332.18	59.294
335.555	51.5721
338.929	46.7719
342.304	38.3376
345.679	28.6249
349.054	23.2782
352.429	16.7161
355.803	13.5174
359.178	12.0234
362.553	4.63428
365.928	1.84033
369.303	3.90826
372.678	0.951904
376.052	0.69397
379.427	1.11725
382.802	2.18182
386.177	2.26257
389.552	0.404114
392.926	0.989807
396.301	2.17365
399.676	0.088135
403.051	11.72
406.426	8.62567
409.8	6.67664
413.175	11.9611
416.55	16.2746
419.925	24.6681
423.3	35.6213
426.675	49.0105
430.049	62.5306
433.424	84.0876
436.799	112.415
440.174	145.39
443.549	182.932
446.923	212.137
450.298	250.319
453.673	281.752
457.048	308.452
460.423	321.619
463.798	331.615
467.172	347.369
470.547	370.036
473.922	395.192
477.297	402.772
480.672	378.669
484.046	328.651
487.421	263.463
490.796	204.591
494.171	152.893
497.546	110.61
500.921	80.3453
504.295	58.4385
507.67	44.4294
511.045	30.2079
514.42	21.4174
517.795	15.2161
521.169	7.67407
524.544	3.05176
527.919	5.18384
531.294	3.19891
534.669	2.06934
538.044	1.10449
541.418	1.51001
544.793	3.4837
548.168	0.647888
551.543	2.36945
554.918	1.49182
558.293	1.91498
561.667	0.331055
565.042	1.00507
568.417	1.35474
571.792	3.05511
575.167	2.51971
578.541	0.345154
581.916	2.21313
585.291	6.37
588.666	3.9516
592.041	7.18213
595.415	6.61066
598.79	7.6991
602.165	4.0011
605.54	5.61822
608.915	7.72235
612.29	5.4295
615.664	5.22553
619.039	2.34503
622.414	7.80798
625.789	3.70227
629.164	6.35687
632.538	5.93158
635.913	7.66998
639.288	7.84345
642.663	8.59332
646.038	7.65216
649.413	8.67896
652.787	8.56934
656.162	5.5022
659.537	5.88269
662.912	2.81842
666.287	1.95721
669.661	1.74268
673.036	2.30652
676.411	0.507813
679.786	1.91833
683.161	1.17755
686.535	2.61865
689.91	0.95874
693.285	1.45441
696.66	1.46173
700.035	2.45505
703.41	1.00769
706.784	4.591
710.159	3.28888
713.534	0.463959
716.909	3.90384
720.284	1.50458
723.659	5.01694
727.033	2.95694
730.408	3.37094
733.783	3.58926
737.158	3.77393
740.533	1.02112
743.907	4.23474
747.282	3.39533
750.657	1.80078
754.032	0.238586
757.407	0.731323
760.782	4.91205
764.156	5.66721
767.531	2.58856
770.906	2.63769
774.281	7.06168
777.656	7.00259
781.03	8.52237
784.405	9.39752
787.78	14.2523
791.155	10.3514
794.53	12.5343
797.904	10.4466
801.279	6.65778
804.654	2.67017
808.029	3.65088
811.404	2.34705
814.779	0.51825
818.153	1.10413
821.528	2.88812
824.903	2.25876
828.278	1.20581
831.653	0.194061
835.028	1.40204
838.402	2.15286
841.777	3.09662
845.152	1.57159
848.527	1.22586
851.902	6.32101
855.276	3.16257
858.651	5.2218
862.026	2.99487
865.401	5.10956
868.776	5.94855
872.15	2.41183
875.525	4.18417
878.9	3.98007
882.275	2.27911
885.65	6.30505
889.024	0.009003
892.399	1.87479
895.774	0.030823
899.149	0.917755
902.524	3.05832
905.899	1.40964
909.273	0.617767
912.648	2.99676
916.023	4.17352
919.398	7.96088
922.773	7.5545
926.148	2.49469
929.522	2.0141
932.897	3.81751
936.272	4.65207
939.647	3.70453
943.022	2.79309
946.396	2.16364
949.771	1.80734
953.146	1.19754
956.521	0.862488
959.896	1.96887
963.27	1.44989
966.645	3.07565
970.02	2.72382
973.395	2.54321
976.77	1.47742
980.145	2.50479
983.519	2.05084
986.894	0.584717
990.269	3.75107
993.644	3.95868
997.019	2.93094
1000.39	4.42892
1003.77	3.57599
1007.14	4.42502
1010.52	2.29404
1013.89	3.28805
1017.27	2.7496
1020.64	4.0607
1024.02	3.00446
1027.39	2.90375
1030.77	5.67407
1034.14	2.12332
1037.52	1.39789
1040.89	3.78732
1044.27	0.727448
1047.64	1.20389
1051.02	1.55402
1054.39	1.4183
1057.77	2.80579
1061.14	5.25171
1064.52	1.6796
1067.89	6.42203
1071.27	5.73428
1074.64	5.03922
1078.01	5.68045
1081.39	8.40521
1084.76	11.3289
1088.14	8.6214
1091.51	11.6604
1094.89	12.3353
1098.26	7.44367
1101.64	8.87302
1105.01	8.50415
1108.39	10.277
1111.76	6.99002
1115.14	8.05347
1118.51	9.37338
1121.89	10.183
1125.26	6.37174
1128.64	8.74783
1132.01	6.71277
1135.39	7.91415
1138.76	10.631
1142.14	5.74304
1145.51	4.44385
1148.88	6.40573
1152.26	6.42847
1155.63	2.99789
1159.01	2.05734
1162.38	3.94205
1165.76	9.74939
1169.13	0.713837
1172.51	0.327545
1175.88	2.49286
1179.26	0.114166
1182.63	0.869598
1186.01	2.14563
1189.38	3.22052
1192.76	2.6506
1196.13	2.82733
1199.51	1.90668
1202.88	5.88489
1206.26	1.25314
1209.63	2.24295
1213.01	4.97775
1216.38	3.99258
1219.76	2.61771
1223.13	2.51874
1226.51	3.72553
1229.88	4.22372
1233.26	4.09714
1236.63	2.56277
1240.01	3.45303
1243.38	1.17841
1246.76	6.57944
1250.13	5.26791
1253.51	4.67737
1256.88	5.93216
1260.25	7.29715
1263.63	4.84579
1267	4.61658
1270.38	6.05218
1273.75	3.14487
1277.13	2.28067
1280.5	0.006653
1283.88	2.91025
