Measurement: Raman, 532 nm, unoriented, Raman Data Processed
Mineral: Chabourneite
Rruff sample: R140106
Ideal chemistry: Tl^1+^_4_Pb^2+^_2_(Sb^3+^,As^3+^)_20_S^2-^_34_
Locality: Jas Roux, La Chapelle En Valgaudemard, Hautes-Alpes, Provence-Alpes-CÃ´te D'Azur, France
Source: Rock Currier
Description: Black metallic grains with conchoidal fracture, associated with red realgar, yellow braded or fibrous wakabayashilite (R150064), and colorless massive or tabular celestine.
Raman shift (cm-1)	intensity
111.961	0
115.335	15.4186
118.71	29.7112
122.085	33.7492
125.46	37.4824
128.835	29.9084
132.209	13.7137
135.584	0.44397
138.959	1.30725
142.334	1.36871
145.709	6.45068
149.084	15.6945
152.458	25.4627
155.833	25.6036
159.208	15.7382
162.583	6.13544
165.958	0.144165
169.333	4.68524
172.707	12.9606
176.082	23.4702
179.457	34.819
182.832	43.554
186.207	62.6702
189.581	85.3026
192.956	55.6938
196.331	13.5629
199.706	2.14282
203.081	3.18408
206.455	4.39044
209.83	1.10858
213.205	11.5038
216.58	6.6059
219.955	4.90869
223.329	14.2925
226.704	18.6132
230.079	32.1238
233.454	44.2863
236.829	70.3074
240.204	91.4441
243.578	107.575
246.953	136.37
250.328	184.438
253.703	241.381
257.078	216.331
260.452	170.615
263.827	149.314
267.202	151.602
270.577	169.35
273.952	198.802
277.327	233.562
280.701	264.603
284.076	294.715
287.451	331.246
290.826	369.709
294.201	391.277
297.575	402.533
300.95	386.916
304.325	350.524
307.7	298.426
311.075	229.401
314.45	163.042
317.824	114.445
321.199	80.2932
324.574	50.9985
327.949	29.9378
331.324	15.9169
334.699	11.4844
338.073	7.61353
341.448	2.29394
344.823	1.49344
348.198	0.691284
351.573	1.12225
354.947	1.08426
358.322	1.05719
361.697	1.54977
365.072	0.663818
368.447	2.26114
371.822	0.474274
375.196	2.75784
378.571	6.66821
381.946	4.39246
385.321	2.24344
388.696	4.74026
392.07	2.6904
395.445	4.32016
398.82	5.51843
402.195	8.5206
405.57	9.07877
408.945	10.5724
412.319	12.0609
415.694	11.3741
419.069	12.5274
422.444	13.8539
425.818	9.29935
429.193	10.4955
432.568	12.398
435.943	13.5822
439.318	20.4832
442.693	28.3683
446.067	32.6805
449.442	39.1972
452.817	36.5836
456.192	28.8756
459.567	19.2068
462.942	16.7928
466.316	14.2689
469.691	16.9046
473.066	18.8237
476.441	22.2675
479.816	20.4187
483.19	22.0127
486.565	17.4131
489.94	16.1289
493.315	16.2275
496.69	13.154
500.065	8.12927
503.439	8.27933
506.814	7.77676
510.189	5.63351
513.564	6.38113
516.939	4.04123
520.313	5.83734
523.688	2.23233
527.063	3.13873
530.438	0.081573
533.813	2.74741
537.188	0.871216
540.562	1.94412
543.937	2.0517
547.312	1.20679
550.687	1.19369
554.062	1.97552
557.436	0.453461
560.811	2.24023
564.186	1.51978
567.561	0.649384
570.936	2.2879
574.311	1.2941
577.685	0.138062
581.06	0.348175
584.435	2.08536
587.81	2.40289
591.185	0.915558
594.559	2.45233
597.934	3.79492
601.309	0.997131
604.684	0.276031
608.059	2.66089
611.433	5.90299
614.808	2.70596
618.183	4.02701
621.558	5.72018
624.933	1.51575
628.308	3.01849
631.682	1.75677
635.057	3.01129
638.432	2.75381
641.807	3.2984
645.182	1.60214
648.557	3.98163
651.931	3.1882
655.306	5.20108
658.681	2.95724
662.056	3.95303
665.431	1.45822
668.805	2.5466
672.18	2.08661
675.555	0.859955
678.93	1.41193
682.305	2.44076
685.679	1.58591
689.054	2.14255
692.429	2.95956
695.804	1.84164
699.179	3.52753
702.553	3.70844
705.928	5.67868
709.303	6.57031
712.678	8.37933
716.053	3.94022
719.428	4.10754
722.802	1.83267
726.177	8.18289
729.552	2.9794
732.927	0.992371
736.302	0.069397
739.677	3.04462
743.051	2.19486
746.426	4.62375
749.801	4.34708
753.176	2.53296
756.551	3.76416
759.925	0.10202
763.3	1.66266
766.675	1.25693
770.05	0.12381
773.425	4.65729
776.799	0.097687
780.174	0.249329
783.549	1.3566
786.924	3.68014
790.299	1.82858
793.674	1.14002
797.048	2.65924
800.423	0.724731
803.798	1.03479
807.173	2.46881
810.548	1.45169
813.923	0.022095
817.297	1.95517
820.672	2.68265
824.047	3.55484
827.422	2.48486
830.797	2.61786
834.171	0.094299
837.546	1.22998
840.921	3.70837
844.296	3.71796
847.671	0.286377
851.045	2.67435
854.42	2.3869
857.795	4.08951
861.17	4.16315
864.545	5.67874
867.92	4.2843
871.294	0.901398
874.669	0.882294
878.044	2.21802
881.419	4.44193
884.794	1.07486
888.168	1.78204
891.543	3.2298
894.918	2.58929
898.293	2.43317
901.668	0.902954
905.043	4.42917
908.417	1.63379
911.792	4.34433
915.167	4.82788
918.542	2.54184
921.917	3.26236
925.291	4.30563
928.666	6.20343
932.041	0.820221
935.416	1.89575
938.791	2.21396
942.165	1.45215
945.54	4.97729
948.915	2.61646
952.29	4.16507
955.665	5.30335
959.04	1.05759
962.414	0.473724
965.789	1.92542
969.164	3.49564
972.539	3.3869
975.914	4.7359
979.288	4.79681
982.663	5.59384
986.038	7.73032
989.413	5.11594
992.788	3.59613
996.163	1.20248
999.537	6.63391
1002.91	7.21481
1006.29	3.69266
1009.66	2.36585
1013.04	6.96903
1016.41	6.43405
1019.79	8.16608
1023.16	5.8378
1026.54	8.01209
1029.91	2.33218
1033.29	3.86252
1036.66	5.60071
1040.04	0.227264
1043.41	3.37091
1046.79	3.57388
1050.16	2.49054
1053.53	1.98694
1056.91	3.84363
1060.28	1.45935
1063.66	0.788025
1067.03	0.132202
1070.41	0.827271
1073.78	0.412598
1077.16	3.67963
1080.53	3.87549
1083.91	3.28766
1087.28	1.71429
1090.66	1.89453
1094.03	1.7785
1097.41	0.067505
1100.78	3.41431
1104.16	3.59174
1107.53	2.30212
1110.91	3.10162
1114.28	1.38294
1117.66	2.05475
1121.03	5.16803
1124.41	3.58978
1127.78	4.82117
1131.15	3.65326
1134.53	2.39539
1137.9	3.7149
1141.28	6.22656
1144.65	3.48035
1148.03	4.92267
1151.4	2.94769
1154.78	7.91479
1158.15	6.95416
1161.53	3.6095
1164.9	2.89856
1168.28	1.03424
1171.65	5.23279
1175.03	1.94928
1178.4	1.17059
1181.78	4.92242
1185.15	4.13324
1188.53	1.28174
1191.9	2.36212
1195.28	0.552612
1198.65	0.316223
1202.03	0.783997
1205.4	1.34399
1208.78	2.03949
1212.15	3.18298
1215.53	0.676636
1218.9	4.1889
1222.28	0.023193
1225.65	3.50165
1229.03	1.61395
1232.4	5.05371
1235.78	4.17017
1239.15	5.10346
1242.52	5.88306
1245.9	8.73145
1249.27	14.5801
1252.65	11.9003
1256.02	8.71991
1259.4	5.63898
1262.77	6.27753
1266.15	1.80109
1269.52	5.84338
1272.9	4.12885
1276.27	2.70496
1279.65	0.557434
1283.02	1.10712
1286.4	1.6109
1289.77	1.79187
1293.15	3.89581
1296.52	4.27948
1299.9	1.34253
