Measurement: Raman, 514 nm, unoriented, Raman Data Processed
Mineral: Chalcocite
Rruff sample: R050067
Ideal chemistry: Cu_2_S
Locality: Flambeau, Rusk County, Wisconsin, USA
Source: Rock Currier
Description: Iridescent blue irregular hexagonal tablet
Measured chemistry: Cu_2.00_S_1.00_
Raman shift (cm-1)	intensity
180.175	0
184.342	27.713
188.507	64.746
192.67	65.764
196.83	263.428
200.988	515.248
205.144	1124.54
209.298	1809.9
213.449	2597.43
217.598	3165.8
221.745	2438.53
225.889	1298.9
230.032	693.641
234.171	457.279
238.309	398.281
242.445	266.986
246.578	266.217
250.709	352.612
254.838	565.35
258.964	730.608
263.088	1036.01
267.21	1452.77
271.33	1790.71
275.447	2243.94
279.563	2544.98
283.676	2549.12
287.786	2308.32
291.895	1848.53
296.001	1341.72
300.105	942.855
304.207	642.034
308.307	398.211
312.404	252.293
316.499	165.544
320.592	111.7
324.683	16.411
328.771	9.998
332.858	44.854
336.942	10.59
341.024	46.094
345.103	28.452
349.181	52.816
353.256	1.05
357.329	23.701
361.4	90.423
365.468	191.496
369.535	268.158
373.599	326.399
377.661	384.971
381.721	594.14
385.778	612.952
389.834	788.921
393.887	904.933
397.938	907.319
401.987	828.202
406.034	571.892
410.078	481.401
414.12	358.725
418.161	227.806
422.198	156.461
426.234	85.442
430.268	73.788
434.299	58.866
438.328	25.18
442.356	6.384
446.38	36.725
450.403	11.821
454.424	28.743
458.442	46.529
462.458	99.687
466.472	106.739
470.484	115.648
474.494	91.298
478.502	228.721
482.507	239.95
486.51	204.151
490.511	210.957
494.51	235.845
498.507	221.303
502.502	122.91
506.495	106.625
510.485	124.314
514.473	57.633
518.459	149.643
522.443	13.287
526.425	90.854
530.405	17.436
534.382	79.943
538.358	118.953
542.331	113.592
546.302	27.902
550.271	172.81
554.238	229.959
558.203	278.126
562.166	248.886
566.126	266.464
570.085	382.904
574.041	404.213
577.995	417.177
581.947	456.821
585.897	528.739
589.845	564.86
593.791	648.927
597.735	556.398
601.676	500.692
605.616	577.045
609.553	460.606
613.488	307.225
617.422	290.354
621.353	248.606
625.282	276.09
629.208	306.313
633.133	218.552
637.056	185.135
640.976	176.524
644.895	293.413
648.811	290.321
652.726	209.92
656.638	163.715
660.548	159.997
664.456	177.636
668.362	185.501
672.266	139.803
676.168	115.156
680.068	153.04
683.965	139.778
687.861	127.42
691.755	68.738
695.646	43.644
699.536	80.841
703.423	101.959
707.308	56.855
711.191	1.963
715.073	40.573
718.952	83.58
722.829	95.125
726.704	90.341
730.577	73.156
734.448	5.683
738.317	78.893
742.183	123.927
746.048	90.005
749.911	6.67
753.771	19.438
757.63	64.313
761.487	13.717
765.341	127.902
769.194	93.928
773.044	20.184
776.893	8.519
780.739	121.928
784.583	124.211
788.426	81.252
792.266	94.194
796.104	60.73
799.941	15.165
803.775	116.291
807.607	27.11
811.437	78.731
815.265	2.129
819.092	-3.931
822.916	14.992
826.738	84.478
830.558	13.276
834.376	23.322
838.192	61.05
842.006	85.424
845.818	55.262
849.628	41.993
853.436	1.329
857.242	30.592
861.046	43.663
864.848	13.092
868.649	114.82
872.447	171.587
876.243	66.069
880.037	38.349
883.829	12.545
887.619	8.682
891.407	55.833
895.193	66.527
898.977	39.206
902.759	7.87
906.539	57.572
910.318	79.747
914.094	143.302
917.868	126.175
921.64	133.971
925.41	147.443
929.179	165.826
932.945	133.662
936.709	77.452
940.472	138.885
944.232	190.56
947.991	227.995
951.747	84.54
955.502	170.634
959.254	325.014
963.005	320.644
966.753	305.584
970.5	313.343
974.245	200.892
977.987	417.262
981.728	502.68
985.467	495.865
989.204	628.151
992.939	615.438
996.672	564.856
1000.4	597.004
1004.13	684.667
1007.86	597.807
1011.58	614.254
1015.31	574.164
1019.03	584.502
1022.75	770.899
1026.47	663.157
1030.18	672.608
1033.89	602.243
1037.61	702.013
1041.32	608.217
1045.02	641.472
1048.73	596.346
1052.43	580.82
1056.13	649.621
1059.84	679.408
1063.53	590.451
1067.23	483.527
1070.92	506.622
1074.62	410.749
1078.31	470.923
1082	470.141
1085.68	557.358
1089.37	438.656
1093.05	386.996
1096.73	361.363
1100.41	242.795
1104.09	256.34
1107.76	330.957
1111.43	282.618
1115.11	197.357
1118.78	220.215
1122.44	172.248
1126.11	222.335
1129.77	88.501
1133.43	71.809
1137.1	94.207
1140.75	64.929
1144.41	68.244
1148.06	33.865
1151.72	6.539
1155.37	26.724
1159.02	71.969
1162.66	58.699
1166.31	8.35
1169.95	50.044
1173.59	24.802
1177.23	41.53
1180.87	26.788
1184.5	30.893
1188.14	156.622
1191.77	386.642
1195.4	354.947
1199.03	179.177
1202.65	57.672
1206.28	153.881
1209.9	238.114
1213.52	234.167
1217.14	214.269
1220.76	289.301
1224.37	355.62
1227.98	368.87
1231.6	374.17
1235.2	479.52
1238.81	352.919
1242.42	392.395
1246.02	529.948
1249.62	421.552
1253.22	413.129
1256.82	530.934
1260.42	593.922
1264.01	537.198
1267.61	613.006
1271.2	492.798
1274.79	648.751
1278.37	750.64
1281.96	605.659
1285.54	677.823
1289.12	696.258
1292.7	645.441
1296.28	700.979
1299.86	753.157
1303.43	486.655
1307	492.151
1310.57	519.854
1314.14	464.093
1317.71	515.3
1321.28	433.753
1324.84	470.827
1328.4	333.933
1331.96	397.237
1335.52	293.375
1339.07	266.493
1342.63	253.484
1346.18	228.384
1349.73	212.283
1353.28	158.538
1356.83	225.305
1360.37	228.866
1363.91	218.488
1367.46	195.17
1371	202.908
1374.54	224.702
1378.07	184.542
1381.61	29.312
1385.14	24.037
1388.67	24.589
1392.2	169.995
1395.72	104.37
1399.25	61.834
1402.77	65.589
1406.3	37.428
1409.82	99.737
1413.33	3.958
1416.85	48.359
1420.37	48.455
1423.88	30.497
1427.39	22.292
1430.9	87.048
1434.4	33.536
1437.91	139.116
1441.41	155.629
1444.92	159.943
1448.42	79.941
1451.92	86.688
1455.41	111.466
1458.91	213.203
1462.4	133.252
1465.89	81.76
1469.38	139.144
1472.87	192.349
1476.36	237.896
1479.84	99.272
1483.32	51.792
1486.8	107.323
1490.28	0.74
