Measurement: Raman, 532 nm, unoriented, Raman Data Processed
Mineral: Chalcopyrite
Rruff sample: R050559
Ideal chemistry: Cu^1+^Fe^3+^S_2_
Locality: Recuerdo Vein, Haunzala mine, Huallanca District, Dos de Mayo Province, Huanuco Department, Peru
Source: Dave Bunk Minerals
Description: Brass-yellow striated crystals
Measured chemistry: Cu^1+^_1.00_Fe^3+^_1.00_S_2.00_
Raman shift (cm-1)	intensity
139.327	0
142.702	0.268887
146.077	1.48614
149.451	1.9429
152.826	1.46561
156.201	2.53877
159.576	2.78767
162.951	3.54819
166.326	3.48483
169.7	3.81756
173.075	2.77397
176.45	2.30412
179.825	2.31279
183.2	1.77867
186.575	2.1134
189.949	1.26837
193.324	1.06419
196.699	0.49711
200.074	0.398609
203.449	0.139656
206.823	0.119611
210.198	0.129474
213.573	0.247042
216.948	0.215816
220.323	0.15181
223.697	0.33028
227.072	0.180511
230.447	0.443603
233.822	0.74087
237.197	1.12071
240.572	1.76311
243.946	2.51746
247.321	3.55792
250.696	4.55019
254.071	4.98579
257.446	6.67329
260.82	7.63724
264.195	8.3386
267.57	8.81596
270.945	10.1944
274.32	15.829
277.695	19.842
281.07	25.3247
284.444	36.4294
287.819	63.4842
291.194	83.4595
294.569	32.9659
297.943	8.44568
301.318	3.67694
304.693	2.20107
308.068	2.22417
311.443	2.65915
314.818	4.72905
318.192	7.35855
321.567	6.1167
324.942	2.8382
328.317	1.5442
331.692	1.02734
335.067	2.72482
338.441	2.70491
341.816	3.25736
345.191	4.86029
348.566	8.05809
351.941	9.77089
355.315	4.7489
358.69	1.5004
362.065	0.863091
365.44	0.166121
368.815	0.354886
372.19	0.764978
375.565	1.28353
378.939	1.05191
382.314	0.269272
385.689	0.411467
389.064	0.463655
392.438	0.139874
395.813	0.394294
399.188	0.196852
402.563	0.355859
405.938	0.251709
409.313	1.00245
412.688	0.723287
416.062	0.617984
419.437	0.970278
422.812	1.39272
426.187	1.06032
429.562	1.24942
432.936	0.947022
436.311	1.29188
439.686	0.972262
443.061	1.36826
446.436	0.973463
449.81	0.923412
453.185	1.40269
456.56	1.05812
459.935	1.31233
463.31	1.49449
466.685	1.21848
470.059	1.18084
473.434	1.11988
476.809	1.08645
480.184	0.301936
483.559	0.08672
486.933	0.278024
490.308	0.486941
493.683	0.055589
497.058	0.051061
500.433	0.039838
503.808	0.176256
507.183	0.061573
510.557	0.018181
513.932	0.076234
517.307	0.022281
520.682	0.143852
524.057	0.217428
527.431	0.21729
530.806	0.201129
534.181	0.351234
537.556	0.085325
540.931	0.14185
544.306	0.463296
547.68	0.318793
551.055	0.362686
554.43	0.326938
557.805	0.068669
561.18	0.335636
564.554	0.085814
567.929	0.13163
571.304	0.48765
574.679	0.069674
578.054	0.178992
581.428	0.09077
584.803	0.443404
588.178	0.260834
591.553	0.048922
594.928	0.228609
598.303	0.156454
601.677	0.218387
605.052	0.384095
608.427	0.066957
611.802	0.130705
615.177	0.078669
618.552	0.02529
621.926	0.279652
625.301	0.103411
628.676	0.180766
632.051	0.174571
635.426	0.250936
638.801	0.036985
642.175	0.262368
645.55	0.475221
648.925	0.320636
652.3	0.481099
655.675	0.426425
659.049	0.467353
662.424	0.311817
665.799	0.202771
669.174	0.106953
672.549	0.267935
675.923	0.180178
679.298	0.360146
682.673	0.069957
686.048	0.088997
689.423	0.060647
692.798	0.465402
696.172	0.45651
699.547	0.628299
702.922	0.473541
706.297	0.579276
709.672	0.306146
713.047	0.379541
716.421	0.450404
719.796	0.375791
723.171	0.171545
726.546	0.214921
729.921	0.186588
733.295	0.194965
736.67	0.018327
740.045	0.002142
743.42	0.266946
746.795	0.057313
750.17	0.20775
753.544	0.137977
756.919	0.298738
760.294	0.165401
763.669	0.262516
767.044	0.188395
770.418	0.13512
773.793	0.40171
777.168	0.201382
780.543	0.078542
783.918	0.397967
787.293	0.477357
790.667	0.274935
794.042	0.48793
797.417	0.558839
800.792	0.636803
804.167	0.311595
807.542	0.469403
810.916	0.434368
814.291	0.374111
817.666	0.729075
821.041	1.07895
824.416	0.367573
827.79	0.893161
831.165	0.53589
834.54	0.750723
837.915	0.934185
841.29	0.970518
844.665	0.818521
848.039	0.951204
851.414	1.10007
854.789	1.25216
858.164	1.0843
861.539	0.947351
864.913	0.933292
868.288	0.879005
871.663	0.727397
875.038	0.321082
878.413	0.254422
881.788	0.593212
885.162	0.350942
888.537	0.402295
891.912	0.552832
895.287	0.220404
898.662	0.338603
902.037	0.222051
905.411	0.160318
908.786	0.052338
912.161	0.232327
915.536	0.040507
918.911	0.079122
922.285	0.141572
925.66	0.028757
929.035	0.079582
932.41	0.271256
935.785	0.374889
939.159	0.137861
942.534	0.35094
945.909	0.132233
949.284	0.122089
952.659	0.006966
956.034	0.015082
959.409	0.144718
962.783	0.168533
966.158	0.07455
969.533	0.042339
972.908	0.016195
976.283	0.205599
979.657	0.331282
983.032	0.238568
986.407	0.307424
989.782	0.299758
993.157	0.283433
996.532	0.367139
999.906	0.252614
1003.28	0.31862
1006.66	0.390776
1010.03	0.305198
1013.41	0.375916
1016.78	0.367154
1020.15	0.638858
1023.53	0.578386
1026.9	0.572917
1030.28	0.636634
1033.65	0.745649
1037.03	0.538144
1040.4	0.987654
1043.78	0.77195
1047.15	0.814415
1050.53	0.505282
1053.9	0.473584
1057.28	0.404857
1060.65	0.305852
1064.03	0.479598
1067.4	0.383021
1070.78	0.343793
1074.15	0.163675
1077.53	0.289031
1080.9	0.450348
1084.28	0.459631
1087.65	0.284152
1091.03	0.59816
1094.4	0.245687
1097.78	0.300163
1101.15	0.4605
1104.53	0.280965
1107.9	0.343129
1111.28	0.436672
1114.65	0.154416
1118.03	0.335515
1121.4	0.061049
1124.78	0.377931
1128.15	0.135458
1131.52	0.26947
1134.9	0.150939
1138.27	0.148343
1141.65	0.181577
1145.02	0.310877
1148.4	0.205483
1151.77	0.067415
1155.15	0.281177
1158.52	0.1379
1161.9	0.248029
1165.27	0.160985
1168.65	0.254638
1172.02	0.478089
1175.4	0.364273
1178.77	0.3016
1182.15	0.224581
1185.52	0.182136
1188.9	0.281067
1192.27	0.097719
1195.65	0.080847
1199.02	0.085698
1202.4	0.135906
1205.77	0.206657
1209.14	0.337178
1212.52	0.189873
1215.89	0.132025
1219.27	0.191495
1222.64	0.268247
1226.02	0.057153
1229.39	0.150285
1232.77	0.144631
1236.14	0.111562
1239.52	0.200426
1242.89	0.202467
1246.27	0.116405
1249.64	0.274785
1253.02	0.364108
1256.39	0.334673
1259.77	0.194497
1263.14	0.179338
1266.52	0.00333
1269.89	0.343832
1273.27	0.062921
1276.64	0.260273
1280.02	0.364788
1283.39	0.323686
1286.77	0.433407
1290.14	0.314186
1293.52	0.29257
1296.89	0.300973
1300.27	0.271483
