Measurement: Raman, 514 nm, unoriented, Raman Data Processed
Mineral: Chalcanthite
Rruff sample: R050293
Ideal chemistry: CuSO_4_5H_2_O
Locality: 79 mine, 4th level, Hayden, Gila County, Arizona, USA
Source: George Godas, John Callahan
Description: Blue fibrous crust
Measured chemistry: Cu_1.00_S_1.00_O_4_Â·5H_2_O
Raman shift (cm-1)	intensity
89.193	0
93.375	5.797
97.554	54.421
101.732	128.806
105.908	253.564
110.082	398.879
114.254	371.159
118.424	426.706
122.592	681.537
126.758	906.141
130.922	873.95
135.083	739.413
139.243	726.112
143.401	553.813
147.557	483.469
151.711	420.296
155.863	303.982
160.013	220.6
164.161	196.289
168.308	154.275
172.452	191.447
176.594	267.469
180.734	269.26
184.872	275.17
189.008	262.644
193.143	259.989
197.275	337.517
201.405	416.232
205.534	463.95
209.66	456.336
213.784	449.711
217.907	339.055
222.027	339.562
226.146	297.231
230.263	219.167
234.377	331.272
238.49	367.814
242.601	514.462
246.709	563.222
250.816	609.078
254.921	578.572
259.024	660.846
263.125	692.849
267.224	833.713
271.321	1107.2
275.416	1339.18
279.51	1545.55
283.601	1380.24
287.69	1021.19
291.778	671.38
295.863	352.761
299.947	203.312
304.029	132.013
308.108	83.852
312.186	56.814
316.262	1.116
320.336	46.019
324.408	52.214
328.478	13.528
332.546	34.824
336.612	16.924
340.677	18.571
344.739	26.441
348.799	26.74
352.858	46.293
356.915	37.635
360.969	23.04
365.022	4.164
369.073	85.465
373.122	11.688
377.169	44.825
381.215	19.178
385.258	69.314
389.299	137.717
393.339	138.921
397.376	210.257
401.412	219.604
405.446	361.979
409.478	463.387
413.508	597.825
417.536	812.3
421.562	956.865
425.586	969.506
429.609	875.213
433.629	820.137
437.648	894.784
441.665	1007.64
445.68	1124.54
449.693	1334.46
453.704	1586.44
457.713	1648.46
461.721	1879.58
465.726	1964.76
469.73	1930.98
473.731	1515.21
477.731	1031.46
481.729	712.801
485.725	474.163
489.72	409.889
493.712	294.689
497.703	135.392
501.691	136.078
505.678	131.154
509.663	90.672
513.646	33.633
517.627	101.651
521.607	117.562
525.584	32.416
529.56	80.042
533.534	31.802
537.506	18.366
541.476	59.938
545.444	9.661
549.41	4.679
553.375	109.019
557.337	113.338
561.298	69.663
565.257	61.975
569.214	74.283
573.17	83.584
577.123	102.879
581.075	198.166
585.024	266.551
588.972	425.814
592.918	441.61
596.863	555.557
600.805	893.776
604.746	1106.44
608.685	1374.62
612.621	1396.88
616.557	1127.52
620.49	816.662
624.421	449.439
628.351	395.765
632.279	380.822
636.205	153.238
640.129	172.84
644.051	119.216
647.972	94.637
651.89	104.134
655.807	111.166
659.722	40.531
663.636	86.193
667.547	149.263
671.457	126.095
675.365	151.746
679.271	130.997
683.175	140.06
687.077	143.679
690.978	122.198
694.877	187.604
698.774	92.769
702.669	148.083
706.562	140.824
710.454	128.336
714.344	107.804
718.232	57.227
722.118	87.605
726.002	72.941
729.885	136.235
733.766	50.486
737.645	93.694
741.522	63.861
745.397	82.984
749.271	65.062
753.143	40.077
757.013	20.045
760.881	19.968
764.748	17.835
768.613	2.385
772.476	46.714
776.337	103.761
780.196	11.139
784.054	42.454
787.91	15.283
791.764	58.123
795.616	61.89
799.467	34.194
803.316	10.395
807.163	48.296
811.008	41.797
814.851	0.919
818.693	36.495
822.533	34.155
826.371	22.114
830.208	70.369
834.042	48.386
837.875	78.775
841.706	71.944
845.536	44.14
849.363	56.383
853.189	50.634
857.013	50.366
860.836	67.187
864.656	179.462
868.475	150.76
872.292	171.072
876.108	209.932
879.922	152.8
883.733	152.208
887.544	116.63
891.352	177.071
895.159	156.432
898.964	135.931
902.767	133.912
906.568	141.752
910.368	100.237
914.166	141.414
917.962	122.07
921.757	146.93
925.55	177.469
929.341	160.892
933.13	165.982
936.918	210.467
940.703	216.327
944.488	246.323
948.27	235.877
952.051	301.191
955.83	393.491
959.607	591.097
963.383	810.365
967.156	1199.01
970.928	1861.85
974.699	3497.47
978.468	9625.16
982.234	40064.9
986	24785.6
989.763	6293.51
993.525	2373.53
997.285	1203.65
1001.04	789.895
1004.8	460.25
1008.55	392.755
1012.31	287.345
1016.06	158.055
1019.81	184.92
1023.56	165.893
1027.31	217.181
1031.05	191.373
1034.79	268.634
1038.53	230.023
1042.27	244.042
1046.01	270.091
1049.75	530.37
1053.48	484.136
1057.22	611.632
1060.95	552.509
1064.68	524.804
1068.4	445.258
1072.13	413.422
1075.86	414.331
1079.58	477.027
1083.3	348.595
1087.02	396.984
1090.74	435.054
1094.45	486.684
1098.17	451.386
1101.88	361.172
1105.59	344.38
1109.3	183.951
1113.01	126.691
1116.71	117.474
1120.42	131.096
1124.12	207.31
1127.82	50.607
1131.52	234.739
1135.22	318.804
1138.91	529.179
1142.61	599.716
1146.3	568.106
1149.99	415.238
1153.68	346.463
1157.37	157.976
1161.06	193.645
1164.74	84.953
1168.42	114.83
1172.1	24.948
1175.78	38.521
1179.46	59.943
1183.14	77.99
1186.81	40.327
1190.48	13.552
1194.15	11.31
1197.83	51.102
1201.49	75.051
1205.16	61.256
1208.82	20.742
1212.49	48.912
1216.15	138.609
1219.81	0.101
1223.46	0.523
1227.12	74.618
1230.78	76.65
1234.43	103.822
1238.08	65.959
1241.73	137.856
1245.38	57.451
1249.03	22.805
1252.67	77.545
1256.31	16.782
1259.95	32.902
1263.6	95.88
1267.23	34.767
1270.87	66.953
1274.51	88.961
1278.14	30.208
1281.77	97.987
1285.4	20.563
1289.03	30.831
1292.66	51.17
1296.28	88.563
1299.91	36.088
1303.53	40.388
1307.15	12.491
1310.77	83.407
1314.38	98.938
1318	59.78
1321.61	64.482
1325.23	78.472
1328.84	51.74
1332.45	34.78
1336.06	58.092
1339.66	26.213
1343.27	81.58
1346.87	54.359
1350.47	85.335
1354.07	17.646
1357.67	179.826
1361.26	125.791
1364.86	100.209
1368.45	166.497
1372.04	172.334
1375.63	125.922
1379.22	60.859
1382.81	85.521
1386.39	127.854
1389.98	213.529
1393.56	170.484
1397.14	155.508
1400.72	179.787
1404.3	109.554
1407.87	92.875
1411.45	47.945
1415.02	469.001
1418.59	120.039
1422.16	85.011
1425.73	181.414
1429.29	111.811
1432.86	139.749
1436.42	186.209
1439.98	239.367
1443.54	66.8
1447.1	163.349
1450.66	167.28
1454.21	157.292
1457.77	190.84
1461.32	217.701
1464.87	159.496
1468.42	133.537
1471.96	173.082
1475.51	178.463
1479.06	78.965
1482.6	87.35
1486.14	167.986
1489.68	155.625
1493.22	105.417
1496.75	190.591
1500.29	27.457
1503.82	62.482
1507.35	61.284
1510.88	43.282
1514.41	53.69
1517.94	4.142
1521.46	62.135
1524.99	48.531
