Measurement: Raman, 532 nm, unoriented, Raman Data Processed
Mineral: Chalcomenite
Rruff sample: R060586
Ideal chemistry: CuSe^4+^O_3_2H_2_O
Locality: El Dragon mine, Potosi, Bolivia
Source: Michael Scott
Description: Blue crystalline mass
Measured chemistry: Cu_1.00_Se^4+^_1.00_O_3_Â·1.84H_2_O ; trace amounts of Fe
Raman shift (cm-1)	intensity
162.81	0
165.702	0.342625
168.595	4.44058
171.488	15.5315
174.381	18.7953
177.273	17.2417
180.166	38.0767
183.059	55.3525
185.951	62.0005
188.844	31.9284
191.737	30.5752
194.629	29.7005
197.522	32.9049
200.415	47.9494
203.308	49.7231
206.2	47.661
209.093	50.0883
211.986	65.6601
214.878	90.879
217.771	120.703
220.664	110.003
223.556	68.1843
226.449	33.3075
229.342	35.1037
232.234	32.1136
235.127	28.28
238.02	38.4223
240.913	31.4676
243.805	30.8683
246.698	21.4653
249.591	29.3726
252.483	29.5621
255.376	29.2628
258.269	45.6442
261.161	46.0421
264.054	29.7903
266.947	29.1952
269.84	24.8705
272.732	25.3217
275.625	27.1256
278.518	32.4472
281.41	32.6005
284.303	28.5129
287.196	37.1579
290.089	32.3645
292.981	26.6653
295.874	14.4253
298.767	6.8809
301.659	3.3211
304.552	1.4699
307.445	2.83448
310.337	4.70104
313.23	1.51955
316.123	2.66951
319.015	0.735794
321.908	2.22588
324.801	5.18897
327.694	0.925991
330.586	3.05579
333.479	9.59251
336.372	1.06042
339.264	8.25831
342.157	11.0285
345.05	12.4025
347.942	22.3005
350.835	20.8662
353.728	28.3467
356.621	23.4256
359.513	18.2487
362.406	21.449
365.299	22.7013
368.191	27.892
371.084	25.387
373.977	23.9494
376.87	31.2941
379.762	26.8586
382.655	21.0601
385.548	27.8271
388.44	30.5385
391.333	32.4914
394.226	27.284
397.118	34.2178
400.011	31.5914
402.904	30.1907
405.796	22.9645
408.689	24.564
411.582	14.3222
414.475	13.2906
417.367	15.3417
420.26	11.8227
423.153	2.16098
426.045	8.78358
428.938	11.0969
431.831	3.13854
434.724	4.84422
437.616	2.00462
440.509	3.06548
443.402	1.6946
446.294	2.25174
449.187	0.709854
452.08	0.89994
454.972	0.912849
457.865	2.85633
460.758	1.83612
463.651	11.7915
466.543	7.18668
469.436	9.87289
472.329	12.8085
475.221	8.07858
478.114	12.8352
481.007	15.952
483.899	14.5163
486.792	14.2328
489.685	3.66814
492.577	12.6618
495.47	0.127235
498.363	1.59408
501.256	5.75163
504.148	9.93027
507.041	6.48148
509.934	7.07717
512.826	9.42582
515.719	15.0181
518.612	22.9291
521.505	28.0838
524.397	39.4354
527.29	60.4275
530.183	70.6216
533.075	89.4038
535.968	103.861
538.861	127.467
541.753	149.101
544.646	168.381
547.539	179.457
550.432	193.652
553.324	197.111
556.217	188.53
559.11	167.668
562.002	127.013
564.895	111.938
567.788	86.6738
570.68	69.074
573.573	57.4054
576.466	51.9955
579.359	34.4014
582.251	25.2243
585.144	19.8883
588.037	12.8337
590.929	17.1459
593.822	12.3865
596.715	5.09631
599.607	12.2475
602.5	7.80755
605.393	6.59563
608.285	4.39362
611.178	3.15084
614.071	3.35068
616.964	1.11374
619.856	4.26598
622.749	3.98977
625.642	0.505531
628.534	4.6887
631.427	4.96877
634.32	0.946999
637.212	3.27836
640.105	3.69476
642.998	1.48016
645.891	1.28909
648.783	2.0874
651.676	4.24415
654.569	5.38052
657.461	4.51862
660.354	3.00957
663.247	7.63381
666.139	6.88895
669.032	19.0091
671.925	15.591
674.818	24.6695
677.71	25.5999
680.603	28.0131
683.496	41.8768
686.388	35.8278
689.281	38.2512
692.174	35.0912
695.067	32.7241
697.959	40.7181
700.852	37.9739
703.745	37.691
706.637	42.1476
709.53	40.0807
712.423	46.0389
715.315	40.5395
718.208	46.2097
721.101	45.7077
723.994	49.9847
726.886	56.4825
729.779	57.7537
732.672	61.3873
735.564	62.3514
738.457	67.0317
741.35	76.3962
744.242	69.2006
747.135	67.5823
750.028	54.1617
752.92	41.1159
755.813	26.1292
758.706	18.2426
761.599	4.7876
764.491	5.94744
767.384	0.814224
770.277	0.784622
773.169	4.74009
776.062	7.38023
778.955	1.73898
781.847	9.58953
784.74	16.9048
787.633	24.4027
790.526	39.3845
793.418	61.0805
796.311	90.1965
799.204	135.062
802.096	194.951
804.989	275.425
807.882	345.193
810.774	417.739
813.667	428.84
816.56	371.601
819.453	277.909
822.345	188.425
825.238	125.62
828.131	87.4418
831.023	58.5216
833.916	42.8103
836.809	28.1331
839.702	26.5012
842.594	13.4973
845.487	11.1591
848.38	1.59304
851.272	6.16705
854.165	12.1359
857.058	0.413521
859.95	5.10735
862.843	2.97623
865.736	3.84724
868.629	3.3579
871.521	0.783424
874.414	4.53089
877.307	0.475037
880.199	1.25912
883.092	2.15115
885.985	3.64488
888.877	8.14279
891.77	5.14323
894.663	5.51896
897.556	4.05151
900.448	1.57542
903.341	6.9143
906.234	9.67268
909.126	10.5902
912.019	9.63828
914.912	4.90734
917.804	7.69527
920.697	10.5395
923.59	11.5446
926.482	9.99535
929.375	8.68003
932.268	11.208
935.161	10.0151
938.053	11.7941
940.946	3.95751
943.839	0.735672
946.731	4.72759
949.624	9.60816
952.517	6.10014
955.409	3.13592
958.302	6.75592
961.195	5.77549
964.088	1.74954
966.98	7.59045
969.873	2.70559
972.766	2.50027
975.658	2.68569
978.551	1.24884
981.444	0.537498
984.337	0.438828
987.229	3.3626
990.122	1.42172
993.015	2.49384
995.907	6.4868
998.8	0.580803
1001.69	1.5686
1004.59	3.78082
1007.48	4.0463
1010.37	1.73461
1013.26	1.39028
1016.16	6.44248
1019.05	3.66897
1021.94	3.41141
1024.83	4.94043
1027.73	2.98754
1030.62	6.63839
1033.51	4.42079
1036.4	4.8471
1039.3	9.15502
1042.19	2.0675
1045.08	3.67679
1047.98	5.78258
1050.87	7.3993
1053.76	4.27534
1056.65	1.82648
1059.55	6.54868
1062.44	6.30202
1065.33	3.18623
1068.22	2.45671
1071.12	0.242805
1074.01	3.72803
1076.9	6.04067
1079.8	10.006
1082.69	8.01736
1085.58	8.08889
1088.47	4.65324
1091.37	9.70259
1094.26	11.9265
1097.15	5.33946
1100.04	7.66963
1102.94	7.04845
1105.83	1.29262
1108.72	2.81425
1111.62	7.57979
1114.51	13.3593
1117.4	8.84404
1120.29	6.69902
1123.19	7.62623
1126.08	6.87125
1128.97	3.96172
1131.86	8.51077
1134.76	5.42633
1137.65	4.8778
1140.54	8.51639
1143.43	8.4882
1146.33	8.90006
1149.22	0.846748
1152.11	4.09301
1155.01	8.28226
1157.9	5.72885
1160.79	3.7794
1163.68	8.68539
1166.58	5.41779
1169.47	3.42819
1172.36	7.63428
1175.26	6.76424
1178.15	7.67455
1181.04	1.00526
1183.93	1.00981
1186.83	6.31008
1189.72	5.84856
1192.61	4.4511
1195.5	3.35899
1198.4	8.41101
1201.29	8.02185
1204.18	9.94752
1207.07	7.94698
1209.97	2.5371
1212.86	5.16312
1215.75	3.99631
1218.64	8.08672
1221.54	2.43729
1224.43	3.16549
1227.32	7.58305
1230.22	0.452225
1233.11	4.14221
1236	3.42704
1238.89	0.49958
1241.79	5.11967
1244.68	6.76366
1247.57	2.90825
1250.46	0.887138
1253.36	1.83394
1256.25	2.59093
1259.14	2.69927
1262.04	3.47171
1264.93	5.51675
1267.82	2.41089
1270.71	9.06477
1273.61	2.11536
1276.5	1.11356
1279.39	1.2518
1282.29	1.45231
1285.18	4.82266
1288.07	3.59373
1290.96	1.69817
1293.86	3.55209
1296.75	1.06009
1299.64	6.49799
1302.53	0.265678
