Measurement: Raman, 532 nm, unoriented, Raman Data Processed
Mineral: Chalcanthite
Rruff sample: R060018
Ideal chemistry: CuSO_4_5H_2_O
Locality: Chuquicamata, Chile
Source: American Museum of Natural History
Description: Dark blue fragment
Measured chemistry: Cu_1.00_S_1.00_O_4_Â·5H_2_O
Raman shift (cm-1)	intensity
110.28	0
113.655	31.0066
117.03	117.236
120.405	249.799
123.78	399.904
127.154	474.154
130.529	404.431
133.904	365.695
137.279	355.282
140.654	366.168
144.029	356.115
147.403	347.817
150.778	299.826
154.153	205.067
157.528	97.5309
160.903	20.3766
164.277	14.7332
167.652	23.5315
171.027	12.7846
174.402	11.6801
177.777	52.5123
181.151	103.357
184.526	149.664
187.901	198.325
191.276	257.022
194.651	311.215
198.025	331.799
201.4	303.409
204.775	244.15
208.15	181.852
211.525	131.148
214.9	92.4259
218.274	72.1109
221.649	53.9319
225.024	58.8058
228.399	75.436
231.774	118.426
235.149	177.789
238.523	249.218
241.898	304.876
245.273	324.935
248.648	314.117
252.023	303.878
255.397	318.743
258.772	336.938
262.147	343.597
265.522	340.773
268.897	351.92
272.272	380.06
275.646	417.146
279.021	421.447
282.396	352.514
285.771	245.669
289.146	147.34
292.52	78.8916
295.895	35.4947
299.27	8.47208
302.645	0.812042
306.02	3.05008
309.394	1.85762
312.769	9.86932
316.144	2.20331
319.519	10.349
322.894	20.2054
326.269	31.9719
329.643	37.5629
333.018	32.1637
336.393	20.7685
339.768	12.5408
343.143	3.57469
346.517	0.389648
349.892	1.52179
353.267	1.66634
356.642	0.219513
360.017	1.80138
363.392	5.21536
366.766	5.34491
370.141	1.12828
373.516	2.29745
376.891	2.54163
380.266	1.68167
383.64	5.95648
387.015	16.941
390.39	27.852
393.765	43.0424
397.14	69.5406
400.514	98.0985
403.889	142.562
407.264	196.131
410.639	262.815
414.014	347.374
417.389	441.435
420.763	520.402
424.138	570.044
427.513	592.316
430.888	634.378
434.263	703.99
437.637	807.058
441.012	909.698
444.387	994.797
447.762	1051.77
451.137	1068.91
454.512	1005.77
457.886	852.828
461.261	660.445
464.636	494.145
468.011	366.847
471.386	264.27
474.76	184.259
478.135	123.02
481.51	87.8125
484.885	62.9992
488.26	42.6159
491.635	30.4132
495.009	21.8564
498.384	15.1323
501.759	9.39908
505.134	4.68677
508.509	1.36699
511.884	2.1998
515.258	1.64623
518.633	1.59242
522.008	3.909
525.383	3.65396
528.758	1.9322
532.132	1.63892
535.507	0.143906
538.882	1.77307
542.257	2.66539
545.632	4.0442
549.006	7.79398
552.381	10.147
555.756	14.9935
559.131	18.3816
562.506	23.0917
565.88	31.2484
569.255	37.969
572.63	45.5443
576.005	56.4162
579.38	69.4888
582.755	85.5863
586.129	108.025
589.504	138.508
592.879	181.299
596.254	241.401
599.629	312.482
603.004	399.518
606.378	490.043
609.753	550.788
613.128	549.301
616.503	469.794
619.878	360.408
623.252	257.222
626.627	179.951
630.002	126.034
633.377	86.8471
636.752	59.6539
640.126	41.0837
643.501	26.2798
646.876	16.8553
650.251	9.57418
653.626	4.53557
657	2.57539
660.375	1.15924
663.75	0.262299
667.125	2.64753
670.5	0.83017
673.875	0.739815
677.25	0.637825
680.624	1.99738
683.999	3.73879
687.374	5.32153
690.749	7.56685
694.124	10.1654
697.498	12.5122
700.873	14.5985
704.248	16.3295
707.623	18.6287
710.998	19.1221
714.372	20.9584
717.747	21.6946
721.122	22.4048
724.497	21.6794
727.872	18.9436
731.246	17.1903
734.621	15.7769
737.996	15.0661
741.371	14.4978
744.746	12.7409
748.12	11.7377
751.495	11.3034
754.87	10.8394
758.245	8.25972
761.62	8.45964
764.995	5.94163
768.369	5.95615
771.744	4.99688
775.119	3.87479
778.494	3.4266
781.869	2.43608
785.244	1.17331
788.618	0.060173
791.993	0.586189
795.368	0.975746
798.743	0.308922
802.118	0.016312
805.492	0.201691
808.867	0.281036
812.242	0.878403
815.617	1.10733
818.992	2.05559
822.366	2.7891
825.741	3.28172
829.116	5.04121
832.491	5.83475
835.866	6.20988
839.241	6.48039
842.615	7.21953
845.99	8.76829
849.365	7.82867
852.74	7.67931
856.115	9.12472
859.49	10.4593
862.864	12.5266
866.239	12.0899
869.614	13.3637
872.989	13.2062
876.364	13.2277
879.738	12.3985
883.113	10.4231
886.488	8.81416
889.863	6.21953
893.238	6.12748
896.612	3.79765
899.987	1.77941
903.362	1.12801
906.737	0.787369
910.112	0.033463
913.487	0.369408
916.861	0.794571
920.236	0.778381
923.611	0.742355
926.986	0.723213
930.361	3.92313
933.736	6.55238
937.11	9.76297
940.485	13.7401
943.86	18.1792
947.235	27.7725
950.61	39.5763
953.984	58.2057
957.359	89.4945
960.734	141.687
964.109	225.38
967.484	428.714
970.858	1014.25
974.233	1877.26
977.608	3219.25
980.983	6591.47
984.358	8547.66
987.732	2442.74
991.107	772.264
994.482	357.407
997.857	197.637
1001.23	117.958
1004.61	72.2387
1007.98	46.186
1011.36	28.5441
1014.73	16.4996
1018.11	9.58232
1021.48	3.04233
1024.86	1.08434
1028.23	2.65128
1031.61	4.11674
1034.98	3.95957
1038.36	1.09247
1041.73	1.89683
1045.1	6.02042
1048.48	12.0783
1051.85	17.0701
1055.23	19.6323
1058.6	23.7055
1061.98	26.6688
1065.35	31.8597
1068.73	40.2527
1072.1	54.652
1075.48	78.3948
1078.85	114.26
1082.23	166.112
1085.6	231.263
1088.98	303.887
1092.35	362.085
1095.73	376.377
1099.1	333.749
1102.48	255.017
1105.85	173.769
1109.23	114.464
1112.6	75.7489
1115.97	55.2384
1119.35	49.335
1122.72	54.1345
1126.1	73.9367
1129.47	106.702
1132.85	158.047
1136.22	223.922
1139.6	293.404
1142.97	329.124
1146.35	305.036
1149.72	242.524
1153.1	162.7
1156.47	105.778
1159.85	69.9247
1163.22	46.4983
1166.6	31.2495
1169.97	18.242
1173.35	11.2272
1176.72	5.71744
1180.1	3.70842
1183.47	0.053619
1186.85	0.783791
1190.22	2.33122
1193.6	2.25545
1196.97	1.11712
1200.35	2.52762
1203.72	0.934509
1207.1	0.329597
1210.47	0.599556
1213.85	0.412819
1217.22	1.96186
1220.6	3.13639
1223.97	3.97865
1227.34	5.24089
1230.72	5.35888
1234.09	5.8259
1237.47	4.75651
1240.84	5.93461
1244.22	6.06304
1247.59	5.93675
1250.97	5.55771
1254.34	4.08397
1257.72	3.36343
1261.09	2.74667
1264.47	2.9525
1267.84	2.35756
1271.22	2.70348
1274.59	1.73009
1277.97	1.09091
1281.34	1.28735
1284.72	1.44981
1288.09	0.661186
1291.47	0.784285
1294.84	0.878424
1298.22	0.135809
1301.59	0.041639
1304.96	0
