Measurement: Raman, 532 nm, unoriented, Raman Data Processed
Mineral: Chalcostibite
Rruff sample: R060262
Ideal chemistry: CuSbS_2_
Locality: Rar el Anz, Wadi of Cherrat, east of Casablanca, Morocco
Source: Michael Scott
Description: Lead gray metallic bleb associated with azurite
Measured chemistry: Cu_1.00_Sb_1.00_S_2.00_
Raman shift (cm-1)	intensity
138.222	0
141.597	8.21719
144.971	0.890629
148.346	13.588
151.721	20.1735
155.096	28.7898
158.471	27.7832
161.845	25.5261
165.22	23.3883
168.595	33.2548
171.97	29.0521
175.345	21.0296
178.72	18.5207
182.094	21.8847
185.469	15.8122
188.844	2.44725
192.219	1.99643
195.594	0.858944
198.968	6.90468
202.343	4.14819
205.718	0.074814
209.093	3.183
212.468	2.83723
215.843	9.62904
219.217	0.598934
222.592	1.37825
225.967	5.82807
229.342	11.6374
232.717	12.6184
236.091	13.8767
239.466	10.8445
242.841	7.09358
246.216	8.93823
249.591	21.4356
252.965	18.0111
256.34	19.1498
259.715	14.7032
263.09	7.90993
266.465	5.87278
269.84	3.37507
273.214	1.72126
276.589	1.05127
279.964	6.77751
283.339	4.60633
286.714	5.41944
290.089	6.33099
293.463	1.57138
296.838	11.2394
300.213	9.78321
303.588	10.4636
306.963	23.0894
310.337	33.0757
313.712	45.6882
317.087	60.1327
320.462	100.897
323.837	153.23
327.212	206.657
330.586	272.123
333.961	360.672
337.336	372.558
340.711	248.883
344.086	117.491
347.46	62.1861
350.835	36.2135
354.21	21.8278
357.585	10.0253
360.96	6.14129
364.334	5.01217
367.709	8.66753
371.084	6.40727
374.459	0.14304
377.834	2.7962
381.209	6.62244
384.583	0.585285
387.958	1.80669
391.333	4.83112
394.708	7.55105
398.083	2.32315
401.457	4.18082
404.832	7.43797
408.207	4.62026
411.582	10.1024
414.957	6.0085
418.332	8.48565
421.706	2.86407
425.081	0.601135
428.456	9.40082
431.831	12.059
435.206	8.71663
438.58	6.53562
441.955	1.39336
445.33	2.43502
448.705	0.717129
452.08	11.7601
455.454	5.97413
458.829	4.46545
462.204	6.8199
465.579	3.98352
468.954	5.01216
472.329	6.89011
475.703	4.66611
479.078	1.66604
482.453	4.78121
485.828	7.46866
489.203	4.14066
492.577	5.79722
495.952	1.83917
499.327	0.485962
502.702	0.594009
506.077	1.53738
509.452	0.623775
512.826	7.60823
516.201	1.06501
519.576	2.80683
522.951	4.0556
526.326	6.30664
529.701	5.94829
533.075	5.67229
536.45	9.70607
539.825	5.91723
543.2	11.9695
546.575	2.22869
549.949	10.7728
553.324	6.79035
556.699	2.2451
560.074	10.3878
563.449	4.73925
566.823	4.08248
570.198	5.95309
573.573	5.31867
576.948	9.90499
580.323	1.97152
583.697	2.59669
587.072	4.71055
590.447	6.39097
593.822	2.71441
597.197	11.1367
600.572	7.06196
603.946	7.86616
607.321	5.73054
610.696	1.04017
614.071	0.351517
617.446	7.1108
620.821	3.90138
624.195	6.67618
627.57	6.33442
630.945	8.91816
634.32	1.64485
637.695	8.2965
641.069	4.93392
644.444	5.35669
647.819	1.71196
651.194	1.28091
654.569	6.15713
657.943	5.43963
661.318	3.41299
664.693	13.9909
668.068	2.76458
671.443	0.852566
674.818	8.61463
678.192	12.342
681.567	7.78592
684.942	6.4283
688.317	3.7689
691.692	3.1971
695.067	2.38772
698.441	9.37635
701.816	1.20387
705.191	1.73237
708.566	0.835981
711.941	2.5744
715.315	1.21014
718.69	8.14068
722.065	5.49751
725.44	1.99167
728.815	1.60184
732.189	9.75916
735.564	3.50028
738.939	4.33992
742.314	8.89997
745.689	4.06518
749.063	2.08167
752.438	7.3187
755.813	7.17772
759.188	3.78162
762.563	5.29293
765.938	4.3691
769.312	1.71827
772.687	6.40804
776.062	7.68607
779.437	5.98529
782.812	2.24438
786.187	5.01721
789.561	4.14325
792.936	4.13663
796.311	1.87291
799.686	5.27272
803.061	1.34388
806.435	4.99275
809.81	7.90853
813.185	1.1237
816.56	2.68416
819.935	5.88127
823.309	5.69281
826.684	4.38901
830.059	11.6863
833.434	7.02908
836.809	5.69806
840.184	1.60173
843.558	6.20204
846.933	0.455339
850.308	0.738615
853.683	8.72315
857.058	0.925377
860.433	3.20558
863.807	7.88121
867.182	3.9605
870.557	6.76433
873.932	9.13765
877.307	8.12133
880.681	7.06077
884.056	1.9609
887.431	2.5271
890.806	6.8923
894.181	7.38256
897.556	1.93129
900.93	5.39342
904.305	4.48323
907.68	3.15049
911.055	1.00603
914.43	6.46904
917.804	2.29898
921.179	6.44591
924.554	3.34283
927.929	3.62688
931.304	3.49794
934.678	9.91073
938.053	8.63162
941.428	6.00177
944.803	2.59049
948.178	6.98061
951.553	1.33788
954.927	3.81634
958.302	8.91016
961.677	4.88517
965.052	2.33588
968.427	6.23808
971.802	3.99534
975.176	5.54095
978.551	5.79479
981.926	5.43495
985.301	6.93282
988.676	1.35073
992.05	7.15428
995.425	5.75015
998.8	3.5458
1002.17	3.61684
1005.55	0.325615
1008.92	5.00209
1012.3	4.72959
1015.67	2.32877
1019.05	2.41007
1022.42	1.00123
1025.8	5.17364
1029.17	5.29962
1032.55	4.40902
1035.92	5.51473
1039.3	2.62642
1042.67	6.7742
1046.05	2.16174
1049.42	4.71145
1052.8	9.87854
1056.17	4.41228
1059.55	11.2431
1062.92	6.2093
1066.3	0.417988
1069.67	7.69261
1073.05	4.38566
1076.42	1.57985
1079.8	7.99136
1083.17	6.73592
1086.55	6.75945
1089.92	9.39731
1093.3	7.42815
1096.67	4.19693
1100.04	2.65411
1103.42	2.14174
1106.79	8.94218
1110.17	5.55487
1113.54	0.44084
1116.92	5.52473
1120.29	0.376907
1123.67	6.12155
1127.04	2.34214
1130.42	6.12971
1133.79	3.44378
1137.17	8.57243
1140.54	4.69821
1143.92	6.88878
1147.29	3.42911
1150.67	8.31366
1154.04	6.97492
1157.42	12.8437
1160.79	5.76806
1164.17	6.92246
1167.54	1.53709
1170.92	0.061274
1174.29	2.62409
1177.66	6.93944
1181.04	5.77615
1184.41	7.69471
1187.79	5.20868
1191.16	9.78455
1194.54	5.16072
1197.91	7.20999
1201.29	6.99377
1204.66	6.84454
1208.04	4.41566
1211.41	0.654186
1214.79	5.23182
1218.16	7.31606
1221.54	1.98915
1224.91	8.12868
1228.29	9.08484
1231.66	5.03855
1235.04	3.24881
1238.41	2.24237
1241.79	6.66762
1245.16	3.20355
1248.54	0.560589
1251.91	3.26596
1255.29	2.97156
1258.66	7.50818
1262.04	6.21702
1265.41	5.37208
1268.79	4.22906
1272.16	6.19381
1275.54	3.97325
1278.91	4.80003
1282.29	3.61231
1285.66	6.99914
1289.03	5.463
1292.41	5.25604
1295.78	3.84294
1299.16	4.82989
1302.53	1.15487
