Measurement: Raman, 780 nm, unoriented, Raman Data Processed
Mineral: Chalcanthite
Rruff sample: R050354
Ideal chemistry: CuSO_4_5H_2_O
Locality: Utah, USA
Source: California Institute of Technology
Description: Group of blue parallel prismatic crystals
Measured chemistry: Cu_1.00_S_1.00_O_4_Â·5H_2_O
Raman shift (cm-1)	intensity
111.808	0
115.183	1.21172
118.558	0.777967
121.933	4.75064
125.307	7.07829
128.682	7.80894
132.057	6.92763
135.432	6.59325
138.807	7.16032
142.181	5.62623
145.556	5.77146
148.931	3.93221
152.306	4.47076
155.681	1.78193
159.055	1.82416
162.43	0.14858
165.805	1.30801
169.18	0.944866
172.555	0.319201
175.93	0.04686
179.304	0.490494
182.679	1.24567
186.054	1.13136
189.429	0.913745
192.804	0.355459
196.179	1.35122
199.553	1.42694
202.928	1.46851
206.303	2.55152
209.678	1.97819
213.053	0.962512
216.427	1.29893
219.802	1.3983
223.177	1.49551
226.552	1.85606
229.927	2.51171
233.302	1.59434
236.676	2.3909
240.051	2.53752
243.426	3.77322
246.801	5.13373
250.176	5.65325
253.55	6.97647
256.925	7.23589
260.3	10.6181
263.675	12.222
267.05	15.2086
270.425	17.2886
273.799	18.7491
277.174	19.6708
280.549	18.1584
283.924	13.9316
287.298	10.5133
290.673	6.04131
294.048	3.92354
297.423	2.75726
300.798	1.02611
304.173	1.07121
307.547	1.47828
310.922	0.329907
314.297	1.08385
317.672	0.699332
321.047	1.12126
324.421	0.012741
327.796	0.319679
331.171	0.885548
334.546	0.608529
337.921	0.686129
341.296	0.402422
344.67	0.114326
348.045	0.018734
351.42	0.401092
354.795	0.285875
358.17	0.13001
361.545	1.14415
364.919	0.666481
368.294	0.830944
371.669	0.276731
375.044	0.960686
378.419	0.310565
381.793	0.597699
385.168	0.65393
388.543	0.053715
391.918	0.963876
395.293	0.076503
398.668	1.46967
402.042	2.41688
405.417	3.40576
408.792	4.71008
412.167	4.52406
415.541	4.73693
418.916	5.28968
422.291	5.6232
425.666	5.90624
429.041	4.59401
432.416	7.45051
435.79	7.51799
439.165	8.9199
442.54	10.9022
445.915	13.7344
449.29	17.0501
452.664	18.7248
456.039	20.3285
459.414	22.5394
462.789	22.5824
466.164	21.8227
469.539	19.1365
472.913	15.3145
476.288	10.3443
479.663	6.79671
483.038	6.04846
486.413	3.31974
489.788	2.55919
493.162	1.64494
496.537	1.28037
499.912	1.44117
503.287	0.601156
506.662	1.16174
510.036	0.243782
513.411	0.206746
516.786	0.935573
520.161	0.354559
523.536	0.524025
526.91	0.5357
530.285	0.34338
533.66	0.590607
537.035	0.57618
540.41	0.689061
543.784	0.301476
547.159	0.073873
550.534	0.292374
553.909	0.952656
557.284	0.193602
560.659	1.62272
564.033	0.819839
567.408	2.1844
570.783	1.32686
574.158	1.77616
577.533	1.42213
580.908	1.48708
584.282	1.20536
587.657	2.7427
591.032	3.59257
594.407	4.92613
597.782	6.1392
601.156	6.98029
604.531	8.04149
607.906	8.52241
611.281	8.90953
614.656	6.75029
618.03	5.62374
621.405	3.47537
624.78	3.34408
628.155	1.66091
631.53	0.750735
634.905	0.982231
638.279	1.81326
641.654	1.13836
645.029	1.25095
648.404	0.575874
651.779	0.404605
655.154	0.764872
658.528	1.08126
661.903	0.441032
665.278	1.26959
668.653	0.610149
672.028	0.024914
675.402	0.219604
678.777	0.302704
682.152	0.588551
685.527	0.416701
688.902	1.66394
692.277	1.12253
695.651	0.724863
699.026	1.03158
702.401	0.505067
705.776	1.21322
709.15	1.3479
712.525	0.289267
715.9	0.872669
719.275	0.254953
722.65	1.13637
726.025	0.90881
729.399	0.088812
732.774	0.485745
736.149	1.28244
739.524	0.370452
742.899	0.740632
746.274	1.41463
749.648	1.06542
753.023	1.14876
756.398	0.872939
759.773	1.48466
763.148	0.128792
766.522	0.399442
769.897	0.001706
773.272	1.02737
776.647	0.473333
780.022	1.29106
783.396	0.218369
786.771	0.434711
790.146	1.00246
793.521	0.365985
796.896	0.206094
800.271	0.62214
803.645	1.82566
807.02	1.79055
810.395	0.226607
813.77	0.77228
817.145	1.83994
820.519	0.154275
823.894	1.28112
827.269	0.556569
830.644	1.24914
834.019	1.79245
837.394	1.74625
840.768	0.915808
844.143	1.09953
847.518	1.25219
850.893	1.14526
854.268	1.61086
857.643	1.9185
861.017	0.783917
864.392	1.27994
867.767	2.74964
871.142	2.08707
874.516	2.08687
877.891	1.68275
881.266	1.93393
884.641	1.75106
888.016	1.80871
891.391	0.990107
894.765	0.708755
898.14	1.31093
901.515	1.18135
904.89	0.234577
908.265	0.176463
911.639	0.629366
915.014	1.05264
918.389	1.14013
921.764	1.41276
925.139	0.140908
928.514	1.19664
931.888	0.08592
935.263	0.471446
938.638	0.507528
942.013	0.121787
945.388	1.32156
948.763	0.500074
952.137	1.31732
955.512	2.74626
958.887	3.91723
962.262	5.13653
965.636	7.62465
969.011	18.6134
972.386	38.4281
975.761	57.1676
979.136	93.9982
982.511	144.242
985.885	85.7927
989.26	24.4458
992.635	10.1127
996.01	4.26402
999.385	3.55544
1002.76	2.35712
1006.13	1.79755
1009.51	1.39035
1012.88	0.132238
1016.26	1.28535
1019.63	2.38198
1023.01	0.018125
1026.38	1.16302
1029.76	1.49992
1033.13	0.472312
1036.51	0.80558
1039.88	2.19748
1043.26	0.388302
1046.63	2.45963
1050.01	2.0371
1053.38	1.38314
1056.76	2.83053
1060.13	1.66008
1063.51	1.98534
1066.88	3.06629
1070.26	2.24146
1073.63	2.10555
1077.01	1.62417
1080.38	1.72556
1083.76	2.79774
1087.13	2.54603
1090.51	2.26092
1093.88	3.07455
1097.25	2.26615
1100.63	2.74232
1104	1.31399
1107.38	0.585915
1110.75	1.19791
1114.13	0.404613
1117.5	0.533471
1120.88	1.21129
1124.25	0.092309
1127.63	1.13756
1131	2.29774
1134.38	2.54595
1137.75	4.43924
1141.13	3.65308
1144.5	3.25333
1147.88	3.71616
1151.25	2.72136
1154.63	0.357054
1158	2.32128
1161.38	0.786584
1164.75	1.23603
1168.12	0.275464
1171.5	0.637782
1174.88	0.77138
1178.25	0.69388
1181.62	0.74636
1185	2.15999
1188.37	0.137349
1191.75	0.266881
1195.12	0.702877
1198.5	1.02917
1201.87	0.628954
1205.25	0.083347
1208.62	0.960914
1212	0.174956
1215.37	0.879355
1218.75	1.37366
1222.12	1.15701
1225.5	1.30424
1228.87	0.740942
1232.25	1.32871
1235.62	0.30657
1239	0.138751
1242.37	1.6932
1245.75	1.82532
1249.12	0.603347
1252.5	0.684954
1255.87	0.496874
1259.25	0.603698
1262.62	0.681037
1265.99	1.45087
1269.37	0.447424
1272.74	1.76844
1276.12	0.448651
1279.49	0
