Measurement: Raman, 532 nm, unoriented, Raman Data Processed
Mineral: Chalcophanite
Rruff sample: R060271
Ideal chemistry: ZnMn^4+^_3_O_7_3H_2_O
Locality: Glory Hole, Gold Hill mine, Tooele County, Utah, USA
Source: Michael Scott
Description: Black hexagonal plates
Measured chemistry: (Zn_0.97_Mn^2+^_0.03_)_Σ=1_Mn^4+^_3.00_O_7_·3(H_2_O)
Raman shift (cm-1)	intensity
149.934	0
152.826	6.0093
155.719	0.849631
158.612	1.37512
161.504	5.86004
164.397	1.80036
167.29	5.09529
170.183	3.76559
173.075	12.1886
175.968	17.9535
178.861	17.9422
181.753	9.85259
184.646	4.92609
187.539	0.413035
190.431	2.04724
193.324	0.22884
196.217	1.02967
199.109	1.12137
202.002	2.87009
204.895	6.59372
207.788	5.8211
210.68	9.46917
213.573	11.6361
216.466	17.5622
219.358	19.4056
222.251	13.3089
225.144	9.95202
228.036	5.82463
230.929	6.82919
233.822	4.553
236.715	6.88661
239.607	3.52545
242.5	6.12364
245.393	4.92496
248.286	1.32274
251.178	3.52638
254.071	4.52939
256.964	3.92727
259.856	1.85759
262.749	1.38199
265.642	1.35794
268.534	1.35679
271.427	1.96131
274.32	2.67098
277.212	0.662611
280.105	0.629782
282.998	0.526021
285.891	0.278567
288.783	0.022914
291.676	2.10845
294.569	3.90071
297.461	0.215368
300.354	5.61203
303.247	3.01514
306.14	1.4118
309.032	3.55573
311.925	2.13307
314.818	3.21028
317.71	0.643506
320.603	2.1303
323.496	1.05773
326.389	0.879209
329.281	4.19635
332.174	0.362529
335.067	2.71778
337.959	1.96018
340.852	2.29697
343.745	2.88189
346.637	3.49756
349.53	4.0824
352.423	1.01982
355.315	2.1909
358.208	5.31321
361.101	4.15551
363.994	2.89516
366.886	0.480358
369.779	6.37085
372.672	7.58231
375.565	10.8995
378.457	12.2906
381.35	15.3635
384.243	12.7502
387.135	12.0355
390.028	15.2867
392.921	9.50192
395.813	9.95408
398.706	7.27518
401.599	7.78063
404.491	2.75017
407.384	0.458863
410.277	0.67137
413.17	1.85862
416.062	0.201677
418.955	1.82123
421.848	0.560707
424.74	2.20882
427.633	1.88141
430.526	1.48108
433.418	0.300875
436.311	2.14749
439.204	1.80601
442.097	1.58294
444.989	3.18305
447.882	6.53189
450.775	3.83888
453.667	3.84746
456.56	2.22939
459.453	1.3669
462.346	4.68443
465.238	2.93797
468.131	4.7529
471.024	9.31204
473.916	10.4112
476.809	16.3938
479.702	21.3856
482.594	25.0944
485.487	28.941
488.38	21.0307
491.273	11.7339
494.165	7.68537
497.058	10.7224
499.951	11.6344
502.843	14.6369
505.736	21.9796
508.629	26.6514
511.522	34.6744
514.414	28.6113
517.307	14.6972
520.2	5.55328
523.092	4.62483
525.985	1.90682
528.878	0.598665
531.77	0.188847
534.663	1.2075
537.556	0.97823
540.448	0.919056
543.341	2.13424
546.234	5.8577
549.127	7.89427
552.019	13.2901
554.912	20.0302
557.805	30.3773
560.697	45.4478
563.59	65.2709
566.483	92.632
569.376	119.829
572.268	121.181
575.161	76.4781
578.054	40.8953
580.946	24.8397
583.839	17.5174
586.732	14.0244
589.625	12.0836
592.517	9.50056
595.41	5.34782
598.303	2.2217
601.195	2.5223
604.088	0.045113
606.981	1.03458
609.874	0.99571
612.766	0.854483
615.659	1.08724
618.552	0.842991
621.444	4.7507
624.337	2.70512
627.23	3.12194
630.122	4.44108
633.015	8.1319
635.908	6.40253
638.801	8.73216
641.693	12.734
644.586	14.1877
647.479	16.8764
650.371	22.1244
653.264	34.4918
656.157	46.0566
659.049	65.4323
661.942	91.7929
664.835	118.858
667.727	147.251
670.62	160.087
673.513	145.18
676.406	112.259
679.298	78.063
682.191	51.7528
685.084	39.3195
687.976	27.9288
690.869	21.279
693.762	17.5042
696.654	11.4414
699.547	11.2817
702.44	7.72057
705.333	6.89879
708.225	4.72434
711.118	5.83268
714.011	5.96239
716.904	7.15965
719.796	3.65605
722.689	5.6101
725.582	2.85826
728.474	5.72676
731.367	6.12687
734.26	1.342
737.152	0.366207
740.045	2.20286
742.938	0.451772
745.831	2.91568
748.723	0.35879
751.616	1.7548
754.509	0.610166
757.401	0.96145
760.294	1.05911
763.187	2.28443
766.08	1.92059
768.972	2.11615
771.865	0.980456
774.758	2.42455
777.65	1.19096
780.543	3.89599
783.436	3.87384
786.328	4.04454
789.221	3.76394
792.114	4.87422
795.006	4.92469
797.899	3.50115
800.792	5.17081
803.685	3.78031
806.577	7.21815
809.47	3.89904
812.363	4.2447
815.255	4.29205
818.148	4.37112
821.041	3.61433
823.933	5.28226
826.826	1.4749
829.719	0.887109
832.612	2.31236
835.504	2.31254
838.397	1.14246
841.29	3.23618
844.182	1.92992
847.075	2.55709
849.968	0.962394
852.861	0.252039
855.753	2.68977
858.646	3.9716
861.539	2.82098
864.431	1.82267
867.324	1.6501
870.217	1.12652
873.11	1.40325
876.002	4.90353
878.895	1.84383
881.788	4.13628
884.68	1.85856
887.573	1.73372
890.466	3.84321
893.358	0.546206
896.251	2.95537
899.144	0.158087
902.037	1.84237
904.929	2.19967
907.822	2.37141
910.715	2.52072
913.607	3.28089
916.5	3.2134
919.393	1.96668
922.285	5.62179
925.178	2.53099
928.071	2.01875
930.964	4.59371
933.856	1.48554
936.749	3.33427
939.642	3.0855
942.534	2.66717
945.427	0.080191
948.32	2.6121
951.212	2.07464
954.105	3.2288
956.998	2.35369
959.891	1.12735
962.783	2.45342
965.676	1.67379
968.569	7.40905
971.461	3.77179
974.354	5.90423
977.247	5.00532
980.139	2.30471
983.032	4.62507
985.925	5.99993
988.818	3.18607
991.71	3.24751
994.603	6.29571
997.496	5.89549
1000.39	3.65556
1003.28	5.74811
1006.17	5.92051
1009.07	3.79707
1011.96	5.16188
1014.85	5.37238
1017.75	4.60598
1020.64	5.56142
1023.53	6.11375
1026.42	3.3553
1029.32	2.94794
1032.21	0.468559
1035.1	1.0834
1037.99	4.22972
1040.89	6.53059
1043.78	2.5598
1046.67	0.912989
1049.56	6.10253
1052.46	7.10551
1055.35	2.97068
1058.24	3.73122
1061.13	4.93619
1064.03	5.09047
1066.92	7.10313
1069.81	4.16685
1072.71	4.20862
1075.6	4.33864
1078.49	3.4506
1081.38	3.0416
1084.28	3.50117
1087.17	3.18761
1090.06	2.70232
1092.95	3.72418
1095.85	3.20467
1098.74	3.40699
1101.63	3.4424
1104.53	3.46002
1107.42	2.33681
1110.31	4.40645
1113.2	2.62802
1116.1	3.20734
1118.99	1.6037
1121.88	2.30907
1124.78	2.4905
1127.67	1.77034
1130.56	3.48475
1133.45	1.94882
1136.35	0.9349
1139.24	0.629138
1142.13	2.18795
1145.02	0.400396
1147.92	0.364091
1150.81	0.346023
1153.7	0.149095
1156.59	1.82596
1159.49	1.82585
1162.38	0.357843
1165.27	2.43433
1168.16	5.86879
1171.06	2.78261
1173.95	4.16306
1176.84	4.50129
1179.74	7.47275
1182.63	3.18909
1185.52	6.13842
1188.41	5.42526
1191.31	6.6348
1194.2	7.51273
1197.09	7.30346
1199.98	2.24164
1202.88	6.16737
1205.77	5.89057
1208.66	4.85985
1211.56	6.60396
1214.45	5.12476
1217.34	5.70872
1220.23	2.76741
1223.13	2.69342
1226.02	5.28759
1228.91	4.35382
1231.81	4.09014
1234.7	4.26119
1237.59	3.79797
1240.48	1.45063
1243.38	2.85046
1246.27	1.44706
1249.16	1.99129
1252.05	3.64274
1254.95	2.86753
1257.84	0.685104
1260.73	0.178014
1263.62	1.65406
1266.52	1.66433
1269.41	0.253144
1272.3	0.106527
1275.19	1.98189
1278.09	1.69067
1280.98	1.65642
1283.87	1.88103
1286.77	0.567585
1289.66	0.705224
1292.55	2.30668
1295.44	1.28365
1298.34	1.95604
1301.23	4.40684
