Measurement: Raman, 532 nm, unoriented, Raman Data Processed
Mineral: Chalcophyllite
Rruff sample: R060702
Ideal chemistry: Cu^2+^_18_Al_2_(As^5+^O_4_)_4_(S^6+^O_4_)_3_(OH)_24_36H_2_O
Locality: Majuba Hill, Pershing County, Nevada, USA
Source: Bob Jenkins
Description: Bluish-green thin hexagonal tablets
Raman shift (cm-1)	intensity
126.825	0
129.718	149.982
132.61	100.216
135.503	6.51489
138.396	4.15869
141.288	180.703
144.181	77.1846
147.074	72.2036
149.967	24.4492
152.859	72.2935
155.752	71.2356
158.645	138.063
161.538	229.766
164.43	363.546
167.323	431.527
170.216	523.857
173.108	615.415
176.001	756.549
178.894	891.085
181.786	986.598
184.679	1100.61
187.572	1147.82
190.464	1133.29
193.357	1278.99
196.25	1424.46
199.143	1576.73
202.035	1733.05
204.928	1866.89
207.821	1795.61
210.713	1616.5
213.606	1333.51
216.499	1044.95
219.391	812.242
222.284	650.665
225.177	516.031
228.07	403.849
230.962	314.861
233.855	208.616
236.748	177.355
239.64	114.005
242.533	52.8064
245.426	41.7544
248.318	17.6321
251.211	8.59985
254.104	8.34912
256.997	5.93481
259.889	50.6415
262.782	15.3617
265.675	54.7332
268.567	74.3085
271.46	66.2519
274.353	68.4712
277.246	76.261
280.138	160.782
283.031	204.715
285.924	286.475
288.816	326.365
291.709	337.005
294.602	296.885
297.494	260.705
300.387	188.357
303.28	113.898
306.172	20.0922
309.065	7.94519
311.958	12.895
314.851	22.0341
317.743	19.0369
320.636	70.4635
323.529	99.7139
326.422	139.053
329.314	248.49
332.207	292.838
335.1	344.939
337.992	408.417
340.885	476.377
343.778	489.251
346.67	509.606
349.563	560.675
352.456	620.146
355.349	596.289
358.241	651.083
361.134	724.727
364.027	770.091
366.919	936.178
369.812	989.085
372.705	1095.33
375.597	1214.68
378.49	1373.46
381.383	1501.48
384.276	1512.78
387.168	1539.84
390.061	1413.02
392.954	1191.26
395.846	975.101
398.739	776.858
401.632	563.637
404.524	408.956
407.417	286.12
410.31	140.589
413.203	11.2432
416.095	0.53125
418.988	19.2395
421.881	37.8755
424.773	45.1726
427.666	8.27368
430.559	65.8086
433.451	149.285
436.344	298.061
439.237	371.769
442.129	458.518
445.022	433.071
447.915	416.499
450.808	358.738
453.7	309.148
456.593	262.653
459.486	217.3
462.379	188.169
465.271	199.438
468.164	172.997
471.057	183.006
473.949	254.218
476.842	284.857
479.735	378.153
482.627	519.429
485.52	602.586
488.413	721.84
491.306	874.607
494.198	930.919
497.091	977.479
499.984	985.229
502.876	958.563
505.769	885.978
508.662	866.866
511.554	783.704
514.447	648.42
517.34	578.97
520.232	562.002
523.125	486.218
526.018	378.017
528.911	290.385
531.803	262.603
534.696	225.512
537.589	190.66
540.481	158.417
543.374	184.273
546.267	196.081
549.159	219.083
552.052	186.912
554.945	148.136
557.838	120.252
560.73	103.659
563.623	38.4059
566.516	17.2986
569.408	48.0279
572.301	22.9036
575.194	37.0874
578.086	18.0737
580.979	1.3606
583.872	51.0886
586.765	100.377
589.657	169.973
592.55	240.581
595.443	238.13
598.335	301.255
601.228	353.234
604.121	382.519
607.013	428.892
609.906	423.205
612.799	413.72
615.692	343.787
618.584	286.604
621.477	265.67
624.37	225.716
627.263	193.244
630.155	174.587
633.048	100.414
635.941	89.0758
638.833	57.1243
641.726	42.7139
644.619	33.434
647.511	35.2634
650.404	35.36
653.297	56.3196
656.19	42.2767
659.082	43.1318
661.975	61.4252
664.868	58.619
667.76	67.3247
670.653	51.618
673.546	97.9882
676.438	59.0045
679.331	103.388
682.224	117.5
685.117	141.604
688.009	173.901
690.902	139.615
693.795	140.649
696.687	160.929
699.58	160.642
702.473	177.481
705.365	150.132
708.258	131.989
711.151	112.517
714.044	99.4578
716.936	82.4144
719.829	81.2563
722.722	74.2667
725.614	51.856
728.507	43.79
731.4	37.7071
734.292	4.6654
737.185	10.6904
740.078	12.765
742.971	8.6283
745.863	28.8463
748.756	9.97461
751.649	5.11853
754.541	79.9442
757.434	2.3678
760.327	14.6451
763.219	3.94495
766.112	5.12939
769.005	9.50403
771.898	74.2553
774.79	80.0053
777.683	178.887
780.576	244.089
783.468	305.264
786.361	377.928
789.254	516.533
792.146	675.079
795.039	880.163
797.932	1134.92
800.825	1374.28
803.717	1616.51
806.61	1933.83
809.503	2104.56
812.395	2406.38
815.288	2687.14
818.181	2971.8
821.073	3325.22
823.966	3745.01
826.859	4283.77
829.752	4870.27
832.644	5266.99
835.537	5481.53
838.43	5587.3
841.322	5418.06
844.215	5005.39
847.108	4528.7
850	3910.33
852.893	3308.3
855.786	2843.66
858.679	2465.85
861.571	2145.6
864.464	1930.04
867.357	1774.53
870.25	1586.56
873.142	1476.88
876.035	1394.94
878.928	1230.46
881.82	1153.4
884.713	965.596
887.606	931.788
890.498	764.16
893.391	583.841
896.284	472.825
899.177	371.124
902.069	255.562
904.962	162.899
907.855	86.2566
910.747	28.4121
913.64	14.0613
916.533	38.4485
919.425	50.3826
922.318	53.6881
925.211	38.7151
928.104	40.1083
930.996	27.225
933.889	2.82935
936.782	50.3538
939.674	89.2267
942.567	104.895
945.46	158.551
948.352	243.287
951.245	359.734
954.138	496.5
957.031	714.035
959.923	1058.91
962.816	1504.24
965.709	2102.32
968.601	2684.79
971.494	3328.61
974.387	3903.14
977.279	4351.23
980.172	4265.88
983.065	3543.51
985.958	2566.86
988.85	1631.59
991.743	1008.73
994.636	622.717
997.528	402.128
1000.42	304.259
1003.31	199.934
1006.21	161.281
1009.1	76.8296
1011.99	78.222
1014.88	6.34473
1017.78	35.1459
1020.67	14.6112
1023.56	1.85522
1026.45	0.087158
1029.35	25.7145
1032.24	14.198
1035.13	27.8932
1038.03	10.9659
1040.92	16.9064
1043.81	16.399
1046.7	4.28162
1049.6	29.1516
1052.49	24.7607
1055.38	37.0347
1058.28	67.0544
1061.17	84.5125
1064.06	98.0787
1066.95	96.9606
1069.85	118.556
1072.74	136.4
1075.63	162.909
1078.52	168.907
1081.42	160.065
1084.31	202.356
1087.2	211.122
1090.1	197.791
1092.99	207.894
1095.88	225.038
1098.77	225.723
1101.67	256.149
1104.56	231.049
1107.45	242.54
1110.34	262.882
1113.24	287.709
1116.13	271.93
1119.02	255.77
1121.91	272.938
1124.81	261.815
1127.7	238.702
1130.59	211.811
1133.48	213.009
1136.38	153.245
1139.27	143.564
1142.16	125.742
1145.06	122.189
1147.95	107.665
1150.84	113.725
1153.73	142.335
1156.63	178.714
1159.52	207.415
1162.41	187.646
1165.31	188.883
1168.2	221.304
1171.09	195.361
1173.98	212.12
1176.88	199.362
1179.77	149.921
1182.66	122.584
1185.55	96.4111
1188.45	62.3575
1191.34	24.149
1194.23	27.7312
1197.12	4.7439
1200.02	2.80524
1202.91	0.894836
1205.8	24.9349
1208.7	1.0719
1211.59	11.7849
1214.48	14.1356
1217.37	2.78308
1220.27	10.0234
1223.16	14.4572
1226.05	8.82306
1228.94	1.44586
1231.84	12.3354
1234.73	45.194
1237.62	37.0373
1240.52	24.7249
1243.41	54.0621
1246.3	37.5517
1249.19	37.3743
1252.09	65.3481
1254.98	26.997
1257.87	45.4854
1260.76	36.4451
1263.66	4.64624
1266.55	40.2636
1269.44	13.7632
1272.34	28.9559
1275.23	23.0006
1278.12	17.2318
1281.01	17.1608
