Measurement: Raman, 532 nm, unoriented, Raman Data Processed
Mineral: Chalcoalumite
Rruff sample: R060752
Ideal chemistry: CuAl_4_SO_4_(OH)_12_3H_2_O
Locality: Bisbee, Arizona, USA
Source: Bob Jenkins
Description: Pale green aggregate
Raman shift (cm-1)	intensity
189.019	0
191.912	140.299
194.805	8.43
197.697	34.871
200.59	52.395
203.483	39.363
206.376	171.291
209.268	171.783
212.161	18.861
215.054	48.1
217.946	112.736
220.839	140.945
223.732	77.625
226.624	400.375
229.517	556.295
232.41	1351.3
235.303	2008.41
238.195	2664.77
241.088	3449.58
243.981	2882.33
246.873	2132.72
249.766	1902.75
252.659	2083.3
255.551	2119.47
258.444	1568.88
261.337	1318.05
264.229	1039.27
267.122	423.623
270.015	289.232
272.908	117.041
275.8	243.463
278.693	228.387
281.586	238.748
284.478	550.232
287.371	631.715
290.264	919.896
293.156	1080.67
296.049	1372.75
298.942	2123.94
301.835	3108.6
304.727	4221.5
307.62	5073.6
310.513	5748.7
313.405	6761.72
316.298	8245.77
319.191	9203.45
322.083	8682.41
324.976	5270.74
327.869	2622.36
330.762	1260.48
333.654	826.402
336.547	405.057
339.44	206.178
342.332	136.266
345.225	20.479
348.118	103.229
351.01	256.838
353.903	526.004
356.796	726.562
359.688	931.252
362.581	1588.04
365.474	2275.2
368.366	2784.51
371.259	3422.02
374.152	3823.68
377.045	4148.67
379.937	4110.49
382.83	3722.1
385.723	3032.11
388.615	2762.79
391.508	2759.15
394.401	2795.61
397.293	2592.71
400.186	1894.41
403.079	1441.31
405.972	1258.46
408.864	1417.16
411.757	1628.62
414.65	1641.78
417.542	1776.46
420.435	1682.15
423.328	2001.91
426.22	2166.98
429.113	2308.08
432.006	2151.57
434.899	1688.6
437.791	1435.52
440.684	1392.24
443.577	1426.31
446.469	1202.56
449.362	902.262
452.255	624.504
455.147	557.156
458.04	352.748
460.933	217.191
463.826	120.84
466.718	74.082
469.611	105.918
472.504	275.695
475.396	299.375
478.289	295.234
481.182	492.299
484.074	730.09
486.967	1216.62
489.86	1419.78
492.753	1821.68
495.645	2400.04
498.538	3016.09
501.431	3455.38
504.323	4031.96
507.216	4485.86
510.109	4352.44
513.001	4378.75
515.894	4681.41
518.787	5349.02
521.68	6164.97
524.572	6902.56
527.465	8347.06
530.358	9458.01
533.25	11543.8
536.143	13185.6
539.036	14200.1
541.928	14037.6
544.821	13401.8
547.714	12515.7
550.606	11754.9
553.499	11323.4
556.392	11426.8
559.284	11838.3
562.177	12693.4
565.07	13418.9
567.963	13782.5
570.855	13033.8
573.748	10923.6
576.641	8544.07
579.533	6709.7
582.426	5627.78
585.319	4701.86
588.211	4103.12
591.104	3821.65
593.997	3426.53
596.89	3370.39
599.782	3173.06
602.675	3058.06
605.568	3005.97
608.46	2722.17
611.353	2503.43
614.246	2108.86
617.138	2008.2
620.031	1917.92
622.924	1490.89
625.817	1466.21
628.709	1317.72
631.602	820.219
634.495	803.066
637.387	711.529
640.28	487.273
643.173	345.869
646.065	233.125
648.958	376.736
651.851	311.73
654.744	163.814
657.636	123.631
660.529	68.607
663.422	142.213
666.314	62.438
669.207	68.123
672.1	5.27
674.992	27.562
677.885	6.24
680.778	37.986
683.67	227.002
686.563	333.4
689.456	284.602
692.349	372.311
695.241	462.457
698.134	557.867
701.027	456.441
703.919	828.537
706.812	724.574
709.705	753.922
712.597	735.938
715.49	772.252
718.383	784.988
721.276	352.662
724.168	358.674
727.061	181.742
729.954	34.914
732.846	165.363
735.739	152.514
738.632	176.262
741.524	234.604
744.417	91.469
747.31	7.832
750.203	1.039
753.095	17.473
755.988	45.248
758.881	156.643
761.773	271.752
764.666	252.049
767.559	47.805
770.451	124.826
773.344	94.092
776.237	99.078
779.13	18.639
782.022	69.848
784.915	306.758
787.808	244.924
790.7	405.424
793.593	585.229
796.486	648.967
799.378	672.711
802.271	658.799
805.164	897.904
808.057	936.117
810.949	1154.24
813.842	1358.41
816.735	1523.12
819.627	1597.7
822.52	1581.24
825.413	1533.81
828.305	1573.56
831.198	1334.54
834.091	1042.34
836.984	1074.9
839.876	1286.95
842.769	1117.19
845.662	1107.1
848.554	1098.9
851.447	910.559
854.34	757.361
857.232	885.107
860.125	967.467
863.018	960.572
865.911	909.684
868.803	1034.14
871.696	1151.28
874.589	1551.74
877.481	1996.15
880.374	2517.14
883.267	3151.36
886.159	3781.58
889.052	4328
891.945	4497.93
894.838	4534.12
897.73	4358.22
900.623	3396.7
903.516	2838.87
906.408	2417.52
909.301	2014.72
912.194	1755.96
915.086	1640.5
917.979	1703.2
920.872	1767.53
923.764	1730.22
926.657	1876.4
929.55	1569.39
932.443	1533.75
935.335	1083.36
938.228	1279.06
941.121	923.92
944.013	878.809
946.906	658.367
949.799	627.031
952.691	643.602
955.584	698.785
958.477	1039.57
961.37	1308.69
964.262	1713.43
967.155	2487.76
970.048	3361.73
972.94	4555.54
975.833	6019.28
978.726	7488.25
981.618	8502.13
984.511	8341.24
987.404	5522.89
990.296	2952.65
993.189	1940.98
996.082	1350.71
998.974	1262.19
1001.87	1270.23
1004.76	1248.77
1007.65	1227.92
1010.54	1290.06
1013.44	1499.33
1016.33	1419.38
1019.22	1401.55
1022.12	1465.99
1025.01	1361.96
1027.9	1153.14
1030.79	839.758
1033.69	642.086
1036.58	521.812
1039.47	649.285
1042.37	413.41
1045.26	273.156
1048.15	345.074
1051.04	414.973
1053.94	438.918
1056.83	490.434
1059.72	249.43
1062.61	28.305
1065.51	207.176
1068.4	66.691
1071.29	165.844
1074.18	59.441
1077.08	102.984
1079.97	175.363
1082.86	141.156
1085.76	173.082
1088.65	114.613
1091.54	217.168
1094.43	257.957
1097.33	54.227
1100.22	122.129
1103.11	186.316
1106	338.953
1108.9	182.359
1111.79	85.828
1114.68	88.918
1117.58	228.93
1120.47	38.641
1123.36	63.418
1126.25	200.789
1129.15	363.445
1132.04	378.73
1134.93	248.629
1137.82	176.414
1140.72	120.453
1143.61	237.254
1146.5	36.531
1149.39	110.184
1152.29	81.637
1155.18	64.145
1158.07	54.828
1160.97	68.938
1163.86	21.359
1166.75	205.809
1169.64	171.699
1172.54	33.961
1175.43	71.691
1178.32	105.805
1181.21	68.867
1184.11	58.387
1187	40.141
1189.89	10.664
1192.79	54.5
1195.68	71.559
1198.57	102.23
1201.46	27.559
1204.36	84.234
1207.25	14.441
1210.14	132.215
1213.03	108.508
1215.93	89.566
1218.82	164.336
1221.71	138.57
1224.61	43.098
1227.5	40.023
1230.39	75.641
1233.28	22.875
1236.18	46.699
1239.07	197.18
1241.96	98.445
1244.85	85.312
1247.75	173.164
1250.64	287.645
1253.53	0.785
1256.42	8.312
1259.32	88.215
1262.21	18.016
1265.1	86.152
1267.99	16.703
1270.89	93.105
1273.78	232.941
1276.67	248.793
1279.57	92.234
1282.46	201.691
1285.35	128.832
1288.24	246.812
1291.14	89.203
1294.03	118.082
1296.92	91.77
1299.82	85.043
