Measurement: Raman, 532 nm, unoriented, Raman Data Processed
Mineral: Chalcophanite
Rruff sample: R050451
Ideal chemistry: ZnMn^4+^_3_O_7_3H_2_O
Locality: Morenci mine, Morenci, Greenlee County, Arizona, USA
Source: University of Arizona Mineral Museum
Description: A mass of small black hexagonal plates, not homogeneous
Measured chemistry: bright phase: (Zn_0.60_Fe^2+^_0.20_Cu_0.12_Fe^3+^_0.08_)_Σ=1_(Mn^4+^_2.92_Fe^3+^_0.08_)_Σ=3_O_7_·3H_2_O ; gray phase: jacobsite (Mn_0.65_Zn_0.25_Cu_0.09_)_Σ=1_(Fe^3+^_1.58_Mn^3+^_0.42_)_Σ=2_O_4_; dark phase: K-feldspar
Raman shift (cm-1)	intensity
182.128	0
185.021	1.09204
187.913	0.573851
190.806	0.708889
193.699	0.618128
196.591	0.509581
199.484	0.856438
202.377	1.0566
205.269	0.609257
208.162	1.21264
211.055	1.86002
213.948	2.58199
216.84	3.99728
219.733	4.99787
222.626	6.13073
225.518	9.29995
228.411	12.3554
231.304	15.8018
234.196	15.7283
237.089	15.8274
239.982	18.0531
242.875	19.9229
245.767	14.2309
248.66	9.89371
251.553	6.35217
254.445	1.9459
257.338	0.405708
260.231	0.1359
263.123	0.307554
266.016	0.005333
268.909	0.324566
271.802	0.087313
274.694	0.044849
277.587	0.426729
280.48	0.886082
283.372	1.08128
286.265	0.384153
289.158	0.52739
292.05	1.2533
294.943	1.14871
297.836	1.4209
300.729	1.95321
303.621	2.18219
306.514	2.86395
309.407	3.61122
312.299	4.42666
315.192	4.71864
318.085	5.54659
320.978	6.79549
323.87	6.57053
326.763	6.02287
329.656	4.00839
332.548	2.32451
335.441	0.90897
338.334	0.13644
341.226	0.060434
344.119	0.446304
347.012	0.279253
349.904	0.489523
352.797	0.47508
355.69	1.58396
358.583	2.56941
361.475	3.93806
364.368	5.9088
367.261	8.69913
370.153	10.4602
373.046	13.1231
375.939	15.1243
378.832	13.634
381.724	10.5241
384.617	7.36209
387.51	6.22369
390.402	4.37181
393.295	4.43628
396.188	4.18182
399.08	2.41711
401.973	2.12161
404.866	1.11815
407.759	0.520023
410.651	0.120274
413.544	0.281603
416.437	0.343687
419.329	0.381069
422.222	0.401049
425.115	0.04615
428.007	0.036245
430.9	0.504433
433.793	0.766447
436.685	1.84069
439.578	2.87089
442.471	4.00253
445.364	6.37849
448.256	7.92714
451.149	8.68314
454.042	6.29096
456.934	2.49826
459.827	1.44263
462.72	1.20163
465.613	0.9622
468.505	2.24006
471.398	3.75774
474.291	5.49737
477.183	7.79079
480.076	10.4651
482.969	12.7191
485.861	11.193
488.754	11.3278
491.647	10.5069
494.539	9.67129
497.432	8.64924
500.325	9.88413
503.218	13.4426
506.11	18.3955
509.003	23.5044
511.896	23.8914
514.788	19.4546
517.681	11.2943
520.574	6.4967
523.466	5.71678
526.359	8.00001
529.252	12.8893
532.145	19.3194
535.037	30.2585
537.93	47.3289
540.823	63.27
543.715	62.4769
546.608	41.2796
549.501	29.5916
552.394	22.0848
555.286	14.1014
558.179	9.61532
561.072	6.97974
563.964	5.40853
566.857	4.741
569.75	2.9687
572.642	1.6923
575.535	0.298763
578.428	0.319603
581.321	0.27388
584.213	0.437706
587.106	0.280716
589.999	0.767811
592.891	0.705826
595.784	0.535519
598.677	0.445786
601.569	0.01363
604.462	1.18555
607.355	1.91241
610.247	2.62441
613.14	2.4674
616.033	3.14978
618.926	3.67096
621.818	3.58868
624.711	4.23726
627.604	5.73418
630.496	7.65627
633.389	9.81354
636.282	13.4923
639.174	15.7833
642.067	18.1205
644.96	18.6336
647.852	16.8587
650.745	15.3687
653.638	14.563
656.531	15.892
659.423	17.9864
662.316	21.3956
665.209	26.2858
668.101	32.3071
670.994	39.3295
673.887	48.1172
676.779	59.8472
679.672	73.7304
682.565	91.1422
685.458	109.511
688.35	120.921
691.243	118.454
694.136	97.8928
697.028	71.9198
699.921	51.5177
702.814	34.0261
705.707	25.1249
708.599	18.5431
711.492	14.698
714.385	12.3811
717.277	10.2026
720.17	7.50187
723.063	6.26143
725.955	4.46719
728.848	3.02042
731.741	2.71775
734.634	2.15115
737.526	1.34494
740.419	0.771029
743.312	0.701401
746.204	0.018869
749.097	0.405254
751.99	0.409353
754.882	0.169823
757.775	0.372208
760.668	0.590708
763.561	0.061781
766.453	0.540392
769.346	0.062801
772.239	0.312813
775.131	0.415489
778.024	0.6465
780.917	0.7635
783.809	0.906313
786.702	0.793653
789.595	1.07642
792.487	0.836855
795.38	1.22799
798.273	1.47209
801.166	0.965897
804.058	1.58957
806.951	1.64577
809.844	1.19295
812.736	1.64385
815.629	1.09261
818.522	1.64691
821.415	1.28884
824.307	1.65341
827.2	0.73769
830.093	1.47848
832.985	1.10721
835.878	1.42989
838.771	1.20768
841.663	1.23984
844.556	1.1036
847.449	1.09373
850.342	1.10829
853.234	0.61809
856.127	0.909851
859.02	1.12931
861.912	0.327723
864.805	0.552607
867.698	0.967918
870.591	0.691135
873.483	0.375422
876.376	0.491793
879.269	0.295776
882.161	0.260786
885.054	0.293385
887.947	0.435049
890.839	0.288118
893.732	0.277567
896.625	0.233992
899.518	0.051363
902.41	0.058353
905.303	0.347975
908.196	0.381668
911.088	0.800367
913.981	1.18141
916.874	0.865137
919.766	0.961823
922.659	1.37481
925.552	0.682835
928.444	0.531971
931.337	0.724644
934.23	0.500675
937.123	0.483217
940.015	0.483265
942.908	0.190998
945.801	0.050949
948.693	0.217846
951.586	0.361422
954.479	0.056086
957.371	0.490791
960.264	0.331152
963.157	0.343616
966.05	0.432478
968.942	0.068913
971.835	0.436646
974.728	0.488663
977.62	0.321722
980.513	0.466408
983.406	0.77198
986.298	0.91589
989.191	0.405384
992.084	0.572647
994.977	0.890562
997.869	0.790363
1000.76	1.33175
1003.65	1.34413
1006.55	1.18341
1009.44	1.61879
1012.33	1.78956
1015.23	1.43382
1018.12	1.14228
1021.01	0.978214
1023.9	0.931301
1026.8	0.964575
1029.69	0.992182
1032.58	0.295383
1035.47	0.520294
1038.37	0.461226
1041.26	0.181826
1044.15	0.072056
1047.05	0.502672
1049.94	0.128517
1052.83	0.479218
1055.72	0.12454
1058.62	0.19183
1061.51	0.365328
1064.4	0.08337
1067.29	0.64295
1070.19	0.778498
1073.08	0.236469
1075.97	0.453962
1078.87	0.421164
1081.76	0.028666
1084.65	0.445925
1087.54	0.297588
1090.44	0.276659
1093.33	0.320538
1096.22	0.422779
1099.11	0.547968
1102.01	0.546703
1104.9	0.334339
1107.79	0.244793
1110.68	0.187351
1113.58	0.246733
1116.47	0.480433
1119.36	0.103823
1122.26	0.056721
1125.15	0.286238
1128.04	0.134449
1130.93	0.178005
1133.83	0.209299
1136.72	0.561235
1139.61	0.43614
1142.5	0.754227
1145.4	0.830851
1148.29	0.714975
1151.18	1.15163
1154.08	0.80751
1156.97	1.63659
1159.86	2.08468
1162.75	2.12494
1165.65	2.43088
1168.54	2.50607
1171.43	3.58515
1174.32	3.3408
1177.22	3.45278
1180.11	3.79119
1183	3.68467
1185.89	3.50476
1188.79	3.40903
1191.68	3.56031
1194.57	2.5386
1197.47	2.85964
1200.36	2.61299
1203.25	3.12317
1206.14	2.71037
1209.04	2.76245
1211.93	3.02224
1214.82	3.15787
1217.71	2.78306
1220.61	2.51579
1223.5	2.14332
1226.39	1.68638
1229.29	1.83107
1232.18	1.37479
1235.07	1.53409
1237.96	1.15795
1240.86	0.63027
1243.75	1.03929
1246.64	0.525631
1249.53	0.418386
1252.43	0.719456
1255.32	0.134859
1258.21	0.456282
1261.11	0.246868
1264	0.025091
1266.89	0.190544
1269.78	0.228651
1272.68	0.08259
1275.57	0.854025
1278.46	0.749271
1281.35	0.359587
1284.25	0.388624
