Measurement: Raman, 532 nm, unoriented, Raman Data Processed
Mineral: Chalcopyrite
Rruff sample: R050208
Ideal chemistry: Cu^1+^Fe^3+^S_2_
Locality: Kidd Creek mine, Timmins, Ontario, Canada
Source: Lloyd Twaites
Description: Brass yellow metallic fine-grained massive
Measured chemistry: Cu_1.00_Fe_1.00_S_2.00_
Raman shift (cm-1)	intensity
204.662	0
207.555	0.030013
210.448	0.156843
213.34	0.04777
216.233	0.03234
219.126	0.078312
222.018	0.093699
224.911	0.109859
227.804	0.093661
230.696	0.109005
233.589	0.169167
236.482	0.203484
239.375	0.273377
242.267	0.356707
245.16	0.437466
248.053	0.626531
250.945	0.879272
253.838	1.19886
256.731	1.32192
259.623	1.57941
262.516	1.76197
265.409	1.965
268.302	2.19386
271.194	2.71967
274.087	4.21495
276.98	5.40876
279.872	6.2812
282.765	8.30075
285.658	11.7435
288.55	18.1886
291.443	24.4988
294.336	15.2982
297.229	4.88786
300.121	1.7697
303.014	0.977449
305.907	0.461193
308.799	0.329148
311.692	0.553503
314.585	0.820622
317.478	1.31685
320.37	1.5993
323.263	1.58994
326.156	1.5043
329.048	1.17826
331.941	0.713396
334.834	0.642992
337.726	0.676721
340.619	0.710187
343.512	0.786561
346.404	1.1325
349.297	1.6702
352.19	2.40227
355.083	2.78194
357.975	2.40734
360.868	1.36971
363.761	0.944949
366.653	0.769472
369.546	0.964803
372.439	0.979896
375.332	0.758741
378.224	0.459028
381.117	0.1798
384.01	0.090865
386.902	0.081232
389.795	0.071754
392.688	0.061265
395.58	0.055663
398.473	0.061298
401.366	0.057123
404.259	0.067247
407.151	0.123916
410.044	0.15632
412.937	0.170348
415.829	0.16178
418.722	0.22597
421.615	0.130289
424.507	0.246966
427.4	0.247571
430.293	0.226004
433.185	0.218486
436.078	0.257234
438.971	0.257811
441.864	0.356558
444.756	0.339387
447.649	0.342343
450.542	0.303549
453.434	0.295345
456.327	0.404333
459.22	0.370404
462.113	0.395205
465.005	0.495954
467.898	0.452643
470.791	0.477012
473.683	0.452146
476.576	0.369764
479.469	0.259457
482.361	0.124103
485.254	0.118878
488.147	0.016447
491.039	0.008078
493.932	0.048087
496.825	0.004771
499.718	0.070375
502.61	0.032653
505.503	0.015744
508.396	0.007427
511.288	0.096643
514.181	0.038901
517.074	0.076762
519.966	0.081614
522.859	0.023107
525.752	0.05105
528.644	0.022203
531.537	0.05269
534.43	0.061839
537.323	0.004629
540.215	0.020416
543.108	0.063394
546.001	0.042693
548.893	0.081964
551.786	0.056899
554.679	0.006391
557.572	0.00412
560.464	0.069289
563.357	0.027161
566.25	0.060595
569.142	0.009458
572.035	0.112046
574.928	0.034007
577.82	0.069543
580.713	0.008358
583.606	0.093683
586.499	0.034816
589.391	0.010245
592.284	0.031672
595.177	0.031278
598.069	0.071677
600.962	0.012161
603.855	0.087104
606.747	0.00832
609.64	0.032146
612.533	0.056903
615.426	0.047471
618.318	0.029359
621.211	0.044349
624.104	0.052114
626.996	0.004162
629.889	0.048765
632.782	0.018201
635.674	0.013492
638.567	0.018087
641.46	0.039735
644.352	0.106947
647.245	0.079799
650.138	0.140356
653.031	0.159532
655.923	0.12317
658.816	0.095828
661.709	0.060447
664.601	0.08741
667.494	0.084422
670.387	0.120803
673.279	0.066945
676.172	0.001767
679.065	0.069767
681.958	0.054336
684.85	0.01703
687.743	0.101854
690.636	0.081603
693.528	0.191583
696.421	0.124844
699.314	0.120299
702.207	0.173516
705.099	0.264707
707.992	0.238515
710.885	0.222878
713.777	0.270073
716.67	0.192415
719.563	0.147815
722.455	0.118955
725.348	0.067372
728.241	0.081281
731.134	0.053475
734.026	0.057958
736.919	0.019011
739.812	0.029115
742.704	0.042483
745.597	0.010928
748.49	0.044807
751.382	0.047094
754.275	0.060011
757.168	0.078804
760.061	0.024722
762.953	0.062486
765.846	0.091958
768.739	0.005424
771.631	0.03524
774.524	0.092999
777.417	0.062047
780.309	0.029367
783.202	0.10085
786.095	0.043393
788.987	0.10254
791.88	0.125647
794.773	0.048474
797.666	0.122594
800.558	0.114537
803.451	0.070199
806.344	0.087381
809.236	0.105537
812.129	0.140371
815.022	0.087827
817.914	0.103314
820.807	0.122659
823.7	0.130158
826.593	0.129743
829.485	0.175998
832.378	0.198567
835.271	0.156159
838.163	0.204254
841.056	0.217724
843.949	0.227089
846.841	0.193298
849.734	0.230725
852.627	0.25009
855.52	0.203653
858.412	0.207921
861.305	0.190779
864.198	0.142952
867.09	0.190673
869.983	0.209999
872.876	0.158725
875.769	0.151757
878.661	0.126876
881.554	0.09426
884.447	0.057736
887.339	0.117096
890.232	0.015497
893.125	0.232569
896.017	0.074656
898.91	0.005529
901.803	0.017024
904.696	0.052998
907.588	0.061351
910.481	0.011486
913.374	0.023862
916.266	0.003617
919.159	0.048554
922.052	0.045594
924.944	0.016832
927.837	0.052038
930.73	0.053691
933.622	0.00662
936.515	0.068728
939.408	0.008923
942.301	0.033473
945.193	0.036941
948.086	0.004282
950.979	0.00822
953.871	0.012318
956.764	0.009099
959.657	0.032603
962.549	0.000151
965.442	0.060957
968.335	0.028736
971.227	0.034016
974.12	0.007518
977.013	0.059689
979.906	0.04415
982.798	0.049084
985.691	0.092087
988.584	0.05407
991.476	0.090013
994.369	0.066874
997.262	0.054946
1000.15	0.110977
1003.05	0.073433
1005.94	0.056546
1008.83	0.046243
1011.73	0.101984
1014.62	0.078814
1017.51	0.063696
1020.4	0.086492
1023.3	0.090089
1026.19	0.088056
1029.08	0.126065
1031.97	0.112271
1034.87	0.137865
1037.76	0.135074
1040.65	0.114349
1043.55	0.16097
1046.44	0.127713
1049.33	0.08195
1052.22	0.146892
1055.12	0.09246
1058.01	0.120073
1060.9	0.090091
1063.79	0.111699
1066.69	0.129711
1069.58	0.025855
1072.47	0.101084
1075.37	0.072462
1078.26	0.068964
1081.15	0.08959
1084.04	0.047988
1086.94	0.098954
1089.83	0.051736
1092.72	0.035624
1095.61	0.051048
1098.51	0.011142
1101.4	0.034432
1104.29	0.050875
1107.18	0.1116
1110.08	0.103826
1112.97	0.056676
1115.86	0.010798
1118.76	0.083829
1121.65	0.026119
1124.54	0.022677
1127.43	0.029328
1130.33	0.003998
1133.22	0.026472
1136.11	0.059573
1139	0.059113
1141.9	0.027879
1144.79	0.01895
1147.68	0.026821
1150.58	0.025165
1153.47	0.024542
1156.36	0.00308
1159.25	0.013559
1162.15	0.004199
1165.04	0.018715
1167.93	0.016926
1170.82	0.052585
1173.72	0.05352
1176.61	0.057909
1179.5	0.039768
1182.39	0.026752
1185.29	0.050158
1188.18	0.003276
1191.07	0.032706
1193.96	0.066655
1196.86	0.059167
1199.75	0.057058
1202.64	0.044281
1205.54	0.03512
1208.43	0.051426
1211.32	0.035497
1214.21	0.033117
1217.11	0.046492
1220	0.068386
1222.89	0.029053
1225.79	0.09086
1228.68	0.039264
1231.57	0.056563
1234.46	0.048989
1237.36	0.048436
1240.25	0.01951
1243.14	0.022589
1246.03	0.029996
1248.93	0.037993
1251.82	0.045433
1254.71	0.017605
1257.61	0.044904
1260.5	0.069893
1263.39	0.046029
1266.28	0.002022
1269.18	0.041077
1272.07	0.053907
1274.96	0.020811
1277.85	0.038217
1280.75	0.040299
