Measurement: Raman, 532 nm, unoriented, Raman Data Processed
Mineral: Chalcanthite
Rruff sample: R050354
Ideal chemistry: CuSO_4_5H_2_O
Locality: Utah, USA
Source: California Institute of Technology
Description: Group of blue parallel prismatic crystals
Measured chemistry: Cu_1.00_S_1.00_O_4_Â·5H_2_O
Raman shift (cm-1)	intensity
112.12	0
115.495	7.1342
118.87	55.1599
122.245	127.939
125.62	189.313
128.994	235.742
132.369	292.452
135.744	334.365
139.119	299.769
142.494	251.6
145.869	224.119
149.243	206.469
152.618	168.835
155.993	112.744
159.368	62.9267
162.743	28.8277
166.117	11.0849
169.492	10.3774
172.867	9.94043
176.242	9.68912
179.617	19.873
182.992	18.9725
186.366	9.8709
189.741	0.142548
193.116	0.936844
196.491	1.94897
199.865	4.26556
203.24	1.66293
206.615	0.074738
209.99	0.981689
213.365	0.814629
216.74	1.05286
220.114	0.418076
223.489	0.548683
226.864	4.29102
230.239	11.1894
233.614	24.6136
236.988	41.6892
240.363	59.5593
243.738	74.6579
247.113	89.3832
250.488	101.621
253.863	125.079
257.237	148.077
260.612	178.717
263.987	222.132
267.362	272.654
270.737	329.721
274.111	390.477
277.486	433.629
280.861	413.422
284.236	341.067
287.611	240.544
290.986	162.96
294.36	104.416
297.735	69.1163
301.11	48.1657
304.485	33.7987
307.86	24.3331
311.235	16.8164
314.609	13.6152
317.984	13.4364
321.359	11.9967
324.734	13.9883
328.109	13.912
331.483	11.3714
334.858	8.24604
338.233	3.00426
341.608	0.560524
344.983	0.929634
348.358	1.2739
351.732	4.61259
355.107	2.23386
358.482	1.83842
361.857	2.73816
365.231	1.11533
368.606	0.904236
371.981	0.671356
375.356	1.24939
378.731	1.56367
382.106	6.96027
385.48	4.41506
388.855	11.9843
392.23	15.4168
395.605	23.4827
398.98	34.1434
402.354	44.1654
405.729	62.9329
409.104	86.5572
412.479	112.049
415.854	144.424
419.229	178.203
422.603	181.596
425.978	176.847
429.353	160.786
432.728	159.58
436.103	170.534
439.478	196.18
442.852	242.132
446.227	299.43
449.602	362.902
452.977	436.123
456.352	479.652
459.726	516.118
463.101	548.806
466.476	560.44
469.851	528.446
473.226	428.066
476.601	308.392
479.975	204.343
483.35	138.068
486.725	95.1761
490.1	66.308
493.475	45.6659
496.849	32.3399
500.224	23.0412
503.599	15.8125
506.974	11.1072
510.349	6.84399
513.723	2.68475
517.098	1.42949
520.473	1.06595
523.848	1.75275
527.223	0.99099
530.598	1.03853
533.972	1.91762
537.347	1.87517
540.722	1.4443
544.097	0.41787
547.472	1.66528
550.846	2.64011
554.221	2.66655
557.596	3.04994
560.971	6.44614
564.346	7.62215
567.721	9.99736
571.095	13.3317
574.47	15.2707
577.845	21.1123
581.22	27.9402
584.595	35.7465
587.969	47.9877
591.344	60.5808
594.719	78.0696
598.094	101.158
601.469	130.78
604.843	161.208
608.218	190.601
611.593	206.048
614.968	191.517
618.343	150.105
621.718	114.784
625.092	80
628.467	57.431
631.842	37.431
635.217	27.0988
638.592	16.4571
641.966	10.3963
645.341	8.05606
648.716	3.34499
652.091	0.93074
655.466	1.01987
658.841	0.420799
662.215	1.53404
665.59	0.537025
668.965	1.21057
672.34	3.67317
675.715	2.4874
679.09	3.33552
682.464	4.4202
685.839	5.87186
689.214	6.47956
692.589	8.78347
695.964	10.8515
699.338	12.8712
702.713	11.4582
706.088	9.94059
709.463	14.0727
712.838	14.1426
716.212	12.998
719.587	10.5929
722.962	9.82701
726.337	8.68573
729.712	8.62241
733.087	7.33564
736.461	8.00283
739.836	5.8207
743.211	6.87994
746.586	5.41762
749.961	5.06019
753.335	3.92218
756.71	2.37639
760.085	2.31994
763.46	2.24164
766.835	2.49391
770.21	2.84253
773.584	0.022617
776.959	0.316849
780.334	0.015446
783.709	0.720455
787.084	1.87431
790.458	0.507111
793.833	2.08672
797.208	2.0093
800.583	1.02629
803.958	0.47995
807.332	0.812527
810.707	0.586716
814.082	2.17157
817.457	2.04581
820.832	3.03805
824.207	3.72207
827.581	5.05086
830.956	5.84536
834.331	7.09084
837.706	9.61769
841.081	7.67552
844.456	8.31192
847.83	12.4749
851.205	13.0151
854.58	14.4727
857.955	16.0684
861.33	20.8135
864.704	22.4373
868.079	26.1993
871.454	27.2112
874.829	27.7324
878.204	28.5559
881.578	25.8561
884.953	23.9351
888.328	20.7864
891.703	16.501
895.078	12.7772
898.453	8.7862
901.827	8.32805
905.202	5.41984
908.577	4.18403
911.952	2.74195
915.327	0.62392
918.702	0.357174
922.076	1.738
925.451	0.880817
928.826	0.442257
932.201	0.656574
935.576	1.22677
938.95	3.95557
942.325	3.93282
945.7	7.40296
949.075	11.9257
952.45	17.3501
955.824	29.9942
959.199	48.4518
962.574	78.871
965.949	135.629
969.324	265.034
972.698	594.349
976.073	1099.37
979.448	2206.28
982.823	4506.47
986.198	3065.47
989.573	765.472
992.947	289.049
996.322	139.349
999.697	77.3807
1003.07	44.3989
1006.45	23.0264
1009.82	12.7936
1013.2	7.08302
1016.57	2.98399
1019.95	1.67969
1023.32	2.41291
1026.7	3.73976
1030.07	0.328529
1033.44	1.64078
1036.82	8.40707
1040.19	13.6032
1043.57	18.8157
1046.94	29.5399
1050.32	38.819
1053.69	45.1594
1057.07	47.0586
1060.44	42.7845
1063.82	36.8253
1067.19	29.8452
1070.57	24.7598
1073.94	23.0153
1077.32	27.2813
1080.69	34.2909
1084.07	49.4344
1087.44	70.2417
1090.82	91.4708
1094.19	107.736
1097.57	99.7396
1100.94	83.215
1104.32	54.1053
1107.69	30.965
1111.07	15.0655
1114.44	4.83443
1117.82	5.18948
1121.19	6.3141
1124.57	9.03989
1127.94	24.6794
1131.32	43.5859
1134.69	73.1995
1138.07	108.289
1141.44	136.596
1144.81	144.504
1148.19	123.793
1151.56	91.2465
1154.94	59.0859
1158.31	39.1884
1161.69	25.6207
1165.06	13.4491
1168.44	11.0954
1171.81	5.49038
1175.19	1.70311
1178.56	0.691208
1181.94	0.830494
1185.31	1.00233
1188.69	1.25806
1192.06	1.28811
1195.44	0.791191
1198.81	0.89669
1202.19	0.787308
1205.56	0.395535
1208.94	0.236492
1212.31	2.30569
1215.68	2.67892
1219.06	1.40345
1222.43	3.30909
1225.81	3.81103
1229.18	4.54346
1232.56	6.18003
1235.93	5.50563
1239.31	3.7399
1242.68	3.78553
1246.06	2.18352
1249.43	2.70256
1252.81	1.85097
1256.18	1.44032
1259.56	2.4372
1262.93	1.39223
1266.31	0.993534
1269.68	1.68777
1273.06	1.30977
1276.43	0.234879
1279.81	0.402819
