Measurement: Raman, 532 nm, unoriented, Raman Data Processed
Mineral: Chalcophyllite
Rruff sample: R140807
Ideal chemistry: Cu^2+^_18_Al_2_(As^5+^O_4_)_4_(S^6+^O_4_)_3_(OH)_24_36H_2_O
Locality: Yunnan, China
Source: Peter Megaw
Description: Transparent blue hexagonal tablets or plates, but c-cell edge is 2/3 of that reported. Is this a polytype or perhaps the earlier data was a consequence of the twinning
Raman shift (cm-1)	intensity
90.2653	0
93.6401	0.398315
97.0149	0.067978
100.39	11.1008
103.765	29.8529
107.139	61.6466
110.514	91.6389
113.889	123.025
117.264	153.324
120.639	183.309
124.013	201.597
127.388	185.485
130.763	149.631
134.138	108.878
137.513	79.1177
140.888	57.9871
144.262	42.9923
147.637	35.2768
151.012	29.6618
154.387	27.6477
157.762	25.1081
161.137	28.2305
164.511	33.1466
167.886	44.1693
171.261	55.3524
174.636	72.1387
178.011	96.05
181.385	120.281
184.76	145.37
188.135	167.199
191.51	191.526
194.885	212.871
198.26	207.489
201.634	169.932
205.009	128.086
208.384	91.2131
211.759	64.5554
215.133	45.3521
218.508	32.6124
221.883	23.5094
225.258	14.9328
228.633	10.0897
232.008	5.2883
235.382	0.80777
238.757	1.27074
242.132	2.69576
245.507	2.97108
248.882	2.41458
252.256	0.280106
255.631	2.12588
259.006	4.79604
262.381	6.89674
265.756	7.89793
269.131	9.76202
272.505	12.8627
275.88	16.8823
279.255	20.2022
282.63	22.4408
286.005	24.323
289.38	23.1096
292.754	17.6309
296.129	12.9244
299.504	7.60991
302.879	2.83463
306.254	0.612404
309.628	1.08317
313.003	1.481
316.378	1.549
319.753	4.21631
323.128	9.87703
326.502	15.9645
329.877	22.5803
333.252	29.8894
336.627	36.5918
340.002	41.7386
343.377	45.107
346.751	48.2192
350.126	50.2614
353.501	54.7229
356.876	60.1704
360.251	68.0307
363.625	76.0713
367	85.7777
370.375	96.0208
373.75	106.894
377.125	118.35
380.5	124.556
383.874	124.492
387.249	115.362
390.624	100.184
393.999	77.3533
397.374	58.5719
400.748	41.0197
404.123	26.8184
407.498	13.6632
410.873	4.77445
414.248	1.35918
417.623	3.44133
420.997	2.14033
424.372	0.183899
427.747	1.92931
431.122	8.08737
434.497	15.1349
437.872	21.2775
441.246	25.7941
444.621	26.2714
447.996	26.6606
451.371	24.5675
454.745	20.8617
458.12	16.5853
461.495	11.7231
464.87	8.60475
468.245	8.41571
471.62	10.0428
474.994	14.6866
478.369	19.3618
481.744	28.4955
485.119	39.4339
488.494	47.4475
491.868	56.3533
495.243	59.9193
498.618	61.3516
501.993	60.3897
505.368	57.3901
508.743	52.2792
512.117	43.0449
515.492	35.93
518.867	28.3892
522.242	21.57
525.617	14.8436
528.991	11.3543
532.366	8.0186
535.741	7.32114
539.116	8.30725
542.491	10.51
545.866	13.7386
549.24	15.2729
552.615	15.6536
555.99	14.1303
559.365	11.8435
562.74	8.40498
566.115	4.44521
569.489	1.80673
572.864	1.02677
576.239	2.50536
579.614	2.26419
582.989	1.84182
586.363	0.849014
589.738	4.43485
593.113	8.34325
596.488	13.0641
599.863	19.4199
603.237	25.2945
606.612	30.0058
609.987	33.0376
613.362	35.0136
616.737	33.5129
620.112	31.0301
623.486	27.8221
626.861	24.378
630.236	20.3772
633.611	15.2788
636.986	11.8841
640.361	8.02964
643.735	5.80102
647.11	4.30827
650.485	4.07283
653.86	3.97617
657.235	4.35685
660.609	4.45616
663.984	4.70928
667.359	4.5043
670.734	5.55682
674.109	5.802
677.484	6.35581
680.858	6.93143
684.233	7.85154
687.608	7.67746
690.983	9.21767
694.357	9.87617
697.732	10.056
701.107	10.1656
704.482	9.18907
707.857	9.18747
711.232	7.91951
714.606	7.5882
717.981	5.3369
721.356	4.97383
724.731	4.0712
728.106	3.29002
731.481	1.96022
734.855	0.941914
738.23	0.108627
741.605	0.31863
744.98	0.546604
748.355	1.69483
751.729	1.39951
755.104	2.15017
758.479	0.774521
761.854	2.16265
765.229	1.33632
768.604	0.943649
771.978	0.166031
775.353	2.31041
778.728	5.30805
782.103	9.25915
785.478	15.6871
788.852	23.4734
792.227	34.8379
795.602	48.139
798.977	64.6459
802.352	85.4907
805.726	109.496
809.101	136.078
812.476	165.085
815.851	197.85
819.226	234.292
822.601	275.948
825.975	322.72
829.35	377.643
832.725	432.897
836.1	478.734
839.475	504.737
842.85	500.653
846.224	471.504
849.599	413.766
852.974	354.849
856.349	292.744
859.724	240.341
863.098	194.627
866.473	159.139
869.848	138.256
873.223	122.934
876.598	108.768
879.972	96.0994
883.347	81.8027
886.722	67.9025
890.097	53.9272
893.472	41.0387
896.847	31.4514
900.221	23.3363
903.596	14.7388
906.971	8.94241
910.346	4.19798
913.721	0.39521
917.096	1.60384
920.47	2.70435
923.845	3.19052
927.22	2.40615
930.595	1.62126
933.97	0.086834
937.344	1.37308
940.719	3.92408
944.094	8.12548
947.469	13.3571
950.844	20.1652
954.218	27.1895
957.593	40.0837
960.968	58.0652
964.343	85.9467
967.718	123.067
971.092	170.95
974.467	218.11
977.842	265.015
981.217	294.3
984.592	289.827
987.967	246.618
991.341	175.935
994.716	106.993
998.091	55.0745
1001.47	34.533
1004.84	16.8907
1008.22	10.627
1011.59	6.82855
1014.97	4.33012
1018.34	2.50019
1021.72	1.04073
1025.09	0.836784
1028.46	0.27681
1031.84	0.257027
1035.21	0.321804
1038.59	0.573917
1041.96	0.409306
1045.34	0.286465
1048.71	0.637169
1052.09	1.01228
1055.46	2.4681
1058.84	3.04526
1062.21	4.19611
1065.59	5.25632
1068.96	7.56088
1072.34	8.34376
1075.71	9.74718
1079.09	11.6155
1082.46	12.743
1085.84	14.6328
1089.21	16.1717
1092.59	17.748
1095.96	17.9439
1099.34	19.0369
1102.71	19.7578
1106.09	21.3085
1109.46	22.1541
1112.84	23.1238
1116.21	22.6067
1119.58	23.2499
1122.96	23.1742
1126.33	21.6258
1129.71	19.922
1133.08	18.9743
1136.46	18.0691
1139.83	16.4234
1143.21	14.8404
1146.58	13.8419
1149.96	12.2965
1153.33	10.7865
1156.71	10.0844
1160.08	8.72422
1163.46	8.28873
1166.83	7.17293
1170.21	6.76972
1173.58	6.29618
1176.96	5.527
1180.33	4.29751
1183.71	2.51235
1187.08	1.67173
1190.46	0.740469
1193.83	0.178956
1197.2	0.278403
1200.58	0.48684
1203.95	0.474195
1207.33	0.301865
1210.7	0.210955
1214.08	0.254576
1217.45	0.082576
1220.83	0.449782
1224.2	0.651196
1227.58	0.665833
1230.95	1.04179
1234.33	1.02497
1237.7	1.42274
1241.08	1.82696
1244.45	1.97904
1247.83	2.1552
1251.2	2.10171
1254.58	2.24502
1257.95	1.47679
1261.33	1.49072
1264.7	1.40124
1268.08	1.02356
1271.45	0.828013
1274.83	0.931639
1278.2	0.751178
1281.58	0.603878
1284.95	0.187431
1288.33	0.365687
1291.7	0.341178
1295.08	0.06027
1298.45	0.070175
1301.83	0
