Measurement: Raman, 780 nm, unoriented, Raman Data Processed
Mineral: Chalcanthite
Rruff sample: R060018
Ideal chemistry: CuSO_4_5H_2_O
Locality: Chuquicamata, Chile
Source: American Museum of Natural History
Description: Dark blue fragment
Measured chemistry: Cu_1.00_S_1.00_O_4_Â·5H_2_O
Raman shift (cm-1)	intensity
101.742	0
105.117	6.6176
108.492	6.96727
111.866	7.65763
115.241	17.472
118.616	21.4493
121.991	28.5048
125.365	20.9155
128.74	18.6755
132.115	12.729
135.49	10.084
138.865	9.5976
142.24	3.66752
145.614	4.17165
148.989	1.30094
152.364	3.86388
155.739	3.74763
159.114	1.64264
162.488	0.916402
165.863	0.865864
169.238	6.50069
172.613	0.319686
175.988	5.69355
179.363	5.50502
182.737	9.06817
186.112	1.63741
189.487	6.78829
192.862	5.43988
196.237	5.28629
199.612	11.8303
202.986	6.29368
206.361	4.93959
209.736	10.9397
213.111	5.70479
216.486	4.47976
219.86	7.72436
223.235	2.94358
226.61	3.51997
229.985	8.24395
233.36	5.6707
236.734	13.0773
240.109	6.7641
243.484	16.4886
246.859	20.4246
250.234	16.0568
253.609	13.2525
256.983	11.237
260.358	13.9344
263.733	8.30442
267.108	11.5543
270.483	7.14468
273.858	10.0028
277.232	6.62558
280.607	5.9412
283.982	0.866845
287.357	6.08096
290.731	1.16612
294.106	5.97818
297.481	3.29619
300.856	4.2284
304.231	1.92795
307.606	0.696253
310.98	7.08998
314.355	5.36219
317.73	8.71054
321.105	3.34842
324.48	4.13636
327.854	4.00227
331.229	5.34061
334.604	6.88848
337.979	5.33625
341.354	2.72959
344.729	8.10238
348.103	0.631259
351.478	3.82875
354.853	9.03026
358.228	1.79787
361.603	0.116997
364.978	1.52745
368.352	6.67948
371.727	1.88517
375.102	2.09366
378.477	2.51905
381.852	3.52124
385.226	0.743102
388.601	5.46748
391.976	1.20798
395.351	1.34525
398.726	2.35625
402.101	5.99726
405.475	5.61763
408.85	9.3935
412.225	3.47475
415.6	12.3497
418.975	10.5647
422.349	10.1309
425.724	20.6465
429.099	22.911
432.474	25.3966
435.849	31.6337
439.224	37.0732
442.598	41.3201
445.973	34.7121
449.348	33.827
452.723	30.0699
456.098	24.6175
459.472	21.1398
462.847	23.6305
466.222	16.8927
469.597	15.4332
472.972	9.94023
476.346	7.07996
479.721	4.2717
483.096	6.56959
486.471	6.01517
489.846	5.37644
493.221	2.95232
496.595	3.01686
499.97	4.00007
503.345	1.40439
506.72	3.05934
510.095	0.915793
513.469	9.52639
516.844	3.77594
520.219	5.46326
523.594	3.25903
526.969	7.25725
530.343	6.77782
533.718	3.52396
537.093	4.95078
540.468	6.50485
543.843	5.68396
547.218	5.06539
550.592	2.55931
553.967	4.71139
557.342	8.97
560.717	12.3734
564.092	7.78854
567.466	1.47799
570.841	0.674433
574.216	0.115767
577.591	10.628
580.966	2.82572
584.341	5.08458
587.715	4.96873
591.09	9.65226
594.465	12.8647
597.84	7.14046
601.215	14.3676
604.59	13.9841
607.964	15.2193
611.339	14.13
614.714	13.0181
618.089	14.7463
621.464	10.1786
624.838	8.52152
628.213	2.39887
631.588	8.46578
634.963	1.183
638.338	9.41595
641.712	10.2678
645.087	3.25229
648.462	0.549835
651.837	3.99071
655.212	0.093284
658.587	11.0261
661.961	2.5637
665.336	8.76661
668.711	7.52326
672.086	9.50605
675.461	6.19791
678.835	5.18215
682.21	1.63709
685.585	2.13268
688.96	6.82967
692.335	3.63304
695.71	1.57862
699.084	4.04452
702.459	5.24401
705.834	5.08672
709.209	0.489168
712.584	3.83495
715.958	3.06847
719.333	5.28393
722.708	5.92117
726.083	6.96233
729.458	6.12855
732.832	3.95861
736.207	2.03953
739.582	1.34081
742.957	8.42362
746.332	6.37557
749.707	3.82815
753.081	6.89338
756.456	0.936318
759.831	0.749521
763.206	5.99635
766.581	12.9792
769.956	2.50871
773.33	3.20009
776.705	2.72589
780.08	5.4922
783.455	5.12282
786.83	0.608496
790.204	0.113095
793.579	0.352829
796.954	3.4147
800.329	5.57237
803.704	6.22692
807.078	5.0903
810.453	4.54818
813.828	3.89838
817.203	2.05269
820.578	3.28046
823.953	4.42516
827.327	7.83913
830.702	0.832225
834.077	1.4396
837.452	8.6281
840.827	1.35406
844.201	6.0056
847.576	5.6173
850.951	4.21007
854.326	7.05155
857.701	6.07043
861.076	2.07112
864.45	1.36709
867.825	4.71211
871.2	8.60736
874.575	2.58236
877.95	5.10446
881.324	2.28655
884.699	6.42175
888.074	7.36073
891.449	1.02001
894.824	5.62656
898.198	4.40338
901.573	7.83656
904.948	0.219208
908.323	2.55576
911.698	6.07679
915.073	5.7051
918.447	2.06164
921.822	1.9269
925.197	7.93811
928.572	2.49713
931.947	4.5754
935.322	5.34711
938.696	0.900509
942.071	0.852464
945.446	4.75294
948.821	6.53972
952.196	6.50627
955.57	4.80062
958.945	7.32358
962.32	10.8198
965.695	13.0373
969.07	33.5363
972.444	56.7298
975.819	85.9594
979.194	128.876
982.569	178.209
985.944	83.3613
989.318	28.5931
992.693	14.6665
996.068	9.96607
999.443	4.1242
1002.82	3.98727
1006.19	1.41104
1009.57	5.30908
1012.94	3.17931
1016.32	5.07436
1019.69	4.30333
1023.07	2.63435
1026.44	1.95562
1029.82	3.50655
1033.19	1.09841
1036.57	4.01421
1039.94	1.6831
1043.32	7.1787
1046.69	3.34651
1050.07	3.09257
1053.44	6.39624
1056.82	3.99098
1060.19	7.04275
1063.57	6.54728
1066.94	3.87415
1070.31	3.94077
1073.69	7.07498
1077.06	5.27954
1080.44	0.982194
1083.81	6.21773
1087.19	6.60707
1090.56	12.6951
1093.94	6.85173
1097.31	4.06503
1100.69	9.32666
1104.06	1.04865
1107.44	5.36009
1110.81	8.40818
1114.19	8.63879
1117.56	5.34989
1120.94	2.65469
1124.31	7.76243
1127.69	4.84829
1131.06	7.7217
1134.44	8.22382
1137.81	5.80679
1141.18	2.68228
1144.56	0.285611
1147.93	1.95465
1151.31	5.48401
1154.68	7.0575
1158.06	7.93898
1161.43	4.5428
1164.81	3.1659
1168.18	8.08483
1171.56	5.29557
1174.93	5.73791
1178.31	1.05579
1181.68	3.60568
1185.06	1.8326
1188.43	1.08537
1191.81	4.74863
1195.18	0.516398
1198.56	2.47938
1201.93	4.7153
1205.31	4.17905
1208.68	3.59887
1212.06	5.81006
1215.43	4.52347
1218.81	5.29556
1222.18	0.912352
1225.56	4.63294
1228.93	8.63691
1232.31	6.20949
1235.68	5.70375
1239.06	8.79331
1242.43	5.87657
1245.81	0.715125
1249.18	4.22356
1252.55	6.83794
1255.93	4.7089
1259.3	5.21817
1262.68	3.07103
1266.05	6.41246
1269.43	6.69718
1272.8	2.01705
1276.18	5.58973
1279.55	2.26814
