Measurement: Raman, 532 nm, unoriented, Raman Data Processed
Mineral: Chalcosiderite
Rruff sample: R060007
Ideal chemistry: Cu^2+^Fe^3+^_6_(PO_4_)_4_(OH)_8_4H_2_O
Locality: Cerro Negro mine, Carrizalillo, Chile
Source: William W. Pinch, Bob Jenkins
Description: Groups of green foliated crystals associated with pseudomalachite, R050597
Measured chemistry: Cu_1.00_(Fe^3+^_3.69_Al_2.31_)_Σ=6_(P_1.00_O_4_)_4_(OH)_8_·4H_2_O
Raman shift (cm-1)	intensity
156.081	0
158.974	1.2229
161.867	2.59228
164.76	13.2321
167.652	43.9332
170.545	103.7
173.438	187.037
176.33	297.017
179.223	418.733
182.116	513.268
185.008	610.69
187.901	696.75
190.794	767.775
193.686	834.64
196.579	897.79
199.472	941.282
202.365	963.379
205.257	953.916
208.15	903.617
211.043	806.832
213.935	724.089
216.828	648.761
219.721	592.688
222.613	535.514
225.506	486.389
228.399	422.57
231.292	364.36
234.184	319.325
237.077	264.648
239.97	233.694
242.862	203.323
245.755	194.881
248.648	178.431
251.541	155.155
254.433	119.463
257.326	87.5552
260.219	48.5007
263.111	15.8391
266.004	7.81073
268.897	19.8531
271.789	17.6912
274.682	5.13947
277.575	28.7535
280.467	74.7583
283.36	145.675
286.253	222.674
289.146	310.107
292.038	397.659
294.931	481.808
297.824	561.478
300.716	636.658
303.609	712.242
306.502	761.729
309.394	785.715
312.287	783.448
315.18	754.761
318.073	709.98
320.965	658.746
323.858	584.813
326.751	495.498
329.643	407.614
332.536	322.42
335.429	254.737
338.322	205.412
341.214	162.523
344.107	138.644
347	114.395
349.892	95.8538
352.785	63.843
355.678	29.5938
358.57	16.3878
361.463	4.84058
364.356	14.3009
367.248	11.8811
370.141	4.53503
373.034	12.7838
375.927	40.6977
378.819	69.2405
381.712	105.344
384.605	142.263
387.497	177.498
390.39	211.408
393.283	242.606
396.175	262.529
399.068	269.889
401.961	265.7
404.853	236.174
407.746	212.61
410.639	166.764
413.532	124.6
416.424	90.6968
419.317	67.6777
422.21	56.0901
425.102	68.0643
427.995	101.993
430.888	149.035
433.781	200.594
436.673	248.162
439.566	291.778
442.459	315.255
445.351	330.813
448.244	325.35
451.137	312.471
454.029	282.601
456.922	243.861
459.815	203.899
462.708	154.47
465.6	112.132
468.493	81.6771
471.386	54.2059
474.278	29.7416
477.171	14.4959
480.064	3.08069
482.957	6.31201
485.849	8.60315
488.742	8.93329
491.635	5.98981
494.527	5.93243
497.42	1.83899
500.313	4.32935
503.205	6.71265
506.098	11.1585
508.991	17.4329
511.884	24.3475
514.776	37.3385
517.669	57.7877
520.562	73.9584
523.454	95.4661
526.347	114.657
529.24	127.233
532.132	135.748
535.025	138.731
537.918	142.388
540.81	146.199
543.703	157.205
546.596	161.787
549.489	167.586
552.381	179.915
555.274	203.606
558.167	227.642
561.059	243.742
563.952	244.114
566.845	240.153
569.737	233.835
572.63	223.088
575.523	204.946
578.415	186.708
581.308	158.95
584.201	133.782
587.094	101.975
589.986	74.3712
592.879	47.5882
595.772	32.0528
598.664	20.053
601.557	17.668
604.45	22.5511
607.342	31.0005
610.235	36.8416
613.128	46.0928
616.021	53.9359
618.913	57.8965
621.806	66.9048
624.699	62.91
627.591	63.644
630.484	58.615
633.377	50.9697
636.269	39.4086
639.162	33.0472
642.055	24.3666
644.948	17.9916
647.84	11.6316
650.733	5.85931
653.626	0.889862
656.518	2.39337
659.411	0.521484
662.304	1.05035
665.197	1.5704
668.089	2.41022
670.982	5.10947
673.875	5.69611
676.767	4.07538
679.66	1.38742
682.553	2.72531
685.445	0.729126
688.338	1.13373
691.231	0.572449
694.124	7.40231
697.016	9.24243
699.909	10.421
702.802	13.9101
705.694	15.0974
708.587	17.3831
711.48	17.8928
714.372	19.0684
717.265	25.9415
720.158	22.5859
723.051	22.9779
725.943	18.8753
728.836	18.4778
731.729	17.6148
734.621	15.244
737.514	13.4098
740.407	11.2452
743.299	10.8787
746.192	13.1202
749.085	11.1043
751.977	15.6706
754.87	16.3448
757.763	20.1492
760.656	20.7594
763.548	25.1901
766.441	33.7626
769.334	37.5513
772.226	43.3255
775.119	49.9962
778.012	61.1523
780.904	62.6757
783.797	66.9668
786.69	65.6955
789.583	61.5336
792.475	57.4123
795.368	53.2125
798.261	52.9923
801.153	50.613
804.046	51.7003
806.939	52.9846
809.832	58.5628
812.724	62.2352
815.617	64.2378
818.51	64.8335
821.402	64.4465
824.295	62.4386
827.188	59.2176
830.08	57.8055
832.973	55.2978
835.866	54.9518
838.759	54.664
841.651	54.6738
844.544	50.8205
847.437	50.7284
850.329	50.2893
853.222	47.2177
856.115	47.1099
859.007	45.7628
861.9	41.8494
864.793	39.6471
867.686	32.2353
870.578	30.2397
873.471	25.1127
876.364	20.284
879.256	15.6086
882.149	9.61356
885.042	10.2518
887.934	2.79431
890.827	1.10956
893.72	2.1214
896.612	4.77701
899.505	7.49518
902.398	9.75281
905.291	8.70312
908.183	9.90015
911.076	9.68701
913.969	9.56732
916.861	5.0621
919.754	1.15475
922.647	7.83661
925.539	13.4263
928.432	23.1036
931.325	31.737
934.218	37.688
937.11	44.4155
940.003	42.1546
942.896	44.9858
945.788	42.3279
948.681	47.8306
951.574	47.4398
954.466	53.7029
957.359	59.1384
960.252	72.9877
963.144	93.2521
966.037	112.852
968.93	140.826
971.823	179.507
974.715	224.263
977.608	281.235
980.501	353.428
983.393	441.776
986.286	540.397
989.179	655.454
992.072	785.042
994.964	913.557
997.857	1034.62
1000.75	1139.45
1003.64	1224.75
1006.53	1281.78
1009.43	1293.79
1012.32	1261.04
1015.21	1202.82
1018.11	1186.88
1021	1203.87
1023.89	1248.3
1026.78	1280.46
1029.68	1287.8
1032.57	1250.57
1035.46	1171.3
1038.36	1078.51
1041.25	952.788
1044.14	832.565
1047.03	718.663
1049.93	608.028
1052.82	513.707
1055.71	396.781
1058.6	282.9
1061.5	175.14
1064.39	89.2462
1067.28	31.0645
1070.17	5.98877
1073.07	23.7385
1075.96	28.9219
1078.85	17.6306
1081.74	7.11151
1084.64	17.4686
1087.53	49.6085
1090.42	76.5216
1093.32	109.347
1096.21	136.473
1099.1	158.247
1101.99	172.073
1104.89	171.591
1107.78	155.337
1110.67	135.841
1113.57	113.855
1116.46	99.4988
1119.35	80.6496
1122.24	72.0232
1125.14	61.8096
1128.03	59.0917
1130.92	48.591
1133.81	38.9031
1136.71	32.5837
1139.6	30.4217
1142.49	30.7284
1145.38	34.1702
1148.28	39.2788
1151.17	42.2488
1154.06	40.1309
1156.95	35.928
1159.85	29.1537
1162.74	20.9931
1165.63	15.3401
1168.53	9.20605
1171.42	1.83322
1174.31	1.99759
1177.2	0.653931
1180.1	2.40073
1182.99	1.92596
1185.88	2.01016
1188.78	2.61154
1191.67	0.790268
1194.56	1.33302
1197.45	6.24249
1200.35	7.74214
1203.24	8.67087
1206.13	14.202
1209.02	18.1931
1211.92	21.7007
1214.81	24.0512
1217.7	28.2382
1220.6	31.8824
1223.49	33.0857
1226.38	33.7699
1229.27	35.5457
1232.17	35.7861
1235.06	36.8981
1237.95	37.7545
1240.84	34.8002
1243.74	31.6987
1246.63	31.823
1249.52	27.5583
1252.41	24.2864
1255.31	26.1918
1258.2	20.3507
1261.09	21.5246
1263.98	18.9817
1266.88	19.3258
1269.77	14.1534
1272.66	12.2745
1275.56	14.4502
1278.45	10.3436
1281.34	8.44844
1284.23	6.85536
1287.13	6.62589
1290.02	3.20567
1292.91	1.10738
1295.81	3.17218
1298.7	0.03598
1301.59	3.00755
1304.48	0.646362
