Measurement: Raman, 532 nm, unoriented, Raman Data Processed
Mineral: Chalconatronite
Rruff sample: R070366
Ideal chemistry: Na_2_Cu(CO_3_)_2_3H_2_O
Locality: Mont Saint-Hilaire, Rouville County, Quebec, Canada
Source: Michael Scott
Description: Blue fine-grained crust
Raman shift (cm-1)	intensity
181.482	0
184.374	29.1183
187.267	58.6024
190.16	39.328
193.052	39.7668
195.945	29.6899
198.838	15.4087
201.731	28.5735
204.623	38.4769
207.516	5.32678
210.409	42.0547
213.301	47.2452
216.194	63.7255
219.087	88.6733
221.979	84.187
224.872	69.1084
227.765	50.7899
230.657	60.1379
233.55	14.6329
236.443	3.88074
239.336	14.652
242.228	6.56616
245.121	14.7057
248.014	2.23731
250.906	31.9002
253.799	19.3685
256.692	15.618
259.584	42.9456
262.477	41.8529
265.37	54.4884
268.263	97.0964
271.155	85.7124
274.048	102.128
276.941	124.041
279.833	125.698
282.726	106.41
285.619	185.341
288.512	214.767
291.404	252.567
294.297	355.484
297.19	437.158
300.082	613.087
302.975	813.54
305.868	1134.77
308.76	1499.28
311.653	1944.39
314.546	2339.76
317.438	2500.16
320.331	2198.2
323.224	1708.49
326.117	1441.49
329.009	1266.53
331.902	1139.29
334.795	982.143
337.687	816.135
340.58	678.716
343.473	649.608
346.365	603.099
349.258	572.021
352.151	482.369
355.044	349.783
357.936	322.061
360.829	220.479
363.722	170.993
366.614	133.742
369.507	108.61
372.4	77.9491
375.293	68.2711
378.185	63.3721
381.078	54.1771
383.971	54.3203
386.863	33.7716
389.756	75.5791
392.649	41.7521
395.541	32.3215
398.434	14.0682
401.327	22.9627
404.219	19.0627
407.112	1.26892
410.005	11.8163
412.898	33.4406
415.79	3.54163
418.683	10.7468
421.576	1.86658
424.469	14.6199
427.361	4.57996
430.254	6.65576
433.147	8.28247
436.039	4.7074
438.932	11.6783
441.825	2.59119
444.717	5.41003
447.61	7.40747
450.503	12.1685
453.396	45.0453
456.288	25.175
459.181	22.3417
462.074	68.2961
464.966	49.0392
467.859	21.111
470.752	33.6034
473.644	73.6411
476.537	25.1366
479.43	30.6863
482.322	57.401
485.215	65.0244
488.108	34.615
491.001	24.2637
493.893	24.3077
496.786	47.0787
499.679	50.717
502.571	46.927
505.464	22.1201
508.357	9.94421
511.25	20.9006
514.142	17.7699
517.035	4.76306
519.928	1.66089
522.82	38.9221
525.713	7.04187
528.606	47.0377
531.498	38.4535
534.391	32.0953
537.284	60.882
540.177	57.4807
543.069	64.4128
545.962	33.8774
548.855	32.3706
551.747	23.6709
554.64	31.5681
557.533	17.3506
560.425	20.321
563.318	46.7954
566.211	25.4165
569.104	18.5395
571.996	43.3852
574.889	21.2318
577.782	39.311
580.674	22.1688
583.567	58.0148
586.46	27.2025
589.352	13.8687
592.245	52.0873
595.138	35.1307
598.031	59.382
600.923	46.9961
603.816	17.7763
606.709	20.0804
609.601	41.5732
612.494	34.1715
615.387	31.1975
618.279	17.1847
621.172	22.774
624.065	26.254
626.958	62.9681
629.85	20.5998
632.743	20.3992
635.636	13.8575
638.528	10.6423
641.421	16.0244
644.314	7.41309
647.207	9.25684
650.099	38.5096
652.992	14.4322
655.885	5.30188
658.777	38.6221
661.67	5.20007
664.563	36.2754
667.455	13.8756
670.348	32.2199
673.241	10.9994
676.134	16.267
679.026	43.0269
681.919	50.4009
684.812	62.5729
687.704	83.7721
690.597	64.4496
693.49	86.8992
696.382	75.271
699.275	42.7915
702.168	46.5211
705.061	45.4591
707.953	71.4757
710.846	31.8351
713.739	43.2444
716.631	51.8702
719.524	34.9093
722.417	93.9281
725.309	166.775
728.202	250.792
731.095	353.092
733.987	507.906
736.88	627.856
739.773	764.069
742.666	797.027
745.558	746.298
748.451	611.949
751.344	587.912
754.236	644.615
757.129	714.158
760.022	818.144
762.915	917.715
765.807	915.185
768.7	795.972
771.593	526.113
774.485	326.103
777.378	175.681
780.271	124.129
783.163	77.5162
786.056	62.6414
788.949	41.4006
791.842	45.9309
794.734	12.9939
797.627	11.5906
800.52	13.5364
803.412	9.00696
806.305	19.7819
809.198	12.7782
812.091	2.74048
814.983	7.43396
817.876	11.8739
820.769	30.2705
823.661	37.5328
826.554	49.2828
829.447	87.1875
832.339	114.911
835.232	144.888
838.125	193.083
841.018	208.623
843.91	254.389
846.803	321.304
849.696	494.442
852.588	711.61
855.481	1129.58
858.374	1865.66
861.266	2960.36
864.159	4045.35
867.052	4806.36
869.944	4539.82
872.837	2990.45
875.73	1655.18
878.623	934.45
881.515	565.988
884.408	407.435
887.301	271.475
890.193	214.951
893.086	130.092
895.979	131.56
898.871	102.294
901.764	76.5332
904.657	78.0317
907.55	113.113
910.442	52.4406
913.335	21.2429
916.228	1.8855
919.12	6.09509
922.013	17.6064
924.906	10.3274
927.798	14.9491
930.691	34.6156
933.584	9.24438
936.477	16.2812
939.369	5.01208
942.262	6.45312
945.155	30.4388
948.047	32.3752
950.94	28.8811
953.833	19.6007
956.726	39.9375
959.618	26.1067
962.511	2.16418
965.404	4.66504
968.296	33.8831
971.189	1.20764
974.082	21.4077
976.974	14.1057
979.867	31.7335
982.76	32.7405
985.653	91.4602
988.545	93.4147
991.438	122.236
994.331	111.981
997.223	43.7078
1000.12	6.37293
1003.01	0.108398
1005.9	25.5821
1008.79	10.1364
1011.69	13.3898
1014.58	25.6773
1017.47	24.178
1020.37	4.7821
1023.26	32.6163
1026.15	8.43481
1029.04	43.1935
1031.94	81.927
1034.83	74.695
1037.72	94.9684
1040.61	178.899
1043.51	227.205
1046.4	279.563
1049.29	393.206
1052.18	434.623
1055.08	392.4
1057.97	295.496
1060.86	268.462
1063.76	325.755
1066.65	386.531
1069.54	458.126
1072.43	384.48
1075.33	302.975
1078.22	206.01
1081.11	165.882
1084	99.4075
1086.9	93.5692
1089.79	72.6743
1092.68	97.0625
1095.58	65.2173
1098.47	69.951
1101.36	62.5244
1104.25	26.7885
1107.15	35.5167
1110.04	27.6071
1112.93	2.07849
1115.82	8.89502
1118.72	8.55627
1121.61	1.24524
1124.5	27.2419
1127.39	34.5601
1130.29	37.963
1133.18	4.56238
1136.07	9.91846
1138.97	2.86365
1141.86	4.48743
1144.75	21.0623
1147.64	24.8788
1150.54	38.6187
1153.43	45.6674
1156.32	22.757
1159.21	19.0411
1162.11	33.7915
1165	20.5167
1167.89	25.4269
1170.79	23.1531
1173.68	29.0794
1176.57	8.01135
1179.46	36.7004
1182.36	14.4266
1185.25	22.1693
1188.14	16.1537
1191.03	23.9271
1193.93	25.1382
1196.82	52.5493
1199.71	41.3865
1202.61	42.0983
1205.5	18.2876
1208.39	5.16846
1211.28	31.5575
1214.18	14.8097
1217.07	27.4117
1219.96	29.5741
1222.85	65.423
1225.75	46.7643
1228.64	12.3133
1231.53	3.39417
1234.42	48.1844
1237.32	1.33667
1240.21	11.2805
1243.1	9.81165
1246	61.6405
1248.89	17.7589
1251.78	22.7888
1254.67	40.3678
1257.57	14.0967
1260.46	48.5322
1263.35	30.9362
1266.24	33.6418
1269.14	33.5802
1272.03	41.5429
1274.92	52.9298
1277.82	47.3668
1280.71	23.4243
1283.6	26.5327
1286.49	69.2759
1289.39	31.7319
1292.28	0.158203
