Measurement: Raman, 532 nm, unoriented, Raman Data Processed
Mineral: Chalcosiderite
Rruff sample: R060339
Ideal chemistry: Cu^2+^Fe^3+^_6_(PO_4_)_4_(OH)_8_4H_2_O
Locality: Gunheath Pit, St. Austell, Cornwall, England
Source: Michael Scott
Description: Sheafs of green platy crystals associated with white leucophosphite, R060338, and orange cyrilovite, R060504
Measured chemistry: Cu_1.00_(Fe^3+^_4.84_Al_1.16_)_Σ=6_(P_1.00_O_4_)_4_(OH)_8_·4H_2_O; H_2_O estimated by difference; (OH) by charge balance
Raman shift (cm-1)	intensity
163.774	0
166.667	1.11975
169.559	2.40015
172.452	22.8091
175.345	46.6819
178.237	70.198
181.13	90.4179
184.023	140.416
186.916	177.457
189.808	216.395
192.701	274.115
195.594	334.406
198.486	350.837
201.379	308.576
204.272	280.403
207.164	252.617
210.057	207.488
212.95	161.028
215.843	162.694
218.735	196.91
221.628	219.727
224.521	217.882
227.413	195.823
230.306	177.801
233.199	160.514
236.091	153.928
238.984	126.338
241.877	99.3488
244.769	84.894
247.662	71.1791
250.555	58.8975
253.448	49.4718
256.34	31.0475
259.233	12.8641
262.126	3.4856
265.018	9.31274
267.911	15.2469
270.804	11.0792
273.697	3.25525
276.589	17.7451
279.482	47.8608
282.375	91.637
285.267	147.127
288.16	217.556
291.053	308.178
293.945	395.325
296.838	498.827
299.731	608.415
302.623	701.454
305.516	777.737
308.409	800.34
311.302	786.401
314.194	746.456
317.087	686.983
319.98	616.561
322.872	541.098
325.765	472.808
328.658	414.498
331.55	369.452
334.443	335.565
337.336	316.425
340.229	312.025
343.121	308.538
346.014	299.023
348.907	274.596
351.799	212.225
354.692	144.68
357.585	82.2203
360.478	46.5789
363.37	17.8138
366.263	4.33838
369.156	11.2928
372.048	11.096
374.941	4.58447
377.834	25.2765
380.726	61.5214
383.619	98.8472
386.512	147.913
389.404	202.438
392.297	256.376
395.19	297.825
398.083	307.342
400.975	299.262
403.868	266.799
406.761	217.261
409.653	178.464
412.546	137.535
415.439	101.918
418.332	84.4263
421.224	80.0275
424.117	89.7262
427.01	96.8705
429.902	115.436
432.795	134.525
435.688	155.738
438.58	177.743
441.473	205.551
444.366	222.991
447.259	239.907
450.151	242.927
453.044	229.353
455.937	202.484
458.829	164.502
461.722	123.268
464.615	82.9679
467.507	52.4028
470.4	21.2152
473.293	1.32947
476.185	11.1091
479.078	13.8097
481.971	6.12146
484.864	1.77832
487.756	6.88904
490.649	4.35242
493.542	0.796021
496.434	0.927612
499.327	4.60315
502.22	11.5035
505.113	29.7842
508.005	52.4008
510.898	82.2164
513.791	113.306
516.683	152.754
519.576	199.851
522.469	243.196
525.361	276.591
528.254	285.248
531.147	266.991
534.04	240.57
536.932	200.078
539.825	176.194
542.718	167.648
545.61	175.876
548.503	197.979
551.396	232.721
554.288	281.781
557.181	323.989
560.074	354.971
562.967	346.155
565.859	299.777
568.752	237.509
571.645	175.055
574.537	126.011
577.43	86.2991
580.323	60.9806
583.216	39.904
586.108	27.5424
589.001	17.5935
591.894	16.8896
594.786	16.0783
597.679	22.2537
600.572	36.1184
603.464	50.8198
606.357	63.0817
609.25	76.2508
612.142	79.0299
615.035	80.3782
617.928	77.5894
620.821	70.2067
623.713	63.371
626.606	52.429
629.499	43.2064
632.391	34.9115
635.284	23.9077
638.177	15.8735
641.069	11.2147
643.962	5.5282
646.855	4.00745
649.747	3.65894
652.64	0.456787
655.533	1.63916
658.426	0.622925
661.318	6.89862
664.211	5.19763
667.104	0.903931
669.996	3.28906
672.889	4.90686
675.782	3.95502
678.674	1.08862
681.567	3.36249
684.46	3.6886
687.353	2.55585
690.245	7.58875
693.138	5.20538
696.031	7.49347
698.923	8.05273
701.816	7.05609
704.709	12.0317
707.601	12.0921
710.494	15.6637
713.387	17.2159
716.28	18.3791
719.172	15.2248
722.065	13.1485
724.958	14.2459
727.85	9.63934
730.743	10.2184
733.636	12.0397
736.529	11.6399
739.421	11.5788
742.314	12.9001
745.207	15.0695
748.099	14.0085
750.992	20.9516
753.885	18.7365
756.777	16.7328
759.67	25.998
762.563	28.0072
765.456	32.0228
768.348	35.2837
771.241	47.8244
774.134	56.0761
777.026	65.3417
779.919	78.9016
782.812	76.5385
785.704	73.5526
788.597	62.2465
791.49	54.6377
794.383	42.6011
797.275	27.1476
800.168	22.701
803.061	14.9177
805.953	13.3091
808.846	10.0679
811.739	5.76465
814.631	13.2347
817.524	12.5392
820.417	13.3543
823.309	18.9152
826.202	15.6323
829.095	20.0426
831.988	19.7061
834.88	20.4053
837.773	16.77
840.666	22.1267
843.558	19.3333
846.451	18.3292
849.344	12.8577
852.236	17.3375
855.129	13.0343
858.022	6.71326
860.915	13.0921
863.807	9.4823
866.7	5.93866
869.593	2.9317
872.485	7.01367
875.378	2.68274
878.271	5.66089
881.163	2.01886
884.056	3.29266
886.949	2.58752
889.842	4.04327
892.734	2.98633
895.627	3.59937
898.52	8.55194
901.412	12.2879
904.305	12.8879
907.198	11.9625
910.091	14.4282
912.983	11.919
915.876	14.4529
918.769	14.1216
921.661	14.3842
924.554	10.8876
927.447	15.5618
930.339	17.4322
933.232	6.78857
936.125	8.10523
939.018	2.74268
941.91	0.453125
944.803	0.247681
947.696	5.24023
950.588	5.40979
953.481	0.265991
956.374	6.94629
959.266	15.3023
962.159	22.7206
965.052	40.9453
967.944	53.4142
970.837	77.9314
973.73	101.672
976.623	125.121
979.515	156.779
982.408	187.542
985.301	223.955
988.193	268.585
991.086	311.955
993.979	361.858
996.871	417.221
999.764	483.897
1002.66	558.062
1005.55	618.054
1008.44	641.441
1011.34	628.953
1014.23	594.389
1017.12	602.292
1020.01	645.955
1022.91	696.381
1025.8	731.616
1028.69	717.518
1031.58	643.777
1034.48	563.828
1037.37	471.853
1040.26	370.296
1043.15	301.227
1046.05	257.459
1048.94	213.299
1051.83	181.113
1054.73	144.337
1057.62	102.241
1060.51	54.704
1063.4	23.2439
1066.3	3.50928
1069.19	8.35608
1072.08	11.1382
1074.97	2.8125
1077.87	8.02759
1080.76	23.5881
1083.65	41.4518
1086.55	66.9737
1089.44	96.2598
1092.33	140.617
1095.22	190.582
1098.12	227.862
1101.01	267.046
1103.9	273.321
1106.79	253.314
1109.69	209.354
1112.58	157.456
1115.47	115.839
1118.37	85.8948
1121.26	65.5193
1124.15	44.2323
1127.04	29.73
1129.94	19.4768
1132.83	13.942
1135.72	9.57703
1138.61	0.037109
1141.51	3.97034
1144.4	1.65015
1147.29	1.1969
1150.18	1.45935
1153.08	3.9458
1155.97	3.48328
1158.86	1.82349
1161.76	0.049072
1164.65	0.523315
1167.54	2.5282
1170.43	3.80994
1173.33	1.75439
1176.22	1.03662
1179.11	2.92212
1182	7.76929
1184.9	2.75964
1187.79	8.76892
1190.68	4.73645
1193.58	9.91882
1196.47	8.93982
1199.36	10.6395
1202.25	15.2728
1205.15	19.2239
1208.04	18.5079
1210.93	26.8691
1213.82	19.6627
1216.72	20.1846
1219.61	13.3071
1222.5	14.6981
1225.39	16.0952
1228.29	20.7195
1231.18	17.3484
1234.07	14.708
1236.97	16.3784
1239.86	13.5054
1242.75	10.4477
1245.64	7.78552
1248.54	16.1128
1251.43	16.5344
1254.32	20.8281
1257.21	8.31958
1260.11	11.0614
1263	12.9805
1265.89	7.401
1268.79	14.7864
1271.68	9.82898
1274.57	11.8373
1277.46	11.1376
1280.36	5.18066
1283.25	0.746094
1286.14	3.93909
1289.03	0.158325
1291.93	2.02087
1294.82	2.16162
1297.71	4.85925
1300.61	2.07336
