Measurement: Raman, 532 nm, unoriented, Raman Data Processed
Mineral: Chalcanthite
Rruff sample: R060102
Ideal chemistry: CuSO_4_5H_2_O
Locality: synthetic
Source: Jacque Reynard, Greg Schmidt
Description: Blue bladed crystals
Raman shift (cm-1)	intensity
133.172	0
136.547	16.3034
139.922	16.184
143.297	19.8813
146.671	32.227
150.046	48.2664
153.421	37.8173
156.796	16.2772
160.171	1.97782
163.546	1.72372
166.92	0.899254
170.295	2.66521
173.67	6.85731
177.045	8.7747
180.42	9.718
183.794	6.32286
187.169	0.67411
190.544	2.58952
193.919	0.814415
197.294	0.196587
200.668	0.274288
204.043	0.862629
207.418	0.59502
210.793	2.31086
214.168	4.11902
217.543	7.78396
220.917	11.0316
224.292	15.4956
227.667	23.2559
231.042	33.7412
234.417	45.3852
237.792	60.0369
241.166	74.5721
244.541	83.7731
247.916	91.9036
251.291	101.609
254.666	115.366
258.041	129.429
261.415	144.593
264.79	156.869
268.165	170.714
271.54	187.501
274.915	202.238
278.289	197.581
281.664	165.84
285.039	119.622
288.414	79.0901
291.789	50.6191
295.163	33.2895
298.538	22.0116
301.913	14.7417
305.288	11.0404
308.663	7.97169
312.038	7.20105
315.412	6.98415
318.787	6.58483
322.162	7.84749
325.537	8.73431
328.912	8.85767
332.287	6.85483
335.661	4.57355
339.036	1.85747
342.411	0.044022
345.786	0.812557
349.161	0.636742
352.536	2.15533
355.91	1.93576
359.285	1.35274
362.66	0.922077
366.035	0.95261
369.41	0.259499
372.784	0.380558
376.159	0.057255
379.534	1.60381
382.909	2.70629
386.284	5.25842
389.659	8.93272
393.033	12.9836
396.408	19.7128
399.783	26.811
403.158	37.5134
406.533	50.5915
409.907	63.6081
413.282	79.4068
416.657	94.4151
420.032	102.047
423.407	103.747
426.782	102.251
430.156	106.961
433.531	121.016
436.906	145.115
440.281	173.888
443.656	203.436
447.031	234.558
450.405	266.359
453.78	291.987
457.155	311.524
460.53	326.593
463.905	338.847
467.279	327.571
470.654	277.601
474.029	204.89
477.404	139.819
480.779	93.6856
484.154	64.061
487.528	43.7815
490.903	30.1297
494.278	21.1213
497.653	14.7271
501.028	10.282
504.402	6.76619
507.777	4.01861
511.152	1.32569
514.527	1.16192
517.902	0.4277
521.277	0.847034
524.651	1.16077
528.026	1.45092
531.401	1.02083
534.776	0.923531
538.151	0.704971
541.525	0.275944
544.9	0.822369
548.275	1.79638
551.65	2.42286
555.025	3.7421
558.399	4.91776
561.774	6.69608
565.149	7.61864
568.524	10.4449
571.899	12.6375
575.274	16.671
578.649	20.1227
582.023	24.3193
585.398	30.5308
588.773	39.4121
592.148	52.4856
595.523	68.1518
598.897	87.1144
602.272	106.134
605.647	121.52
609.022	123.871
612.397	111.117
615.771	82.5672
619.146	57.4459
622.521	36.8614
625.896	24.3462
629.271	15.1789
632.646	9.53089
636.02	5.66919
639.395	3.05518
642.77	1.26451
646.145	0.448509
649.52	0.084373
652.894	0.519161
656.269	0.113281
659.644	0.12035
663.019	1.09432
666.394	1.03244
669.769	1.29641
673.144	1.87011
676.518	3.03592
679.893	3.50977
683.268	3.68549
686.643	5.38921
690.018	5.85217
693.392	6.04464
696.767	7.61729
700.142	8.0057
703.517	8.26701
706.892	8.14596
710.266	8.23209
713.641	8.26035
717.016	8.13759
720.391	8.02419
723.766	7.37297
727.141	6.67773
730.515	4.85496
733.89	4.64555
737.265	4.4346
740.64	3.67774
744.015	3.5863
747.389	2.86737
750.764	2.1893
754.139	1.66719
757.514	1.51035
760.889	1.15759
764.264	0.879736
767.639	0.97393
771.013	0.848339
774.388	0.478395
777.763	0.566801
781.138	0.22333
784.513	0.100435
787.887	0.144306
791.262	0.100443
794.637	0.027794
798.012	0.11841
801.387	0.066889
804.761	0.391033
808.136	0.251738
811.511	0.413038
814.886	0.249933
818.261	0.784853
821.636	1.42339
825.01	1.12451
828.385	1.76534
831.76	1.98684
835.135	2.959
838.51	2.43335
841.885	3.12771
845.259	3.74827
848.634	5.587
852.009	6.06327
855.384	6.95516
858.759	7.94385
862.134	9.45189
865.508	11.2507
868.883	12.2405
872.258	14.1916
875.633	12.4414
879.008	11.6083
882.382	10.3711
885.757	8.43229
889.132	6.72469
892.507	4.78509
895.882	3.52192
899.256	2.60255
902.631	1.32167
906.006	0.021694
909.381	0.152763
912.756	0.240192
916.131	0.807938
919.505	0.097763
922.88	0.180996
926.255	0.384209
929.63	0.562843
933.005	1.97671
936.38	3.35336
939.754	4.83675
943.129	6.64064
946.504	10.1269
949.879	14.9816
953.254	22.8809
956.629	34.3665
960.003	53.8802
963.378	86.9105
966.753	163.723
970.128	389.873
973.503	829.314
976.877	1366.46
980.252	2443.82
983.627	2728.82
987.002	763.17
990.377	240.745
993.751	109.291
997.126	58.8643
1000.5	33.1223
1003.88	19.4557
1007.25	10.7485
1010.63	5.43815
1014	1.74345
1017.38	0.173241
1020.75	1.0253
1024.12	1.35552
1027.5	1.086
1030.88	0.085178
1034.25	2.46916
1037.62	4.87218
1041	9.32854
1044.37	13.8008
1047.75	19.7654
1051.12	23.2243
1054.5	25.6466
1057.87	25.9505
1061.25	23.724
1064.62	19.6825
1068	16.8736
1071.37	15.5054
1074.75	14.081
1078.12	15.4854
1081.5	18.4937
1084.87	22.6524
1088.25	29.2394
1091.62	33.5905
1095	34.5151
1098.37	28.7325
1101.75	20.239
1105.12	12.3852
1108.49	6.86585
1111.87	3.83895
1115.24	3.06969
1118.62	3.76292
1121.99	6.69014
1125.37	11.6407
1128.74	21.032
1132.12	32.8276
1135.49	46.7362
1138.87	59.3796
1142.24	64.0499
1145.62	56.8728
1148.99	41.6284
1152.37	27.7029
1155.74	16.9177
1159.12	10.5537
1162.49	6.01709
1165.87	3.89339
1169.24	1.87436
1172.62	1.34115
1175.99	0.073586
1179.37	0.431282
1182.74	0.656382
1186.12	0.563303
1189.49	0.604307
1192.87	0.546366
1196.24	0.503124
1199.62	0.462633
1202.99	0.614285
1206.37	0.591036
1209.74	0.68973
1213.12	1.3026
1216.49	1.4474
1219.87	2.20165
1223.24	2.27695
1226.61	1.84544
1229.99	2.08178
1233.36	2.36623
1236.74	2.33487
1240.11	2.26942
1243.49	2.21364
1246.86	1.45167
1250.24	1.0704
1253.61	1.39154
1256.99	0.99982
1260.36	1.00774
1263.74	0.999446
1267.11	0.922165
1270.49	1.26132
1273.86	1.14183
1277.24	0.627656
1280.61	0.306355
1283.99	0.172363
1287.36	0.387725
1290.74	0.36384
1294.11	0.049471
1297.48	0.328804
1300.86	0.072482
