Measurement: Raman, 780 nm, unoriented, Raman Data Processed
Mineral: Chalcostibite
Rruff sample: R060262
Ideal chemistry: CuSbS_2_
Locality: Rar el Anz, Wadi of Cherrat, east of Casablanca, Morocco
Source: Michael Scott
Description: Lead gray metallic bleb associated with azurite
Measured chemistry: Cu_1.00_Sb_1.00_S_2.00_
Raman shift (cm-1)	intensity
91.5332	0
94.908	14.6355
98.2828	10.1192
101.658	0.102737
105.032	0.205185
108.407	0.287155
111.782	1.5012
115.157	15.7787
118.532	16.0819
121.907	48.2278
125.281	59.5093
128.656	74.8768
132.031	75.7028
135.406	82.876
138.781	67.9469
142.155	35.4203
145.53	17.0711
148.905	7.60994
152.28	5.27025
155.655	10.4016
159.03	8.54944
162.404	3.44789
165.779	5.46292
169.154	4.6143
172.529	0.281998
175.904	0.58046
179.278	2.7108
182.653	4.32809
186.028	8.85976
189.403	0.58609
192.778	1.7632
196.153	5.54129
199.527	3.14824
202.902	7.57774
206.277	4.06546
209.652	7.42793
213.027	8.75761
216.401	11.815
219.776	9.83719
223.151	14.3783
226.526	15.3696
229.901	19.3919
233.275	20.4931
236.65	16.1421
240.025	16.3912
243.4	12.0193
246.775	15.8236
250.15	17.6931
253.524	7.31511
256.899	9.29288
260.274	3.12187
263.649	3.16266
267.024	2.7478
270.399	3.3493
273.773	0.649643
277.148	1.56448
280.523	1.90288
283.898	0.928238
287.273	1.80553
290.647	4.83592
294.022	3.50473
297.397	11.8128
300.772	16.6545
304.147	21.2189
307.522	41.7976
310.896	61.471
314.271	105.221
317.646	178.839
321.021	242.446
324.396	280.644
327.77	299.907
331.145	274.547
334.52	208.797
337.895	116.577
341.27	53.875
344.644	26.226
348.019	19.4718
351.394	14.4583
354.769	8.65063
358.144	4.8445
361.519	1.2209
364.893	2.03471
368.268	6.14691
371.643	7.60603
375.018	1.85959
378.393	2.30005
381.767	7.20673
385.142	0.347565
388.517	4.5986
391.892	3.37836
395.267	7.46535
398.642	2.50767
402.016	6.21733
405.391	6.49838
408.766	3.88887
412.141	8.99231
415.516	2.82404
418.89	3.85007
422.265	4.41672
425.64	2.70219
429.015	6.39719
432.39	7.70519
435.765	5.47903
439.139	2.32929
442.514	0.529236
445.889	2.89259
449.264	2.15964
452.639	8.02794
456.014	2.95157
459.388	4.92987
462.763	10.4469
466.138	4.71614
469.513	6.04526
472.887	6.65266
476.262	8.32431
479.637	6.18549
483.012	5.03555
486.387	7.02818
489.762	4.62735
493.136	5.51269
496.511	2.59486
499.886	0.917313
503.261	2.03929
506.636	5.46294
510.01	3.54385
513.385	4.12355
516.76	2.04745
520.135	0.666443
523.51	1.92302
526.885	4.96074
530.259	7.37697
533.634	4.75034
537.009	7.08855
540.384	5.75867
543.759	5.6049
547.134	4.68041
550.508	1.22199
553.883	6.09091
557.258	1.9363
560.633	4.65567
564.008	0.245392
567.382	7.09792
570.757	3.92833
574.132	3.22476
577.507	0.054642
580.882	5.48442
584.256	4.35759
587.631	1.74477
591.006	0.268707
594.381	7.14581
597.756	3.24037
601.131	6.19496
604.505	3.89964
607.88	7.47775
611.255	3.88487
614.63	3.79694
618.005	2.59349
621.38	5.44249
624.754	4.68535
628.129	5.81361
631.504	3.08534
634.879	10.7731
638.254	3.23816
641.628	4.35525
645.003	0.638123
648.378	3.14343
651.753	2.82556
655.128	3.23004
658.503	3.15445
661.877	7.90633
665.252	1.66016
668.627	0.823456
672.002	2.8224
675.377	9.91769
678.751	7.15405
682.126	3.76392
685.501	2.88893
688.876	2.5511
692.251	2.01546
695.625	6.59145
699	1.59358
702.375	1.2701
705.75	2.34273
709.125	3.41985
712.5	3.73633
715.874	3.59293
719.249	3.21109
722.624	0.915863
725.999	2.65454
729.374	10.7572
732.749	5.81509
736.123	3.33579
739.498	6.69046
742.873	6.57336
746.248	3.21423
749.623	6.21353
752.997	4.66574
756.372	2.95279
759.747	3.81134
763.122	1.12665
766.497	6.35162
769.871	7.29922
773.246	3.92154
776.621	6.75061
779.996	7.14771
783.371	5.63104
786.745	3.27731
790.12	4.07358
793.495	4.00864
796.87	4.65607
800.245	3.93103
803.62	7.94739
806.994	7.83456
810.369	4.35712
813.744	8.18512
817.119	6.2417
820.494	4.39633
823.869	8.57593
827.243	2.34872
830.618	3.3074
833.993	2.10846
837.368	1.83933
840.743	0.060333
844.117	3.72183
847.492	3.82413
850.867	1.00092
854.242	3.58411
857.617	6.66055
860.991	2.35846
864.366	6.20972
867.741	7.16138
871.116	6.05258
874.491	6.13562
877.866	3.71307
881.24	0.439972
884.615	6.42914
887.99	8.63767
891.365	0.91217
894.74	5.42035
898.115	3.64853
901.489	1.32987
904.864	2.52945
908.239	10.2058
911.614	0.654785
914.989	7.11136
918.363	4.9722
921.738	0.611359
925.113	5.66486
928.488	2.36664
931.863	7.06082
935.237	6.23679
938.612	5.40976
941.987	6.10071
945.362	3.2905
948.737	4.48941
952.112	7.10428
955.486	6.03928
958.861	11.2038
962.236	6.49155
965.611	6.58145
968.986	6.03583
972.361	3.72934
975.735	2.23993
979.11	0.212067
982.485	7.34189
985.86	4.12964
989.235	0.105896
992.609	6.23257
995.984	4.10559
999.359	5.02295
1002.73	5.36285
1006.11	5.14392
1009.48	1.99118
1012.86	2.06656
1016.23	7.47672
1019.61	3.82037
1022.98	4.27359
1026.36	2.36978
1029.73	5.09174
1033.11	6.54797
1036.48	4.73801
1039.86	2.87268
1043.23	11.7943
1046.61	2.46487
1049.98	9.4418
1053.36	5.61829
1056.73	3.07571
1060.11	3.9714
1063.48	1.31537
1066.86	2.11078
1070.23	6.80457
1073.61	1.56317
1076.98	5.01813
1080.36	3.3714
1083.73	5.061
1087.1	4.22907
1090.48	7.4567
1093.85	6.29227
1097.23	6.3837
1100.6	0.366486
1103.98	7.58151
1107.35	3.55457
1110.73	11.7626
1114.1	4.45456
1117.48	1.51874
1120.85	3.55902
1124.23	4.314
1127.6	0.731598
1130.98	5.36215
1134.35	1.74744
1137.73	7.29703
1141.1	6.75192
1144.48	6.92685
1147.85	8.81766
1151.23	4.53717
1154.6	5.96695
1157.97	0.260345
1161.35	1.60239
1164.72	3.79001
1168.1	7.62155
1171.47	8.27469
1174.85	1.20038
1178.22	3.73401
1181.6	8.85892
1184.97	6.86212
1188.35	3.70407
1191.72	7.2532
1195.1	2.34018
1198.47	6.1174
1201.85	2.27176
1205.22	6.28342
1208.6	4.82883
1211.97	7.96793
1215.35	5.62308
1218.72	4.09076
1222.1	1.00693
1225.47	7.1695
1228.85	5.75101
1232.22	0.553284
1235.6	2.9422
1238.97	3.62711
1242.35	1.61807
1245.72	5.08591
1249.1	5.94296
1252.47	5.98224
1255.85	5.20233
1259.22	3.4462
1262.6	3.0307
1265.97	8.07132
1269.34	1.62167
1272.72	0.422119
1276.09	0.020966
1279.47	6.20279
1282.84	7.12622
