Measurement: Raman, 780 nm, unoriented, Raman Data Processed
Mineral: Chalcosiderite
Rruff sample: R060007
Ideal chemistry: Cu^2+^Fe^3+^_6_(PO_4_)_4_(OH)_8_4H_2_O
Locality: Cerro Negro mine, Carrizalillo, Chile
Source: William W. Pinch, Bob Jenkins
Description: Groups of green foliated crystals associated with pseudomalachite, R050597
Measured chemistry: Cu_1.00_(Fe^3+^_3.69_Al_2.31_)_Σ=6_(P_1.00_O_4_)_4_(OH)_8_·4H_2_O
Raman shift (cm-1)	intensity
121.026	0
124.401	2.20181
127.776	4.46542
131.151	6.07248
134.526	4.00589
137.901	0.748199
141.275	1.97107
144.65	0.492798
148.025	3.23828
151.4	2.88812
154.775	3.54861
158.149	9.4227
161.524	18.378
164.899	26.2305
168.274	41.1334
171.649	63.9008
175.024	86.1345
178.398	112.186
181.773	132.732
185.148	150.461
188.523	164.342
191.898	173.922
195.272	186.507
198.647	184.951
202.022	181.96
205.397	173.914
208.772	161.028
212.147	147.909
215.521	132.27
218.896	117.937
222.271	105.588
225.646	93.6021
229.021	78.6456
232.395	63.673
235.77	56.2665
239.145	47.2233
242.52	39.3189
245.895	31.9124
249.269	26.1795
252.644	15.0579
256.019	8.46033
259.394	1.12793
262.769	1.88321
266.144	5.80945
269.518	2.10944
272.893	1.5798
276.268	10.1096
279.643	20.5131
283.018	29.4929
286.392	47.1104
289.767	57.7409
293.142	73.1856
296.517	83.2637
299.892	98.1208
303.267	104.951
306.641	112.282
310.016	113.803
313.391	113.362
316.766	109.837
320.141	100.11
323.515	84.3371
326.89	67.0123
330.265	53.8072
333.64	39.4666
337.015	31.2871
340.39	24.1545
343.764	18.3898
347.139	14.2817
350.514	7.73675
353.889	4.90735
357.264	1.28072
360.639	0.858841
364.013	2.01387
367.388	0.473831
370.763	2.36426
374.138	7.63225
377.512	11.1441
380.887	17.7204
384.262	22.6223
387.637	30.039
391.012	35.3953
394.387	39.8425
397.761	39.6373
401.136	40.302
404.511	34.7503
407.886	33.061
411.261	26.368
414.635	23.0339
418.01	18.0998
421.385	19.2123
424.76	19.7489
428.135	25.923
431.51	31.5003
434.884	35.014
438.259	41.2756
441.634	41.9033
445.009	45.2905
448.384	42.769
451.759	38.9999
455.133	37.7076
458.508	32.3116
461.883	24.3306
465.258	20.9263
468.633	15.7529
472.007	10.8747
475.382	5.60933
478.757	2.44925
482.132	1.46567
485.507	0.920624
488.882	0.845871
492.256	1.24835
495.631	2.7
499.006	2.15706
502.381	0.41716
505.756	2.60764
509.13	4.09477
512.505	6.59036
515.88	7.56487
519.255	12.6478
522.63	14.3266
526.005	15.7904
529.379	13.571
532.754	15.2718
536.129	15.9369
539.504	14.3394
542.879	13.909
546.253	17.1756
549.628	18.4622
553.003	18.9358
556.378	21.8173
559.753	23.9188
563.127	25.0662
566.502	21.3809
569.877	23.6499
573.252	23.6233
576.627	19.2699
580.001	19.7786
583.376	14.6511
586.751	12.4089
590.126	10.8071
593.501	10.0161
596.876	10.4006
600.25	7.58957
603.625	9.3084
607	10.8279
610.375	9.40056
613.75	9.00343
617.125	9.57927
620.499	10.105
623.874	8.57552
627.249	8.38935
630.624	5.28854
633.999	7.76277
637.373	5.68774
640.748	2.80526
644.123	4.53553
647.498	2.50962
650.873	1.22357
654.247	0.72789
657.622	0.558334
660.997	0.182289
664.372	1.81808
667.747	0.02359
671.122	0.44854
674.496	0.46801
677.871	1.00362
681.246	0.733551
684.621	0.030151
687.996	0.713348
691.37	1.74564
694.745	0.328087
698.12	1.12872
701.495	1.27355
704.87	0.421829
708.245	1.39575
711.619	2.65583
714.994	2.70884
718.369	0.99942
721.744	3.50341
725.119	2.36662
728.494	2.51192
731.868	2.00316
735.243	0.295135
738.618	0.131828
741.993	2.15488
745.368	1.9764
748.742	0.658043
752.117	1.241
755.492	2.11087
758.867	1.73843
762.242	3.65482
765.616	3.55869
768.991	5.62183
772.366	6.33253
775.741	4.99182
779.116	8.07241
782.49	8.1813
785.865	7.04441
789.24	7.29821
792.615	9.39877
795.99	6.72141
799.365	6.30561
802.739	7.11503
806.114	9.16422
809.489	9.22894
812.864	9.63887
816.239	8.69767
819.614	8.76588
822.988	9.16519
826.363	8.17087
829.738	7.07504
833.113	7.59601
836.487	7.06314
839.862	8.4011
843.237	9.54234
846.612	6.85769
849.987	7.04373
853.362	8.44322
856.736	6.55988
860.111	6.08046
863.486	6.22231
866.861	5.39294
870.236	4.35909
873.611	4.15021
876.985	3.36076
880.36	2.85485
883.735	3.35724
887.11	0.933365
890.485	0.217041
893.859	0.786194
897.234	0.882248
900.609	0.293716
903.984	0.411003
907.359	1.1004
910.734	0.853325
914.108	1.6908
917.483	0.838989
920.858	0.899216
924.233	0.708405
927.608	2.1664
930.982	3.18919
934.357	3.97343
937.732	4.94208
941.107	4.75017
944.482	7.4995
947.856	8.43803
951.231	8.46207
954.606	7.19918
957.981	9.13097
961.356	12.3036
964.731	13.5496
968.105	19.0438
971.48	25.4818
974.855	31.6247
978.23	43.2402
981.605	51.5901
984.98	66.4115
988.354	83.3421
991.729	96.4421
995.104	112.001
998.479	123.019
1001.85	129.721
1005.23	132.647
1008.6	130.446
1011.98	126.972
1015.35	124.09
1018.73	124.571
1022.1	126.511
1025.48	128.352
1028.85	129.601
1032.23	123.81
1035.6	112.7
1038.98	98.1354
1042.35	82.6764
1045.73	66.7386
1049.1	52.0905
1052.48	39.2964
1055.85	26.9982
1059.22	15.6414
1062.6	6.44888
1065.97	0.054146
1069.35	1.97574
1072.72	3.09786
1076.1	1.13221
1079.47	1.45058
1082.85	2.18742
1086.22	5.29853
1089.6	8.03227
1092.97	9.06932
1096.35	12.7896
1099.72	11.9941
1103.1	11.8042
1106.47	9.21758
1109.85	5.98683
1113.22	4.77283
1116.6	4.96284
1119.97	3.02127
1123.35	2.77968
1126.72	2.60382
1130.1	1.99874
1133.47	1.58002
1136.85	1.59183
1140.22	1.83122
1143.6	1.60714
1146.97	0.826782
1150.35	1.20455
1153.72	2.4983
1157.1	0.905235
1160.47	1.35912
1163.85	1.25452
1167.22	0.435654
1170.59	1.34545
1173.97	0.198357
1177.34	0.090843
1180.72	0.735336
1184.09	0.561722
1187.47	1.73507
1190.84	0.674721
1194.22	2.90801
1197.59	2.61815
1200.97	3.02264
1204.34	3.50821
1207.72	5.40476
1211.09	5.94456
1214.47	6.59331
1217.84	7.34415
1221.22	8.08935
1224.59	9.25753
1227.97	9.43595
1231.34	9.69466
1234.72	8.52625
1238.09	6.12574
1241.47	6.16095
1244.84	5.55101
1248.21	5.19924
1251.59	6.36087
1254.96	3.48394
1258.34	3.41121
1261.71	2.7522
1265.09	2.12041
1268.46	1.42833
1271.84	2.71057
1275.21	1.99884
1278.59	2.99796
1281.96	1.13068
1285.34	1.18736
