Measurement: Raman, 532 nm, unoriented, Raman Data Processed
Mineral: Chalcophanite
Rruff sample: R050605
Ideal chemistry: ZnMn^4+^_3_O_7_3H_2_O
Locality: Mina Ojuela, Mapimi, Durango, Mexico
Source: University of Arizona Mineral Museum
Description: Druse of grayish black pseudo-octahedra
Raman shift (cm-1)	intensity
149.934	0
152.826	4.02767
155.719	1.72915
158.612	1.65649
161.504	5.02539
164.397	1.57672
167.29	4.39861
170.183	3.29122
173.075	10.3214
175.968	15.3329
178.861	11.564
181.753	5.24984
184.646	6.20607
187.539	1.1434
190.431	2.04402
193.324	0.194277
196.217	0.450348
199.109	2.21696
202.002	1.57174
204.895	5.63056
207.788	7.07406
210.68	9.98808
213.573	11.5292
216.466	14.0331
219.358	17.4867
222.251	11.0068
225.144	10.6765
228.036	8.26466
230.929	7.75425
233.822	4.37711
236.715	6.48782
239.607	4.06025
242.5	8.29837
245.393	4.53241
248.286	1.62195
251.178	3.16596
254.071	3.06082
256.964	4.29884
259.856	2.49188
262.749	1.24561
265.642	1.54759
268.534	2.92397
271.427	1.54116
274.32	4.14911
277.212	2.5006
280.105	0.95064
282.998	0.393515
285.891	1.68528
288.783	0.610075
291.676	2.49654
294.569	3.08691
297.461	0.082783
300.354	6.58077
303.247	3.07432
306.14	3.18308
309.032	2.97018
311.925	3.05359
314.818	3.504
317.71	1.73284
320.603	2.90095
323.496	1.78466
326.389	1.29929
329.281	4.24477
332.174	0.408655
335.067	2.09389
337.959	0.963175
340.852	2.62498
343.745	4.60271
346.637	5.03946
349.53	2.09825
352.423	3.11102
355.315	2.21119
358.208	5.98394
361.101	3.68115
363.994	5.76129
366.886	0.534233
369.779	6.41422
372.672	7.11523
375.565	10.1529
378.457	12.7063
381.35	13.6209
384.243	10.9983
387.135	10.8477
390.028	13.8166
392.921	8.21862
395.813	9.54206
398.706	8.00562
401.599	7.54643
404.491	2.14316
407.384	0.64653
410.277	1.6726
413.17	1.80785
416.062	0.904556
418.955	2.56654
421.848	1.45137
424.74	2.59502
427.633	3.13167
430.526	1.61064
433.418	0.182968
436.311	1.56012
439.204	2.44911
442.097	0.632927
444.989	3.60984
447.882	5.74113
450.775	1.17151
453.667	3.89436
456.56	3.30746
459.453	2.31202
462.346	4.91644
465.238	2.65279
468.131	5.46749
471.024	11.4065
473.916	13.2584
476.809	18.1107
479.702	24.0946
482.594	24.7259
485.487	24.2413
488.38	18.5239
491.273	12.758
494.165	9.78241
497.058	11.7044
499.951	16.3138
502.843	17.2094
505.736	25.1379
508.629	30.2491
511.522	35.5525
514.414	23.2742
517.307	12.0104
520.2	5.28446
523.092	3.10279
525.985	2.55907
528.878	1.11517
531.77	0.377487
534.663	1.02316
537.556	0.301758
540.448	1.7636
543.341	2.29464
546.234	6.06199
549.127	9.55794
552.019	14.2841
554.912	23.1806
557.805	34.1588
560.697	48.2586
563.59	71.7885
566.483	92.7638
569.376	108.569
572.268	91.6271
575.161	57.7412
578.054	34.4438
580.946	24.3475
583.839	16.5942
586.732	13.24
589.625	11.365
592.517	9.10409
595.41	7.36491
598.303	1.09496
601.195	1.99331
604.088	1.29217
606.981	1.01748
609.874	0.50806
612.766	1.8341
615.659	0.721516
618.552	0.34201
621.444	6.90163
624.337	1.52616
627.23	3.51793
630.122	4.21402
633.015	6.2144
635.908	7.62416
638.801	8.42909
641.693	13.206
644.586	14.3946
647.479	20.5072
650.371	25.9207
653.264	38.7427
656.157	52.6616
659.049	70.0381
661.942	95.2263
664.835	120.112
667.727	139.012
670.62	145.421
673.513	126.239
676.406	94.4659
679.298	69.5268
682.191	49.3746
685.084	39.9937
687.976	31.1455
690.869	25.3356
693.762	21.2521
696.654	15.5284
699.547	15.0476
702.44	10.1412
705.333	9.00953
708.225	7.95525
711.118	7.84518
714.011	8.19715
716.904	8.72522
719.796	3.76116
722.689	7.52392
725.582	4.15827
728.474	5.9931
731.367	3.47776
734.26	1.53352
737.152	0.705853
740.045	0.649715
742.938	0.779064
745.831	2.31762
748.723	0.474289
751.616	1.46907
754.509	0.886856
757.401	0.609417
760.294	0.273094
763.187	0.896484
766.08	3.18422
768.972	2.10515
771.865	2.17614
774.758	2.83861
777.65	2.03872
780.543	3.52143
783.436	2.70572
786.328	4.26264
789.221	4.24454
792.114	6.06279
795.006	6.19423
797.899	6.47303
800.792	5.42066
803.685	5.01325
806.577	7.93536
809.47	5.3004
812.363	4.35006
815.255	5.37892
818.148	4.03947
821.041	4.56488
823.933	5.14259
826.826	2.22776
829.719	0.988302
832.612	3.03012
835.504	2.39634
838.397	0.503843
841.29	4.06853
844.182	2.65914
847.075	3.45365
849.968	2.53123
852.861	0.143621
855.753	3.39215
858.646	5.05661
861.539	2.66857
864.431	2.57084
867.324	2.58579
870.217	2.15499
873.11	2.30898
876.002	4.46108
878.895	1.62698
881.788	4.68359
884.68	2.22579
887.573	0.682642
890.466	3.59165
893.358	1.14596
896.251	2.93191
899.144	0.275414
902.037	1.06766
904.929	1.54277
907.822	1.89327
910.715	2.83054
913.607	1.28199
916.5	3.02427
919.393	1.43245
922.285	5.28372
925.178	2.24073
928.071	2.45694
930.964	3.76919
933.856	1.0252
936.749	2.68677
939.642	3.26261
942.534	5.52452
945.427	1.26215
948.32	2.58647
951.212	1.74094
954.105	2.35663
956.998	1.24841
959.891	0.736822
962.783	2.77343
965.676	1.35209
968.569	5.72813
971.461	3.53188
974.354	4.91051
977.247	2.33449
980.139	1.53425
983.032	4.21862
985.925	4.59051
988.818	3.53645
991.71	2.63408
994.603	6.40544
997.496	4.88414
1000.39	3.46492
1003.28	6.24105
1006.17	5.72764
1009.07	3.66261
1011.96	4.60647
1014.85	4.04628
1017.75	3.77457
1020.64	5.03338
1023.53	5.71906
1026.42	2.65289
1029.32	2.80265
1032.21	0.676115
1035.1	0.979475
1037.99	3.94874
1040.89	6.29263
1043.78	5.17226
1046.67	1.62107
1049.56	5.72344
1052.46	6.63902
1055.35	1.01512
1058.24	4.0768
1061.13	3.80494
1064.03	4.74223
1066.92	7.59553
1069.81	3.93341
1072.71	4.36678
1075.6	5.82679
1078.49	2.81686
1081.38	3.36079
1084.28	3.1547
1087.17	1.07851
1090.06	3.72609
1092.95	4.78695
1095.85	3.14823
1098.74	4.29025
1101.63	4.13014
1104.53	5.31793
1107.42	2.6615
1110.31	4.3026
1113.2	5.95427
1116.1	3.84572
1118.99	2.54499
1121.88	2.62858
1124.78	3.01665
1127.67	2.13793
1130.56	3.49303
1133.45	2.34172
1136.35	1.17335
1139.24	0.102802
1142.13	3.31908
1145.02	0.315533
1147.92	0.825737
1150.81	2.91982
1153.7	1.90234
1156.59	0.77475
1159.49	2.52089
1162.38	0.091324
1165.27	2.41782
1168.16	6.78137
1171.06	3.99806
1173.95	3.61067
1176.84	4.9484
1179.74	9.0461
1182.63	3.49075
1185.52	4.72029
1188.41	6.45721
1191.31	6.85317
1194.2	7.36504
1197.09	8.06353
1199.98	1.9141
1202.88	4.11835
1205.77	4.57379
1208.66	5.29729
1211.56	6.97725
1214.45	4.80968
1217.34	5.00765
1220.23	1.45909
1223.13	2.62405
1226.02	4.52322
1228.91	3.60025
1231.81	4.07968
1234.7	3.9758
1237.59	3.24159
1240.48	0.905941
1243.38	1.13829
1246.27	2.12149
1249.16	2.75544
1252.05	2.90403
1254.95	2.01801
1257.84	0.311211
1260.73	0.40913
1263.62	3.16786
1266.52	1.78025
1269.41	1.25493
1272.3	1.61002
1275.19	2.05758
1278.09	1.46019
1280.98	2.63192
1283.87	1.93129
1286.77	0.797291
1289.66	2.99793
1292.55	3.33256
1295.44	2.62079
1298.34	1.96185
1301.23	3.56434
