Measurement: Raman, 532 nm, unoriented, Raman Data Processed
Mineral: Chalcanthite
Rruff sample: R050293
Ideal chemistry: CuSO_4_5H_2_O
Locality: 79 mine, 4th level, Hayden, Gila County, Arizona, USA
Source: George Godas, John Callahan
Description: Blue fibrous crust
Measured chemistry: Cu_1.00_S_1.00_O_4_Â·5H_2_O
Raman shift (cm-1)	intensity
128.994	0
132.369	27.6039
135.744	41.5182
139.119	33.2401
142.494	24.3513
145.869	17.9983
149.243	21.4659
152.618	20.8618
155.993	15.3342
159.368	3.66937
162.743	1.11597
166.117	0.313751
169.492	1.80337
172.867	1.5578
176.242	0.289856
179.617	4.16339
182.992	6.96246
186.366	15.3666
189.741	21.8737
193.116	31.6642
196.491	42.9882
199.865	49.4287
203.24	49.0354
206.615	52.0177
209.99	55.069
213.365	50.4128
216.74	48.42
220.114	42.1886
223.489	44.1383
226.864	46.6713
230.239	56.165
233.614	74.812
236.988	101.707
240.363	125.828
243.738	149.323
247.113	169.4
250.488	166.14
253.863	151.542
257.237	139.779
260.612	127.487
263.987	113.15
267.362	105.534
270.737	101.171
274.111	98.7119
277.486	94.8738
280.861	81.2714
284.236	61.0264
287.611	39.9763
290.986	23.9563
294.36	10.3049
297.735	4.05566
301.11	1.75284
304.485	0.835052
307.86	2.51318
311.235	0.497559
314.609	2.89868
317.984	5.55658
321.359	12.1224
324.734	14.9428
328.109	18.4333
331.483	17.7114
334.858	13.1245
338.233	8.80444
341.608	3.09851
344.983	1.36645
348.358	0.250336
351.732	0.889618
355.107	3.64362
358.482	3.43359
361.857	8.0867
365.231	8.60727
368.606	3.91864
371.981	1.07352
375.356	1.86212
378.731	1.68729
382.106	1.21573
385.48	1.74332
388.855	0.619049
392.23	4.29266
395.605	12.0979
398.98	21.5069
402.354	38.6554
405.729	56.2372
409.104	79.01
412.479	104.541
415.854	139.056
419.229	167.707
422.603	195.02
425.978	211.268
429.353	221.833
432.728	229.001
436.103	239.049
439.478	247.916
442.852	257.092
446.227	264.214
449.602	264.387
452.977	270.088
456.352	276.154
459.726	281.464
463.101	285.457
466.476	286.647
469.851	268.967
473.226	219.82
476.601	172.891
479.975	131.275
483.35	98.8487
486.725	67.3844
490.1	48.3892
493.475	31.5018
496.849	22.1366
500.224	16.0476
503.599	9.74332
506.974	5.18161
510.349	2.80099
513.723	2.6727
517.098	0.370361
520.473	0.057678
523.848	2.81113
527.223	2.20175
530.598	2.34119
533.972	0.486603
537.347	1.36014
540.722	0.1875
544.097	0.488525
547.472	1.68674
550.846	6.95428
554.221	5.54221
557.596	8.76263
560.971	12.659
564.346	16.3461
567.721	20.8917
571.095	25.6324
574.47	32.4444
577.845	41.576
581.22	52.5758
584.595	61.2739
587.969	71.4394
591.344	77.6355
594.719	90.1957
598.094	105.382
601.469	124.284
604.843	139.906
608.218	145.961
611.593	145.656
614.968	125.908
618.343	104.175
621.718	78.3165
625.092	57.4843
628.467	48.3399
631.842	38.3183
635.217	33.6096
638.592	29.425
641.966	21.8584
645.341	14.6829
648.716	9.12646
652.091	4.89542
655.466	2.19199
658.841	1.68256
662.215	1.11026
665.59	0.671173
668.965	0.158905
672.34	2.44711
675.715	0.862549
679.09	0.409363
682.464	1.05145
685.839	1.54862
689.214	0.881775
692.589	2.14868
695.964	2.4957
699.338	5.83423
702.713	5.74676
706.088	6.54596
709.463	6.35577
712.838	7.35403
716.212	8.90561
719.587	8.34607
722.962	7.68207
726.337	6.91183
729.712	9.19623
733.087	5.60922
736.461	5.32523
739.836	7.28735
743.211	6.57349
746.586	6.72919
749.961	6.56741
753.335	4.46396
756.71	4.5383
760.085	4.04526
763.46	3.77799
766.835	3.93713
770.21	3.56436
773.584	0.13736
776.959	0.755859
780.334	0.351715
783.709	1.28827
787.084	0.062988
790.458	0.704834
793.833	0.038757
797.208	0.788422
800.583	1.49921
803.958	0.554688
807.332	1.68359
810.707	2.56146
814.082	1.56409
817.457	2.26492
820.832	3.98959
824.207	4.04245
827.581	4.29126
830.956	5.83835
834.331	4.64139
837.706	8.13937
841.081	7.77441
844.456	7.40778
847.83	6.62482
851.205	8.93945
854.58	8.98291
857.955	8.83881
861.33	9.08206
864.704	13.6363
868.079	15.1014
871.454	14.8553
874.829	14.3796
878.204	14.7668
881.578	12.228
884.953	12.1277
888.328	10.4934
891.703	10.6388
895.078	5.68744
898.453	4.33087
901.827	4.07632
905.202	2.54254
908.577	0.315216
911.952	0.080658
915.327	0.353455
918.702	1.15216
922.076	1.33051
925.451	1.51459
928.826	0.837738
932.201	0.828491
935.576	0.942932
938.95	0.548615
942.325	2.21726
945.7	2.32153
949.075	7.41107
952.45	14.2329
955.824	20.924
959.199	36.7762
962.574	60.0656
965.949	112.558
969.324	268.957
972.698	523.547
976.073	793.356
979.448	1464.79
982.823	2436.79
986.198	1146.69
989.573	352.573
992.947	212.499
996.322	241.801
999.697	317.21
1003.07	462.44
1006.45	715.954
1009.82	626.101
1013.2	240.615
1016.57	94.5187
1019.95	45.672
1023.32	19.8153
1026.7	9.68567
1030.07	3.63342
1033.44	1.75644
1036.82	1.12552
1040.19	1.36383
1043.57	1.49045
1046.94	0.817474
1050.32	6.36319
1053.69	8.82303
1057.07	13.5814
1060.44	16.9408
1063.82	12.5136
1067.19	11.4032
1070.57	9.63434
1073.94	7.65323
1077.32	12.3763
1080.69	12.8508
1084.07	20.7771
1087.44	30.5256
1090.82	39.4644
1094.19	48.6925
1097.57	45.7305
1100.94	43.6531
1104.32	41.5043
1107.69	41.2785
1111.07	45.4508
1114.44	61.672
1117.82	72.7836
1121.19	87.8796
1124.57	92.1468
1127.94	81.1721
1131.32	70.7229
1134.69	56.3647
1138.07	53.8886
1141.44	49.5541
1144.81	45.2708
1148.19	31.2322
1151.56	19.5474
1154.94	13.3351
1158.31	9.34122
1161.69	4.66251
1165.06	3.19327
1168.44	2.14252
1171.81	3.32272
1175.19	0.904877
1178.56	1.49365
1181.94	0.678833
1185.31	0.51532
1188.69	0.529449
1192.06	1.62424
1195.44	2.17929
1198.81	0.134644
1202.19	0.712372
1205.56	0.773193
1208.94	1.62237
1212.31	2.3934
1215.68	4.9874
1219.06	1.46127
1222.43	3.45966
1225.81	2.98395
1229.18	3.95386
1232.56	6.30029
1235.93	5.22092
1239.31	3.71667
1242.68	2.5068
1246.06	3.77035
1249.43	2.95999
1252.81	3.10458
1256.18	2.17667
1259.56	3.26346
1262.93	2.50363
1266.31	2.0968
1269.68	2.70416
1273.06	4.13046
1276.43	0.359039
1279.81	1.35849
1283.18	3.8858
1286.56	3.1654
1289.93	2.0033
1293.31	2.7157
1296.68	1.30676
1300.06	3.19089
1303.43	1.26199
