Measurement: Raman, 785 nm, unoriented, Raman Data Processed
Mineral: Chalcoalumite
Rruff sample: R060752
Ideal chemistry: CuAl_4_SO_4_(OH)_12_3H_2_O
Locality: Bisbee, Arizona, USA
Source: Bob Jenkins
Description: Pale green aggregate
Raman shift (cm-1)	intensity
132.616	0
135.509	143.462
138.402	117.545
141.294	254.188
144.187	671.282
147.08	1109.66
149.973	1159.67
152.865	871.449
155.758	741.181
158.651	570.919
161.543	700.034
164.436	687.25
167.329	789.344
170.221	973.004
173.114	848.231
176.007	790.99
178.9	627.985
181.792	321.441
184.685	335.373
187.578	90.1052
190.47	149.028
193.363	13.5933
196.256	144.469
199.149	87.7188
202.041	93.7541
204.934	88.846
207.827	3.56274
210.719	19.1826
213.612	15.0659
216.505	26.9258
219.397	87.928
222.29	257.736
225.183	353.429
228.076	468.466
230.968	868.598
233.861	1361.85
236.754	1839.32
239.646	2319.38
242.539	1913
245.432	1464.36
248.324	1272.29
251.217	1419.15
254.11	1514.38
257.002	1211.93
259.895	826.965
262.788	591.176
265.681	301.315
268.573	183.593
271.466	61.4998
274.359	71.3665
277.251	6.67651
280.144	32.4497
283.037	229.05
285.93	248.944
288.822	351.031
291.715	423.218
294.608	896.857
297.5	1311.88
300.393	2005.62
303.286	2740.91
306.178	3261.34
309.071	3633.76
311.964	4334.19
314.856	5556.73
317.749	6569.07
320.642	6034.41
323.535	3747.43
326.427	1958.59
329.32	953.338
332.213	452.53
335.105	219.97
337.998	96.5723
340.891	4.8125
343.784	94.8743
346.676	23.2173
349.569	164.209
352.462	119.139
355.354	263.36
358.247	345.039
361.14	598.948
364.032	1082.81
366.925	1466.38
369.818	1774.91
372.711	2232.37
375.603	2433.17
378.496	2478.57
381.389	2336.22
384.281	1906.33
387.174	1727.27
390.067	1578
392.959	1514.11
395.852	1564.2
398.745	1074.5
401.637	738.525
404.53	684.473
407.423	674.487
410.316	887.084
413.208	1307.72
416.101	1035.81
418.994	1107.5
421.886	1224.51
424.779	1374.97
427.672	1432.4
430.565	1392.89
433.457	1073.83
436.35	803.897
439.243	851.088
442.135	672.09
445.028	485.338
447.921	394.469
450.813	275.295
453.706	118.683
456.599	35.3069
459.492	14.2607
462.384	61.6816
465.277	21.5349
468.17	10.5547
471.062	108.117
473.955	75.8201
476.848	88.022
479.74	26.1111
482.633	124.972
485.526	203.552
488.419	346.673
491.311	548.189
494.204	829.879
497.097	1049.46
499.989	1388.95
502.882	1593.75
505.775	1795.76
508.668	1687.51
511.56	1824.82
514.453	1813.28
517.346	2249.02
520.238	2323.31
523.131	2682.48
526.024	3183.7
528.916	3960.81
531.809	5153
534.702	6072.86
537.595	6749.71
540.487	7014.53
543.38	6928.34
546.273	6515.37
549.165	6069
552.058	6039.84
554.951	5977.26
557.843	6275.17
560.736	6427.16
563.629	6591.93
566.521	6181.35
569.414	5353.76
572.307	4504.44
575.2	3515.4
578.092	2541.89
580.985	2080.76
583.878	1568.6
586.77	1265.08
589.663	1154.43
592.556	1002.45
595.448	824.521
598.341	847.079
601.234	914.872
604.127	682.626
607.019	555.254
609.912	512.369
612.805	335.796
615.697	360.946
618.59	281.69
621.483	91.1804
624.375	197.463
627.268	194.079
630.161	194.073
633.054	59.2217
635.946	202.36
638.839	146.638
641.732	33.5459
644.624	0.592773
647.517	114.155
650.41	148.52
653.303	101.884
656.195	30.6113
659.088	82.3223
661.981	37.1821
664.873	164.164
667.766	72.4187
670.659	233.283
673.551	231.929
676.444	237.67
679.337	169.275
682.23	303.478
685.122	342.3
688.015	333.044
690.908	353.508
693.8	635.171
696.693	568.929
699.586	632.555
702.478	745.113
705.371	427.518
708.264	627.104
711.157	677.621
714.049	477.496
716.942	490.75
719.835	573.138
722.727	322.473
725.62	201.323
728.513	393.959
731.405	246.199
734.298	290.538
737.191	172.425
740.083	136.613
742.976	56.8875
745.869	123.017
748.762	298.585
751.654	143.176
754.547	385.692
757.44	60.4683
760.332	322.837
763.225	115.68
766.118	436.431
769.01	14.0735
771.903	138.925
774.796	21.3772
777.689	10.4824
780.581	1.23731
783.474	231.241
786.367	298.508
789.259	250.358
792.152	79.3415
795.045	295.861
797.938	150.017
800.83	148.939
803.723	142.746
806.616	244.157
809.508	237.06
812.401	430.803
815.294	515.025
818.186	445.459
821.079	446.825
823.972	406.005
826.865	546.93
829.757	414.29
832.65	440.668
835.543	282.085
838.435	333.401
841.328	224.492
844.221	88.9072
847.114	161.303
850.006	146.087
852.899	76.2007
855.792	68.0764
858.684	68.959
861.577	48.1028
864.47	0.955566
867.362	100.463
870.255	244.034
873.148	385.037
876.04	563.472
878.933	713.907
881.826	1098.2
884.719	1103.52
887.611	1355.93
890.504	1438.35
893.397	1359.09
896.289	1223.05
899.182	928.046
902.075	944.523
904.967	755.742
907.86	736.985
910.753	537.635
913.646	553.995
916.538	422.357
919.431	372.101
922.324	149.149
925.216	308.014
928.109	10.8406
931.002	100.848
933.894	98.604
936.787	120.086
939.68	21.6025
942.573	18.8096
945.465	172.673
948.358	37.8369
951.251	148.767
954.143	204.451
957.036	322.436
959.929	361.015
962.822	479.596
965.714	654.079
968.607	846.538
971.5	965.339
974.392	1173.27
977.285	1518.44
980.178	1785.33
983.07	1735.63
985.963	1582.91
988.856	920.492
991.749	554
994.641	284.497
997.534	465.844
1000.43	220.48
1003.32	203.636
1006.21	332.279
1009.11	377.274
1012	405.044
1014.89	422.883
1017.78	422.583
1020.67	460.119
1023.57	383.845
1026.46	146.675
1029.35	49.7214
1032.25	321.531
1035.14	206.188
1038.03	135.457
1040.92	19.7434
1043.82	212.799
1046.71	79.5774
1049.6	89.3955
1052.49	152.09
1055.39	182.665
1058.28	208.721
1061.17	38.6519
1064.07	106.684
1066.96	243.691
1069.85	177.884
1072.74	242.55
1075.64	139.44
1078.53	66.8694
1081.42	4.71802
1084.32	61.9111
1087.21	186.299
1090.1	159.754
1092.99	204.169
1095.89	302.154
1098.78	84.9299
1101.67	229.659
1104.56	342.714
1107.46	118.083
1110.35	220.05
1113.24	256.904
1116.13	189.061
1119.03	139.411
1121.92	123.28
1124.81	83.1758
1127.7	181.379
1130.6	151.003
1133.49	161.61
1136.38	57.7433
1139.28	419.993
1142.17	214.787
1145.06	371.899
1147.95	236.13
1150.85	311.864
1153.74	70.6232
1156.63	172.088
1159.53	54.8187
1162.42	36.9205
1165.31	223.28
1168.2	218.525
1171.1	6.82849
1173.99	69.4233
1176.88	153.572
1179.77	184.131
1182.67	183.054
1185.56	192.87
1188.45	229.495
1191.35	54.0853
1194.24	90.6987
1197.13	13.9791
1200.02	267.235
1202.92	80.0055
1205.81	160.711
1208.7	33.9979
1211.59	234.494
1214.49	226.57
1217.38	173.125
1220.27	143.708
1223.16	69.6139
1226.06	168.969
1228.95	65.8777
1231.84	28.2247
1234.73	154.837
1237.63	10.5253
1240.52	28.449
1243.41	150.332
1246.31	104.294
1249.2	143.543
1252.09	128.983
1254.98	60.8102
1257.88	50.6868
1260.77	12.2695
