Measurement: Raman, 532 nm, unoriented, Raman Data Processed
Mineral: Chalcomenite
Rruff sample: R100123
Ideal chemistry: CuSe^4+^O_3_2H_2_O
Locality: Baccu Locci mine, Villaputen, Sardinia
Source: William W. Pinch
Description: Blue tabular crystals associated with colorless bladed orlandiite, R100122, and colorless anglesite.
Raman shift (cm-1)	intensity
127.194	0
130.569	4.07311
133.944	3.63745
137.318	1.00377
140.693	3.19814
144.068	16.4553
147.443	24.6366
150.818	27.2127
154.192	36.1588
157.567	40.7614
160.942	38.5708
164.317	45.7384
167.692	63.1212
171.067	81.9333
174.441	90.0179
177.816	109.916
181.191	130.959
184.566	157.285
187.941	135.384
191.315	79.5436
194.69	76.2593
198.065	86.7091
201.44	88.6288
204.815	77.8159
208.19	66.5866
211.565	68.6068
214.939	76.0322
218.314	92.3134
221.689	75.1686
225.064	53.6253
228.439	39.8844
231.813	36.8599
235.188	40.755
238.563	46.1469
241.938	44.7102
245.313	49.4596
248.688	55.262
252.062	59.0721
255.437	72.1412
258.812	81.8132
262.187	69.2947
265.562	49.1456
268.936	41.8363
272.311	40.0335
275.686	43.8449
279.061	48.8974
282.436	57.753
285.81	64.4212
289.185	61.6268
292.56	40.2206
295.935	17.1527
299.31	6.76597
302.685	1.52595
306.059	2.60038
309.434	1.50687
312.809	1.44713
316.184	1.32446
319.559	1.63506
322.933	0.87114
326.308	0.017288
329.683	0.11039
333.058	2.07045
336.433	6.47028
339.808	8.41778
343.183	9.87409
346.557	14.113
349.932	17.9542
353.307	20.5714
356.682	20.496
360.057	22.3569
363.431	22.8194
366.806	22.9528
370.181	27.5453
373.556	32.3855
376.931	36.9391
380.305	37.3464
383.68	28.9822
387.055	21.98
390.43	16.8357
393.805	17.7812
397.18	17.3148
400.554	14.5957
403.929	12.1893
407.304	9.914
410.679	4.86168
414.054	0.782166
417.428	2.11589
420.803	4.13533
424.178	3.23441
427.553	3.44316
430.928	1.68422
434.303	5.56216
437.677	7.20424
441.052	5.1624
444.427	0.067505
447.802	0.776245
451.177	0.989319
454.551	2.382
457.926	3.74185
461.301	1.14871
464.676	0.931625
468.051	4.59225
471.426	10.0092
474.8	11.034
478.175	14.377
481.55	19.4155
484.925	19.2805
488.3	19.4485
491.675	14.5766
495.049	10.8416
498.424	9.66299
501.799	7.05647
505.174	10.1781
508.549	14.7251
511.923	24.0013
515.298	36.7135
518.673	50.1694
522.048	66.8493
525.423	89.9967
528.798	117.751
532.172	153.895
535.547	194.522
538.922	240.872
542.297	285.302
545.672	329.7
549.047	363.243
552.421	375.601
555.796	357.722
559.171	309.26
562.546	248.543
565.921	187.882
569.295	138.312
572.67	97.5797
576.045	74.1816
579.42	53.6052
582.795	37.737
586.17	29.1778
589.544	23.9677
592.919	18.3218
596.294	15.5526
599.669	13.4903
603.044	12.4939
606.418	7.88481
609.793	5.20998
613.168	4.47501
616.543	3.28072
619.918	3.94647
623.293	2.18636
626.667	0.86908
630.042	0.149963
633.417	1.19153
636.792	1.68187
640.167	1.45163
643.542	0.674911
646.916	2.66443
650.291	1.1344
653.666	1.00972
657.041	0.978943
660.416	2.95949
663.79	8.32658
667.165	10.4443
670.54	19.2275
673.915	22.0355
677.29	31.9528
680.664	38.4595
684.039	43.4606
687.414	41.8985
690.789	42.4985
694.164	38.4635
697.539	37.8889
700.913	37.5671
704.288	39.03
707.663	36.3569
711.038	35.2613
714.413	36.9478
717.788	44.3915
721.162	51.5135
724.537	64.3554
727.912	76.2193
731.287	90.2757
734.662	101.996
738.036	113.434
741.411	125.518
744.786	126.227
748.161	106.551
751.536	76.3229
754.91	48.3644
758.285	27.5895
761.66	14.4853
765.035	2.024
768.41	0.434723
771.785	2.72113
775.159	0.268051
778.534	7.28003
781.909	19.7243
785.284	35.0637
788.659	58.2564
792.034	97.5025
795.408	152.094
798.783	235.069
802.158	358.152
805.533	508.285
808.908	676.121
812.283	776.072
815.657	730.519
819.032	539.662
822.407	358.02
825.782	235.197
829.157	152.956
832.531	101.633
835.906	64.4189
839.281	42.7975
842.656	25.9396
846.031	17.7089
849.405	9.56331
852.78	5.59526
856.155	3.54817
859.53	0.54834
862.905	0.411774
866.28	1.48843
869.654	0.078888
873.029	0.150177
876.404	0.726303
879.779	0.171616
883.154	0.386856
886.529	2.19714
889.903	2.8938
893.278	4.79071
896.653	5.03616
900.028	8.24892
903.403	9.565
906.778	10.6477
910.152	11.4352
913.527	10.32
916.902	14.2063
920.277	15.3742
923.652	13.1292
927.026	14.779
930.401	12.1587
933.776	11.1202
937.151	7.45435
940.526	7.63985
943.9	4.75751
947.275	3.1955
950.65	2.56901
954.025	3.64906
957.4	4.13109
960.775	5.93007
964.149	7.80848
967.524	14.0525
970.899	19.95
974.274	28.094
977.649	36.2045
981.024	24.4968
984.398	8.86443
987.773	4.8339
991.148	3.57084
994.523	2.76814
997.898	1.38565
1001.27	2.38738
1004.65	0.034302
1008.02	1.89106
1011.4	3.4618
1014.77	0.286423
1018.15	0.536575
1021.52	1.36262
1024.9	2.03932
1028.27	0.176743
1031.65	0.306908
1035.02	3.18404
1038.4	2.91766
1041.77	1.9729
1045.14	1.1749
1048.52	2.8129
1051.89	1.78597
1055.27	2.8687
1058.64	0.742844
1062.02	0.140114
1065.39	0.695648
1068.77	2.05593
1072.14	2.65162
1075.52	3.94536
1078.89	1.09418
1082.27	0.495575
1085.64	2.30384
1089.02	0.841972
1092.39	0.446754
1095.77	1.08367
1099.14	1.21858
1102.52	3.47758
1105.89	1.32784
1109.27	1.36091
1112.64	2.74377
1116.02	1.69903
1119.39	3.74196
1122.77	1.20926
1126.14	2.3654
1129.52	2.09656
1132.89	2.14616
1136.27	1.2649
1139.64	1.96703
1143.02	1.65658
1146.39	1.84357
1149.77	0.543098
1153.14	2.49687
1156.51	2.46845
1159.89	2.57507
1163.26	1.77202
1166.64	2.92681
1170.01	0.094887
1173.39	1.68426
1176.76	1.67678
1180.14	3.11487
1183.51	0.590279
1186.89	1.2626
1190.26	3.14635
1193.64	0.356621
1197.01	1.65024
1200.39	0.478661
1203.76	0.924698
1207.14	1.9133
1210.51	0.304932
1213.89	0.62101
1217.26	0.205154
1220.64	2.09479
1224.01	1.83382
1227.38	2.5387
1230.76	1.25861
1234.13	2.91621
1237.51	1.90846
1240.88	3.61515
1244.26	0.113266
1247.63	0.78186
1251.01	2.44539
1254.38	1.28835
1257.76	2.05883
1261.13	3.72566
1264.51	2.66711
1267.88	1.82034
1271.26	1.52435
1274.63	2.90747
1278.01	1.36734
1281.38	0.426971
1284.76	0.531807
1288.13	2.16733
1291.51	0.397095
1294.88	3.30718
1298.26	0.35482
1301.63	0.656929
