Measurement: Raman, 514 nm, unoriented, Raman Data Processed
Mineral: Chalcanthite
Rruff sample: R050354
Ideal chemistry: CuSO_4_5H_2_O
Locality: Utah, USA
Source: California Institute of Technology
Description: Group of blue parallel prismatic crystals
Measured chemistry: Cu_1.00_S_1.00_O_4_Â·5H_2_O
Raman shift (cm-1)	intensity
52.866	0
57.065	28.474
61.262	8.859
65.458	5.047
69.651	29.747
73.842	288.844
78.031	852.1
82.218	1252.04
86.404	921.636
90.587	881.176
94.768	1060.33
98.947	1003.7
103.124	794.774
107.3	754.259
111.473	791.961
115.644	937.745
119.813	1229.51
123.981	1523.17
128.146	1534.81
132.309	1448.22
136.47	1399.51
140.63	1164.84
144.787	1039.16
148.942	985.649
153.096	863.405
157.247	737.471
161.396	622.875
165.544	553.628
169.689	630.736
173.833	716.199
177.974	879.011
182.114	1073.17
186.251	1246.65
190.387	1497.47
194.52	1854.61
198.652	1929.17
202.782	1966.4
206.909	1796.12
211.035	1561.61
215.159	1319.27
219.281	1135.9
223.4	930.528
227.518	880.381
231.634	922.836
235.748	1099.2
239.86	1303.87
243.97	1457.85
248.079	1429.95
252.185	1346.5
256.289	1362.45
260.391	1270.75
264.492	1222.39
268.59	1254.32
272.687	1423.54
276.781	1714.03
280.874	1759.76
284.964	1391.73
289.053	935.934
293.14	551.346
297.225	345.952
301.308	204.735
305.389	132.693
309.468	68.828
313.545	3.141
317.62	33.629
321.693	73.29
325.765	88.121
329.834	93.118
333.902	66.28
337.967	93.603
342.031	3.917
346.093	12.298
350.153	53.561
354.21	51.75
358.267	9.88
362.321	10.865
366.373	28.127
370.423	18.606
374.471	9.886
378.518	5.611
382.563	71.182
386.605	78.754
390.646	128.036
394.685	208.386
398.722	265.759
402.757	406.84
406.79	572.07
410.821	864.443
414.851	1160.95
418.878	1620.59
422.904	1954.36
426.927	1997.24
430.949	1968.25
434.969	2223.37
438.987	2456.61
443.003	2718.96
447.018	3238.42
451.03	3610.98
455.041	3953.67
459.049	3779.47
463.056	3460.39
467.061	3193.44
471.064	2776.63
475.065	1984.96
479.064	1396.4
483.062	950.971
487.057	612.688
491.051	436.555
495.043	295.665
499.032	230.809
503.02	170.934
507.007	171.561
510.991	123.281
514.973	74.166
518.954	32.419
522.933	40.425
526.91	16.583
530.885	15.167
534.858	10
538.829	0.742
542.799	30.153
546.766	7.63
550.732	8.13
554.696	10.332
558.658	31.806
562.618	38.303
566.576	56.825
570.533	79.367
574.488	163.926
578.44	157.5
582.391	244.087
586.341	286.683
590.288	419.422
594.233	617.918
598.177	732.809
602.119	983.29
606.059	1285.27
609.997	1515.86
613.933	1517.76
617.868	1221.7
621.801	862.804
625.731	566.225
629.66	350.303
633.588	248.782
637.513	184.782
641.437	170.695
645.358	105.217
649.278	95.362
653.196	65.371
657.113	56.395
661.027	69.297
664.94	78.401
668.851	47.849
672.76	87.084
676.667	51.489
680.572	95.5
684.476	93.201
688.378	60.926
692.278	74.428
696.176	104.403
700.072	120.984
703.967	95.683
707.86	124.569
711.751	80.335
715.64	113.564
719.527	122.777
723.413	89.983
727.297	90.16
731.179	92.897
735.059	102.053
738.937	57.138
742.814	45.151
746.689	30.091
750.562	30.937
754.433	14.7
758.303	29.37
762.17	26.953
766.036	14.549
769.901	6.809
773.763	2.948
777.624	11.851
781.482	5.084
785.339	12.168
789.195	5.41
793.048	3.848
796.9	13.917
800.75	31.893
804.598	30.121
808.445	10.403
812.289	2.226
816.132	19.073
819.973	1.063
823.813	55.848
827.65	12.558
831.486	47.384
835.32	66.327
839.152	55.227
842.983	36.096
846.812	73.945
850.639	113.775
854.464	67.593
858.288	99.424
862.11	108.246
865.93	133.061
869.748	138.849
873.564	152.606
877.379	190.334
881.192	185.037
885.004	143.716
888.813	161.373
892.621	118.011
896.427	103.633
900.232	82.982
904.034	138.725
907.835	86.802
911.634	89.782
915.432	110
919.227	89.089
923.021	94.529
926.813	121.276
930.604	122.306
934.393	95.627
938.18	172.72
941.965	169.462
945.749	149.59
949.53	215.785
953.311	331.321
957.089	437.474
960.866	670.802
964.641	999.596
968.414	1595.29
972.185	2392.18
975.955	5288.2
979.723	17942.2
983.49	55179.3
987.254	21059.6
991.017	5724.05
994.779	2366.54
998.538	1277.12
1002.3	774.839
1006.05	550.66
1009.81	416.562
1013.56	315.534
1017.31	297.604
1021.06	223.759
1024.81	201.991
1028.55	180.307
1032.3	150.717
1036.04	178.206
1039.78	203.804
1043.52	261.555
1047.26	298.401
1050.99	373.408
1054.73	391.648
1058.46	452.06
1062.19	412.757
1065.92	323.225
1069.65	241.49
1073.37	254.85
1077.1	280.335
1080.82	278.9
1084.54	356.621
1088.26	487.436
1091.97	603.357
1095.69	761.39
1099.4	710.118
1103.12	605.459
1106.83	360.263
1110.54	301.632
1114.24	229.635
1117.95	186.128
1121.65	239.236
1125.35	279.113
1129.06	353.218
1132.75	511.688
1136.45	758.826
1140.15	1026.08
1143.84	1252.56
1147.53	1102.31
1151.22	866.96
1154.91	572.262
1158.6	353.589
1162.28	235.129
1165.97	170.333
1169.65	144.717
1173.33	112.169
1177.01	51.01
1180.69	20.905
1184.36	56.059
1188.04	19.682
1191.71	36.994
1195.38	15.251
1199.05	12.717
1202.71	35.11
1206.38	5.721
1210.04	30.124
1213.71	12.492
1217.37	6.784
1221.03	9.062
1224.68	5.554
1228.34	5.125
1231.99	46.381
1235.65	59.75
1239.3	19.971
1242.95	36.664
1246.59	18.432
1250.24	5.322
1253.88	28.135
1257.53	3.181
1261.17	33.178
1264.81	6.8
1268.45	0.821
1272.08	19.458
1275.72	7.046
1279.35	3.447
1282.98	7.664
1286.61	7.853
1290.24	15.033
1293.87	8.1
1297.49	31.771
1301.11	39.31
1304.73	8.894
1308.36	1.385
1311.97	14.214
1315.59	45.062
1319.2	6.712
1322.82	0.385
1326.43	52.323
1330.04	1.852
1333.65	11.16
1337.26	19.438
1340.86	58.569
1344.47	18.919
1348.07	62.196
1351.67	50.042
1355.27	57.599
1358.87	79.413
1362.46	82.949
1366.06	49.429
1369.65	31.409
1373.24	67.125
1376.83	52.823
1380.42	78.348
1384	33.448
1387.59	44.711
1391.17	46.081
1394.75	37.455
1398.33	93.543
1401.91	66.534
1405.49	59.861
1409.06	53.244
1412.64	46.701
1416.21	79.375
1419.78	114.427
1423.35	69.439
1426.91	87.532
1430.48	84.626
1434.05	33.184
1437.61	74.964
1441.17	55.999
1444.73	54.324
1448.29	66.163
1451.84	51.526
1455.4	86.899
1458.95	83.948
1462.5	47.385
1466.05	34.047
1469.6	65.6
1473.15	44.284
1476.69	14.089
1480.24	55.066
1483.78	81.423
1487.32	55.74
1490.86	42.813
1494.39	53.992
1497.93	52.311
1501.46	21.165
1505	39.703
1508.53	15.726
1512.06	42.367
1515.59	31.193
1519.11	22.194
1522.64	35.78
1526.16	0
