Measurement: Raman, 532 nm, unoriented, Raman Data Processed
Mineral: Chambersite
Rruff sample: R060425
Ideal chemistry: Mn_3_B_7_O_13_Cl
Locality: Venice Dome, Plaquemines Parish, Louisiana, USA
Source: Michael Scott
Description: Brown pseudotetrahedra
Measured chemistry: (Mn_2.93_Fe^2+^_0.05_Mg_0.02_)_Î£=3_B_7.00_O_13_Cl_1.00_ ; B not measured but estimated by difference and stoichiometry.
Raman shift (cm-1)	intensity
195.655	0
198.547	2.76372
201.44	2.72945
204.333	17.3054
207.225	3.63243
210.118	0.605906
213.011	9.56928
215.904	1.87462
218.796	3.51947
221.689	15.8463
224.582	25.2448
227.474	44.0102
230.367	56.0836
233.26	62.5146
236.152	76.5341
239.045	81.5722
241.938	98.4316
244.831	76.1659
247.723	24.5105
250.616	12.9727
253.509	12.9817
256.401	19.8275
259.294	21.4514
262.187	21.701
265.079	15.6869
267.972	15.8926
270.865	19.2642
273.758	12.9545
276.65	0.141975
279.543	0.487628
282.436	0.696177
285.328	0.504176
288.221	0.67088
291.114	0.386202
294.007	2.34357
296.899	8.49671
299.792	20.0398
302.685	23.8487
305.577	13.4092
308.47	2.72839
311.363	0.417113
314.255	0.117541
317.148	1.13108
320.041	1.61247
322.933	1.53055
325.826	2.56984
328.719	8.13285
331.612	18.4784
334.504	24.3061
337.397	33.4159
340.29	64.375
343.183	90.6949
346.075	111.305
348.968	151.09
351.861	209.246
354.753	264.133
357.646	245.162
360.539	117.23
363.431	71.4737
366.324	56.5341
369.217	35.5633
372.11	20.3285
375.002	9.45271
377.895	10.0581
380.788	10.6847
383.68	12.2028
386.573	15.6067
389.466	17.0415
392.358	16.7039
395.251	21.7896
398.144	31.7578
401.036	43.4948
403.929	31.0691
406.822	19.679
409.715	11.4023
412.607	5.93338
415.5	1.83557
418.393	1.17803
421.285	0.155956
424.178	1.96384
427.071	3.84707
429.964	5.49246
432.856	5.11804
435.749	7.53936
438.642	7.66675
441.534	4.76304
444.427	0.826056
447.32	0.282937
450.212	0.962882
453.105	0.046918
455.998	0.823347
458.891	0.549446
461.783	0.618768
464.676	0.651499
467.569	0.670822
470.461	4.02123
473.354	2.1361
476.247	0.718285
479.139	3.84522
482.032	0.376581
484.925	0.471999
487.818	0.29329
490.71	0.358375
493.603	2.31496
496.496	2.08598
499.388	2.63736
502.281	7.93976
505.174	10.0444
508.067	13.2134
510.959	11.3918
513.852	7.60133
516.745	5.15402
519.637	16.0306
522.53	19.2605
525.423	18.9457
528.316	5.70041
531.208	0.966667
534.101	0.836182
536.994	6.70516
539.886	13.2048
542.779	19.4514
545.672	22.2524
548.564	22.4527
551.457	25.1258
554.35	27.1378
557.242	34.5066
560.135	34.9098
563.028	18.3502
565.921	6.74878
568.813	0.082229
571.706	1.06877
574.599	0.89355
577.491	2.59024
580.384	10.1111
583.277	18.1553
586.17	37.0345
589.062	63.9262
591.955	90.5597
594.848	77.69
597.74	51.9287
600.633	37.4854
603.526	9.33537
606.418	0.806567
609.311	0.610102
612.204	0.733314
615.097	0.965297
617.989	1.13488
620.882	0.693234
623.775	4.02414
626.667	8.06162
629.56	18.6825
632.453	37.5382
635.346	61.3894
638.238	90.0798
641.131	113.739
644.024	148.084
646.916	177.467
649.809	192.073
652.702	224.399
655.594	276.569
658.487	323.285
661.38	279.779
664.273	174.505
667.165	108.703
670.058	72.7382
672.951	43.7157
675.843	23.5977
678.736	13.2043
681.629	11.3492
684.521	10.9417
687.414	14.6174
690.307	17.5122
693.199	20.6861
696.092	25.4261
698.985	26.4701
701.878	29.3687
704.77	27.4333
707.663	21.9934
710.556	20.2339
713.448	23.245
716.341	22.4531
719.234	28.4895
722.127	21.8391
725.019	12.1512
727.912	3.92619
730.805	0.597871
733.697	1.05674
736.59	0.81246
739.483	0.305858
742.375	0.36619
745.268	0.683635
748.161	0.059367
751.054	1.30313
753.946	0.600891
756.839	3.74842
759.732	5.00183
762.625	4.66416
765.517	9.40711
768.41	15.2453
771.303	21.1604
774.195	29.8712
777.088	25.8138
779.981	12.9997
782.873	8.88891
785.766	6.10581
788.659	4.18532
791.552	5.9905
794.444	5.61539
797.337	6.28294
800.23	1.57615
803.122	2.61292
806.015	2.47919
808.908	0.840254
811.8	1.26957
814.693	1.49118
817.586	0.141596
820.479	1.30678
823.371	1.62763
826.264	5.55354
829.157	9.29777
832.049	17.6449
834.942	23.3645
837.835	21.7043
840.727	12.2537
843.62	6.93193
846.513	10.9262
849.405	12.6472
852.298	16.5845
855.191	15.1823
858.084	8.39533
860.976	4.95748
863.869	4.95295
866.762	5.52073
869.654	4.62203
872.547	4.06185
875.44	3.12389
878.333	0.889849
881.225	0.85004
884.118	0.04066
887.011	0.617625
889.903	0.927678
892.796	0.699842
895.689	0.789361
898.582	3.34388
901.474	5.53214
904.367	6.63547
907.26	7.30477
910.152	9.82852
913.045	11.4457
915.938	15.1304
918.83	17.3785
921.723	13.3168
924.616	9.45601
927.509	8.11595
930.401	7.56147
933.294	10.6538
936.187	11.142
939.079	12.7036
941.972	14.3683
944.865	13.0063
947.757	14.1885
950.65	11.8212
953.543	10.3082
956.436	13.1516
959.328	12.669
962.221	15.3076
965.114	15.1683
968.006	11.2334
970.899	7.00453
973.792	4.78066
976.684	2.72046
979.577	2.12265
982.47	0.080328
985.362	0.019931
988.255	0.008706
991.148	0.389032
994.041	0.992689
996.933	0.361494
999.826	0.214279
1002.72	0.307045
1005.61	1.62328
1008.5	2.83241
1011.4	1.9686
1014.29	2.22642
1017.18	6.31458
1020.08	7.73135
1022.97	13.9959
1025.86	18.1227
1028.75	26.2093
1031.65	32.9654
1034.54	36.5553
1037.43	36.7825
1040.32	34.0663
1043.22	36.4318
1046.11	38.4692
1049	41.6542
1051.89	41.5048
1054.79	37.5256
1057.68	27.4564
1060.57	19.2414
1063.47	14.5093
1066.36	9.24227
1069.25	11.231
1072.14	13.0733
1075.04	15.6712
1077.93	15.9336
1080.82	16.2946
1083.71	18.7697
1086.61	15.198
1089.5	14.7351
1092.39	11.6582
1095.29	8.39435
1098.18	4.47924
1101.07	0.372663
1103.96	3.13171
1106.86	0.282503
1109.75	1.08486
1112.64	0.74843
1115.53	4.41529
1118.43	8.06263
1121.32	16.9779
1124.21	25.1955
1127.11	38.1671
1130	43.3106
1132.89	45.1122
1135.78	37.3569
1138.68	23.1116
1141.57	16.7299
1144.46	11.6018
1147.35	7.99851
1150.25	5.53079
1153.14	6.12995
1156.03	3.50186
1158.92	3.5894
1161.82	2.75171
1164.71	0.420161
1167.6	0.069305
1170.5	2.45539
1173.39	0.424511
1176.28	0.466617
1179.17	0.296943
1182.07	0.582737
1184.96	0.622402
1187.85	0.427701
1190.74	1.64482
1193.64	3.31361
1196.53	3.7089
1199.42	6.17461
1202.32	5.51945
1205.21	5.20957
1208.1	4.68676
1210.99	2.98241
1213.89	1.40019
1216.78	0.277155
1219.67	0.358523
1222.56	0.692919
1225.46	0.261938
1228.35	0.239834
1231.24	0.117983
1234.13	0.202494
1237.03	0.58458
1239.92	0.4176
1242.81	1.88033
1245.71	1.372
1248.6	0.33784
1251.49	3.23968
1254.38	3.20816
1257.28	2.50516
1260.17	1.7648
1263.06	1.42758
1265.95	3.45486
1268.85	1.97978
1271.74	2.50039
1274.63	1.9275
1277.53	0.278788
1280.42	0.766586
1283.31	2.32839
1286.2	1.83987
1289.1	1.89125
1291.99	0.884574
1294.88	0.97864
1297.78	0.024241
1300.67	1.39767
