Measurement: Raman, 780 nm, unoriented, Raman Data Processed
Mineral: Chambersite
Rruff sample: R060425
Ideal chemistry: Mn_3_B_7_O_13_Cl
Locality: Venice Dome, Plaquemines Parish, Louisiana, USA
Source: Michael Scott
Description: Brown pseudotetrahedra
Measured chemistry: (Mn_2.93_Fe^2+^_0.05_Mg_0.02_)_Î£=3_B_7.00_O_13_Cl_1.00_ ; B not measured but estimated by difference and stoichiometry.
Raman shift (cm-1)	intensity
185.1	0
187.993	7.59405
190.886	4.9689
193.778	10.3939
196.671	3.03351
199.564	4.90057
202.457	14.7856
205.349	3.29719
208.242	0.303421
211.135	11.0523
214.027	3.65793
216.92	6.02658
219.813	15.2976
222.705	21.9336
225.598	30.3575
228.491	33.8796
231.383	37.7567
234.276	43.3184
237.169	50.0164
240.061	70.7076
242.954	41.2586
245.847	12.3693
248.74	3.5117
251.632	7.35603
254.525	9.16115
257.418	6.39243
260.31	6.85031
263.203	3.57623
266.096	11.5541
268.988	14.5889
271.881	5.78622
274.774	1.94531
277.667	0.830582
280.559	7.35881
283.452	4.1196
286.345	2.2494
289.237	4.38162
292.13	5.34248
295.023	11.4669
297.916	20.8173
300.808	19.0931
303.701	12.4566
306.594	3.35527
309.486	1.23418
312.379	0.143959
315.272	0.274567
318.164	0.904694
321.057	5.42658
323.95	9.09087
326.842	13.7406
329.735	27.3638
332.628	42.3371
335.521	60.341
338.413	96.4526
341.306	101.847
344.199	98.7718
347.091	114.195
349.984	135.874
352.877	180.155
355.769	160.644
358.662	80.0087
361.555	55.0972
364.447	41.892
367.34	31.0614
370.233	17.6702
373.126	8.83965
376.018	6.41097
378.911	10.0517
381.804	12.7813
384.696	16.3677
387.589	17.372
390.482	16.0343
393.375	19.3645
396.267	30.5027
399.16	36.7661
402.053	26.2777
404.945	18.386
407.838	11.5922
410.731	6.25732
413.623	7.9693
416.516	4.60882
419.409	4.92147
422.301	6.33589
425.194	8.90025
428.087	8.6668
430.98	6.25654
433.872	4.48353
436.765	6.29847
439.658	4.33884
442.55	1.88915
445.443	0.173782
448.336	1.25694
451.228	0.767647
454.121	0.932228
457.014	0.070343
459.907	2.2391
462.799	3.39841
465.692	1.29813
468.585	3.34207
471.477	2.18534
474.37	3.14836
477.263	2.84972
480.156	1.95909
483.048	0.063271
485.941	1.21204
488.834	1.33444
491.726	3.85206
494.619	3.36967
497.512	3.66602
500.404	4.51761
503.297	12.9434
506.19	14.0102
509.082	10.7864
511.975	7.02584
514.868	5.89226
517.761	13.2285
520.653	15.98
523.546	15.2459
526.439	8.64905
529.331	4.43339
532.224	7.82562
535.117	12.5782
538.01	18.6198
540.902	21.3601
543.795	22.1322
546.688	21.3116
549.58	20.9975
552.473	21.7598
555.366	27.64
558.258	23.0688
561.151	10.1137
564.044	4.3524
566.936	0.335327
569.829	2.69528
572.722	1.04069
575.615	5.26814
578.507	4.82232
581.4	11.1353
584.293	19.7183
587.185	34.7114
590.078	51.9196
592.971	46.777
595.863	42.2285
598.756	33.0194
601.649	9.02973
604.542	1.97934
607.434	0.000839
610.327	1.85139
613.22	0.939758
616.112	0.441711
619.005	4.38149
621.898	6.07143
624.79	9.64806
627.683	20.2064
630.576	32.2238
633.468	50.2233
636.361	70.5643
639.254	84.8512
642.146	109.592
645.039	127.306
647.932	135.308
650.825	151.719
653.717	189.802
656.61	219.475
659.503	182.496
662.395	111.408
665.288	69.8648
668.181	49.7013
671.073	26.061
673.966	15.1304
676.859	7.43723
679.752	4.69117
682.644	2.75777
685.537	3.92796
688.43	3.62297
691.322	6.41197
694.215	7.05527
697.108	7.60025
700	9.99175
702.893	8.69211
705.786	8.43496
708.679	9.97781
711.571	10.5654
714.464	16.0505
717.357	15.2185
720.249	12.7467
723.142	6.85044
726.035	1.36493
728.928	1.62078
731.82	0.909286
734.713	0.467201
737.606	0.81356
740.498	0.226189
743.391	0.677528
746.284	1.50011
749.176	1.15105
752.069	0.629486
754.962	4.34026
757.855	1.87499
760.747	5.07277
763.64	4.93399
766.533	7.30744
769.425	10.9077
772.318	13.7415
775.211	13.1885
778.103	7.69854
780.996	5.59922
783.889	3.86028
786.782	4.08189
789.674	3.88521
792.567	4.90434
795.46	2.76758
798.352	3.1539
801.245	2.23164
804.138	1.56361
807.03	1.89099
809.923	2.61512
812.816	0.669243
815.708	1.20055
818.601	0.945686
821.494	6.64328
824.386	6.39758
827.279	9.79661
830.172	13.3721
833.065	18.9992
835.957	16.0235
838.85	9.3802
841.743	7.64974
844.635	8.50298
847.528	9.51325
850.421	11.3813
853.313	8.80607
856.206	7.97797
859.099	2.54916
861.992	3.56759
864.884	3.16238
867.777	5.35542
870.67	4.57079
873.562	3.16589
876.455	1.17497
879.348	0.025986
882.24	2.47359
885.133	3.21145
888.026	1.82581
890.919	2.44997
893.811	1.53899
896.704	3.70074
899.597	3.77258
902.489	6.71943
905.382	7.04531
908.275	7.16929
911.168	8.6044
914.06	12.5295
916.953	11.4368
919.846	9.65099
922.738	5.57806
925.631	6.44566
928.524	5.49654
931.416	6.69827
934.309	8.71958
937.202	9.75734
940.095	11.1922
942.987	9.09511
945.88	7.44021
948.773	8.20776
951.665	7.82078
954.558	7.86295
957.451	11.0972
960.343	10.6811
963.236	9.75314
966.129	5.45824
969.021	5.45645
971.914	0.633522
974.807	1.98232
977.699	0.154701
980.592	0.471878
983.485	0.312828
986.378	0.978111
989.27	1.19013
992.163	1.27013
995.056	1.67226
997.948	3.41894
1000.84	0.454071
1003.73	0.802193
1006.63	1.77247
1009.52	2.34342
1012.41	4.39704
1015.3	5.8231
1018.2	8.80485
1021.09	12.309
1023.98	16.3296
1026.88	21.8433
1029.77	20.8692
1032.66	22.2985
1035.55	23.4221
1038.45	22.9346
1041.34	25.3541
1044.23	25.566
1047.12	24.1218
1050.02	22.1879
1052.91	21.0896
1055.8	14.6935
1058.69	11.3998
1061.59	9.86236
1064.48	9.66531
1067.37	9.04604
1070.27	11.3733
1073.16	11.4142
1076.05	13.114
1078.94	10.7328
1081.84	9.39416
1084.73	11.2835
1087.62	9.0901
1090.52	5.84577
1093.41	3.6243
1096.3	1.78491
1099.19	1.71356
1102.09	1.02361
1104.98	1.21034
1107.87	1.8502
1110.76	1.01515
1113.66	4.45371
1116.55	7.94637
1119.44	13.2983
1122.33	20.2924
1125.23	23.2644
1128.12	27.261
1131.01	25.0661
1133.9	17.3592
1136.8	14.1479
1139.69	12.3206
1142.58	7.92092
1145.48	9.26666
1148.37	4.10123
1151.26	4.67291
1154.15	3.68903
1157.05	3.87507
1159.94	2.83946
1162.83	2.69811
1165.72	1.1684
1168.62	2.32493
1171.51	2.88039
1174.4	3.02675
1177.3	5.13079
1180.19	1.85972
1183.08	2.17372
1185.97	4.23836
1188.87	2.76918
1191.76	4.83807
1194.65	4.31025
1197.55	4.11369
1200.44	3.85142
1203.33	3.26818
1206.22	3.00992
1209.12	2.39253
1212.01	0.36969
1214.9	0.589928
1217.79	0.445213
1220.69	1.20623
1223.58	0.902542
1226.47	0.786156
1229.36	1.33929
1232.26	0.261734
1235.15	1.99613
1238.04	2.0149
1240.93	2.19087
1243.83	2.6673
1246.72	1.09524
1249.61	4.62713
1252.51	3.27021
1255.4	2.14901
1258.29	2.91203
1261.18	1.17342
1264.08	1.15064
1266.97	4.7226
1269.86	1.16743
1272.76	2.63411
1275.65	0.727821
1278.54	3.46922
1281.43	0.627686
1284.33	0.292809
