Measurement: Raman, 532 nm, unoriented, Raman Data Processed
Mineral: Chamosite
Rruff sample: R060188
Ideal chemistry: (Fe^2+^,Mg,Al,Fe^3+^)_6_(Si,Al)_4_O_10_(OH,O)_8_
Locality: Slesse Creek, Chilliwack, British Columbia, Canada
Source: Lloyd Twaites
Description: Brown hexagonal tablets with curved prism faces
Measured chemistry: (Fe^2+^_2.53_Mg_2.15_Al_0.30_Mn_0.02_)_Î£=5_Al_1.00_(Si_2.70_Al_1.30_)O_10_(OH)_8_
Raman shift (cm-1)	intensity
150.528	0
153.421	0.628014
156.314	0.419276
159.207	0.015897
162.099	0.036786
164.992	1.8855
167.885	1.73228
170.777	10.6712
173.67	14.6169
176.563	23.3967
179.455	36.3135
182.348	49.7907
185.241	67.625
188.133	84.525
191.026	103.273
193.919	121.365
196.812	133.893
199.704	138.442
202.597	123.61
205.49	99.9993
208.382	75.6314
211.275	53.9438
214.168	37.8306
217.06	27.4423
219.953	19.7238
222.846	13.5039
225.739	9.09017
228.631	4.79164
231.524	3.70646
234.417	2.19313
237.31	0.571086
240.202	0.29048
243.095	0.114032
245.988	0.220401
248.88	0.287576
251.773	0.845406
254.666	0.544287
257.558	1.45902
260.451	4.29325
263.344	4.2084
266.236	6.02555
269.129	8.08898
272.022	9.64433
274.915	10.3106
277.807	11.5578
280.7	10.9386
283.593	11.843
286.485	11.6137
289.378	10.8401
292.271	9.5732
295.163	7.81306
298.056	5.59317
300.949	4.88837
303.842	4.01596
306.734	3.11601
309.627	2.55507
312.52	1.92945
315.413	1.56063
318.305	1.86165
321.198	1.64259
324.091	1.6206
326.983	1.89935
329.876	2.39722
332.769	2.73637
335.661	2.95125
338.554	3.6155
341.447	5.78007
344.339	7.30042
347.232	8.89984
350.125	10.1027
353.018	12.9852
355.91	13.806
358.803	14.2766
361.696	14.2838
364.588	11.8591
367.481	9.19919
370.374	6.86909
373.267	4.61618
376.159	2.77666
379.052	1.32489
381.945	1.05384
384.837	0.640503
387.73	0.641347
390.623	0.291454
393.515	0.392432
396.408	0.182925
399.301	0.246445
402.194	0.006876
405.086	0.428618
407.979	0.675428
410.872	0.299195
413.764	0.583176
416.657	1.22273
419.55	0.680027
422.442	2.63886
425.335	4.08962
428.228	5.33227
431.121	4.37962
434.013	4.07746
436.906	0.649135
439.799	0.75957
442.691	0.20665
445.584	0.006433
448.477	0.549415
451.37	0.828672
454.262	0.89509
457.155	1.32411
460.048	1.93618
462.94	4.41509
465.833	4.56301
468.726	5.69353
471.618	6.00156
474.511	4.97706
477.404	3.04809
480.297	1.30626
483.189	0.818835
486.082	0.047036
488.975	0.343834
491.867	0.493221
494.76	0.070963
497.653	1.06853
500.546	3.12582
503.438	4.88511
506.331	5.4488
509.224	8.86618
512.116	8.95202
515.009	13.128
517.902	14.9466
520.794	17.3608
523.687	21.7348
526.58	30.0592
529.472	43.2765
532.365	63.8378
535.258	85.6439
538.151	111.49
541.043	140.179
543.936	167.81
546.829	169.964
549.721	122.119
552.614	70.4023
555.507	41.1983
558.4	26.8235
561.292	17.3865
564.185	10.4426
567.078	7.87626
569.97	3.74866
572.863	0.674161
575.756	0.184911
578.649	0.406781
581.541	0.33695
584.434	0.37806
587.327	0.745847
590.219	0.297732
593.112	0.559905
596.005	1.06921
598.898	1.14908
601.79	1.54485
604.683	2.65638
607.576	3.15277
610.468	4.91372
613.361	5.86577
616.254	8.02461
619.146	10.7394
622.039	12.8256
624.932	17.1416
627.824	19.1927
630.717	23.0977
633.61	30.0493
636.503	34.8226
639.395	42.9613
642.288	52.361
645.181	63.8345
648.073	76.4305
650.966	92.5039
653.859	108.722
656.751	125.245
659.644	142.889
662.537	153.203
665.43	159.423
668.322	156.312
671.215	145.232
674.108	128.263
677	108.031
679.893	90.0855
682.786	73.8691
685.679	58.7969
688.571	49.2496
691.464	38.9524
694.357	31.5165
697.249	25.6937
700.142	19.5494
703.035	14.2605
705.928	9.71594
708.82	8.11632
711.713	4.49714
714.606	2.48343
717.498	0.05724
720.391	0.006525
723.284	0.957566
726.177	0.749394
729.069	0.821685
731.962	0.786546
734.855	0.132394
737.747	0.220819
740.64	0.237791
743.533	0.066027
746.425	1.30167
749.318	1.63038
752.211	3.03582
755.104	4.75321
757.996	4.09051
760.889	6.07666
763.782	7.871
766.674	7.48845
769.567	7.85435
772.46	9.22587
775.352	10.8574
778.245	10.5474
781.138	11.3808
784.03	12.7189
786.923	14.1248
789.816	13.8766
792.709	13.0139
795.601	12.6642
798.494	11.7995
801.387	11.3746
804.279	11.261
807.172	9.39512
810.065	7.80741
812.957	7.49676
815.85	5.91245
818.743	3.09449
821.636	3.68924
824.528	2.79107
827.421	0.81393
830.314	2.10839
833.207	0.897896
836.099	0.326795
838.992	0.037138
841.885	0.103655
844.777	0.355097
847.67	0.055296
850.563	0.917153
853.455	2.18085
856.348	1.57543
859.241	2.96535
862.134	2.45903
865.026	2.22576
867.919	2.43183
870.812	2.64075
873.704	3.9249
876.597	4.18069
879.49	3.38234
882.382	2.65873
885.275	3.83734
888.168	5.18914
891.061	4.40185
893.953	2.90684
896.846	3.18415
899.739	3.13256
902.631	3.13384
905.524	0.597231
908.417	1.02573
911.309	0.228178
914.202	0.432591
917.095	0.193291
919.988	0.488588
922.88	1.12081
925.773	0.100669
928.666	0.120967
931.558	0.169045
934.451	0.264616
937.344	0.286704
940.236	1.04108
943.129	0.602308
946.022	0.812298
948.915	0.259394
951.807	0.795816
954.7	0.559638
957.593	1.30872
960.486	2.09031
963.378	2.43146
966.271	2.26621
969.164	4.31372
972.056	4.65143
974.949	5.61855
977.842	5.94849
980.734	6.75447
983.627	7.98762
986.52	6.63625
989.413	7.58242
992.305	7.8687
995.198	7.1885
998.091	7.11194
1000.98	5.66413
1003.88	7.16971
1006.77	6.44869
1009.66	9.40724
1012.55	9.96379
1015.45	12.5686
1018.34	16.343
1021.23	20.8354
1024.12	21.9053
1027.02	25.9319
1029.91	26.4149
1032.8	26.9074
1035.7	24.868
1038.59	21.053
1041.48	17.6386
1044.37	15.4342
1047.27	12.3531
1050.16	10.3721
1053.05	8.54665
1055.94	6.64392
1058.84	5.00511
1061.73	5.51105
1064.62	4.56284
1067.52	5.10536
1070.41	2.82247
1073.3	2.3292
1076.19	2.77116
1079.09	1.32637
1081.98	0.587942
1084.87	0.062442
1087.76	0.414958
1090.66	0.496127
1093.55	0.39063
1096.44	0.32777
1099.34	0.219122
1102.23	0.130374
1105.12	0.29099
1108.01	0.288959
1110.91	0.000749
1113.8	0.381498
1116.69	0.493929
1119.58	0.007341
1122.48	0.069214
1125.37	1.09983
1128.26	1.53228
1131.15	1.69067
1134.05	2.31459
1136.94	1.0292
1139.83	2.21731
1142.73	3.59728
1145.62	1.70571
1148.51	1.57491
1151.4	2.38809
1154.3	1.5986
1157.19	2.79403
1160.08	2.19351
1162.97	1.33639
1165.87	1.1921
1168.76	1.53053
1171.65	1.4594
1174.55	1.99608
1177.44	1.08287
1180.33	1.24424
1183.22	1.35282
1186.12	2.03592
1189.01	1.13845
1191.9	0.966901
1194.79	0.875325
1197.69	1.52709
1200.58	1.70545
1203.47	2.20351
1206.37	2.02911
1209.26	2.55822
1212.15	0.093328
1215.04	0.100051
1217.94	0.793992
1220.83	0.705656
1223.72	0.595432
1226.61	1.30367
1229.51	0.045517
1232.4	0.433699
1235.29	0.791353
1238.18	0.255193
1241.08	0.752858
1243.97	0.8148
1246.86	0.559914
1249.76	0.7798
1252.65	0.301167
1255.54	1.47687
1258.43	1.15349
1261.33	1.36264
1264.22	0.989651
1267.11	0.214289
1270.01	1.03363
1272.9	1.31231
1275.79	1.41592
1278.68	0.663605
1281.58	0.648403
1284.47	1.07573
1287.36	1.38852
1290.25	1.39243
1293.15	0.890722
1296.04	0.219764
1298.93	0.40491
1301.82	0.884205
