Measurement: Raman, 514 nm, unoriented, Raman Data Processed
Mineral: Chambersite
Rruff sample: R050337
Ideal chemistry: Mn_3_B_7_O_13_Cl
Locality: Barber's Hill salt dome, Mont Belvieu, Chambers County, Texas, USA
Source: University of Arizona Mineral Museum
Description: Deep purple pseudotetrahedron
Raman shift (cm-1)	intensity
111.473	0
115.644	48.688
119.813	747.086
123.981	3.381
128.146	2604.75
132.309	9143.96
136.47	22513.2
140.63	36355.6
144.787	30946.7
148.942	24518.2
153.096	25055.9
157.247	28204.5
161.396	35328.9
165.544	29820.4
169.689	16209.8
173.833	10058.2
177.974	10340.7
182.114	6514.81
186.251	5871.76
190.387	3478.35
194.52	1873.05
198.652	806.065
202.782	1422.08
206.909	1672.28
211.035	2147.62
215.159	1599.15
219.281	1770.58
223.4	2411.44
227.518	4838.47
231.634	5199.21
235.748	8621.4
239.86	10593.7
243.97	6022.69
248.079	1322.96
252.185	1047.3
256.289	1275.74
260.391	910.328
264.492	643.088
268.59	1921.37
272.687	1223.33
276.781	260.622
280.874	255.679
284.964	283.82
289.053	747.457
293.14	413.008
297.225	1053.91
301.308	2236.62
305.389	915.691
309.468	150.52
313.545	366.883
317.62	46.233
321.693	79.915
325.765	15.367
329.834	919.319
333.902	1911.65
337.967	4878.43
342.031	5853.14
346.093	6140.43
350.153	13289.7
354.21	27026.8
358.267	14999.1
362.321	7093.65
366.373	5065.66
370.423	2545.61
374.471	1868.99
378.518	2377.57
382.563	2998.49
386.605	3407.34
390.646	3071.22
394.685	3586.15
398.722	6025.14
402.757	5166.19
406.79	2927.3
410.821	1910.49
414.851	1795.76
418.878	1364.98
422.904	1617.4
426.927	1700.33
430.949	1551.78
434.969	1515.86
438.987	1716.4
443.003	1107.78
447.018	564.497
451.03	126.08
455.041	1.512
459.049	146.13
463.056	165.703
467.061	303.025
471.064	569.58
475.065	665.077
479.064	385.017
483.062	6.066
487.057	171.583
491.051	38.174
495.043	85.291
499.032	447.744
503.02	1857.88
507.007	3597.84
510.991	1868.74
514.973	1544.12
518.954	3165.78
522.933	4865.77
526.91	1755.15
530.885	978
534.858	1573.36
538.829	3484.28
542.799	5140.81
546.766	4588.99
550.732	4250.84
554.696	5558.38
558.658	7106.61
562.618	3169.55
566.576	1079.2
570.533	459.601
574.488	410.797
578.44	241.753
582.391	738.336
586.341	2469.83
590.288	7138.62
594.233	8491.12
598.177	10670.6
602.119	5027.19
606.059	1653.76
609.997	1239.59
613.933	1400.08
617.868	1031.7
621.801	685.054
625.731	1199.47
629.66	2308.32
633.588	6007.04
637.513	10992.4
641.437	13384.3
645.358	16877.8
649.278	17549.6
653.196	25704
657.113	41189.2
661.027	35966.7
664.94	19166.3
668.851	12403.8
672.76	7340.36
676.667	3964.45
680.572	2704.86
684.476	2197.65
688.378	2068.7
692.278	2040.13
696.176	2225.8
700.072	3009.62
703.967	2793.99
707.86	2323.1
711.751	2093.38
715.64	3324.33
719.527	4231.3
723.413	2467.78
727.297	1073.63
731.179	399.965
735.059	29.322
738.937	57.943
742.814	30.318
746.689	91.559
750.562	251.398
754.433	621.221
758.303	690.047
762.17	325.939
766.036	363.939
769.901	1756.06
773.763	2981.36
777.624	1810.78
781.482	508.244
785.339	22.012
789.195	184.971
793.048	584.088
796.9	410.549
800.75	255.393
804.598	227.668
808.445	168.561
812.289	164.869
816.132	273.459
819.973	272.656
823.813	192.762
827.65	518.193
831.486	2275.67
835.32	4208.01
839.152	1671.06
842.983	710.764
846.812	674.996
850.639	1388.23
854.464	1158.31
858.288	539.318
862.11	419.834
865.93	626.01
869.748	1171.86
873.564	847.377
877.379	408.555
881.192	129.355
885.004	14.717
888.813	220.002
892.621	276.857
896.427	646.609
900.232	1187.01
904.034	1487.41
907.835	1282.09
911.634	1204.4
915.432	2201.33
919.227	2595.88
923.021	1937.05
926.813	1511.84
930.604	1355.28
934.393	1480.35
938.18	2295.49
941.965	2427.66
945.749	2306.14
949.53	1835.78
953.311	1682.07
957.089	1753.93
960.866	2293.5
964.641	2018.47
968.414	1434.34
972.185	802.857
975.955	351.391
979.723	223.328
983.49	146.682
987.254	18.98
991.017	65.52
994.779	36.086
998.538	142.783
1002.3	16.223
1006.05	251.279
1009.81	433.494
1013.56	961.49
1017.31	1236.1
1021.06	2219.26
1024.81	3792.31
1028.55	4782.17
1032.3	4653.5
1036.04	4891.64
1039.78	5076.66
1043.52	4772.03
1047.26	4652.36
1050.99	4698.19
1054.73	4209.71
1058.46	3386.92
1062.19	2914.8
1065.92	2929.38
1069.65	3586.64
1073.37	4852.77
1077.1	4301.26
1080.82	4645.94
1084.54	4032.9
1088.26	3705.47
1091.97	3293.15
1095.69	2754.21
1099.4	2143.11
1103.12	2098.69
1106.83	1680.99
1110.54	1931.97
1114.24	2356.47
1117.95	3094.29
1121.65	4653.46
1125.35	6398.4
1129.06	6928.52
1132.75	6468.39
1136.45	5214.06
1140.15	3676.97
1143.84	3220.69
1147.53	3043.51
1151.22	2755.49
1154.91	2548.61
1158.6	2121.9
1162.28	1763.44
1165.97	1730.9
1169.65	1461.52
1173.33	1327.15
1177.01	1281.98
1180.69	891.264
1184.36	1010.23
1188.04	2100.62
1191.71	1645.95
1195.38	1061.03
1199.05	1504.83
1202.71	2090.41
1206.38	1919.79
1210.04	1487.97
1213.71	921.904
1217.37	467.502
1221.03	138.545
1224.68	93.086
1228.34	69.594
1231.99	29.367
1235.65	2.979
1239.3	115.09
1242.95	58.23
1246.59	79.998
1250.24	59.805
1253.88	80.67
1257.53	65.791
1261.17	34.928
1264.81	33.836
1268.45	0.523
1272.08	82.418
1275.72	23.104
1279.35	75.092
1282.98	81.281
1286.61	164.191
1290.24	118.006
1293.87	312.711
1297.49	23.748
1301.11	74.439
1304.73	258.301
1308.36	194.861
1311.97	207.156
1315.59	10.346
1319.2	203.98
1322.82	203.627
1326.43	273.25
1330.04	218.273
1333.65	369.92
1337.26	585.703
1340.86	1279.22
1344.47	1979.56
1348.07	2719.13
1351.67	2426.36
1355.27	2002.19
1358.87	1998.62
1362.46	1762.83
1366.06	1785.39
1369.65	1801.65
1373.24	1558.46
1376.83	1465.3
1380.42	1150.44
1384	820.602
1387.59	684.539
1391.17	865.299
1394.75	1064.04
1398.33	717.256
1401.91	1068.1
1405.49	1043.86
1409.06	1234.41
1412.64	1086.52
1416.21	791.508
1419.78	498.715
1423.35	318.119
1426.91	281.504
1430.48	276.02
1434.05	594.252
1437.61	454.812
1441.17	338.486
1444.73	354.826
1448.29	359.17
1451.84	264.086
1455.4	629.449
1458.95	398.23
1462.5	196.752
1466.05	36.398
1469.6	229.047
1473.15	289.078
1476.69	288.35
1480.24	35.482
1483.78	583.152
