Measurement: Raman, 532 nm, unoriented, Raman Data Processed
Mineral: Chambersite
Rruff sample: R050337
Ideal chemistry: Mn_3_B_7_O_13_Cl
Locality: Barber's Hill salt dome, Mont Belvieu, Chambers County, Texas, USA
Source: University of Arizona Mineral Museum
Description: Deep purple pseudotetrahedron
Raman shift (cm-1)	intensity
131.405	0
134.78	45.5235
138.155	130.14
141.529	175.849
144.904	119.833
148.279	107.279
151.654	118.103
155.029	130.326
158.404	137.617
161.778	176.437
165.153	163.746
168.528	99.793
171.903	48.3121
175.278	43.1609
178.652	40.2893
182.027	7.22015
185.402	11.2512
188.777	1.16394
192.152	0.597351
195.526	2.23334
198.901	7.19714
202.276	0.684387
205.651	3.69348
209.026	3.41534
212.401	13.6797
215.775	15.3538
219.15	20.8738
222.525	23.6039
225.9	42.2206
229.275	56.2293
232.649	52.1808
236.024	82.9991
239.399	86.3621
242.774	61.3497
246.149	22.8032
249.524	16.1615
252.898	20.8398
256.273	17.5576
259.648	12.5531
263.023	12.6825
266.398	12.8733
269.772	18.8777
273.147	10.3541
276.522	3.95392
279.897	7.18964
283.272	2.95905
286.647	2.39954
290.021	0.824646
293.396	5.52271
296.771	7.93329
300.146	17.682
303.521	14.2127
306.895	6.8139
310.27	0.618286
313.645	1.54987
317.02	1.54248
320.395	0.012207
323.769	8.56262
327.144	14.1527
330.519	23.6658
333.894	37.4128
337.269	74.5133
340.644	122.016
344.018	139.853
347.393	190.183
350.768	270.171
354.143	340.47
357.518	220.132
360.892	104.383
364.267	66.1075
367.642	42.3312
371.017	23.6569
374.392	17.6876
377.767	16.697
381.141	16.961
384.516	24.3102
387.891	28.2441
391.266	21.3411
394.641	23.016
398.015	40.3367
401.39	40.6437
404.765	20.9474
408.14	8.763
411.515	8.50757
414.89	9.10101
418.264	6.71008
421.639	10.4509
425.014	11.7784
428.389	9.9397
431.764	10.4457
435.139	7.91272
438.513	10.0384
441.888	3.86328
445.263	1.20734
448.638	0.330505
452.012	2.47986
455.387	1.51147
458.762	0.831238
462.137	1.0249
465.512	2.40057
468.887	3.61749
472.261	1.99213
475.636	6.72534
479.011	2.17145
482.386	0.053772
485.761	1.05731
489.135	3.29669
492.51	5.64313
495.885	9.68561
499.26	17.151
502.635	24.7717
506.01	33.1395
509.384	23.1047
512.759	14.7462
516.134	18.2369
519.509	30.2361
522.884	34.0807
526.259	17.7183
529.633	18.105
533.008	27.2089
536.383	37.9592
539.758	50.67
543.133	50.9827
546.507	48.1497
549.882	41.8493
553.257	47.3408
556.632	58.6399
560.007	47.4176
563.381	17.5607
566.756	5.16626
570.131	0.000916
573.506	1.30658
576.881	1.21252
580.256	5.25861
583.63	14.3496
587.005	27.2414
590.38	46.5272
593.755	56.4485
597.13	69.042
600.505	42.4526
603.879	10.9101
607.254	1.61603
610.629	1.00061
614.004	3.99249
617.379	0.82959
620.753	1.90631
624.128	3.68463
627.503	17.2378
630.878	40.6322
634.253	69.2306
637.627	95.8464
641.002	106.213
644.377	138.568
647.752	159.843
651.127	193.042
654.501	258.288
657.876	291.275
661.251	202.856
664.626	114.272
668.001	78.345
671.376	45.9917
674.75	27.3438
678.125	19.7822
681.5	14.0576
684.875	14.0608
688.25	20.852
691.625	25.7522
694.999	33.7906
698.374	37.6052
701.749	39.0118
705.124	36.5374
708.499	35.3501
711.873	33.9583
715.248	38.3051
718.623	32.0101
721.998	23.6911
725.373	11.2286
728.747	5.43988
732.122	0.307739
735.497	2.29346
738.872	0.730469
742.247	1.2442
745.622	1.14423
748.996	0.583496
752.371	2.55011
755.746	1.9563
759.121	5.06726
762.496	4.79785
765.87	6.19061
769.245	11.4291
772.62	16.2902
775.995	13.141
779.37	2.83636
782.745	2.9082
786.119	4.14258
789.494	8.64002
792.869	6.75763
796.244	6.01874
799.619	2.5542
802.994	4.65418
806.368	1.38995
809.743	2.75098
813.118	0.1828
816.493	0.167664
819.868	2.18225
823.242	4.7041
826.617	10.5127
829.992	14.0427
833.367	24.9001
836.742	23.9019
840.116	7.3136
843.491	5.69452
846.866	4.87299
850.241	8.72528
853.616	7.80945
856.99	5.20575
860.365	5.93695
863.74	0.703674
867.115	4.26056
870.49	6.60114
873.865	4.6687
877.239	0.316956
880.614	0.399414
883.989	2.33685
887.364	0.7323
890.739	2.20972
894.114	3.22803
897.488	4.80048
900.863	6.54321
904.238	8.67242
907.613	9.07672
910.988	8.94397
914.362	14.7195
917.737	14.653
921.112	14.6221
924.487	11.8845
927.862	11.2411
931.236	12.5323
934.611	14.1647
937.986	14.4617
941.361	15.1405
944.736	13.4669
948.111	12.4641
951.485	12.1825
954.86	12.0119
958.235	14.6052
961.61	11.8709
964.985	10.2111
968.36	6.25739
971.734	2.07227
975.109	3.5614
978.484	0.042419
981.859	5.10352
985.234	1.51019
988.608	0.306152
991.983	1.69281
995.358	0.912231
998.733	2.711
1002.11	1.24615
1005.48	3.59802
1008.86	0.865417
1012.23	7.5871
1015.61	10.9518
1018.98	14.8005
1022.36	21.4006
1025.73	28.5005
1029.11	30.2499
1032.48	31.5879
1035.86	31.0909
1039.23	31.6174
1042.61	29.2859
1045.98	26.3175
1049.36	22.9699
1052.73	20.9141
1056.11	16.7416
1059.48	15.9883
1062.85	14.0924
1066.23	19.243
1069.6	26.717
1072.98	26.3048
1076.35	25.8166
1079.73	21.9432
1083.1	18.1357
1086.48	14.5076
1089.85	11.1895
1093.23	11.8875
1096.6	3.92365
1099.98	4.30719
1103.35	2.52801
1106.73	0.274475
1110.1	0.404785
1113.48	2.87805
1116.85	5.51697
1120.23	12.2297
1123.6	18.9218
1126.98	18.3719
1130.35	17.891
1133.72	14.8531
1137.1	13.3391
1140.47	6.1239
1143.85	10.6834
1147.22	7.4519
1150.6	4.19147
1153.97	3.20441
1157.35	0.295227
1160.72	1.07642
1164.1	2.82752
1167.47	2.92517
1170.85	2.58252
1174.22	0.721863
1177.6	1.86096
1180.97	2.38275
1184.35	0.94635
1187.72	1.71649
1191.1	4.54272
1194.47	6.48743
1197.85	7.15961
1201.22	10.0488
1204.6	4.74408
1207.97	9.48816
1211.35	3.24408
1214.72	1.17065
1218.1	1.68414
1221.47	1.9342
1224.85	1.41168
1228.22	0.544067
1231.6	3.7525
1234.97	4.18793
1238.35	5.37457
1241.72	4.91553
1245.09	5.68939
1248.47	4.55633
1251.84	6.60767
1255.22	6.05835
1258.59	8.27563
1261.97	4.8446
1265.34	8.1438
1268.72	5.56958
1272.09	6.32343
1275.47	6.24304
1278.84	3.25354
1282.22	5.01654
1285.59	6.0404
1288.97	7.1712
1292.34	4.20087
1295.72	5.36902
1299.09	0.505554
