Measurement: Raman, 532 nm, unoriented, Raman Data Processed
Mineral: Changoite
Rruff sample: R110213
Ideal chemistry: Na_2_Zn(SO_4_)_2_4H_2_O
Locality: La Compania mine, Caracoles, Sierra Gorda, II Region, Atacama Desert, Chile
Source: Gunnar Farber
Description: Pale yellow transparent anhedral crystals associated with krohnkite and caracolite
Raman shift (cm-1)	intensity
198.486	0
201.379	20.6726
204.272	37.7324
207.164	41.7703
210.057	52.229
212.95	35.6702
215.843	58.3303
218.735	64.9348
221.628	77.4341
224.521	78.8279
227.413	84.3953
230.306	70.8008
233.199	66.7136
236.091	61.2837
238.984	57.6565
241.877	55.3066
244.769	48.6387
247.662	54.4273
250.555	64.9641
253.448	73.6787
256.34	84.366
259.233	87.0415
262.126	102.642
265.018	87.9087
267.911	78.2224
270.804	55.9907
273.697	69.3066
276.589	58.7026
279.482	52.2795
282.375	40.5918
285.267	11.1729
288.16	11.2427
291.053	1.89282
293.945	4.35059
296.838	20.1084
299.731	5.03857
302.623	17.3511
305.516	22.938
308.409	7.39453
311.302	4.82666
314.194	7.55078
317.087	10.6792
319.98	11.5332
322.872	2.97949
325.765	3.49707
328.658	23.1895
331.55	5.46777
334.443	1.51123
337.336	20.957
340.229	20.3511
343.121	30.1855
346.014	24.5034
348.907	47.3428
351.799	62.706
354.692	86.5566
357.585	91.2593
360.478	94.9165
363.37	103.374
366.263	99.4541
369.156	73.0957
372.048	79.1631
374.941	50.2002
377.834	22.9678
380.726	25.0933
383.619	6.14941
386.512	17.998
389.404	14.6572
392.297	3.75147
395.19	2.25781
398.083	3.37842
400.975	4.07324
403.868	1.93213
406.761	7.86182
409.653	17.7139
412.546	26.1401
415.439	24.2715
418.332	24.479
421.224	18.6582
424.117	40.6313
427.01	37.6968
429.902	74.9946
432.795	79.6074
435.688	121.108
438.58	165.368
441.473	227
444.366	306.07
447.259	395.932
450.151	444.213
453.044	413.418
455.937	345.44
458.829	305.898
461.722	246.832
464.615	222.793
467.507	209.005
470.4	197.019
473.293	179.347
476.185	172.767
479.078	143.21
481.971	107.785
484.864	98.6733
487.756	68.1982
490.649	52.5815
493.542	50.0195
496.434	58.0864
499.327	62.1948
502.22	36.146
505.113	20.2764
508.005	30.3413
510.898	20.5386
513.791	15.5249
516.683	12.5215
519.576	13.4707
522.469	3.02637
525.361	6.95996
528.254	22.2393
531.147	17.5444
534.04	4.01074
536.932	6.30322
539.825	3.15527
542.718	18.1846
545.61	6.38867
548.503	0.92627
551.396	9.0957
554.288	18.5288
557.181	17.4409
560.074	6.99072
562.967	3.79443
565.859	4.25684
568.752	10.6138
571.645	9.69678
574.537	7.01416
577.43	20.333
580.323	24.3765
583.216	15.5039
586.108	22.4839
589.001	29.4414
591.894	25.4546
594.786	38.5488
597.679	36.5415
600.572	68.2183
603.464	86.2202
606.357	125.154
609.25	167.996
612.142	229.342
615.035	260.386
617.928	221.627
620.821	156.918
623.713	113.154
626.606	94.4209
629.499	73.3452
632.391	63.9736
635.284	64.6997
638.177	69.3867
641.069	53.0435
643.962	40.5298
646.855	51.1577
649.747	35.749
652.64	53.4556
655.533	57.5444
658.426	49.4145
661.318	43.5361
664.211	34.5185
667.104	17.8086
669.996	31.2954
672.889	20.2026
675.782	16.3174
678.674	22.8477
681.567	24.9888
684.46	31.7588
687.353	22.834
690.245	38.0073
693.138	31.3965
696.031	29.938
698.923	24.9844
701.816	3.95019
704.709	11.9595
707.601	29.6685
710.494	27.0498
713.387	19.0981
716.28	11.1065
719.172	6.29541
722.065	7.84521
724.958	10.4434
727.85	25.5254
730.743	23.7598
733.636	19.8027
736.529	6.40527
739.421	3.05957
742.314	0.960449
745.207	5.46045
748.099	0.121582
750.992	7.61377
753.885	18.0117
756.777	21.9453
759.67	20.8447
762.563	18.3867
765.456	12.8872
768.348	26.0903
771.241	26.4956
774.134	15.333
777.026	19.6362
779.919	17.8325
782.812	20.5601
785.704	10.0596
788.597	6.28662
791.49	21.9819
794.383	35.5933
797.275	15.8008
800.168	13.2676
803.061	1.84619
805.953	12.0732
808.846	20.0596
811.739	10.9385
814.631	33.2256
817.524	34.9136
820.417	24.6211
823.309	27.0498
826.202	2.65772
829.095	9.43018
831.988	12.019
834.88	4.55273
837.773	4.70166
840.666	2.23682
843.558	8.13818
846.451	17.5269
849.344	34.1968
852.236	43.3857
855.129	51.0127
858.022	67.0977
860.915	68.4312
863.807	46.9038
866.7	23.064
869.593	27.6309
872.485	26.3662
875.378	22.1577
878.271	13.981
881.163	12.4893
884.056	29.3061
886.949	42.2524
889.842	29.5098
892.734	21.1836
895.627	29.1406
898.52	2.61475
901.412	7.35205
904.305	11.314
907.198	12.478
910.091	23.3438
912.983	33.9346
915.876	21.6743
918.769	20.1304
921.661	15.1455
924.554	32.3784
927.447	24.1787
930.339	12.5361
933.232	5.86231
936.125	12.353
939.018	1.2124
941.91	5.31934
944.803	2.98926
947.696	18.3189
950.588	20.1362
953.481	15.9927
956.374	17.8359
959.266	0.619141
962.159	23.5737
965.052	54.3877
967.944	61.978
970.837	89.7168
973.73	141.691
976.623	299.206
979.515	590.542
982.408	967.786
985.301	1586.13
988.193	2202.54
991.086	1413.19
993.979	556.743
996.871	245.846
999.764	130.582
1002.66	82.3481
1005.55	45.502
1008.44	47.6025
1011.34	26.439
1014.23	5.31982
1017.12	7.7749
1020.01	4.36572
1022.91	16.2329
1025.8	5.11963
1028.69	9.65479
1031.58	10.6787
1034.48	4.729
1037.37	19.7935
1040.26	1.30225
1043.15	2.18457
1046.05	6.98633
1048.94	10.6289
1051.83	4.33057
1054.73	20.3652
1057.62	39.9507
1060.51	30.6997
1063.4	45.7783
1066.3	35.7915
1069.19	34.7407
1072.08	29.3906
1074.97	11.9287
1077.87	24.4336
1080.76	11.9307
1083.65	9.1875
1086.55	15.6899
1089.44	16.9219
1092.33	16.5166
1095.22	39.7749
1098.12	57.2568
1101.01	68.3066
1103.9	47.6416
1106.79	33.2236
1109.69	38.5161
1112.58	42.5605
1115.47	36.0107
1118.37	32.7515
1121.26	25.6211
1124.15	20.3589
1127.04	12.8467
1129.94	5.66602
1132.83	12.6435
1135.72	10.7432
1138.61	29.1899
1141.51	18.1929
1144.4	9.64404
1147.29	31.0801
1150.18	43.9985
1153.08	81.9307
1155.97	100.607
1158.86	132.971
1161.76	142.561
1164.65	134.121
1167.54	89.9863
1170.43	52.5566
1173.33	75.814
1176.22	77.3428
1179.11	103.267
1182	151.238
1184.9	196.647
1187.79	270.094
1190.68	259.71
1193.58	219.339
1196.47	141.644
1199.36	89.0049
1202.25	56.8784
1205.15	49.0635
1208.04	55.8145
1210.93	51.915
1213.82	51.6445
1216.72	17.0903
1219.61	21.5537
1222.5	17.6963
1225.39	22.9976
1228.29	25.7451
1231.18	33.2637
1234.07	4.44922
1236.97	1.99316
1239.86	1.91992
1242.75	13.2793
1245.64	17.4395
1248.54	25.8901
1251.43	16.0879
1254.32	19.5093
1257.21	16.8721
1260.11	25.2002
1263	38.6426
1265.89	31.7158
1268.79	33.8174
1271.68	26.4019
1274.57	25.0523
1277.46	27.6948
1280.36	12.6865
1283.25	13.6387
1286.14	11.3262
1289.03	17.855
1291.93	12.8047
1294.82	6.86914
1297.71	5.8125
1300.61	13.54
