Measurement: Raman, 780 nm, unoriented, Raman Data Processed
Mineral: Changoite
Rruff sample: R110213
Ideal chemistry: Na_2_Zn(SO_4_)_2_4H_2_O
Locality: La Compania mine, Caracoles, Sierra Gorda, II Region, Atacama Desert, Chile
Source: Gunnar Farber
Description: Pale yellow transparent anhedral crystals associated with krohnkite and caracolite
Raman shift (cm-1)	intensity
158.136	0
161.028	0.628876
163.921	5.55841
166.814	1.97534
169.706	4.73608
172.599	4.48038
175.492	5.89905
178.385	4.56073
181.277	7.09293
184.17	7.13867
187.063	5.9292
189.955	5.67657
192.848	7.09051
195.741	4.08972
198.633	2.66367
201.526	0.307007
204.419	0.868805
207.311	3.33209
210.204	0.747864
213.097	4.9443
215.99	2.93594
218.882	4.51282
221.775	7.81519
224.668	7.91019
227.56	6.99051
230.453	5.6308
233.346	3.04745
236.238	2.50168
239.131	4.67007
242.024	4.53659
244.917	8.09338
247.809	12.4499
250.702	15.9398
253.595	19.156
256.487	23.6311
259.38	27.4486
262.273	30.8535
265.166	34.4392
268.058	32.7098
270.951	29.7634
273.844	31.2551
276.736	32.9191
279.629	30.3669
282.522	27.6166
285.414	23.146
288.307	22.4702
291.2	20.7637
294.092	15.7108
296.985	12.9322
299.878	11.2381
302.771	8.30408
305.663	7.1539
308.556	5.40076
311.449	4.827
314.341	3.32944
317.234	4.45416
320.127	0.589935
323.019	1.38635
325.912	3.1969
328.805	0.217316
331.698	3.9278
334.59	4.4339
337.483	1.6337
340.376	1.86475
343.268	5.92029
346.161	11.2425
349.054	22.0783
351.947	34.1688
354.839	43.4322
357.732	51.7321
360.625	57.7781
363.517	56.6764
366.41	48.8166
369.303	42.1044
372.195	26.3144
375.088	12.6973
377.981	6.4436
380.873	2.83978
383.766	0.229065
386.659	1.58295
389.552	2.95355
392.444	5.68231
395.337	10.4744
398.23	16.4879
401.122	23.6751
404.015	29.3484
406.908	39.8735
409.8	42.4701
412.693	51.7477
415.586	61.8359
418.479	67.1952
421.371	77.9488
424.264	81.8586
427.157	91.5732
430.049	101.227
432.942	114.659
435.835	124.138
438.728	137.125
441.62	154.89
444.513	178.964
447.406	202.762
450.298	203.216
453.191	173.155
456.084	141.578
458.976	120.841
461.869	107.095
464.762	100.897
467.654	95.7566
470.547	92.9026
473.44	91.5977
476.333	81.6126
479.225	71.1461
482.118	61.0458
485.011	53.9312
487.903	47.1047
490.796	43.83
493.689	39.8987
496.582	43.7656
499.474	37.1136
502.367	34.9913
505.26	33.3167
508.152	26.0212
511.045	20.8341
513.938	14.0935
516.83	10.7434
519.723	5.35428
522.616	5.52731
525.509	0.781708
528.401	2.62225
531.294	1.14337
534.187	0.69223
537.079	0.1409
539.972	0.143921
542.865	0.743744
545.757	1.68915
548.65	2.46036
551.543	1.58191
554.436	1.50613
557.328	2.03433
560.221	0.022644
563.114	2.28314
566.006	0.482727
568.899	0.833679
571.792	2.55411
574.684	2.70667
577.577	4.12912
580.47	8.19232
583.362	9.19861
586.255	13.45
589.148	16.2945
592.041	22.6371
594.933	29.5403
597.826	41.8071
600.719	56.1352
603.611	71.4359
606.504	89.8459
609.397	117.431
612.29	146.747
615.182	145.904
618.075	109.195
620.968	78.506
623.86	64.0146
626.753	58.7378
629.646	58.7396
632.538	48.8751
635.431	42.4134
638.324	35.8845
641.217	30.742
644.109	27.8106
647.002	21.3035
649.895	22.1092
652.787	19.9211
655.68	16.1839
658.573	14.8397
661.466	17.6442
664.358	14.5498
667.251	13.7417
670.144	11.8735
673.036	9.4892
675.929	9.53116
678.822	9.34903
681.714	9.3912
684.607	9.36484
687.5	6.19159
690.393	5.14322
693.285	7.40002
696.178	5.36722
699.071	4.88461
701.963	7.80588
704.856	5.15921
707.749	7.71997
710.641	5.99069
713.534	2.87039
716.427	1.1817
719.319	0.139221
722.212	1.53934
725.105	0.601135
727.998	0.078552
730.89	1.77252
733.783	1.29407
736.676	0.565002
739.568	0.549866
742.461	0.678223
745.354	0.420074
748.246	1.6626
751.139	2.90384
754.032	1.22583
756.925	2.69074
759.817	0.664307
762.71	2.58881
765.603	2.89465
768.495	4.7999
771.388	2.28506
774.281	4.04788
777.173	4.39813
780.066	5.92456
782.959	3.3096
785.852	2.96634
788.744	3.1919
791.637	8.08713
794.53	7.05838
797.422	6.01953
800.315	4.95001
803.208	5.78918
806.101	11.3444
808.993	14.2585
811.886	15.9037
814.779	11.5102
817.671	8.73294
820.564	7.10443
823.457	6.41797
826.349	1.61645
829.242	3.79745
832.135	1.05045
835.028	2.33051
837.92	2.93915
840.813	4.51022
843.706	8.16977
846.598	12.7681
849.491	19.6716
852.384	28.6474
855.276	33.5688
858.169	36.1771
861.062	34.0285
863.955	26.3743
866.847	17.6888
869.74	11.2825
872.633	8.51964
875.525	7.75713
878.418	4.63455
881.311	3.55132
884.203	2.29266
887.096	3.69458
889.989	1.62736
892.881	1.98383
895.774	0.363953
898.667	0.17421
901.56	0.444916
904.452	0.571121
907.345	1.29225
910.238	0.151215
913.13	0.069107
916.023	1.50533
918.916	0.803268
921.808	0.173187
924.701	0.572769
927.594	0.801743
930.487	0.012817
933.379	1.85402
936.272	1.20901
939.165	2.02737
942.057	2.54053
944.95	1.77173
947.843	1.16568
950.736	2.61983
953.628	5.60585
956.521	7.69298
959.414	10.7583
962.306	16.8033
965.199	26.1819
968.092	37.2748
970.984	59.0777
973.877	100.199
976.77	187.032
979.663	294.926
982.555	511.352
985.448	933.907
988.341	1089.13
991.233	506.803
994.126	199.843
997.019	97.0078
999.911	55.3902
1002.8	34.1553
1005.7	24.4957
1008.59	17.1316
1011.48	10.9855
1014.38	6.55107
1017.27	7.8747
1020.16	2.87647
1023.05	1.91077
1025.95	0.31723
1028.84	1.43634
1031.73	3.08856
1034.62	1.67999
1037.52	4.21301
1040.41	4.23874
1043.3	3.28107
1046.19	1.64545
1049.09	3.8876
1051.98	2.78195
1054.87	5.16367
1057.77	8.99686
1060.66	10.8607
1063.55	13.649
1066.44	14.2873
1069.34	14.3541
1072.23	13.0592
1075.12	10.2858
1078.01	10.7698
1080.91	12.748
1083.8	17.4885
1086.69	16.7848
1089.59	25.4435
1092.48	26.902
1095.37	33.1704
1098.26	30.6647
1101.16	32.7668
1104.05	32.6663
1106.94	28.2508
1109.83	33.1238
1112.73	26.3875
1115.62	19.4927
1118.51	19.9676
1121.4	12.1623
1124.3	8.16974
1127.19	3.75107
1130.08	2.2721
1132.98	1.5914
1135.87	3.29404
1138.76	0.451324
1141.65	1.14899
1144.55	3.4079
1147.44	4.43189
1150.33	1.323
1153.22	11.6153
1156.12	18.3871
1159.01	18.4034
1161.9	19.6562
1164.8	13.0689
1167.69	8.52307
1170.58	4.96411
1173.47	8.4588
1176.37	9.08404
1179.26	19.404
1182.15	30.53
1185.04	31.5358
1187.94	43.289
1190.83	42.3266
1193.72	28.7809
1196.62	21.0242
1199.51	15.0633
1202.4	6.92407
1205.29	9.81238
1208.19	6.41516
1211.08	9.75378
1213.97	12.7977
1216.86	14.6947
1219.76	22.8429
1222.65	25.1996
1225.54	42.4706
1228.43	34.7006
1231.33	29.265
1234.22	32.0718
1237.11	36.0818
1240.01	31.421
1242.9	35.1218
1245.79	34.6898
1248.68	36.9029
1251.58	28.0939
1254.47	20.8928
1257.36	19.9493
1260.25	31.6962
1263.15	23.2424
1266.04	22.9601
1268.93	12.8982
1271.83	4.69067
1274.72	3.83997
1277.61	5.26514
1280.5	0.775635
1283.4	7.81775
