Measurement: Raman, 532 nm, unoriented, Raman Data Processed
Mineral: Chapmanite
Rruff sample: R060910
Ideal chemistry: Fe^3+^_2_Sb^3+^(SiO_4_)_2_(OH)
Locality: Cobalt, Ontario, Canada
Source: Royal Ontario Museum
Description: Greenish yellow massive
Raman shift (cm-1)	intensity
165.878	0
168.77	503.111
171.663	2057.34
174.556	4176.95
177.448	4296.56
180.341	3929.14
183.234	5030.56
186.127	6299.84
189.019	5633.04
191.912	1948
194.805	185.398
197.697	265.93
200.59	36.5742
203.483	661.768
206.375	1374.37
209.268	2297.89
212.161	2568.03
215.054	3115.11
217.946	4479.03
220.839	5302.54
223.732	3927.56
226.624	1998.14
229.517	1057.84
232.41	363.127
235.303	33.5352
238.195	66.4238
241.088	2.91406
243.981	132.592
246.873	422.598
249.766	809.482
252.659	1069.93
255.551	1471.15
258.444	1319.42
261.337	700.379
264.229	321.428
267.122	241.268
270.015	159.799
272.908	329.113
275.8	437.852
278.693	413.859
281.586	269.002
284.478	72.8047
287.371	34.3086
290.264	128.029
293.156	56.5156
296.049	1.36328
298.942	56.1055
301.834	207.709
304.727	704.143
307.62	1201.84
310.513	1505.06
313.405	1673.93
316.298	1488.49
319.191	725.043
322.083	438.481
324.976	522.42
327.869	774.016
330.762	1160.24
333.654	1831.34
336.547	2466.26
339.44	3242.36
342.332	4206.84
345.225	4772.98
348.118	4488.21
351.01	3740.98
353.903	2618.11
356.796	1640.64
359.688	1122.65
362.581	662.852
365.474	251.615
368.366	131.135
371.259	44.5254
374.152	76.4414
377.045	2.25586
379.937	309.139
382.83	781.113
385.723	1370.14
388.615	2045.31
391.508	2440.26
394.401	2549.28
397.293	2964.64
400.186	3551.56
403.079	4390.08
405.972	5267.77
408.864	6018.07
411.757	6152.88
414.65	6105.08
417.542	6396.91
420.435	6459.36
423.328	6330.78
426.221	6145.91
429.113	5648.49
432.006	5084.66
434.899	4785.67
437.791	4222.28
440.684	3681.15
443.577	2970.36
446.469	2174.66
449.362	1487.08
452.255	979.117
455.147	724.314
458.04	674.307
460.933	461.525
463.826	447.682
466.718	380.828
469.611	471.217
472.504	628.574
475.396	624.061
478.289	393.334
481.182	381.625
484.074	384.99
486.967	450.174
489.86	183.94
492.752	116.453
495.645	160.711
498.538	68.6836
501.431	71.5547
504.323	9.42188
507.216	42.0762
510.109	110.883
513.001	49.2832
515.894	28.9277
518.787	21.7168
521.679	264.738
524.572	117.092
527.465	293.09
530.358	218.463
533.25	221.799
536.143	414.728
539.036	399.305
541.928	720.193
544.821	949.596
547.714	975.59
550.606	859.691
553.499	911.918
556.392	810.564
559.284	725.242
562.177	553.199
565.07	550.156
567.963	499.719
570.855	324.971
573.748	295.562
576.641	142.035
579.533	187.305
582.426	110.668
585.319	21.3555
588.212	228.906
591.104	85.0977
593.997	133.635
596.89	98.5918
599.782	5.01562
602.675	12.0898
605.568	145.242
608.46	182.182
611.353	196.25
614.246	143.184
617.139	151.965
620.031	142.861
622.924	267.478
625.817	295.269
628.709	167.34
631.602	88.5215
634.495	40.9297
637.387	5.26562
640.28	3.63672
643.173	94.7695
646.066	12.2148
648.958	28.8672
651.851	182.6
654.744	250.846
657.636	139.631
660.529	177.033
663.422	32.1738
666.314	176.166
669.207	282.559
672.1	251.578
674.992	182.531
677.885	226.934
680.778	274.684
683.67	545.758
686.563	754.877
689.456	814.357
692.349	1139.01
695.241	1305.3
698.134	1663.22
701.027	1813.5
703.919	1780.21
706.812	1881.04
709.705	1945.5
712.597	1872.72
715.49	1564.01
718.383	1551.79
721.276	1413.84
724.168	1099.89
727.061	847.168
729.954	798.066
732.846	633.688
735.739	533.219
738.632	301.273
741.524	273.613
744.417	362.301
747.31	425.644
750.203	230.062
753.095	8.19531
755.988	60.1992
758.881	33.6211
761.773	2.375
764.666	7.625
767.559	147.969
770.452	343.816
773.344	570.309
776.237	238.34
779.13	273.484
782.022	296.215
784.915	152.273
787.808	172.363
790.7	285.691
793.593	414.898
796.486	373.766
799.378	470.836
802.271	475.668
805.164	553.664
808.057	611.195
810.949	625.336
813.842	452.012
816.735	478.199
819.627	333.199
822.52	358.781
825.413	347.125
828.305	325.945
831.198	449.207
834.091	322.059
836.984	201.656
839.876	102.918
842.769	58.0312
845.662	308.336
848.554	139.242
851.447	10.5469
854.34	117.684
857.232	32.582
860.125	27.5312
863.018	135.883
865.91	149.789
868.803	81.0625
871.696	58.4297
874.589	95.4844
877.481	139.59
880.374	139.356
883.267	150.023
886.159	297.996
889.052	284.941
891.945	461.168
894.837	593.027
897.73	830.766
900.623	555.398
903.516	629.691
906.408	672.648
909.301	648.129
912.194	348.656
915.086	371.621
917.979	218.918
920.872	283.984
923.764	443.688
926.657	464.902
929.55	476.406
932.442	382.445
935.335	278.402
938.228	262.117
941.121	303.769
944.013	165.785
946.906	183.754
949.799	152
952.691	241.402
955.584	180.961
958.477	108.148
961.37	38.5859
964.262	253.231
967.155	32.0508
970.048	137.031
972.94	48.0781
975.833	135.988
978.726	177.09
981.618	20.7188
984.511	101.043
987.404	104.801
990.296	13.6328
993.189	108.57
996.082	81.3516
998.975	230.793
1001.87	269.41
1004.76	310.062
1007.65	312.066
1010.54	546.93
1013.44	561.531
1016.33	361.613
1019.22	239.344
1022.12	285.918
1025.01	156.375
1027.9	196.805
1030.79	248.906
1033.69	23.2422
1036.58	62.332
1039.47	243.516
1042.37	94.9844
1045.26	5.47266
1048.15	9.36719
1051.04	146.625
1053.94	214.586
1056.83	422.988
1059.72	236.613
1062.61	192.34
1065.51	331.246
1068.4	37.9219
1071.29	360.602
1074.18	387.195
1077.08	383.547
1079.97	12.0703
1082.86	105.953
1085.76	51
1088.65	35.5234
1091.54	56.5664
1094.43	3.47266
1097.33	148.293
1100.22	295.75
1103.11	131.559
1106	136.016
1108.9	83.2617
1111.79	223.484
1114.68	353.164
1117.58	342.574
1120.47	138.133
1123.36	17.2109
1126.25	143.062
1129.15	159.184
1132.04	261.238
1134.93	287.109
1137.82	53.1445
1140.72	177.363
1143.61	135.629
1146.5	89.1641
1149.39	65.8398
1152.29	170.059
1155.18	226.738
1158.07	159.34
1160.97	202.258
1163.86	209.215
1166.75	30.9258
1169.64	104.922
1172.54	60.0742
1175.43	218.512
1178.32	209.887
1181.21	450.902
1184.11	425.398
1187	315.461
1189.89	276.586
1192.79	100.754
1195.68	70.1445
1198.57	21.9453
1201.46	195.43
1204.36	125.488
1207.25	231.519
1210.14	368.59
1213.03	310.574
1215.93	207.773
1218.82	120.598
1221.71	81.1602
1224.61	301.394
1227.5	335.523
1230.39	289.891
1233.28	355.633
1236.18	441.008
1239.07	364.203
1241.96	378.656
1244.85	366.41
1247.75	549.062
1250.64	377.207
1253.53	173.941
1256.42	415.676
1259.32	430.066
1262.21	18.5703
1265.1	4.91406
1267.99	41.6914
1270.89	349.867
1273.78	450.019
1276.67	444.09
1279.57	258.406
1282.46	196.922
1285.35	173.035
1288.24	226.938
1291.14	110.637
1294.03	155.055
