Measurement: Raman, 785 nm, unoriented, Raman Data Processed
Mineral: Chapmanite
Rruff sample: R060910
Ideal chemistry: Fe^3+^_2_Sb^3+^(SiO_4_)_2_(OH)
Locality: Cobalt, Ontario, Canada
Source: Royal Ontario Museum
Description: Greenish yellow massive
Raman shift (cm-1)	intensity
168.775	0
171.668	818.895
174.56	1618.04
177.453	1214.43
180.346	950.611
183.238	1319.94
186.131	2105.55
189.024	1752.3
191.917	462.978
194.809	8.31934
197.702	115.524
200.595	30.4199
203.487	128.518
206.38	216.525
209.273	488.115
212.165	506.981
215.058	805.717
217.951	1418.11
220.844	1765.28
223.736	1256.81
226.629	710.356
229.522	373.251
232.414	144.952
235.307	19.1924
238.2	131.863
241.092	178.358
243.985	158.838
246.878	128.168
249.77	325.49
252.663	521.176
255.556	751.335
258.449	690.18
261.341	429.269
264.234	157.491
267.127	203.99
270.019	99.5098
272.912	238.832
275.805	272.548
278.697	275.337
281.59	216.824
284.483	186.138
287.376	77.1182
290.268	15.4863
293.161	6.71582
296.054	5.25391
298.946	2.91894
301.839	205.165
304.732	320.466
307.625	498.401
310.517	810.367
313.41	721.621
316.303	707.749
319.195	311.572
322.088	167.994
324.981	297.647
327.873	463.071
330.766	553.179
333.659	624.649
336.551	749.227
339.444	843.291
342.337	1131.31
345.23	1419.72
348.122	1404.32
351.015	1207.17
353.908	894.518
356.8	588.885
359.693	411.933
362.586	123.136
365.478	11.0264
368.371	51.1084
371.264	63.9609
374.157	65.6963
377.049	130.549
379.942	108.772
382.835	106.894
385.727	334.775
388.62	597.036
391.513	835.705
394.406	850.812
397.298	962.468
400.191	1054.1
403.084	1339.25
405.976	1666.31
408.869	1821.89
411.762	1953.86
414.654	1921.25
417.547	2038.02
420.44	2022.42
423.332	1983.94
426.225	1977.59
429.118	1829.31
432.011	1733.81
434.903	1853.37
437.796	1551.04
440.689	1359.73
443.581	1083.68
446.474	893.592
449.367	603.985
452.26	431.106
455.152	234.777
458.045	185.498
460.938	174.596
463.83	177.454
466.723	153.367
469.616	127.425
472.508	147.183
475.401	23.5762
478.294	86.0898
481.187	21.8145
484.079	9.11523
486.972	108.263
489.865	112.829
492.757	16.6074
495.65	15.9346
498.543	24.6699
501.435	50.8164
504.328	68.5801
507.221	8.14941
510.113	44.2031
513.006	36.6562
515.899	42.0635
518.792	79.5684
521.684	84.4219
524.577	101.756
527.47	63.0889
530.362	95.0205
533.255	64.2285
536.148	128.991
539.04	274.334
541.933	282.547
544.826	294.874
547.719	262.103
550.611	290.313
553.504	327.664
556.397	328.766
559.289	251.606
562.182	230.143
565.075	189.656
567.967	113.783
570.86	60.9141
573.753	17.0811
576.646	54.8076
579.538	67.0908
582.431	95.1572
585.324	62.667
588.216	30.4502
591.109	70.0234
594.002	76.6562
596.894	37.1113
599.787	34.5
602.68	14.0762
605.573	75.085
608.465	14.6973
611.358	86.9326
614.251	78.3477
617.143	141.649
620.036	27.9473
622.929	59.5762
625.822	71.7256
628.714	51.127
631.607	95.0801
634.5	16.7832
637.392	66.0127
640.285	85.2119
643.178	56.0889
646.07	35.6787
648.963	105.903
651.856	94.5859
654.749	112.888
657.641	88.582
660.534	119.926
663.427	30.5908
666.319	13.3369
669.212	150.043
672.105	126.981
674.997	163.442
677.89	188.898
680.783	201.261
683.676	198.554
686.568	111.691
689.461	156.452
692.354	201.361
695.246	226.887
698.139	351.193
701.032	279.59
703.924	275.402
706.817	128.153
709.71	244.883
712.602	139.594
715.495	182.659
718.388	140.148
721.281	113.932
724.173	110.882
727.066	20.0869
729.959	83.4082
732.851	56.6719
735.744	24.9785
738.637	133.327
741.529	81.0889
744.422	46.0762
747.315	76.4805
750.208	121.264
753.1	78.8691
755.993	7.70801
758.886	81.9102
761.778	5.33398
764.671	73.666
767.564	80.8574
770.457	205.66
773.349	132.649
776.242	186.053
779.135	101.24
782.027	5.68848
784.92	166.793
787.813	134.192
790.705	118.629
793.598	101.194
796.491	103.519
799.384	62.3594
802.276	43.7959
805.169	135.81
808.062	213
810.954	131.045
813.847	153.131
816.74	43.4844
819.632	77.4111
822.525	58.5283
825.418	56.3428
828.311	68.0586
831.203	20.998
834.096	54.4228
836.989	26.1533
839.881	50.4844
842.774	18.626
845.667	45.3555
848.559	89.0264
851.452	57.3438
854.345	14.4316
857.238	1.74316
860.13	51.4209
863.023	90.543
865.916	3.64746
868.808	27.6562
871.701	20.041
874.594	77.4922
877.486	9.5459
880.379	109.08
883.272	98.1953
886.165	87.7822
889.057	63.1602
891.95	47.5547
894.843	82.6211
897.735	99.2852
900.628	112.493
903.521	110.756
906.413	123.203
909.306	116.917
912.199	105.432
915.092	45.2246
917.984	56.2002
920.877	86.626
923.77	59.6094
926.662	31.9102
929.555	108.591
932.448	56.916
935.341	123.637
938.233	16.7168
941.126	51.5742
944.019	36.042
946.911	31.0781
949.804	27.1016
952.697	79.4434
955.589	124.342
958.482	13.3906
961.375	65.209
964.268	55.0938
967.16	139.074
970.053	98.96
972.946	63.1065
975.838	130.861
978.731	46.917
981.624	119.608
984.516	133.134
987.409	50.9951
990.302	78.5635
993.194	18.165
996.087	45.4756
998.98	96.7471
1001.87	88.6025
1004.76	126.881
1007.66	118.391
1010.55	127.812
1013.44	72.5244
1016.34	81.6914
1019.23	74.9707
1022.12	91.416
1025.01	22.626
1027.91	24.0938
1030.8	45.0625
1033.69	6.45117
1036.59	50.1709
1039.48	95.0059
1042.37	99.4961
1045.26	35.0967
1048.16	112.463
1051.05	19.6475
1053.94	39.5195
1056.83	49.6221
1059.73	62.9853
1062.62	147.439
1065.51	55.6221
1068.4	100.169
1071.3	112.755
1074.19	112.676
1077.08	44.4043
1079.98	114.705
1082.87	28.5664
1085.76	67.9326
1088.65	88.4971
1091.55	35.4697
1094.44	45.9971
1097.33	48.3852
1100.22	34.8023
1103.12	54.0469
1106.01	16.5127
1108.9	47.4053
1111.8	99.7495
1114.69	80.3506
1117.58	156.122
1120.47	108.834
1123.37	117.081
1126.26	101.221
1129.15	65.1064
1132.04	67.061
1134.94	67.7637
1137.83	26.5864
1140.72	58.5635
1143.62	63.7427
1146.51	33.6216
1149.4	38.5693
1152.29	37.4815
1155.19	31.4898
1158.08	46.8433
1160.97	77.3354
1163.86	57.1172
1166.76	56.5781
1169.65	53.0493
1172.54	34.2515
1175.43	1.13477
1178.33	32.5381
1181.22	34.6875
1184.11	59.6148
1187.01	29.7539
1189.9	61.5635
1192.79	0.484863
1195.68	79.9609
1198.58	76.4341
1201.47	60.669
1204.36	37.1846
1207.25	5.95996
1210.15	18.4399
1213.04	40.0869
1215.93	28.1997
1218.83	79.5102
1221.72	74.3237
1224.61	19.3252
1227.5	124.106
1230.4	42.1289
1233.29	44.4785
1236.18	33.4531
1239.07	21.502
1241.97	94.1099
1244.86	100.122
1247.75	27.8623
1250.64	72.1338
1253.54	92.667
1256.43	110.843
1259.32	23.397
1262.22	74.4087
1265.11	117.259
1268	3.81006
