Measurement: Raman, 780 nm, unoriented, Raman Data Processed
Mineral: Charoite
Rruff sample: R060376
Ideal chemistry: (K,Sr,Ba,Mn)_15-16_(Ca,Na)_32_Si_70_(O,OH)_180_(OH,F)_4_nH_2_O
Locality: Chara River area, Murun Massif, northwest Aldan, Siberia, U.S.S.R.
Source: Michael Scott
Description: Purple flaky and massive associated with tan colored tinaksite, R060375
Raman shift (cm-1)	intensity
101.728	0
105.103	4.45638
108.478	3.96099
111.852	0.180893
115.227	3.08619
118.602	6.06387
121.977	12.4937
125.352	16.2921
128.726	18.5463
132.101	19.8164
135.476	16.7853
138.851	18.0802
142.226	14.8042
145.601	10.5405
148.975	8.48806
152.35	5.68351
155.725	4.85008
159.1	5.35506
162.475	5.10697
165.85	3.4575
169.224	0.28138
172.599	1.82718
175.974	0.13028
179.349	2.22961
182.724	7.799
186.098	10.9479
189.473	9.75714
192.848	8.30193
196.223	10.3094
199.598	11.8435
202.972	13.4156
206.347	15.2109
209.722	18.1793
213.097	17.177
216.472	13.5183
219.847	13.45
223.221	15.9037
226.596	16.4595
229.971	15.807
233.346	17.0934
236.721	19.2895
240.095	23.9168
243.47	29.1417
246.845	30.7266
250.22	24.6177
253.595	20.3724
256.969	17.0166
260.344	9.76488
263.719	7.31374
267.094	6.80241
270.469	2.80914
273.844	0.373337
277.218	0.274181
280.593	1.13851
283.968	0.82338
287.343	3.14206
290.718	6.37498
294.092	8.88594
297.467	9.88162
300.842	9.61686
304.217	11.2957
307.592	12.5295
310.967	16.1172
314.341	16.3736
317.716	16.4723
321.091	13.9846
324.466	13.213
327.841	11.1841
331.216	10.6198
334.59	9.52321
337.965	9.15437
341.34	9.54818
344.715	8.93423
348.09	6.93631
351.464	3.06293
354.839	0.308899
358.214	0.805077
361.589	0.643276
364.964	0.714775
368.339	1.3653
371.713	0.454105
375.088	1.28423
378.463	0.365135
381.838	0.260128
385.213	1.72578
388.587	3.91531
391.962	4.17171
395.337	3.61427
398.712	3.07558
402.087	3.84207
405.462	5.14305
408.836	7.29642
412.211	10.943
415.586	9.6262
418.961	7.84874
422.336	8.5532
425.71	13.4184
429.085	17.9369
432.46	22.0664
435.835	23.2855
439.21	20.535
442.584	14.027
445.959	13.2925
449.334	13.7871
452.709	14.371
456.084	15.1513
459.459	18.9508
462.833	25.407
466.208	22.2701
469.583	12.1289
472.958	6.51006
476.333	6.71384
479.707	4.85422
483.082	4.67462
486.457	5.53286
489.832	5.43757
493.207	5.59097
496.582	7.55982
499.956	7.10319
503.331	6.87322
506.706	6.98889
510.081	6.64528
513.456	5.19054
516.83	3.59656
520.205	2.96676
523.58	0.478939
526.955	1.11758
530.33	0.427498
533.705	0.310394
537.079	0.895504
540.454	1.23349
543.829	0.307049
547.204	0.555458
550.579	0.975597
553.953	0.070446
557.328	1.65841
560.703	0.011707
564.078	0.970406
567.453	0.869934
570.827	0.970264
574.202	1.48473
577.577	2.90128
580.952	3.36581
584.327	3.77678
587.702	2.41143
591.076	3.84542
594.451	2.72112
597.826	3.74363
601.201	5.66695
604.576	8.25131
607.951	9.28115
611.325	10.1986
614.7	10.6084
618.075	15.3354
621.45	22.8478
624.825	35.0863
628.199	50.085
631.574	71.29
634.949	91.7711
638.324	101.56
641.699	90.5045
645.073	78.4198
648.448	73.2774
651.823	65.5221
655.198	57.9709
658.573	57.0027
661.948	67.2456
665.322	83.9641
668.697	106.83
672.072	127.589
675.447	137.754
678.822	118.387
682.197	79.8772
685.571	48.1858
688.946	30.1336
692.321	20.2695
695.696	13.8286
699.071	10.0155
702.445	6.01484
705.82	2.54666
709.195	1.00951
712.57	1.8824
715.945	1.31533
719.319	0.918022
722.694	0.728497
726.069	0.199787
729.444	0.022915
732.819	0.519241
736.193	0.42276
739.568	0.048958
742.943	0.419849
746.318	1.57407
749.693	1.45375
753.068	0.717884
756.442	2.32718
759.817	3.22488
763.192	4.61544
766.567	6.01806
769.942	7.30882
773.317	7.02945
776.691	7.80853
780.066	7.14265
783.441	6.90286
786.816	4.7884
790.191	3.16097
793.565	3.55972
796.94	2.14719
800.315	2.82721
803.69	2.02731
807.065	2.64345
810.439	1.81015
813.814	0.464413
817.189	0.266289
820.564	1.48511
823.939	1.82848
827.314	1.94077
830.688	1.09337
834.063	1.69987
837.438	2.01786
840.813	1.81927
844.188	2.27572
847.562	1.77569
850.937	2.16595
854.312	1.61243
857.687	2.26918
861.062	1.76437
864.437	1.56615
867.811	0.68811
871.186	0.734848
874.561	0.765442
877.936	0.153889
881.311	1.2218
884.686	0.443214
888.06	0.117954
891.435	0.265705
894.81	0.51263
898.185	0.955086
901.56	0.930504
904.934	0.3773
908.309	0.080124
911.684	0.753853
915.059	0.355537
918.434	0.136475
921.808	0.050667
925.183	1.06517
928.558	1.29204
931.933	2.38111
935.308	2.55454
938.683	4.66251
942.057	5.2648
945.432	6.8691
948.807	8.55957
952.182	9.56715
955.557	9.31498
958.932	6.51695
962.306	3.42152
965.681	1.76711
969.056	0.011631
972.431	0.078472
975.806	0.988697
979.18	1.2144
982.555	2.52434
985.93	5.30553
989.305	7.79656
992.68	0.791454
996.054	0.881123
999.429	1.77085
1002.8	2.32776
1006.18	1.04519
1009.55	0.215523
1012.93	0.953239
1016.3	0.475422
1019.68	0.764442
1023.05	0.614014
1026.43	1.70541
1029.8	2.34783
1033.18	3.12736
1036.55	3.36437
1039.93	3.35598
1043.3	3.76528
1046.68	5.97515
1050.05	8.16678
1053.43	10.0942
1056.8	11.4505
1060.18	12.6808
1063.55	11.1257
1066.93	7.42178
1070.3	3.92746
1073.67	1.59614
1077.05	1.58679
1080.42	1.3045
1083.8	1.28437
1087.17	1.15185
1090.55	0.717693
1093.92	1.52964
1097.3	0.406239
1100.67	1.33279
1104.05	3.61959
1107.42	4.9444
1110.8	5.56204
1114.17	5.51511
1117.55	5.6003
1120.92	4.76339
1124.3	7.83373
1127.67	15.4101
1131.05	22.9221
1134.42	26.2336
1137.8	28.8233
1141.17	34.4909
1144.55	29.422
1147.92	13.2886
1151.3	4.45058
1154.67	2.47569
1158.05	1.7236
1161.42	0.903988
1164.8	0.08387
1168.17	1.30186
1171.55	1.78324
1174.92	3.24241
1178.3	4.08579
1181.67	4.69434
1185.04	4.81825
1188.42	5.83503
1191.79	7.43533
1195.17	8.38077
1198.54	9.83035
1201.92	9.89254
1205.29	10.5997
1208.67	10.7137
1212.04	10.6234
1215.42	11.8404
1218.79	10.923
1222.17	10.3704
1225.54	6.76128
1228.92	7.22464
1232.29	4.94137
1235.67	4.96244
1239.04	3.34055
1242.42	1.03498
1245.79	1.70765
1249.17	2.60798
1252.54	0.278671
1255.91	0.568462
1259.29	0.883129
1262.66	0.175457
1266.04	0.517132
1269.41	3.33755
1272.79	1.69093
1276.16	3.55312
1279.54	1.53914
1282.91	0.606388
