Measurement: Raman, 780 nm, unoriented, Raman Data Processed
Mineral: Charoite
Rruff sample: R060557
Ideal chemistry: (K,Sr,Ba,Mn)_15-16_(Ca,Na)_32_Si_70_(O,OH)_180_(OH,F)_4_nH_2_O
Locality: Russia
Source: Gemological Institute of America
Description: Purple massive
Measured chemistry: (K_15.13_Ba_1.37_Sr_0.57_Mn_0.20_Fe_0.02_)_Σ=17.29_(Ca_26.56_Na_2.60_)_Σ=29.16_(Si_69.97_Al_0.03_)_Σ=70.00_(O_179.73_F_0.27_)_Σ=180.00_F_4.05_·16H_2_O ; lighter phase : K_1.00_Al_1.00_Si_3.00_O_8_ darker phase
Raman shift (cm-1)	intensity
96.9068	0
100.282	11.8562
103.656	25.8974
107.031	50.444
110.406	10.2531
113.781	0.928253
117.156	12.5586
120.531	38.0538
123.905	76.4503
127.28	84.9477
130.655	55.5302
134.03	37.8171
137.405	27.1221
140.779	21.2438
144.154	20.5731
147.529	29.2927
150.904	19.1231
154.279	9.21584
157.654	4.50648
161.028	2.19688
164.403	0.580795
167.778	2.12831
171.153	3.46796
174.528	16.0216
177.902	23.9251
181.277	24.7061
184.652	32.5515
188.027	35.2687
191.402	31.1175
194.776	35.5303
198.151	35.3015
201.526	18.639
204.901	10.3582
208.276	10.3853
211.651	13.4148
215.025	7.5004
218.4	3.62218
221.775	1.01294
225.15	0.9944
228.525	1.26927
231.899	4.8121
235.274	13.0087
238.649	26.8768
242.024	47.346
245.399	64.8754
248.774	61.1083
252.148	45.602
255.523	41.6566
258.898	45.0078
262.273	53.2778
265.648	53.8959
269.022	35.9968
272.397	23.489
275.772	20.6467
279.147	28.4878
282.522	40.5837
285.897	38.2231
289.271	22.7434
292.646	11.498
296.021	4.66516
299.396	2.22955
302.771	1.02049
306.145	3.02274
309.52	6.28815
312.895	8.62975
316.27	12.012
319.645	16.1952
323.019	21.4815
326.394	23.9424
329.769	24.52
333.144	21.7109
336.519	22.5828
339.894	21.9856
343.268	21.1886
346.643	20.3265
350.018	17.5301
353.393	9.45474
356.768	1.30129
360.142	2.00484
363.517	0.792694
366.892	5.31986
370.267	10.1081
373.642	4.96784
377.017	1.2138
380.391	1.83269
383.766	2.50012
387.141	9.65446
390.516	14.6192
393.891	12.4222
397.265	13.5297
400.64	14.4446
404.015	13.5486
407.39	13.8885
410.765	20.1349
414.14	16.8983
417.514	5.57152
420.889	2.10903
424.264	0.171738
427.639	6.43424
431.014	15.1449
434.389	26.4483
437.763	33.51
441.138	40.4629
444.513	53.8921
447.888	78.8513
451.263	92.712
454.637	66.3043
458.012	45.5897
461.387	48.1852
464.762	62.3551
468.137	58.6961
471.512	60.1472
474.886	55.555
478.261	32.8421
481.636	16.6703
485.011	10.1392
488.386	6.5666
491.76	13.7248
495.135	28.2588
498.51	50.8065
501.885	77.2042
505.26	116.373
508.635	160.074
512.009	169.411
515.384	104.315
518.759	50.0385
522.134	24.4169
525.509	13.0238
528.883	6.01366
532.258	1.79583
535.633	0.51503
539.008	0.360428
542.383	0.190575
545.757	0.48642
549.132	1.37093
552.507	3.04244
555.882	3.87862
559.257	2.61039
562.631	0.324402
566.006	1.85825
569.381	3.2028
572.756	2.09695
576.131	1.00985
579.506	0.264267
582.88	0.642097
586.255	0.954948
589.63	2.88393
593.005	3.42462
596.38	7.70448
599.755	12.5174
603.129	20.1136
606.504	26.9773
609.879	29.442
613.254	29.3972
616.629	35.8295
620.003	53.0232
623.378	80.1603
626.753	114.403
630.128	162.212
633.503	222.536
636.878	273.228
640.252	276.76
643.627	228.541
647.002	202.909
650.377	181.806
653.752	148.89
657.126	135.635
660.501	145.098
663.876	177.318
667.251	226.602
670.626	285.602
674	342.562
677.375	328.862
680.75	234.521
684.125	142.698
687.5	87.6073
690.875	56.6858
694.249	40.9453
697.624	28.5702
700.999	17.1859
704.374	8.2794
707.749	3.91105
711.124	3.964
714.498	0.549919
717.873	1.40446
721.248	2.71351
724.623	1.83881
727.998	0.096359
731.372	3.02523
734.747	7.74278
738.122	14.8407
741.497	25.4569
744.872	36.1102
748.246	30.2294
751.621	15.3072
754.996	8.79721
758.371	7.55893
761.746	7.10998
765.12	9.41428
768.495	11.3035
771.87	10.7703
775.245	8.58849
778.62	6.28015
781.995	3.63335
785.369	0.355827
788.744	0.873062
792.119	0.602676
795.494	2.19355
798.869	4.84065
802.244	10.5575
805.618	18.0998
808.993	27.6892
812.368	32.661
815.743	19.7078
819.118	8.0872
822.492	3.69603
825.867	0.851105
829.242	0.771507
832.617	0.784462
835.992	2.04877
839.366	1.49968
842.741	1.22329
846.116	0.160904
849.491	0.225739
852.866	0.696365
856.241	1.82409
859.615	1.88189
862.99	0.760086
866.365	0.758011
869.74	1.9547
873.115	0.649765
876.49	0.855621
879.864	0.051971
883.239	0.504936
886.614	0.490685
889.989	0.156723
893.364	0.640915
896.738	0.027588
900.113	0.772377
903.488	0.558456
906.863	2.57079
910.238	1.24269
913.612	1.86427
916.987	0.349098
920.362	0.217209
923.737	0.831833
927.112	3.36035
930.487	6.43418
933.861	12.1935
937.236	17.8561
940.611	23.557
943.986	26.0623
947.361	31.7613
950.736	43.6914
954.11	52.6015
957.485	46.9929
960.86	28.2797
964.235	15.3244
967.61	10.6798
970.984	7.03916
974.359	5.41371
977.734	4.55885
981.109	3.24192
984.484	4.51416
987.859	5.53637
991.233	6.8615
994.608	6.65025
997.983	6.35724
1001.36	5.24165
1004.73	2.50765
1008.11	1.23858
1011.48	0.167015
1014.86	0.456253
1018.23	0.50531
1021.61	1.092
1024.98	1.44001
1028.36	1.84024
1031.73	5.67837
1035.11	7.16406
1038.48	14.2216
1041.86	21.0748
1045.23	23.9648
1048.61	26.4927
1051.98	30.4655
1055.36	28.2182
1058.73	22.8951
1062.1	18.4844
1065.48	13.9172
1068.85	7.69721
1072.23	6.25529
1075.6	4.03895
1078.98	4.5903
1082.35	6.78959
1085.73	5.02518
1089.1	2.30614
1092.48	3.60471
1095.85	4.35458
1099.23	10.0651
1102.6	17.0225
1105.98	20.1379
1109.35	25.0654
1112.73	23.5432
1116.1	23.0193
1119.48	24.0377
1122.85	31.1072
1126.23	45.8891
1129.6	73.5057
1132.98	91.022
1136.35	94.5689
1139.72	110.709
1143.1	119.987
1146.47	74.8292
1149.85	24.5834
1153.22	8.57855
1156.6	2.48064
1159.97	0.816071
1163.35	0.970718
1166.72	1.64795
1170.1	0.302292
1173.47	1.0197
1176.85	1.31483
1180.22	3.03024
1183.6	3.33505
1186.97	5.70766
1190.35	5.42493
1193.72	7.29353
1197.1	8.64195
1200.47	8.59506
1203.85	8.90199
1207.22	9.66176
1210.6	9.33618
1213.97	11.7572
1217.35	9.42653
1220.72	7.56288
1224.1	5.20711
1227.47	5.63316
1230.85	2.57031
1234.22	2.39409
1237.6	0.699966
1240.97	0.648148
1244.34	0.323242
1247.72	0.007553
1251.09	0.135468
1254.47	0.396927
1257.84	0.785629
1261.22	3.31284
1264.59	4.05914
1267.97	2.99741
1271.34	1.81584
1274.72	1.93425
1278.09	1.21104
1281.47	1.17444
1284.84	0.411896
