Measurement: Raman, 532 nm, unoriented, Raman Data Processed
Mineral: Chayesite
Rruff sample: R070367
Ideal chemistry: KMg_2_(Mg_2_Fe^3+^Si_12_)O_30_
Locality: Moon Canyon, Woodland, Summit County, Utah, USA
Source: Michael Scott
Description: Blue transparent tabular crystals in vugs, co-type sample
Raman shift (cm-1)	intensity
174.25	0
177.143	591.594
180.035	417.781
182.928	34.6562
185.821	268.188
188.713	691.688
191.606	1259.7
194.499	1250.38
197.391	1752.41
200.284	1919.88
203.177	2305.41
206.07	2591.16
208.962	2302.62
211.855	2374.12
214.748	2319.33
217.64	2497.53
220.533	2871.64
223.426	2462.8
226.318	2415.97
229.211	2750.3
232.104	2622.94
234.996	1893.28
237.889	2124.33
240.782	1912.72
243.675	2221.72
246.567	2737.23
249.46	2362.41
252.353	2125.92
255.245	2397.36
258.138	3173.67
261.031	3595.56
263.923	4248.02
266.816	4889.05
269.709	6031.47
272.602	5765.47
275.494	4487.03
278.387	3664.91
281.28	2850.92
284.173	2091.66
287.065	1591.17
289.958	1373.3
292.851	792.062
295.743	535.234
298.636	193.391
301.529	213.953
304.421	37.1094
307.314	150.594
310.207	19.9688
313.099	3.78125
315.992	210.531
318.885	2.85938
321.778	336.109
324.67	723.234
327.563	503.188
330.456	352.203
333.348	175.938
336.241	550.719
339.134	149.109
342.026	227.766
344.919	257.047
347.812	198.359
350.705	253.422
353.597	319.203
356.49	56.2812
359.383	68.8438
362.275	207.359
365.168	28.7188
368.061	73.6719
370.954	395.062
373.846	1007.62
376.739	1457.45
379.632	1086.69
382.524	892.547
385.417	428.484
388.31	273.469
391.202	433.266
394.095	121.281
396.988	11.1562
399.88	118.234
402.773	337.344
405.666	640.734
408.559	634.172
411.451	666.125
414.344	978.891
417.237	885.719
420.129	867.562
423.022	814.406
425.915	754.125
428.808	724.422
431.7	998.938
434.593	1484.45
437.486	1350.86
440.378	1836.88
443.271	3366.83
446.164	4680.5
449.056	7169.22
451.949	10471.9
454.842	13753.7
457.735	17815.2
460.627	21417.1
463.52	21638.3
466.413	16781.1
469.305	9987.92
472.198	5210.19
475.091	3053.06
477.983	1719.25
480.876	444.156
483.769	382.656
486.661	684.438
489.554	280
492.447	227.062
495.34	73.9375
498.232	122.781
501.125	3.5
504.018	147.188
506.911	183.844
509.803	657.031
512.696	979.875
515.589	866.281
518.481	1201.72
521.374	1588.78
524.267	2262.34
527.159	3040.12
530.052	3831.78
532.945	5056.31
535.837	5772.03
538.73	6169.81
541.623	5805.62
544.516	4852.94
547.408	4421.56
550.301	3151.81
553.194	2412.69
556.086	1924.66
558.979	1757.25
561.872	874.438
564.764	1155.62
567.657	99.5
570.55	100.125
573.443	16.25
576.335	97.3125
579.228	193.75
582.121	180.719
585.013	760.906
587.906	903.219
590.799	574.25
593.692	441.5
596.584	623.969
599.477	530.594
602.37	289.5
605.262	43.0625
608.155	18.9688
611.048	198.031
613.94	131.469
616.833	275.625
619.726	346.75
622.619	618.562
625.511	455.125
628.404	911.281
631.297	1341.38
634.189	1133.22
637.082	1465.94
639.975	1871.59
642.867	2507.5
645.76	1892.28
648.653	2275.25
651.545	2308.81
654.438	2430.22
657.331	2122.5
660.224	2417
663.116	2216.31
666.009	2207.78
668.902	1968.75
671.794	1974.34
674.687	1928.62
677.58	1772.75
680.472	1639.84
683.365	1749.62
686.258	1565.41
689.151	1147.47
692.043	1378.16
694.936	1277.16
697.829	687.688
700.721	17.375
703.614	626.031
706.507	729
709.399	145.938
712.292	402.031
715.185	352.75
718.078	293.125
720.97	65.3125
723.863	10.625
726.756	364.969
729.648	276.375
732.541	349.375
735.434	280.188
738.327	18.0625
741.219	1006.81
744.112	204.875
747.005	106.375
749.897	564.094
752.79	350.281
755.683	765.594
758.576	135.594
761.468	107.938
764.361	450.062
767.254	257.812
770.146	55.9062
773.039	543.625
775.932	392.688
778.824	6.3125
781.717	69.875
784.61	460.719
787.503	474.812
790.395	545.656
793.288	256.125
796.181	603.906
799.073	854.625
801.966	1339.91
804.859	331.406
807.751	648.938
810.644	750.688
813.537	621.875
816.429	988.875
819.322	404.406
822.215	1254.31
825.108	842.438
828	1153.84
830.893	862.688
833.786	400.562
836.678	482.25
839.571	421.094
842.464	261.719
845.356	499.656
848.249	64.5
851.142	43.4062
854.035	260.25
856.927	526.969
859.82	612.938
862.713	531.781
865.605	453.312
868.498	532.875
871.391	302.062
874.284	207.062
877.176	176.344
880.069	578.969
882.962	170.25
885.854	363.375
888.747	66.25
891.64	146.094
894.533	528.625
897.425	274.375
900.318	739.156
903.211	1120.56
906.103	1515.84
908.996	1490.62
911.889	2483.84
914.781	2945.09
917.674	2215.72
920.567	3359.47
923.46	3112.31
926.352	2753.62
929.245	2645.09
932.138	2735.47
935.03	2955.5
937.923	2936.16
940.816	4627.34
943.708	5393.78
946.601	5867.41
949.494	6199.03
952.386	5664.5
955.279	4531.47
958.172	3132.34
961.065	2029.06
963.957	1927.88
966.85	1021.88
969.743	405.844
972.635	7.4375
975.528	462.375
978.421	577.688
981.313	814.594
984.206	96.9688
987.099	535
989.992	1130.16
992.884	938.25
995.777	1188.12
998.67	1032.38
1001.56	843.031
1004.46	1468.16
1007.35	892.938
1010.24	781.594
1013.13	704.844
1016.03	912.406
1018.92	746.75
1021.81	924.875
1024.7	786.875
1027.6	384.656
1030.49	411.438
1033.38	211.75
1036.28	99.4688
1039.17	562.812
1042.06	96.6875
1044.95	469
1047.85	401.719
1050.74	335.031
1053.63	396.781
1056.52	593.406
1059.42	202.312
1062.31	268.375
1065.2	196.219
1068.09	337.625
1070.99	355.312
1073.88	402.344
1076.77	330.688
1079.66	369.688
1082.56	409.812
1085.45	753.438
1088.34	1199.72
1091.24	1371.88
1094.13	1949.81
1097.02	1911.91
1099.91	1958.53
1102.81	2450.09
1105.7	3143.53
1108.59	4046.19
1111.48	4283.5
1114.38	5074.44
1117.27	4527.69
1120.16	4068.03
1123.06	3996
1125.95	4077.34
1128.84	3379.62
1131.73	3585.31
1134.63	2753.53
1137.52	2465.62
1140.41	1982.59
1143.31	2271.91
1146.2	2288.22
1149.09	1376.38
1151.98	1134.62
1154.88	1508.94
1157.77	1305.34
1160.66	1548.94
1163.55	831.344
1166.45	1306.84
1169.34	1033.41
1172.23	403.156
1175.12	970.844
1178.02	1039.75
1180.91	191.812
1183.8	706.531
1186.69	980.438
1189.59	916.094
1192.48	1105.81
1195.37	808.125
1198.27	169.375
1201.16	56.0312
1204.05	1030.47
1206.94	653.188
1209.84	453.312
1212.73	735.969
1215.62	25.1875
1218.52	1216.75
1221.41	372.062
1224.3	201.5
1227.19	222.062
1230.09	584.5
1232.98	351.719
1235.87	836.719
1238.76	631.875
1241.66	899.125
1244.55	329.562
1247.44	822.875
1250.34	1148.41
1253.23	1459.78
1256.12	621.5
1259.01	844.188
1261.91	1329.78
1264.8	1825.31
1267.69	1552.78
1270.58	1580.88
1273.48	1395.53
1276.37	1478.22
1279.26	1570.72
1282.15	1899.25
1285.05	1818.69
1287.94	1301.12
1290.83	1298.69
1293.72	1474.78
1296.62	1306.75
1299.51	124.844
1302.4	693.125
1305.3	606
1308.19	651.781
1311.08	114.812
1313.97	194.906
