Measurement: Raman, 785 nm, unoriented, Raman Data Processed
Mineral: Chayesite
Rruff sample: R070367
Ideal chemistry: KMg_2_(Mg_2_Fe^3+^Si_12_)O_30_
Locality: Moon Canyon, Woodland, Summit County, Utah, USA
Source: Michael Scott
Description: Blue transparent tabular crystals in vugs, co-type sample
Raman shift (cm-1)	intensity
207.8	0
210.693	46.7383
213.586	1.1875
216.478	394.055
219.371	1105.86
222.264	1647.62
225.157	2138.66
228.049	2023.44
230.942	1574.38
233.835	1138.77
236.727	853.188
239.62	683.074
242.513	659.926
245.405	578.582
248.298	657.238
251.191	502.402
254.084	458.894
256.976	631.727
259.869	688.289
262.762	802.848
265.654	856.664
268.547	781.859
271.44	707.812
274.332	577.578
277.225	591.098
280.118	447.289
283.011	487.922
285.903	473.871
288.796	497.91
291.689	366.711
294.581	303.684
297.474	113.586
300.367	69.3242
303.26	314.332
306.152	130.793
309.045	230.234
311.938	152.234
314.83	153.715
317.723	147.332
320.616	75.5625
323.508	64.1641
326.401	74.0508
329.294	33.9062
332.187	378.18
335.079	288.859
337.972	152.383
340.865	111.93
343.757	40.8359
346.65	55.4023
349.543	209.078
352.435	243.394
355.328	358.801
358.221	410.34
361.113	324.672
364.006	379.086
366.899	356.719
369.792	539.621
372.684	512.922
375.577	719.102
378.47	562.527
381.362	257.152
384.255	91.3477
387.148	28.9531
390.041	45.7305
392.933	121.887
395.826	208.609
398.719	98.3555
401.611	129.094
404.504	203.617
407.397	21.1836
410.289	62.0039
413.182	78.668
416.075	172.769
418.967	306.492
421.86	184.863
424.753	251.625
427.646	114.945
430.538	188.273
433.431	311.488
436.324	148.496
439.216	414.484
442.109	453.648
445.002	690.523
447.894	906.098
450.787	1072.33
453.68	1626.12
456.573	2134.63
459.465	2759.97
462.358	3320.53
465.251	3237.04
468.143	2379.7
471.036	1470.64
473.929	822.812
476.822	287.332
479.714	247.293
482.607	35.625
485.5	30.625
488.392	9.53516
491.285	191.938
494.178	63.5547
497.07	85.4258
499.963	91.8164
502.856	9.76172
505.748	15.4531
508.641	85.3906
511.534	258.121
514.427	373.582
517.319	278.043
520.212	210.562
523.105	262.644
525.997	322.543
528.89	394.809
531.783	421.555
534.676	448.07
537.568	736.606
540.461	569.078
543.354	575.004
546.246	375.531
549.139	371.949
552.032	312.887
554.924	294.309
557.817	158.281
560.71	293.711
563.602	117.367
566.495	32.6914
569.388	71.4531
572.281	67.9023
575.173	64.9727
578.066	96.4141
580.959	10.3672
583.851	80.3242
586.744	66.5195
589.637	39.0312
592.529	6.68359
595.422	23.4922
598.315	56.1211
601.208	21.0039
604.1	113.062
606.993	55.7852
609.886	134.016
612.778	6.99219
615.671	4.44531
618.564	79.7812
621.457	156.969
624.349	31.8984
627.242	165.785
630.135	108.375
633.027	259.953
635.92	401.316
638.813	434.594
641.705	641.293
644.598	672.879
647.491	952.121
650.384	1184.69
653.276	1431.44
656.169	1775.94
659.062	1985.73
661.954	2514.22
664.847	2935.94
667.74	3410.92
670.632	4106.44
673.525	4597.65
676.418	5256.07
679.311	5177.25
682.203	5244.7
685.096	5085.34
687.989	4297.29
690.881	3785.89
693.774	3094.82
696.667	2840.63
699.559	2255.63
702.452	1839.51
705.345	1515.72
708.237	1445.54
711.13	983.219
714.023	965.234
716.916	831.824
719.808	683.875
722.701	525.469
725.594	365.824
728.486	338.609
731.379	400.098
734.272	334.426
737.164	195.144
740.057	183.016
742.95	91.3516
745.843	63.7773
748.735	29.5
751.628	17.4258
754.521	90.2461
757.413	37.7188
760.306	42.9766
763.199	103.371
766.091	90.5
768.984	88.8281
771.877	39.9805
774.77	9.19141
777.662	114
780.555	20.1602
783.448	24.3398
786.34	72.6562
789.233	33.9609
792.126	121.898
795.019	84.6953
797.911	109.789
800.804	117.215
803.697	44.0625
806.589	18.7031
809.482	228.867
812.375	39.5039
815.267	29.0312
818.16	253.531
821.053	58.3555
823.946	238.227
826.838	278.992
829.731	304.438
832.624	235.805
835.516	236.957
838.409	209.758
841.302	147.551
844.194	249.148
847.087	189.109
849.98	124.914
852.872	158.606
855.765	137.922
858.658	109.973
861.551	201.734
864.443	208.301
867.336	12.6836
870.229	33.668
873.121	4.53125
876.014	84.5273
878.907	107.629
881.799	52.5859
884.692	116.211
887.585	128.023
890.478	77.1172
893.37	97.9648
896.263	13.9727
899.156	76.7266
902.048	174.215
904.941	35.3672
907.834	92.6602
910.726	178.879
913.619	47.082
916.512	171.023
919.405	137.477
922.297	52.9922
925.19	296.684
928.083	130.039
930.975	270.106
933.868	90.6602
936.761	202.613
939.654	233.133
942.546	190.625
945.439	272
948.332	147.527
951.224	385.824
954.117	251.723
957.01	206.082
959.902	206.078
962.795	130.609
965.688	138.75
968.581	29.3672
971.473	65.793
974.366	45.5078
977.259	160.356
980.151	146.574
983.044	113.266
985.937	167.943
988.829	124.422
991.722	251.004
994.615	221.197
997.508	216.373
1000.4	272.31
1003.29	341.305
1006.19	284.065
1009.08	299.484
1011.97	372.285
1014.86	286.184
1017.76	302.185
1020.65	461.572
1023.54	398.168
1026.43	264.373
1029.33	230.836
1032.22	203.193
1035.11	217.277
1038.01	113.795
1040.9	239.01
1043.79	13.0938
1046.68	216.609
1049.58	128.008
1052.47	171.668
1055.36	116.734
1058.25	180.975
1061.15	130.244
1064.04	164.664
1066.93	87.9922
1069.83	131.916
1072.72	47.8457
1075.61	79.791
1078.5	165.461
1081.4	98.0293
1084.29	4.875
1087.18	148.924
1090.07	116.111
1092.97	99.9707
1095.86	151.258
1098.75	393.123
1101.64	457.822
1104.54	542.439
1107.43	712.578
1110.32	826.207
1113.21	915.699
1116.11	833.582
1119	884.414
1121.89	866.547
1124.79	649.977
1127.68	690.594
1130.57	488.527
1133.46	553.719
1136.36	382.625
1139.25	173.258
1142.14	197.188
1145.04	179.988
1147.93	236.609
1150.82	142.402
1153.71	77.2578
1156.61	58.375
1159.5	116.633
1162.39	253.18
1165.28	378.965
1168.18	391.023
1171.07	194.856
1173.96	199.695
1176.86	96.5469
1179.75	188.566
