Measurement: Raman, 532 nm, unoriented, Raman Data Processed
Mineral: Chenevixite
Rruff sample: R040166
Ideal chemistry: Cu^2+^(Fe^3+^,Al)(As^5+^O_4_)(OH)_2_
Locality: Volcanic Sunnyside mine, Santa Cruz County, Arizona, USA
Source: Andy Anderson
Description: Green earthy massive
Measured chemistry: Cu_2.00_(Fe^3+^_1.98_[box]_0.02_)_Σ=2_((As_0.94_S_0.06_)O_4_)_2_(OH)_4_·1.49H_2_O
Raman shift (cm-1)	intensity
168.464	0
171.357	84.9287
174.25	452.681
177.143	916.269
180.035	1259.74
182.928	1177.33
185.821	1319.24
188.713	1351.25
191.606	1569.14
194.499	1838.65
197.391	2027.2
200.284	1892.84
203.177	1692.27
206.07	1662.49
208.962	1515.11
211.855	1494
214.748	1458.84
217.64	1779.86
220.533	1879.42
223.426	1952.71
226.318	1514.39
229.211	760.154
232.104	336.13
234.996	42.0527
237.889	15.6494
240.782	224.862
243.675	387.935
246.567	733.216
249.46	887.516
252.353	961.616
255.245	1030.36
258.138	847.004
261.031	810.168
263.923	629.29
266.816	353.741
269.709	21.6055
272.602	53.18
275.494	12.064
278.387	45.8073
281.28	84.8262
284.173	312.315
287.065	653.128
289.958	947.854
292.851	1134.8
295.743	1223.77
298.636	1170.51
301.529	1192.94
304.421	1089.73
307.314	1121.08
310.207	1030.97
313.099	811.068
315.992	696.428
318.885	655.861
321.778	726.812
324.67	798.936
327.563	768.693
330.456	724.146
333.348	619.17
336.241	610.026
339.134	721.443
342.026	1189.54
344.919	1710.12
347.812	2205.06
350.705	2558.21
353.597	2541.31
356.49	2424.99
359.383	2468.19
362.275	2078.12
365.168	1623.75
368.061	967.03
370.954	636.651
373.846	323.459
376.739	206.249
379.632	131.249
382.524	6.68457
385.417	21.208
388.31	33.4982
391.202	5.20473
394.095	6.91165
396.988	8.55566
399.88	324.533
402.773	594.246
405.666	956.356
408.559	1055.91
411.451	1403.09
414.344	2066.22
417.237	2969.56
420.129	4713.89
423.022	6047.85
425.915	7737.72
428.808	9025.18
431.7	9342.86
434.593	8480.09
437.486	7087.65
440.378	5453.8
443.271	4297.26
446.164	3573.42
449.056	2993.42
451.949	2367.82
454.842	1842.57
457.735	1282.3
460.627	963.231
463.52	754.813
466.413	641.235
469.305	648.822
472.198	645.047
475.091	761.258
477.983	924.155
480.876	1042.93
483.769	1261.94
486.661	1492.35
489.554	1591.65
492.447	1622.47
495.34	1531.97
498.232	1448.08
501.125	1167.55
504.018	937.809
506.911	756.051
509.803	595.71
512.696	466.004
515.589	340.702
518.481	395.353
521.374	216.322
524.267	141.167
527.159	12.4746
530.052	68.4414
532.945	48.2002
535.837	33.3682
538.73	85.0693
541.623	64.7978
544.516	74.5293
547.408	106.463
550.301	99.7764
553.194	133.279
556.086	238.071
558.979	214.707
561.872	234.321
564.764	196.802
567.657	188.303
570.55	362.026
573.443	251.468
576.335	178.743
579.228	216.651
582.121	163.435
585.013	144.227
587.906	222.078
590.799	127.997
593.692	93.1943
596.584	80.292
599.477	35.8096
602.37	130.019
605.262	31.5898
608.155	8.79102
611.048	31.6182
613.94	81.5
616.833	74.1055
619.726	53.54
622.619	169.161
625.511	95.2109
628.404	39.9834
631.297	72.9531
634.189	134.592
637.082	188.155
639.975	169.582
642.867	200.652
645.76	137.48
648.653	98.9658
651.545	195.694
654.438	214.257
657.331	169.223
660.224	206.204
663.116	159.471
666.009	272.723
668.902	225.876
671.794	186.378
674.687	197.46
677.58	304.967
680.472	198.704
683.365	197.431
686.258	320.837
689.151	284.969
692.043	232.785
694.936	248.523
697.829	285.97
700.721	304.497
703.614	156.906
706.507	208.782
709.399	260.261
712.292	127.579
715.185	183.263
718.078	97.4971
720.97	122.484
723.863	31.3438
726.756	23.0566
729.648	31.5879
732.541	74.6152
735.434	79.4394
738.327	10.6426
741.219	43.4043
744.112	119.936
747.005	50.2266
749.897	91.0684
752.79	20.7754
755.683	15.7715
758.576	51.625
761.468	115.129
764.361	256.031
767.254	397.606
770.146	605.059
773.039	926.934
775.932	1277.06
778.824	1840.57
781.717	2403.18
784.61	3089.7
787.503	3896.01
790.395	4661.28
793.288	5436.23
796.181	6446.62
799.073	7305.26
801.966	7948.2
804.859	8049.79
807.751	7644.68
810.644	6734.31
813.537	5939.53
816.429	4993.16
819.322	4187.48
822.215	3663.78
825.108	3156.78
828	2984.58
830.893	2951.61
833.786	3395.09
836.678	4113.31
839.571	5176.02
842.464	6452.15
845.356	8268.88
848.249	9706.69
851.142	10836.4
854.035	11364.6
856.927	10701.4
859.82	9160.28
862.713	7168.73
865.605	5121.45
868.498	3508.61
871.391	2567.06
874.284	1794.42
877.176	1379.57
880.069	1128.74
882.962	903.766
885.854	827.727
888.747	638.871
891.64	643.42
894.533	523.144
897.425	470.035
900.318	336.406
903.211	326.455
906.103	143.82
908.996	33.1035
911.889	9.62891
914.781	42
917.674	61.3242
920.567	135.172
923.46	138.94
926.352	25.4668
929.245	72.5
932.138	33.8535
935.03	34.3848
937.923	43.4844
940.816	56.877
943.708	83.8262
946.601	153.897
949.494	148.275
952.386	213.607
955.279	139.969
958.172	188.055
961.065	254.635
963.957	228.928
966.85	307.066
969.743	366.644
972.635	304.658
975.528	472.809
978.421	535.356
981.313	438.627
984.206	469.662
987.099	396.375
989.992	506.035
992.884	506.031
995.777	428.256
998.67	571.688
1001.56	569.131
1004.46	537.812
1007.35	646.553
1010.24	713.293
1013.13	818.998
1016.03	801.949
1018.92	864.941
1021.81	775.359
1024.7	759.336
1027.6	667.16
1030.49	543.596
1033.38	513.996
1036.28	540.096
1039.17	450.482
1042.06	395.518
1044.95	408.103
1047.85	327.033
1050.74	255.822
1053.63	216.693
1056.52	188.815
1059.42	133.148
1062.31	156.527
1065.2	128.502
1068.09	9.50977
1070.99	111.518
1073.88	73.4805
1076.77	13.8262
1079.66	157.272
1082.56	119.9
1085.45	23.7148
1088.34	48.207
1091.24	19.3906
1094.13	43.9922
1097.02	67.2715
1099.91	28.3301
1102.81	72.6641
1105.7	0.654297
1108.59	132.953
1111.48	174.602
1114.38	54.043
1117.27	32.2812
1120.16	111.246
1123.06	94.5977
1125.95	72.1836
1128.84	129.557
1131.73	133.582
1134.63	141.541
1137.52	96.4512
1140.41	143.477
1143.31	161.631
1146.2	128.723
1149.09	159.826
1151.98	78.4707
1154.88	40.625
1157.77	22.2051
1160.66	140.826
1163.55	21.4121
1166.45	7.44727
1169.34	89.0117
1172.23	30.6582
1175.12	182.918
1178.02	58.5859
1180.91	118.574
1183.8	126.66
1186.69	48.6328
1189.59	118.078
1192.48	121.522
1195.37	52.7617
1198.27	82.9277
1201.16	77.8789
1204.05	159.385
1206.94	66.5742
1209.84	17.6582
1212.73	99.7051
1215.62	45.8008
1218.52	71.5273
1221.41	80.3164
1224.3	104.924
1227.19	162.742
1230.09	21.8965
1232.98	150.848
1235.87	144.406
1238.76	71.9648
1241.66	111.598
1244.55	141.32
1247.44	169.434
1250.34	32.3926
1253.23	166.285
1256.12	82.0488
1259.01	101.148
1261.91	56.4648
1264.8	71.834
1267.69	141.277
1270.58	41.3359
1273.48	144.359
1276.37	141.234
1279.26	151.637
1282.15	70.9043
1285.05	142.424
1287.94	71.043
1290.83	61.6992
1293.72	39.8496
1296.62	12.0684
1299.51	83.3027
1302.4	109.15
1305.3	65.5879
