Measurement: Raman, 780 nm, unoriented, Raman Data Processed
Mineral: Chenevixite
Rruff sample: R100177
Ideal chemistry: Cu^2+^(Fe^3+^,Al)(As^5+^O_4_)(OH)_2_
Locality: Patagonia Mountains, Harshaw District, Santa Cruz County, Arizona
Source: Joe Ruiz
Description: Transparent green thin tabular crystals
Raman shift (cm-1)	intensity
104.587	0
107.962	3.23171
111.337	1.37772
114.711	3.8652
118.086	3.62054
121.461	1.7559
124.836	0.345768
128.21	3.58962
131.585	6.58061
134.96	6.39387
138.335	6.32117
141.71	4.17368
145.085	5.79464
148.459	4.94731
151.834	1.04216
155.209	0.847744
158.584	0.346104
161.959	1.91987
165.333	4.09807
168.708	5.44713
172.083	9.01863
175.458	12.2662
178.833	15.4881
182.208	18.2717
185.582	20.5763
188.957	20.2789
192.332	23.4293
195.707	24.7889
199.082	26.4002
202.457	27.8389
205.831	24.7049
209.206	21.4469
212.581	22.1815
215.956	22.7501
219.331	23.4201
222.705	23.1262
226.08	18.0939
229.455	10.6119
232.83	7.05353
236.205	5.3603
239.579	4.77567
242.954	5.60629
246.329	8.56879
249.704	6.47773
253.079	4.85013
256.454	2.01046
259.828	2.0151
263.203	0.257076
266.578	0.06496
269.953	0.825855
273.328	1.44507
276.702	0.991833
280.077	3.62602
283.452	6.55379
286.827	9.25672
290.202	12.5996
293.576	13.8394
296.951	9.51525
300.326	8.00986
303.701	8.21378
307.076	6.38394
310.45	5.78225
313.825	5.56618
317.2	3.86849
320.575	3.11377
323.95	2.94879
327.325	4.94155
330.699	7.10717
334.074	8.45491
337.449	7.54053
340.824	10.4347
344.199	12.1726
347.574	16.4228
350.948	17.9068
354.323	12.7727
357.698	13.2187
361.073	12.7802
364.447	8.26996
367.822	3.16823
371.197	3.04531
374.572	1.83109
377.947	0.948019
381.322	2.0724
384.696	1.05437
388.071	0.037636
391.446	1.20726
394.821	2.34402
398.196	3.11981
401.57	4.99609
404.945	7.596
408.32	9.32369
411.695	10.0535
415.07	11.6524
418.445	15.9453
421.819	20.5917
425.194	27.204
428.569	32.3673
431.944	35.4593
435.319	33.767
438.693	28.7564
442.068	21.4155
445.443	15.4836
448.818	12.2106
452.193	11.5122
455.567	8.60559
458.942	4.76186
462.317	4.93576
465.692	3.68098
469.067	3.18541
472.442	4.10345
475.816	4.41871
479.191	7.2103
482.566	6.45872
485.941	7.77771
489.316	7.59214
492.69	7.80128
496.065	7.37848
499.44	6.11818
502.815	5.5427
506.19	5.99341
509.565	5.24958
512.939	5.46554
516.314	3.93694
519.689	2.75838
523.064	1.98246
526.439	1.44756
529.813	1.91131
533.188	0.064823
536.563	0.118217
539.938	0.815802
543.313	0.054953
546.688	0.221186
550.062	0.418886
553.437	0.755637
556.812	1.64054
560.187	2.04109
563.562	1.84979
566.936	0.535438
570.311	1.38259
573.686	2.48813
577.061	2.37776
580.436	2.03387
583.811	1.60347
587.185	1.93083
590.56	2.32108
593.935	2.32199
597.31	4.65578
600.685	2.73033
604.059	4.08857
607.434	3.6391
610.809	2.90828
614.184	2.43154
617.559	3.07236
620.933	0.684531
624.308	1.42463
627.683	1.14619
631.058	0.31298
634.433	2.20627
637.808	2.12809
641.182	2.08911
644.557	1.85657
647.932	1.46272
651.307	2.04201
654.682	2.09771
658.056	0.844806
661.431	0.785959
664.806	0.028169
668.181	1.39313
671.556	1.40529
674.931	2.33065
678.305	1.6206
681.68	1.74802
685.055	2.78922
688.43	2.63938
691.805	2.14391
695.179	1.01778
698.554	1.53053
701.929	2.1114
705.304	0.571924
708.679	0.48827
712.053	0.884034
715.428	0.962533
718.803	0.144546
722.178	1.81493
725.553	0.270631
728.928	0.030891
732.302	0.46319
735.677	1.40637
739.052	0.293144
742.427	0.30929
745.802	0.067726
749.176	1.0857
752.551	0.081755
755.926	0.051237
759.301	1.27331
762.676	0.654257
766.051	0.578783
769.425	2.43281
772.8	2.91132
776.175	5.48656
779.55	7.47541
782.925	11.8596
786.299	13.9131
789.674	19.4232
793.049	22.0454
796.424	25.3634
799.799	30.5543
803.173	32.8739
806.548	33.9159
809.923	32.9246
813.298	26.4608
816.673	24.0474
820.048	21.5356
823.422	16.9049
826.797	17.6216
830.172	16.4068
833.547	18.9277
836.922	23.2944
840.296	29.7813
843.671	37.6085
847.046	47.5201
850.421	55.6426
853.796	59.1667
857.17	62.5983
860.545	57.8784
863.92	44.1756
867.295	31.7118
870.67	23.4364
874.044	16.7142
877.419	12.4363
880.794	8.38623
884.169	4.83488
887.544	2.03945
890.919	3.44698
894.293	0.073063
897.668	2.23667
901.043	0.993811
904.418	1.18097
907.793	1.69964
911.168	1.05043
914.542	0.301374
917.917	1.12883
921.292	0.365518
924.667	0.452345
928.042	0.303484
931.416	0.517427
934.791	0.136373
938.166	0.469594
941.541	0.245213
944.916	1.16078
948.29	0.825165
951.665	1.54027
955.04	0.295494
958.415	1.43642
961.79	0.188805
965.164	1.44996
968.539	2.04549
971.914	1.23571
975.289	2.20281
978.664	0.617385
982.039	0.263109
985.413	0.617591
988.788	0.207328
992.163	2.07107
995.538	1.94373
998.913	1.40655
1002.29	0.763483
1005.66	2.51628
1009.04	1.28436
1012.41	1.89943
1015.79	2.03909
1019.16	2.28189
1022.54	1.93618
1025.91	1.85753
1029.29	2.51412
1032.66	1.83781
1036.04	0.623775
1039.41	1.35037
1042.79	0.824971
1046.16	0.422632
1049.54	1.50391
1052.91	1.69299
1056.29	0.553089
1059.66	1.35255
1063.03	1.34475
1066.41	0.615887
1069.78	0.548794
1073.16	0.411516
1076.53	2.04418
1079.91	0.589039
1083.28	2.36225
1086.66	0.03367
1090.03	1.21753
1093.41	1.3934
1096.78	1.31144
1100.16	0.82637
1103.53	-0.0252214
1106.91	1.10237
1110.28	0.215564
1113.66	1.12604
1117.03	0.483931
1120.41	0.283109
1123.78	0.94205
1127.16	1.83438
1130.53	1.92268
1133.9	0.215014
1137.28	1.49922
1140.65	1.44545
1144.03	1.30261
1147.4	1.35701
1150.78	0.828505
1154.15	1.00367
1157.53	1.66853
1160.9	1.11616
1164.28	1.12425
1167.65	1.68519
1171.03	0.915713
1174.4	1.41357
1177.78	0.788095
1181.15	1.29845
1184.53	2.01541
1187.9	0.432513
1191.28	0.008797
1194.65	1.65225
1198.03	1.93428
1201.4	2.12997
1204.78	0.550105
1208.15	0.673056
1211.53	0.563064
1214.9	0.458578
1218.28	1.51024
1221.65	2.47951
1225.03	1.59953
1228.4	1.68358
1231.78	1.52261
1235.15	1.43147
1238.53	2.23083
1241.9	1.7484
1245.27	1.9227
1248.65	0.607235
1252.02	1.48503
1255.4	1.59834
1258.77	1.23155
1262.15	2.15206
1265.52	2.54964
1268.9	1.38798
1272.27	1.50929
1275.65	3.16242
1279.02	0.441316
1282.4	0.008002
