Measurement: Raman, 532 nm, unoriented, Raman Data Processed
Mineral: Chenite
Rruff sample: R130276
Ideal chemistry: CuPb_4_(SO_4_)_2_(OH)_6_
Locality: Silbershulte, Altenau, Harz Mountains, Germany
Source: Rock Currier
Description: Sky-blue poorly formed prismatic crystals
Raman shift (cm-1)	intensity
171.321	0
174.214	2.48852
177.107	0.867683
180	2.0143
182.892	7.90443
185.785	13.9865
188.678	18.5364
191.57	26.1878
194.463	35.471
197.356	43.8237
200.249	54.6139
203.141	60.5211
206.034	67.3166
208.927	71.2644
211.819	74.6645
214.712	71.7915
217.605	70.7833
220.497	64.3757
223.39	59.8047
226.283	57.5242
229.175	57.204
232.068	56.2751
234.961	55.8624
237.854	58.1539
240.746	56.1238
243.639	54.8802
246.532	48.3631
249.424	38.4382
252.317	33.689
255.21	31.099
258.103	26.3498
260.995	25.2175
263.888	22.0922
266.781	17.9597
269.673	13.1244
272.566	8.6936
275.459	3.5591
278.351	2.75154
281.244	1.12991
284.137	1.49211
287.029	2.00395
289.922	0.618088
292.815	1.05312
295.708	0.340347
298.6	2.94705
301.493	3.96642
304.386	6.54071
307.278	12.5658
310.171	17.97
313.064	25.4424
315.957	36.1596
318.849	48.6118
321.742	60.0127
324.635	75.8473
327.527	89.1652
330.42	101.71
333.313	113.316
336.205	123.02
339.098	128.516
341.991	125.096
344.884	115.804
347.776	101.53
350.669	89.8855
353.562	84.9828
356.454	83.7301
359.347	86.5447
362.24	97.4704
365.132	111.175
368.025	114.398
370.918	100.085
373.81	73.3204
376.703	48.5479
379.596	30.0885
382.489	17.577
385.381	10.8706
388.274	6.3715
391.167	2.13442
394.059	0.495422
396.952	1.04284
399.845	0.731361
402.738	1.08398
405.63	0.620872
408.523	4.0199
411.416	9.93259
414.308	20.1946
417.201	30.1043
420.094	42.5131
422.986	59.8942
425.879	89.1739
428.772	125.745
431.664	131.296
434.557	86.7675
437.45	56.0541
440.343	45.2173
443.235	43.4599
446.128	47.1418
449.021	50.4459
451.913	50.1499
454.806	47.0179
457.699	44.6599
460.591	41.7902
463.484	35.3886
466.377	26.0771
469.27	18.6348
472.162	11.7922
475.055	7.59679
477.948	3.73103
480.84	2.47243
483.733	0.955437
486.626	0.701775
489.519	1.16677
492.411	0.057755
495.304	0.084023
498.197	0.091171
501.089	0.081688
503.982	0.358475
506.875	0.195328
509.767	0.185089
512.66	1.17077
515.553	0.799019
518.446	0.476418
521.338	0.990616
524.231	2.80202
527.124	2.89277
530.016	3.18513
532.909	4.28432
535.802	5.03268
538.694	4.35746
541.587	5.49332
544.48	5.97487
547.372	4.53693
550.265	7.23428
553.158	6.28851
556.051	5.42722
558.943	5.7451
561.836	4.53777
564.729	5.14119
567.621	5.8291
570.514	5.62262
573.407	4.1901
576.299	3.61122
579.192	4.74867
582.085	5.15516
584.978	5.13931
587.87	6.46908
590.763	8.80716
593.656	11.7065
596.548	15.129
599.441	18.561
602.334	21.3605
605.226	22.8976
608.119	23.4318
611.012	17.064
613.905	12.8234
616.797	13.0487
619.69	12.9303
622.583	6.35945
625.475	3.31083
628.368	1.80827
631.261	0.66217
634.154	0.170387
637.046	0.545326
639.939	0.022942
642.832	0.351624
645.724	0.438026
648.617	0.140457
651.51	0.651489
654.402	0.473541
657.295	0.260834
660.188	0.323128
663.081	0.380585
665.973	0.233429
668.866	0.345566
671.759	0.573288
674.651	0.865326
677.544	0.199318
680.437	0.41391
683.329	0.84417
686.222	1.69765
689.115	1.08639
692.008	1.98602
694.9	1.40767
697.793	2.47338
700.686	1.80335
703.578	2.21442
706.471	1.95759
709.364	2.4167
712.256	2.74127
715.149	2.09403
718.042	1.94029
720.934	3.10581
723.827	2.65569
726.72	2.33118
729.613	1.27934
732.505	1.71918
735.398	2.02663
738.291	1.43769
741.183	1.40813
744.076	1.69873
746.969	1.65403
749.861	1.71915
752.754	1.68334
755.647	1.89191
758.54	0.904434
761.432	1.30318
764.325	1.56258
767.218	1.84598
770.11	1.21992
773.003	1.54118
775.896	1.25027
778.788	0.510254
781.681	0.369774
784.574	0.445053
787.467	0.760818
790.359	0.102814
793.252	0.115494
796.145	1.50496
799.037	1.09299
801.93	0.866272
804.823	1.63386
807.716	1.11168
810.608	1.4875
813.501	1.27448
816.394	1.20256
819.286	1.93644
822.179	2.41953
825.072	1.93451
827.964	2.63429
830.857	2.40534
833.75	2.04731
836.643	2.58482
839.535	3.65376
842.428	4.0339
845.321	4.95126
848.213	5.74951
851.106	5.74761
853.999	6.52673
856.891	7.1907
859.784	6.23344
862.677	5.55842
865.569	4.05452
868.462	2.36597
871.355	1.5695
874.248	0.977455
877.14	0.377197
880.033	0.076477
882.926	0.912651
885.818	0.244568
888.711	0.643585
891.604	0.44223
894.496	0.481255
897.389	0.890884
900.282	1.10152
903.175	0.221115
906.067	2.28357
908.96	1.99765
911.853	2.08621
914.745	3.49957
917.638	3.25845
920.531	3.96561
923.423	4.38834
926.316	6.039
929.209	5.57949
932.102	5.10438
934.994	5.97965
937.887	7.01709
940.78	8.26179
943.672	12.9135
946.565	18.6323
949.458	27.4225
952.351	42.7475
955.243	75.3752
958.136	133.07
961.029	217.923
963.921	340.68
966.814	510.498
969.707	649.726
972.599	573.677
975.492	320.425
978.385	140.175
981.278	66.8189
984.17	34.9881
987.063	21.3845
989.956	11.7917
992.848	7.47893
995.741	3.40559
998.634	0.847137
1001.53	0.9963
1004.42	0.028656
1007.31	0.61779
1010.21	0.004776
1013.1	0.831856
1015.99	1.58061
1018.88	0.984619
1021.77	2.45248
1024.67	4.48722
1027.56	7.90193
1030.45	12.5084
1033.35	17.7309
1036.24	24.9409
1039.13	30.9126
1042.02	37.3649
1044.92	39.0994
1047.81	37.1885
1050.7	32.2589
1053.6	26.4379
1056.49	20.5467
1059.38	16.0453
1062.27	11.5826
1065.17	9.00173
1068.06	6.77044
1070.95	6.82385
1073.84	7.62705
1076.74	10.1189
1079.63	14.4003
1082.52	17.0683
1085.41	21.0943
1088.31	22.2988
1091.2	21.3628
1094.09	20.8543
1096.99	17.8981
1099.88	16.4225
1102.77	14.26
1105.66	11.4105
1108.56	8.96829
1111.45	7.61662
1114.34	3.8667
1117.23	2.72659
1120.13	1.77591
1123.02	0.975266
1125.91	0.159027
1128.81	0.390594
1131.7	0.979828
1134.59	0.212578
1137.48	0.139862
1140.38	0.305496
1143.27	0.249367
1146.16	0.253777
1149.05	0.033714
1151.95	0.233185
1154.84	0.657875
1157.73	0.700974
1160.62	1.20828
1163.52	0.856468
1166.41	1.06692
1169.3	1.04291
1172.2	1.87778
1175.09	1.5109
1177.98	2.2298
1180.87	2.06866
1183.77	1.95368
1186.66	2.87887
1189.55	2.61666
1192.44	2.60509
1195.34	3.06458
1198.23	3.41588
1201.12	3.41367
1204.02	2.33666
1206.91	2.42857
1209.8	1.5809
1212.69	2.89889
1215.59	2.43102
1218.48	0.903961
1221.37	1.19467
1224.26	0.663399
1227.16	1.52702
1230.05	2.85979
1232.94	1.70293
1235.84	2.09837
1238.73	1.54488
1241.62	2.71262
1244.51	2.13208
1247.41	1.48879
1250.3	1.47247
1253.19	1.50629
1256.08	1.20718
1258.98	0.604454
1261.87	0.687996
1264.76	0.427444
1267.65	1.33965
1270.55	0.587387
1273.44	0.620422
1276.33	0.203667
1279.23	0.435493
1282.12	0.538383
1285.01	0.90741
1287.9	0.620468
1290.8	1.67831
1293.69	1.60628
1296.58	1.32977
1299.47	0.932709
