Measurement: Raman, 532 nm, unoriented, Raman Data Processed
Mineral: Chenite
Rruff sample: R130278
Ideal chemistry: CuPb_4_(SO_4_)_2_(OH)_6_
Locality: Haltcliff Smelter, Caldbeck Fells, Cumbria, England
Source: Neil Hubbard
Description: Sky-blue poorly-formed prismatic crystals, associated with violet fibrous elyite, R130277.
Raman shift (cm-1)	intensity
90.808	0
94.1828	5.14375
97.5576	5.2713
100.932	9.39758
104.307	3.57622
107.682	9.74538
111.057	8.23326
114.432	9.69989
117.806	8.76596
121.181	9.16728
124.556	16.8061
127.931	14.602
131.306	10.9783
134.681	11.2468
138.055	9.81931
141.43	7.11719
144.805	1.1983
148.18	1.54395
151.555	0.99585
154.929	2.36533
158.304	1.92271
161.679	2.86063
165.054	5.88113
168.429	0.062439
171.804	1.96551
175.178	2.39576
178.553	3.15099
181.928	11.4751
185.303	18.3662
188.678	25.4801
192.053	30.1667
195.427	38.2968
198.802	47.4794
202.177	46.8179
205.552	50.5625
208.927	54.4465
212.301	56.8726
215.676	53.9621
219.051	50.6191
222.426	44.8892
225.801	39.8314
229.175	37.2659
232.55	30.7211
235.925	31.2587
239.3	34.1068
242.675	34.3714
246.05	29.7776
249.424	23.5893
252.799	19.6507
256.174	17.1098
259.549	16.5662
262.924	12.8289
266.298	11.2298
269.673	8.78451
273.048	5.74362
276.423	5.92624
279.798	4.19802
283.173	2.63906
286.547	1.85142
289.922	2.26813
293.297	3.71049
296.672	3.66917
300.047	2.74081
303.421	1.56363
306.796	2.24931
310.171	0.024261
313.546	1.42089
316.921	3.60619
320.296	8.19411
323.67	12.3334
327.045	16.6294
330.42	17.2186
333.795	18.3974
337.17	19.4811
340.544	16.2606
343.919	15.1782
347.294	11.1912
350.669	13.2646
354.044	15.2526
357.418	17.8175
360.793	22.8695
364.168	30.9255
367.543	39.1122
370.918	39.9374
374.293	28.1252
377.667	17.3112
381.042	8.10513
384.417	4.3997
387.792	1.16766
391.167	0.565208
394.541	1.23476
397.916	0.752029
401.291	0.564087
404.666	0.159103
408.041	1.04163
411.416	2.61426
414.79	6.17386
418.165	11.9696
421.54	17.2765
424.915	26.9298
428.29	47.8534
431.664	63.7898
435.039	40.8458
438.414	30.6931
441.789	36.5389
445.164	48.0435
448.539	59.0349
451.913	49.9528
455.288	35.8992
458.663	26.5827
462.038	23.4678
465.413	21.9357
468.788	21.1591
472.162	19.9468
475.537	14.7784
478.912	9.08363
482.287	7.04755
485.662	3.2734
489.036	2.97732
492.411	2.24263
495.786	1.06515
499.161	1.10414
502.536	0.039047
505.911	1.42169
509.285	0.629066
512.66	0.224548
516.035	0.467941
519.41	0.84861
522.784	1.01501
526.159	2.10403
529.534	0.094849
532.909	1.37863
536.284	1.94322
539.659	2.60384
543.033	0.809662
546.408	1.52559
549.783	2.00822
553.158	1.73594
556.533	2.95724
559.908	2.37402
563.282	2.76575
566.657	0.559731
570.032	1.47362
573.407	0.761238
576.782	0.015755
580.156	0.688141
583.531	1.1275
586.906	2.9443
590.281	4.45576
593.656	6.84482
597.03	9.47215
600.405	12.3754
603.78	13.1686
607.155	11.9592
610.53	8.79886
613.905	10.5125
617.279	13.9365
620.654	10.6862
624.029	2.8204
627.404	2.08114
630.779	0.006073
634.154	0.439789
637.528	0.512733
640.903	0.476585
644.278	0.112892
647.653	1.57819
651.028	0.097977
654.402	1.14165
657.777	1.13203
661.152	1.41345
664.527	0.949669
667.902	1.19621
671.277	0.218239
674.651	1.61443
678.026	2.27472
681.401	1.34815
684.776	1.38605
688.151	0.805054
691.525	2.06818
694.9	2.41583
698.275	1.6357
701.65	1.09921
705.025	1.91367
708.399	1.15891
711.774	0.936394
715.149	1.50039
718.524	1.55187
721.899	0.481895
725.274	0.8367
728.648	1.95241
732.023	0.097244
735.398	0.709641
738.773	1.02453
742.148	0.801689
745.523	1.72775
748.897	2.06091
752.272	0.497391
755.647	2.3361
759.022	0.740379
762.396	1.34178
765.771	1.53295
769.146	1.35524
772.521	1.63692
775.896	0.969849
779.271	0.510506
782.645	0.161339
786.02	0.895683
789.395	0.118042
792.77	0.505379
796.145	0.553177
799.519	0.087067
802.894	0.688896
806.269	1.79842
809.644	1.61282
813.019	0.936714
816.394	2.28814
819.768	3.03379
823.143	3.29598
826.518	4.07803
829.893	4.08745
833.268	4.62055
836.643	5.34518
840.017	6.24424
843.392	6.91974
846.767	6.13577
850.142	5.69307
853.517	6.79856
856.891	6.86823
860.266	8.00372
863.641	8.08939
867.016	6.58589
870.391	4.45562
873.765	3.34959
877.14	2.14982
880.515	0.542351
883.89	0.16169
887.265	0.766472
890.64	0.648323
894.014	0.591232
897.389	0.317146
900.764	0.8321
904.139	0.068207
907.514	0.469589
910.889	1.80662
914.263	1.41572
917.638	2.17186
921.013	4.1777
924.388	4.20911
927.763	4.57727
931.137	4.36655
934.512	3.88197
937.887	4.68371
941.262	4.40359
944.637	6.15611
948.011	12.0292
951.386	19.1881
954.761	35.6921
958.136	72.8877
961.511	130.766
964.886	214.317
968.26	342.469
971.635	365.071
975.01	179.697
978.385	67.5292
981.76	30.7467
985.135	15.7015
988.509	8.16734
991.884	4.67901
995.259	1.75971
998.634	0.191818
1002.01	0.848122
1005.38	0.284897
1008.76	0.191681
1012.13	0.076469
1015.51	0.403931
1018.88	0.839142
1022.26	0.907127
1025.63	3.3703
1029.01	5.77299
1032.38	7.01005
1035.76	12.8515
1039.13	19.2707
1042.51	28.3215
1045.88	36.9513
1049.26	41.8051
1052.63	44.5622
1056.01	42.1
1059.38	32.1599
1062.76	22.9717
1066.13	18.2232
1069.51	20.8697
1072.88	23.4021
1076.26	29.9106
1079.63	35.4112
1083	32.2418
1086.38	23.3878
1089.75	14.3432
1093.13	8.85523
1096.5	7.40124
1099.88	6.56953
1103.25	7.24712
1106.63	4.75935
1110	3.58839
1113.38	1.9563
1116.75	1.76598
1120.13	0.636307
1123.5	0.690781
1126.88	0.109261
1130.25	0.443825
1133.63	0.944496
1137	0.926407
1140.38	0.177612
1143.75	0.295937
1147.13	0.5383
1150.5	0.891426
1153.88	0.0625
1157.25	0.875946
1160.62	0.401321
1164	1.57904
1167.38	0.849892
1170.75	0.480202
1174.12	1.77074
1177.5	0.846809
1180.87	1.31876
1184.25	2.56885
1187.62	0.791725
1191	1.92681
1194.37	2.22734
1197.75	3.16802
1201.12	2.73964
1204.5	2.08356
1207.87	3.36853
1211.25	3.23623
1214.62	2.79137
1218	1.98021
1221.37	1.57195
1224.75	1.40818
1228.12	2.03477
1231.5	1.19695
1234.87	1.79122
1238.25	1.26076
1241.62	0.764435
1244.99	1.19573
1248.37	1.46725
1251.74	0.9142
1255.12	1.36775
1258.49	0.68306
1261.87	1.03964
1265.24	0.659264
1268.62	1.21265
1271.99	0.111862
1275.37	0.561615
1278.74	0.961739
1282.12	0.898178
1285.49	1.39812
1288.87	1.15031
1292.24	0.012032
1295.62	0.705193
1298.99	0.368797
