Measurement: Raman, 780 nm, unoriented, Raman Data Processed
Mineral: Chenite
Rruff sample: R130278
Ideal chemistry: CuPb_4_(SO_4_)_2_(OH)_6_
Locality: Haltcliff Smelter, Caldbeck Fells, Cumbria, England
Source: Neil Hubbard
Description: Sky-blue poorly-formed prismatic crystals, associated with violet fibrous elyite, R130277.
Raman shift (cm-1)	intensity
172.677	0
175.57	0.696262
178.463	0.313835
181.355	0.232336
184.248	0.062328
187.141	0.538761
190.033	0.162579
192.926	0.291838
195.819	0.661873
198.712	0.852743
201.604	2.74508
204.497	2.5185
207.39	3.26291
210.282	4.35347
213.175	4.11436
216.068	3.64794
218.96	3.35341
221.853	3.25236
224.746	3.5776
227.638	4.19661
230.531	3.75527
233.424	4.62022
236.317	5.70504
239.209	6.83305
242.102	6.46094
244.995	5.34844
247.887	4.2969
250.78	3.42176
253.673	2.4556
256.565	2.58266
259.458	1.92264
262.351	1.34728
265.244	1.15558
268.136	1.28228
271.029	0.614365
273.922	0.395548
276.814	0.049994
279.707	0.012135
282.6	0.00205
285.493	0.469917
288.385	0.122932
291.278	0.396808
294.171	0.995867
297.063	0.898475
299.956	0.575837
302.849	0.382751
305.741	0.105922
308.634	0.506943
311.527	1.07168
314.42	2.16666
317.312	3.63078
320.205	3.98047
323.098	4.05177
325.99	5.04991
328.883	4.87412
331.776	5.83115
334.668	4.96695
337.561	4.75611
340.454	4.11941
343.346	4.50563
346.239	4.00639
349.132	3.47452
352.024	3.59647
354.917	4.38836
357.81	4.50917
360.703	5.65894
363.595	6.93717
366.488	7.94142
369.381	7.34284
372.273	5.72233
375.166	4.00487
378.059	3.01013
380.952	1.40333
383.844	1.1378
386.737	0.502865
389.63	0.388109
392.522	0.164706
395.415	0.439903
398.308	0.094378
401.2	0.028769
404.093	0.105264
406.986	0.517041
409.878	0.891469
412.771	0.983417
415.664	2.2841
418.557	3.11893
421.449	4.67512
424.342	6.35416
427.235	10.2048
430.127	13.4155
433.02	9.81042
435.913	6.9776
438.805	6.72414
441.698	9.03242
444.591	10.342
447.484	11.8343
450.376	9.71105
453.269	6.70863
456.162	5.0218
459.054	3.40461
461.947	3.54664
464.84	3.05289
467.733	3.25345
470.625	2.52373
473.518	2.17155
476.411	1.08528
479.303	0.563422
482.196	0.8778
485.089	0.642548
487.981	0.396781
490.874	0.252034
493.767	0.070385
496.659	0.16559
499.552	0.34715
502.445	0.153261
505.337	0.04976
508.23	0.534481
511.123	0.239713
514.016	0.15062
516.908	0.097387
519.801	0.177323
522.694	0.062802
525.586	0.242046
528.479	0.124601
531.372	0.287848
534.264	0.674233
537.157	0.239994
540.05	0.017771
542.943	0.106238
545.835	0.055769
548.728	0.167634
551.621	0.445313
554.513	0.433493
557.406	0.466184
560.299	0.464068
563.192	0.039701
566.084	0.212101
568.977	0.34972
571.87	0.156503
574.762	0.454308
577.655	0.671437
580.548	0.309712
583.44	0.64962
586.333	0.59292
589.226	1.23507
592.119	1.70373
595.011	2.37268
597.904	3.06699
600.797	3.99589
603.689	3.58586
606.582	2.84034
609.475	2.1708
612.367	2.38225
615.26	2.72426
618.153	3.06349
621.045	1.33787
623.938	0.65733
626.831	0.349362
629.723	0.262588
632.616	0.399888
635.509	0.236123
638.402	0.267831
641.294	0.604447
644.187	0.501154
647.08	0.641269
649.972	0.208501
652.865	0.83784
655.758	0.106734
658.65	0.474995
661.543	0.674426
664.436	0.494681
667.329	0.347523
670.221	0.523669
673.114	0.051269
676.007	0.472872
678.899	0.111449
681.792	0.13369
684.685	0.258636
687.577	0.699162
690.47	0.439863
693.363	0.230328
696.256	0.253219
699.148	0.166954
702.041	0.698852
704.934	0.471356
707.826	0.22641
710.719	0.023748
713.612	0.209461
716.505	0.02016
719.397	0.327569
722.29	0.215304
725.183	0.164917
728.075	0.100386
730.968	0.595356
733.861	0.287546
736.753	0.386375
739.646	0.315348
742.539	1.06777
745.432	0.211835
748.324	0.188374
751.217	0.388235
754.11	0.324052
757.002	0.283303
759.895	0.704823
762.788	0.211315
765.68	0.567919
768.573	0.114243
771.466	0.6664
774.359	0.499555
777.251	0.014067
780.144	0.007961
783.037	0.363275
785.929	0.599962
788.822	0.015388
791.715	0.227433
794.607	0.344528
797.5	0.216876
800.393	0.600917
803.285	0.270374
806.178	0.090403
809.071	0.222814
811.963	0.145743
814.856	0.428207
817.749	0.055807
820.642	0.627988
823.534	0.215608
826.427	0.583653
829.32	0.407869
832.212	0.446433
835.105	0.551107
837.998	0.831616
840.89	0.50931
843.783	0.823378
846.676	0.876821
849.569	0.754711
852.461	0.715429
855.354	0.886495
858.247	1.44896
861.139	0.588047
864.032	1.20854
866.925	1.31007
869.817	0.782319
872.71	0.679755
875.603	0.348403
878.495	0.232023
881.388	0.300741
884.281	0.54008
887.174	0.223596
890.066	0.026535
892.959	0.050097
895.852	0.014044
898.744	0.42495
901.637	0.747931
904.53	0.444478
907.423	0.429058
910.315	0.112795
913.208	0.578295
916.101	0.339338
918.993	0.510936
921.886	1.07902
924.779	0.454663
927.671	0.586919
930.564	0.861172
933.457	0.799409
936.35	0.783225
939.242	1.26277
942.135	1.59737
945.028	1.8616
947.92	3.01653
950.813	4.18041
953.706	7.72691
956.598	12.3245
959.491	19.592
962.384	29.5637
965.277	45.7112
968.169	60.8129
971.062	49.2576
973.955	24.278
976.847	10.9892
979.74	5.50784
982.633	3.47541
985.525	2.00885
988.418	1.09975
991.311	1.19714
994.203	0.901029
997.096	0.384519
999.989	0.619455
1002.88	0.302437
1005.77	0.078607
1008.67	0.340971
1011.56	0.116695
1014.45	0.228802
1017.35	0.438601
1020.24	0.055571
1023.13	0.851308
1026.02	0.102722
1028.92	0.991937
1031.81	0.864966
1034.7	1.37533
1037.59	1.84659
1040.49	2.81166
1043.38	3.46509
1046.27	4.28849
1049.16	4.44104
1052.06	4.24259
1054.95	3.6001
1057.84	3.36491
1060.74	2.47757
1063.63	1.96373
1066.52	1.64333
1069.41	1.92561
1072.31	2.22927
1075.2	2.8111
1078.09	2.55499
1080.98	3.06434
1083.88	2.33636
1086.77	1.6234
1089.66	1.36947
1092.56	0.403497
1095.45	1.04207
1098.34	2.13481
1101.23	1.78915
1104.13	1.36812
1107.02	0.33154
1109.91	0.014314
1112.8	0.282728
1115.7	0.400832
1118.59	0.269291
1121.48	0.112493
1124.38	0.745158
1127.27	0.194909
1130.16	0.102737
1133.05	0.208184
1135.95	0.003428
1138.84	0.149499
1141.73	0.141519
1144.62	0.236248
1147.52	0.286743
1150.41	0.13909
1153.3	0.048919
1156.19	0.241386
1159.09	0.184204
1161.98	0.646122
1164.87	0.395117
1167.77	0.252268
1170.66	0.56394
1173.55	0.083791
1176.44	0.929002
1179.34	0.740511
1182.23	0.115324
1185.12	0.518186
1188.01	0.195889
1190.91	0.784066
1193.8	0.94433
1196.69	0.320106
1199.59	0.808987
1202.48	0.5653
1205.37	0.298637
1208.26	0.833802
1211.16	1.02973
1214.05	0.191243
1216.94	0.870552
1219.83	0.438776
1222.73	0.49806
1225.62	0.274446
1228.51	0.543682
1231.4	0.756758
1234.3	0.66591
1237.19	0.922179
1240.08	0.788097
1242.97	0.781182
1245.87	0.848154
1248.76	0.46873
1251.65	0.646422
1254.55	0.116408
1257.44	0.347092
1260.33	0.428275
1263.22	0.200184
1266.12	0.482554
1269.01	0.213878
1271.9	0.857525
1274.8	0.215065
1277.69	0.155171
1280.58	0.538906
1283.47	0.065085
