Measurement: Raman, 785 nm, unoriented, Raman Data Processed
Mineral: Chenevixite
Rruff sample: R040166
Ideal chemistry: Cu^2+^(Fe^3+^,Al)(As^5+^O_4_)(OH)_2_
Locality: Volcanic Sunnyside mine, Santa Cruz County, Arizona, USA
Source: Andy Anderson
Description: Green earthy massive
Measured chemistry: Cu_2.00_(Fe^3+^_1.98_[box]_0.02_)_Σ=2_((As_0.94_S_0.06_)O_4_)_2_(OH)_4_·1.49H_2_O
Raman shift (cm-1)	intensity
178.873	0
181.766	12.2295
184.659	41.9053
187.552	22.6992
190.444	104.543
193.337	111.114
196.23	155.168
199.122	211.818
202.015	187.429
204.908	173.015
207.8	150.387
210.693	186.783
213.586	181.711
216.478	220.59
219.371	210.678
222.264	242.547
225.157	193.357
228.049	125.282
230.942	19.2524
233.835	19.9153
236.727	11.6646
239.62	13.6592
242.513	81.0083
245.405	104.805
248.298	84.7551
251.191	122.2
254.084	122.865
256.976	122.559
259.869	74.2808
262.762	84.1248
265.654	26.0928
268.547	24.291
271.44	7.90918
274.332	7.15088
277.225	23.094
280.118	13.5745
283.011	17.678
285.903	89.6997
288.796	123.879
291.689	185.528
294.581	173.363
297.474	178.011
300.367	172.811
303.26	178.573
306.152	171.894
309.045	193.429
311.938	161.968
314.83	113.456
317.723	110.237
320.616	128.751
323.508	130.912
326.401	126.707
329.294	114.006
332.187	151.914
335.079	161.544
337.972	147.764
340.865	182.121
343.757	274.799
346.65	411.711
349.543	425.763
352.435	396.613
355.328	350.034
358.221	324.926
361.113	222.549
364.006	169.904
366.899	88.4522
369.792	65.1357
372.684	55.4309
375.577	63.4531
378.47	16.9898
381.362	35.9502
384.255	0.645996
387.148	3.60669
390.041	37.0496
392.933	28.8599
395.826	22.5054
398.719	24.8076
401.611	66.5273
404.504	97.5256
407.397	94.304
410.289	143.852
413.182	182.99
416.075	256.539
418.967	432.032
421.86	606.666
424.753	750.795
427.646	910.53
430.538	959.452
433.431	974.797
436.324	825.922
439.216	635.677
442.109	559.143
445.002	457.283
447.894	361.572
450.787	293.264
453.68	220.255
456.573	163.512
459.465	97.9202
462.358	128.34
465.251	65.2842
468.143	60.9712
471.036	50.6103
473.929	89.0173
476.822	125.895
479.714	104.428
482.607	122.746
485.5	147.142
488.392	150.078
491.285	168.081
494.178	147.142
497.07	130.853
499.963	144.072
502.856	148.671
505.748	86.4072
508.641	94.6797
511.534	79.5386
514.427	70.9714
517.319	83.0779
520.212	48.5173
523.105	18.03
525.997	8.16626
528.89	38.8897
531.783	5.32349
534.676	0.479736
537.568	16.2073
540.461	25.6799
543.354	10.5637
546.246	10.0974
549.139	8.47412
552.032	11.0124
554.924	8.82104
557.817	23.4038
560.71	16.9807
563.602	33.665
566.495	31.7983
569.388	42.9858
572.281	41.5717
575.173	26.6439
578.066	38.2585
580.959	56.7617
583.851	58.5609
586.744	9.17725
589.637	49.324
592.529	33.9767
595.422	41.4305
598.315	51.6926
601.208	44.9662
604.1	38.3562
606.993	41.9312
609.886	72.6827
612.778	44.5433
615.671	41.0633
618.564	31.3592
621.457	29.765
624.349	42.7998
627.242	49.7793
630.135	11.6245
633.027	44.2542
635.92	19.0297
638.813	48.5502
641.705	44.2918
644.598	13.3795
647.491	25.8318
650.384	9.79187
653.276	29.006
656.169	19.076
659.062	30.1143
661.954	46.9016
664.847	39.0715
667.74	60.0435
670.632	25.7598
673.525	29.5689
676.418	70.804
679.311	61.1791
682.203	61.4554
685.096	66.444
687.989	71.3086
690.881	42.1661
693.774	28.4476
696.667	29.1816
699.559	44.9264
702.452	81.072
705.345	24.0632
708.237	27.1338
711.13	41.4554
714.023	10.9196
716.916	29.4502
719.808	23.6615
722.701	10.8458
725.594	4.68201
728.486	6.89233
731.379	24.0122
734.272	3.82251
737.164	2.12073
740.057	9.64819
742.95	1.56921
745.843	3.45325
748.735	8.94287
751.628	0.536621
754.521	0.615967
757.413	17.2567
760.306	18.7339
763.199	10.9308
766.091	29.8423
768.984	60.1893
771.877	107.32
774.77	123.746
777.662	172.165
780.555	166.131
783.448	245.478
786.34	289.786
789.233	391.161
792.126	443.397
795.019	518.983
797.911	597.842
800.804	599.289
803.697	651.522
806.589	614.57
809.482	589.697
812.375	481.81
815.267	424.563
818.16	347.66
821.053	304.875
823.946	296.064
826.838	262.345
829.731	278.549
832.624	319.985
835.516	388.126
838.409	503.877
841.302	636.925
844.194	840.646
847.087	1034.9
849.98	1187.64
852.872	1227.69
855.765	1213.84
858.658	1082.05
861.551	897.575
864.443	647.522
867.336	414.458
870.229	329.537
873.121	223.982
876.014	164.196
878.907	130.035
881.799	93.9232
884.692	81.785
887.585	35.4863
890.478	89.7917
893.37	54.9896
896.263	37.1755
899.156	45.0297
902.048	8.73584
904.941	13.4667
907.834	17.7239
910.726	9.05945
913.619	4.07251
916.512	16.7659
919.405	0.564941
922.297	19.9279
925.19	18.8864
928.083	9.04016
930.975	1.35583
933.868	7.6051
936.761	16.5572
939.654	18.2273
942.546	4.96668
945.439	42.6804
948.332	50.0336
951.224	32.1764
954.117	40.3486
957.01	34.6711
959.902	46.4232
962.795	10.5116
965.688	19.2866
968.581	43.2175
971.473	39.6979
974.366	42.5624
977.259	50.4448
980.151	17.8451
983.044	43.7997
985.937	44.0608
988.829	44.8546
991.722	41.4319
994.615	49.6551
997.508	45.7974
1000.4	37.7266
1003.29	69.2504
1006.19	59.9017
1009.08	53.1875
1011.97	83.8649
1014.86	64.9453
1017.76	57.7544
1020.65	50.283
1023.54	51.243
1026.43	91.3917
1029.33	40.0201
1032.22	39.016
1035.11	57.2719
1038.01	22.4078
1040.9	49.0555
1043.79	41.4154
1046.68	12.333
1049.58	52.6559
1052.47	13.527
1055.36	17.3999
1058.25	30.3428
1061.15	45.4357
1064.04	26.0579
1066.93	39.5365
1069.83	31.2648
1072.72	18.636
1075.61	51.4594
1078.5	4.93945
1081.4	39.3591
1084.29	14.2422
1087.18	4.51794
1090.07	20.5331
1092.97	1.72705
1095.86	31.1281
1098.75	20.0265
1101.64	27.2804
1104.54	20.3855
1107.43	1.78699
1110.32	31.8791
1113.21	43.0679
1116.11	12.3065
1119	10.9048
1121.89	29.4111
1124.79	11.6172
1127.68	31.5706
1130.57	31.2408
1133.46	43.9658
1136.36	73.3166
1139.25	56.5096
1142.14	26.8602
1145.04	21.0966
1147.93	28.9509
1150.82	35.0378
1153.71	25.2105
1156.61	20.7895
1159.5	15.3472
1162.39	2.05762
1165.28	26.7405
1168.18	15.0675
1171.07	33.8282
1173.96	36.9385
1176.86	49.5012
1179.75	13.5796
1182.64	55.4637
1185.53	17.8358
1188.43	24.7576
1191.32	19.1152
1194.21	35.4568
1197.1	41.918
1200	38.4367
1202.89	40.9204
1205.78	24.8339
1208.67	14.1696
1211.57	2.49731
1214.46	11.0343
1217.35	30.594
1220.24	27.5767
1223.14	40.9314
1226.03	0.725342
1228.92	24.6841
1231.82	37.9182
