Measurement: Raman, 532 nm, unoriented, Raman Data Processed
Mineral: Chenevixite
Rruff sample: R100177
Ideal chemistry: Cu^2+^(Fe^3+^,Al)(As^5+^O_4_)(OH)_2_
Locality: Patagonia Mountains, Harshaw District, Santa Cruz County, Arizona
Source: Joe Ruiz
Description: Transparent green thin tabular crystals
Raman shift (cm-1)	intensity
132.497	0
135.872	4.16575
139.247	2.90806
142.622	0.587284
145.996	5.87747
149.371	8.65774
152.746	0.289452
156.121	5.15272
159.496	10.7593
162.871	17.1608
166.245	36.6919
169.62	63.0977
172.995	89.2835
176.37	132.947
179.745	193.93
183.119	232.441
186.494	260.652
189.869	290.133
193.244	335.235
196.619	408.625
199.994	438.75
203.369	368.453
206.743	317.463
210.118	270.257
213.493	243.476
216.868	255.023
220.243	307.658
223.617	350.693
226.992	285.575
230.367	172.392
233.742	101.587
237.117	74.0365
240.492	73.1219
243.866	93.9758
247.241	130.191
250.616	156.023
253.991	134.783
257.366	99.6243
260.74	85.1893
264.115	81.4699
267.49	40.8695
270.865	2.8631
274.24	12.3761
277.615	12.6494
280.989	1.99908
284.364	25.5352
287.739	64.1959
291.114	111.453
294.489	136.964
297.863	115.6
301.238	96.3853
304.613	106.225
307.988	144.54
311.363	153.111
314.738	101.975
318.112	51.5176
321.487	39.2208
324.862	53.9847
328.237	75.6232
331.612	85.573
334.986	68.3889
338.361	45.1724
341.736	48.6802
345.111	78.8419
348.486	143.328
351.861	165.096
355.235	143.054
358.61	173.418
361.985	212.182
365.36	200.642
368.735	140.911
372.11	72.2536
375.484	29.4088
378.859	6.19257
382.234	3.85583
385.609	4.38791
388.984	0.031128
392.358	3.23537
395.733	7.87701
399.108	1.18655
402.483	19.7939
405.858	56.6345
409.233	85.0357
412.607	94.6085
415.982	115.011
419.357	182.669
422.732	292.858
426.107	434.89
429.481	615.4
432.856	754.625
436.231	747.357
439.606	573.253
442.981	391.18
446.356	278.174
449.73	218.374
453.105	169.247
456.48	118.927
459.855	79.1769
463.23	48.8334
466.604	35.9108
469.979	31.4667
473.354	36.1716
476.729	49.0796
480.104	68.6696
483.479	93.7181
486.853	121.015
490.228	134.763
493.603	134.531
496.978	131.18
500.353	120.1
503.728	103.609
507.102	84.0441
510.477	68.0722
513.852	54.3494
517.227	44.7407
520.602	39.7036
523.976	32.1418
527.351	20.5883
530.726	8.28708
534.101	0.752548
537.476	1.38751
540.851	5.29888
544.225	4.87338
547.6	1.38021
550.975	0.43322
554.35	4.14416
557.725	9.01372
561.099	12.9948
564.474	19.0147
567.849	19.8651
571.224	19.4881
574.599	18.9316
577.973	19.1604
581.348	19.922
584.723	22.9609
588.098	24.8075
591.473	25.8345
594.848	24.046
598.222	21.6544
601.597	17.8527
604.972	14.3262
608.347	10.3926
611.722	8.0584
615.097	6.64658
618.471	3.9321
621.846	3.15971
625.221	1.96326
628.596	1.34379
631.971	1.47736
635.346	0.386559
638.72	1.02861
642.095	1.7439
645.47	2.42659
648.845	2.03431
652.22	2.08686
655.594	4.36864
658.969	4.42743
662.344	4.50845
665.719	4.4101
669.094	2.92292
672.468	4.40891
675.843	4.90297
679.218	11.7382
682.593	7.77097
685.968	8.43536
689.343	10.3394
692.717	12.1399
696.092	12.3353
699.467	14.0006
702.842	14.2297
706.217	13.9028
709.592	12.449
712.966	10.947
716.341	8.35524
719.716	8.62622
723.091	6.2572
726.466	6.28613
729.841	3.80213
733.215	2.45309
736.59	0.024513
739.965	0.28051
743.34	2.00885
746.715	3.85057
750.089	4.24402
753.464	4.57063
756.839	4.92629
760.214	3.25986
763.589	1.00168
766.963	5.88496
770.338	14.0794
773.713	28.1623
777.088	50.0041
780.463	78.0438
783.838	114.618
787.212	164.94
790.587	220.442
793.962	284.82
797.337	364.538
800.712	468.76
804.087	576.965
807.461	639.562
810.836	617.042
814.211	562.883
817.586	483.283
820.961	389.591
824.335	281.192
827.71	205.696
831.085	166.089
834.46	160.324
837.835	194.626
841.21	259.551
844.584	375.536
847.959	518.985
851.334	656.203
854.709	769.074
858.084	888.363
861.458	908.03
864.833	681.497
868.208	437.144
871.583	306.584
874.958	232.716
878.333	166.051
881.707	113.413
885.082	74.3236
888.457	50.1332
891.832	36.2826
895.207	28.6846
898.582	25.2212
901.956	21.784
905.331	18.1784
908.706	9.89604
912.081	1.86784
915.456	2.43313
918.83	4.91443
922.205	5.88725
925.58	3.63734
928.955	3.82317
932.33	2.48478
935.705	0.482895
939.079	0.864449
942.454	2.24585
945.829	3.19737
949.204	3.32896
952.579	5.25935
955.953	7.19064
959.328	7.16473
962.703	8.11384
966.078	9.32295
969.453	10.3029
972.827	11.2922
976.202	10.971
979.577	9.60635
982.952	12.1367
986.327	10.0518
989.702	9.7815
993.077	10.5554
996.451	12.5884
999.826	12.3495
1003.2	11.827
1006.58	14.2725
1009.95	16.5676
1013.33	18.8753
1016.7	22.0864
1020.08	24.6581
1023.45	25.2352
1026.83	26.024
1030.2	23.1154
1033.57	20.1418
1036.95	14.768
1040.32	12.2367
1043.7	9.0184
1047.07	6.60278
1050.45	5.64011
1053.82	2.9003
1057.2	4.48908
1060.57	3.51422
1063.95	4.67306
1067.32	4.08377
1070.7	4.84314
1074.07	5.94503
1077.45	3.76454
1080.82	4.71071
1084.2	3.72662
1087.57	1.67741
1090.95	0.95546
1094.32	0.224953
1097.7	0.516113
1101.07	0.066925
1104.45	0.774727
1107.82	1.4371
1111.19	0.304482
1114.57	0.911583
1117.94	1.50983
1121.32	1.12351
1124.69	2.58507
1128.07	2.42381
1131.44	2.08438
1134.82	2.7554
1138.19	2.07322
1141.57	3.3858
1144.94	1.95643
1148.32	2.2728
1151.69	1.67543
1155.07	0.915001
1158.44	1.15638
1161.82	0.045563
1165.19	0.160721
1168.57	0.259743
1171.94	0.072876
1175.32	0.971775
1178.69	0.076916
1182.07	0.472958
1185.44	0.949005
1188.82	0.624023
1192.19	0.270237
1195.57	0.460804
1198.94	1.30652
1202.32	0.228115
1205.69	1.33611
1209.07	2.00936
1212.44	1.47524
1215.82	1.76805
1219.19	1.94312
1222.56	1.58783
1225.94	1.4126
1229.31	1.26099
1232.69	0.763756
1236.06	1.88009
1239.44	1.71343
1242.81	1.76488
1246.19	1.33945
1249.56	1.07903
1252.94	1.30306
1256.31	1.69196
1259.69	2.60739
1263.06	3.45096
1266.44	0.993694
1269.81	1.27517
1273.19	1.18311
1276.56	2.40034
1279.94	2.86108
1283.31	1.6634
1286.69	2.15129
1290.06	1.30086
1293.43	1.89777
1296.81	0.109718
1300.18	0.306854
