Measurement: Raman, 780 nm, unoriented, Raman Data Processed
Mineral: Chenite
Rruff sample: R130276
Ideal chemistry: CuPb_4_(SO_4_)_2_(OH)_6_
Locality: Silbershulte, Altenau, Harz Mountains, Germany
Source: Rock Currier
Description: Sky-blue poorly formed prismatic crystals
Raman shift (cm-1)	intensity
169.785	0
172.677	0.352779
175.57	0.006706
178.463	0.751869
181.355	0.333122
184.248	1.58358
187.141	3.37845
190.033	5.37462
192.926	8.67113
195.819	10.7964
198.712	13.4289
201.604	16.2382
204.497	18.4493
207.39	20.5029
210.282	20.2202
213.175	19.4539
216.068	16.8213
218.96	14.9388
221.853	13.5962
224.746	12.9288
227.638	14.3122
230.531	15.2832
233.424	15.1814
236.317	17.748
239.209	17.0448
242.102	16.6699
244.995	14.5227
247.887	12.3006
250.78	10.7464
253.673	7.63883
256.565	7.99355
259.458	7.23794
262.351	5.68104
265.244	4.52286
268.136	3.55358
271.029	1.9728
273.922	0.502159
276.814	0.777901
279.707	0.355145
282.6	0.115368
285.493	0.0851
288.385	0.450523
291.278	0.301008
294.171	0.491707
297.063	1.16803
299.956	1.34778
302.849	2.01382
305.741	3.44767
308.634	4.39189
311.527	6.35976
314.42	8.07737
317.312	10.387
320.205	12.5432
323.098	14.2017
325.99	16.264
328.883	16.7111
331.776	18.2104
334.668	19.2499
337.561	20.6802
340.454	20.5177
343.346	20.0477
346.239	18.0839
349.132	16.637
352.024	17.4
354.917	18.5212
357.81	20.67
360.703	23.1517
363.595	25.3519
366.488	27.2404
369.381	23.585
372.273	17.4989
375.166	10.6259
378.059	6.31655
380.952	4.2249
383.844	2.07397
386.737	1.62691
389.63	1.12234
392.522	0.255062
395.415	0.854843
398.308	0.259827
401.2	0.147455
404.093	0.697191
406.986	2.53376
409.878	5.16797
412.771	9.02215
415.664	11.5862
418.557	16.7161
421.449	23.3872
424.342	31.6971
427.235	41.4787
430.127	41.1716
433.02	23.2865
435.913	11.4979
438.805	7.37118
441.698	6.88435
444.591	7.0761
447.484	7.43618
450.376	8.14678
453.269	8.05808
456.162	7.97394
459.054	8.62439
461.947	8.23893
464.84	6.75224
467.733	4.26586
470.625	3.7861
473.518	2.18795
476.411	1.34515
479.303	1.65742
482.196	0.333804
485.089	0.036276
487.981	0.092423
490.874	0.412273
493.767	0.123185
496.659	0.410513
499.552	0.135132
502.445	0.35213
505.337	0.112421
508.23	0.1953
511.123	0.198509
514.016	0.070009
516.908	0.528049
519.801	0.157133
522.694	0.034973
525.586	0.160282
528.479	0.360544
531.372	0.869998
534.264	0.725665
537.157	0.929624
540.05	1.04698
542.943	1.02926
545.835	0.788552
548.728	1.435
551.621	1.6218
554.513	1.15708
557.406	1.12889
560.299	1.24014
563.192	1.40653
566.084	0.868668
568.977	1.29815
571.87	0.163754
574.762	0.840729
577.655	0.597582
580.548	0.977862
583.44	0.770634
586.333	0.771068
589.226	1.64919
592.119	2.25335
595.011	2.88923
597.904	4.01055
600.797	4.72689
603.689	5.78647
606.582	6.09199
609.475	5.22947
612.367	4.14613
615.26	4.61023
618.153	4.72004
621.045	3.51085
623.938	1.276
626.831	0.909883
629.723	0.318789
632.616	0.105494
635.509	0.274949
638.402	0.620828
641.294	0.247304
644.187	0.409893
647.08	0.132919
649.972	0.045718
652.865	0.236631
655.758	0.066414
658.65	0.36017
661.543	0.231478
664.436	0.119137
667.329	0.327255
670.221	0.318294
673.114	0.122778
676.007	0.289734
678.899	0.104613
681.792	0.075271
684.685	0.939545
687.577	0.53653
690.47	0.52894
693.363	0.325304
696.256	0.143134
699.148	0.320922
702.041	1.08845
704.934	0.515874
707.826	0.939818
710.719	0.799641
713.612	0.467501
716.505	0.301445
719.397	0.539249
722.29	0.811701
725.183	0.390966
728.075	0.772356
730.968	0.390204
733.861	0.866804
736.753	1.55607
739.646	0.952112
742.539	1.05317
745.432	0.510827
748.324	1.08267
751.217	0.385099
754.11	0.861146
757.002	0.557012
759.895	1.34079
762.788	0.956037
765.68	1.09722
768.573	0.257973
771.466	0.527329
774.359	0.832926
777.251	0.051003
780.144	0.286137
783.037	0.107454
785.929	0.176704
788.822	0.455098
791.715	0.360071
794.607	0.648827
797.5	0.707692
800.393	0.946862
803.285	0.092481
806.178	0.24591
809.071	0.047976
811.963	0.042191
814.856	0.273088
817.749	0.29947
820.642	0.430851
823.534	0.400878
826.427	0.385671
829.32	0.226618
832.212	0.266252
835.105	0.660267
837.998	0.79141
840.89	0.740599
843.783	0.461029
846.676	1.2352
849.569	1.62021
852.461	0.95932
855.354	1.25931
858.247	1.48559
861.139	1.01768
864.032	0.505895
866.925	0.385355
869.817	0.60265
872.71	0.414575
875.603	0.292876
878.495	0.269371
881.388	0.453499
884.281	0.037101
887.174	0.388191
890.066	0.28831
892.959	0.0599
895.852	0.340762
898.744	0.310145
901.637	0.783534
904.53	0.333212
907.423	0.144522
910.315	1.14378
913.208	0.632892
916.101	0.94469
918.993	0.690751
921.886	0.86422
924.779	0.77513
927.671	1.11368
930.564	1.18629
933.457	0.883606
936.35	1.47052
939.242	1.18569
942.135	1.96009
945.028	3.05086
947.92	5.00351
950.813	7.62217
953.706	12.9968
956.598	23.4264
959.491	37.3881
962.384	59.408
965.277	94.0865
968.169	125.622
971.062	116.366
973.955	67.5078
976.847	31.3627
979.74	14.6158
982.633	8.1504
985.525	3.96862
988.418	3.13664
991.311	2.41201
994.203	1.30326
997.096	0.511526
999.989	0.600672
1002.88	0.118212
1005.77	0.068757
1008.67	0.269365
1011.56	0.165447
1014.45	0.161444
1017.35	0.161326
1020.24	0.395628
1023.13	0.532134
1026.02	1.73014
1028.92	2.35178
1031.81	3.5224
1034.7	4.65672
1037.59	5.9483
1040.49	7.82646
1043.38	7.88344
1046.27	6.64051
1049.16	6.13477
1052.06	4.70076
1054.95	3.18497
1057.84	2.65909
1060.74	1.45927
1063.63	1.23756
1066.52	0.693157
1069.41	0.798398
1072.31	0.650495
1075.2	0.519028
1078.09	1.22926
1080.98	1.99033
1083.88	2.57795
1086.77	2.61225
1089.66	3.23504
1092.56	2.96273
1095.45	2.36965
1098.34	2.31893
1101.23	1.81886
1104.13	1.87314
1107.02	1.61305
1109.91	1.40896
1112.8	1.37304
1115.7	0.625295
1118.59	0.249567
1121.48	0.478885
1124.38	0.032861
1127.27	0.023323
1130.16	0.004462
1133.05	0.00696
1135.95	0.007493
1138.84	0.647945
1141.73	0.281205
1144.62	0.226639
1147.52	0.762239
1150.41	0.615698
1153.3	0.042213
1156.19	0.642675
1159.09	0.378138
1161.98	0.420744
1164.87	0.850707
1167.77	0.573838
1170.66	0.69239
1173.55	0.811563
1176.44	0.316443
1179.34	1.37755
1182.23	0.504832
1185.12	0.747117
1188.01	1.09903
1190.91	1.32905
1193.8	1.17275
1196.69	1.12409
1199.59	1.0073
1202.48	1.30416
1205.37	0.703468
1208.26	1.01061
1211.16	1.02905
1214.05	1.22798
1216.94	0.502629
1219.83	0.733591
1222.73	0.355468
1225.62	0.276987
1228.51	0.485625
1231.4	0.280801
1234.3	0.719062
1237.19	0.308928
1240.08	0.555536
1242.97	0.713512
1245.87	0.782237
1248.76	0.551904
1251.65	0.347324
1254.55	0.495855
1257.44	1.01119
1260.33	0.872058
1263.22	0.301053
1266.12	0.069265
1269.01	0.695723
1271.9	0.546178
1274.8	0.279512
1277.69	0.229945
1280.58	0.272266
1283.47	0.171916
