Measurement: Raman, 514 nm, unoriented, Raman Data Processed
Mineral: Chenevixite
Rruff sample: R040166
Ideal chemistry: Cu^2+^(Fe^3+^,Al)(As^5+^O_4_)(OH)_2_
Locality: Volcanic Sunnyside mine, Santa Cruz County, Arizona, USA
Source: Andy Anderson
Description: Green earthy massive
Measured chemistry: Cu_2.00_(Fe^3+^_1.98_[box]_0.02_)_Σ=2_((As_0.94_S_0.06_)O_4_)_2_(OH)_4_·1.49H_2_O
Raman shift (cm-1)	intensity
83.614	0
87.798	74.515
91.981	1055.54
96.161	1568.07
100.34	3427.18
104.516	5164.56
108.691	4391.94
112.864	3886.89
117.034	4449.65
121.203	3001.29
125.369	2389.31
129.534	2175.59
133.696	1911.01
137.857	2276.28
142.016	1942.32
146.172	1851.2
150.327	708.916
154.48	44.744
158.63	625.862
162.779	471.519
166.926	126.092
171.07	1519.74
175.213	4230.22
179.354	6584.6
183.493	7612.73
187.63	7947.34
191.765	8542.92
195.898	9913.63
200.029	9713.63
204.158	8910.01
208.285	7950.32
212.41	7244.21
216.533	7595.98
220.654	8847.85
224.773	8405.8
228.891	5765.83
233.006	3339.92
237.119	2280.99
241.231	2618.96
245.34	3833.73
249.448	5216.95
253.553	5728.64
257.657	5413.69
261.758	4416.89
265.858	3265.97
269.956	1995.1
274.052	1291.32
278.146	1273.21
282.237	1952.11
286.327	2875
290.416	4183.58
294.502	4976.44
298.586	5119.56
302.668	5189.9
306.749	5484.19
310.827	5199.7
314.903	4187.47
318.978	3818.99
323.051	3788.3
327.121	3503.78
331.19	3048.67
335.257	2536.68
339.322	2352.56
343.385	3314.3
347.446	5404.82
351.505	6959.14
355.563	7671.2
359.618	8157.96
363.672	7701.46
367.723	6205.6
371.773	4488.28
375.821	3263.31
379.866	2876.53
383.91	2421.81
387.952	2116.01
391.992	1856.99
396.031	1812.69
400.067	2292.03
404.101	3229.94
408.134	3981.36
412.165	4666.27
416.193	5769.95
420.22	8139.33
424.245	12952.3
428.268	20206.9
432.289	25029
436.309	24051.5
440.326	19064.6
444.342	14202
448.355	11853.9
452.367	9802.49
456.377	7721.87
460.385	5845.15
464.391	4943.13
468.395	4316.23
472.398	4084.14
476.398	4055.86
480.397	4647.37
484.394	5231.89
488.389	5881.05
492.382	6127.55
496.373	6279.98
500.362	5785.77
504.349	4702.77
508.335	3676.37
512.319	2731.17
516.3	2065.47
520.28	1792.18
524.259	1356.87
528.235	1061.32
532.209	734.158
536.182	523.063
540.152	398.967
544.121	535.423
548.088	502.208
552.053	574.172
556.017	726.582
559.978	863.937
563.938	974.856
567.895	894.164
571.851	779.518
575.805	698.587
579.758	571.622
583.708	494.153
587.657	407.143
591.603	455.553
595.548	311.346
599.491	169.487
603.432	110.939
607.372	88.668
611.309	39.626
615.245	101.371
619.179	38.635
623.111	133.824
627.041	91.979
630.97	163.738
634.896	237.67
638.821	187.893
642.744	130.28
646.665	170.777
650.584	213.585
654.502	24.703
658.418	138.077
662.331	94.819
666.244	34.932
670.154	46.471
674.062	116.408
677.969	129.85
681.874	66.885
685.777	35.325
689.678	17.946
693.577	61.52
697.475	157.273
701.371	285.492
705.265	379.636
709.157	403.876
713.047	479.155
716.936	587.208
720.823	633.065
724.708	705.742
728.591	951.25
732.472	1003.6
736.352	1016.8
740.23	1288.86
744.106	1546.78
747.98	1739.59
751.853	2031.29
755.723	2383.89
759.592	2921.4
763.459	3427.83
767.325	4167.93
771.188	5300.73
775.05	6451.56
778.91	7939.44
782.768	10096.3
786.625	12743
790.479	15645.1
794.332	18371.4
798.183	21697.1
802.033	25458.2
805.88	28540.6
809.726	28010.7
813.57	25632.6
817.413	22290.1
821.253	19061.1
825.092	16599.5
828.929	15399.7
832.764	15009
836.598	15718
840.429	18087.5
844.259	22072.8
848.088	28407.5
851.914	35751.5
855.739	39204.8
859.562	36194.4
863.383	28307
867.203	19844.2
871.02	14085.3
874.836	10476.6
878.65	8297.28
882.463	7046.3
886.274	5947.59
890.083	5561.05
893.89	5062.67
897.695	4434.47
901.499	3901.41
905.301	3296.55
909.102	2492.94
912.9	1830.54
916.697	1375.38
920.492	1021.47
924.285	740.972
928.077	589.987
931.867	541.521
935.655	483.722
939.442	421.749
943.226	479.801
947.009	425.862
950.791	590.394
954.57	581.743
958.348	473.678
962.124	397.207
965.899	430.727
969.671	558.657
973.442	637.156
977.211	807.416
980.979	974.832
984.745	1283.46
988.509	1386.29
992.271	1571.76
996.032	1706.56
999.791	1957.28
1003.55	2020.7
1007.3	2405.69
1011.06	2834.16
1014.81	3106.33
1018.56	3247.51
1022.31	3296.24
1026.06	3146.14
1029.8	2792.57
1033.55	2483.42
1037.29	2441.24
1041.03	2299.75
1044.77	2112.48
1048.5	1900.61
1052.24	1838.1
1055.97	1648.92
1059.7	1316.34
1063.43	1023.44
1067.16	659.552
1070.89	559.808
1074.61	461.603
1078.34	336.571
1082.06	314.453
1085.78	159.138
1089.5	137.996
1093.21	70.53
1096.93	171.045
1100.64	106.974
1104.35	142.371
1108.06	42.615
1111.77	122.828
1115.48	119.548
1119.18	67.189
1122.89	97.125
1126.59	16.664
1130.29	20.563
1133.99	4.96
1137.68	10.367
1141.38	46.574
1145.07	45.62
1148.76	11.784
1152.45	111.323
1156.14	118.368
1159.83	88.01
1163.51	132.261
1167.19	12.35
1170.88	72.768
1174.56	36.218
1178.23	66.862
1181.91	28.838
1185.59	35.213
1189.26	20.155
1192.93	114.73
1196.6	29.808
1200.27	58.613
1203.94	166.959
1207.6	159.571
1211.27	60.772
1214.93	186.562
1218.59	63.936
1222.25	104.856
1225.9	91.299
1229.56	132.944
1233.21	140.649
1236.86	100.623
1240.51	141.098
1244.16	120.117
1247.81	183.639
1251.45	191.662
1255.1	149.18
1258.74	324.178
1262.38	208.492
1266.02	178.944
1269.66	185.334
1273.29	182.729
1276.93	146.628
1280.56	263.268
1284.19	167.135
1287.82	112.231
1291.45	172.738
1295.07	175.023
1298.7	222.876
1302.32	207.115
1305.94	165.287
1309.56	227.086
1313.18	74.162
1316.8	261.404
1320.41	83.506
1324.02	70.845
1327.63	167.048
1331.24	228.528
1334.85	186.936
1338.46	161.527
1342.06	166.705
1345.67	110.979
1349.27	183.59
1352.87	236.816
1356.47	229.236
1360.07	256.926
1363.66	229.871
1367.25	247.597
1370.85	181.966
1374.44	206.039
1378.03	276.322
1381.61	325.719
1385.2	257.519
1388.78	225.354
1392.37	207.082
1395.95	283.425
1399.53	232.812
1403.1	277.441
1406.68	282.298
1410.26	255.233
1413.83	261.89
1417.4	382.81
1420.97	293.413
1424.54	223.662
1428.1	262.326
1431.67	366.85
1435.23	330.514
1438.8	342.084
1442.36	297.832
1445.91	299.25
1449.47	296.508
1453.03	291.658
1456.58	342.647
1460.13	382.529
1463.68	160.329
1467.23	148.355
1470.78	182.861
1474.33	91.929
1477.87	139.734
1481.42	99.751
1484.96	110.939
1488.5	106.384
1492.04	71.231
1495.57	210.686
1499.11	29.075
1502.64	39.979
1506.17	46.946
1509.71	75.608
1513.23	48.476
1516.76	4.705
1520.29	19.493
1523.81	38.54
