Measurement: Raman, 785 nm, unoriented, Raman Data Processed
Mineral: Chernovite-(Y)
Rruff sample: R070368
Ideal chemistry: YAs^5+^O_4_
Locality: Squaw Creek Mine, Taylor Creek Tin District (Black Range Tin District), Sierra County, New Mexico, USA
Source: Michael Scott
Description: Pale yellow pseudo-octahedral crystals associated with quartz and cassiterite
Raman shift (cm-1)	intensity
214.068	0
216.478	2176.03
218.889	5389.38
221.3	8282.78
223.71	10923.7
226.121	9305.88
228.531	10737.8
230.942	15658.1
233.353	19474.4
235.763	20728.8
238.174	11290.5
240.584	3179.78
242.995	120.875
245.405	1228.81
247.816	1749.91
250.227	808.781
252.637	534.812
255.048	3245.16
257.458	6402.09
259.869	11015.8
262.28	14851.9
264.69	20317.7
267.101	26076.1
269.511	32775.9
271.922	40248
274.332	49120
276.743	57843.7
279.154	65150.5
281.564	72262.9
283.975	76822.5
286.385	79191
288.796	80107.9
291.207	79470.5
293.617	79678.7
296.028	79042.2
298.438	79418.2
300.849	80443.7
303.26	80877.9
305.67	80706.6
308.081	77485.4
310.491	73693.5
312.902	67290.2
315.312	59157.1
317.723	50156.4
320.134	41466.2
322.544	33735.1
324.955	26641.6
327.365	20588.8
329.776	15698.2
332.187	11249.6
334.597	7829.53
337.008	4763.97
339.418	2720
341.829	1023
344.239	624.438
346.65	1091.72
349.061	1250.06
351.471	2526
353.882	3771.72
356.292	4956.19
358.703	5646.03
361.113	6963.81
363.524	7656.44
365.935	8583.25
368.345	9571.28
370.756	11067.9
373.166	11974.6
375.577	12785.5
377.988	12980.9
380.398	12910.9
382.809	12827.9
385.219	13017.1
387.63	13127.9
390.041	14215.2
392.451	16075.3
394.862	17891.5
397.272	19911.3
399.683	21280
402.093	23245.3
404.504	25442.7
406.915	25736.7
409.325	27675
411.736	28575.3
414.146	29400.9
416.557	30224.6
418.967	29607.8
421.378	28590.6
423.789	27037.9
426.199	23998.8
428.61	20753.5
431.02	18021.3
433.431	15130.5
435.842	11586.2
438.252	8758.19
440.663	6124.11
443.073	3410.92
445.484	1877.89
447.894	379.672
450.305	563.359
452.716	1225.5
455.126	1464.73
457.537	1573.98
459.947	1463.88
462.358	445.922
464.769	322.266
467.179	855.156
469.59	1192.38
472	1785.75
474.411	2171.98
476.822	2511.7
479.232	3055.2
481.643	3492.97
484.053	4606.23
486.464	5698.59
488.874	7405.05
491.285	8444.52
493.696	9877.33
496.106	11403.8
498.517	12704.2
500.927	13713.6
503.338	14587.4
505.748	15131.4
508.159	14743.2
510.57	14346.7
512.98	13334.6
515.391	12327.8
517.802	11199.8
520.212	10439.7
522.623	9813.77
525.033	8874.54
527.444	8495.03
529.854	7917.63
532.265	7679.13
534.676	6876.45
537.086	6241.19
539.497	5880.24
541.907	4972.52
544.318	4379.18
546.729	3888.66
549.139	3332.06
551.55	2699.09
553.96	2322.46
556.371	2028.66
558.781	1779.03
561.192	1403.01
563.602	932.391
566.013	637.375
568.424	9.1875
570.834	235.742
573.245	329.148
575.655	471.336
578.066	609.633
580.477	656.148
582.887	376.07
585.298	144.375
587.708	55.5703
590.119	202.406
592.529	824.227
594.94	1529.11
597.351	2420.31
599.761	3567.09
602.172	4745.21
604.582	6220.59
606.993	7895.31
609.404	9732.66
611.814	11820.5
614.225	14153.2
616.635	16953.5
619.046	20015.6
621.457	23901.2
623.867	27876.6
626.278	31845
628.688	36558
631.099	41225.1
633.509	46085.7
635.92	50626.3
638.331	55602.4
640.741	60537.2
643.152	64337.2
645.562	68083.2
647.973	71063.7
650.384	72950.6
652.794	74334.9
655.205	73792.2
657.615	72115
660.026	68982.6
662.436	64950.1
664.847	60191.9
667.258	55273.7
669.668	49730.2
672.079	44245.2
674.489	39040.5
676.9	34447.7
679.311	29869.9
681.721	25686.5
684.132	22264.2
686.542	19208.3
688.953	16322.4
691.363	13973.3
693.774	12036.1
696.185	10406.9
698.595	8755.72
701.006	7379.44
703.416	6435.02
705.827	5433.19
708.237	4543.12
710.648	3571.46
713.059	2919.49
715.469	2417.49
717.88	2010.86
720.29	1378.27
722.701	991.535
725.112	736.359
727.522	239.258
729.933	227.539
732.343	127.316
734.754	138.512
737.164	269.934
739.575	415.496
741.986	400.918
744.396	355.293
746.807	389.461
749.217	263.711
751.628	245.023
754.039	97.6289
756.449	147.492
758.86	92.2891
761.27	105.938
763.681	274.293
766.091	297.277
768.502	433.106
770.913	473.82
773.323	609.531
775.734	689.969
778.144	721.609
780.555	762.375
782.966	740.992
785.376	727.172
787.787	1037.97
790.197	932.289
792.608	986.844
795.019	1193.05
797.429	945.797
799.84	747.379
802.25	855.402
804.661	455.445
807.071	414.969
809.482	166.316
811.893	8.80859
814.303	79.375
816.714	142.496
819.124	71.0312
821.535	304.031
823.946	446.906
826.356	778.094
828.767	1190.89
831.177	1823.38
833.588	2302.34
835.998	2469.75
838.409	2647.84
840.82	2024.25
843.23	1759.43
845.641	1393.02
848.051	1420.54
850.462	1547.59
852.872	1937.76
855.283	2478.38
857.694	3159.71
860.104	4121.75
862.515	5619.98
864.925	7855.53
867.336	10502.4
869.747	14400
872.157	18897.3
874.568	23889.6
876.978	28663.4
879.389	33344.1
881.799	38283
884.21	43047.5
886.621	48542.7
889.031	52814.6
891.442	50847.5
893.852	39794.8
896.263	26321.2
898.674	15948.4
901.084	9568.31
903.495	5963.31
905.905	3729.11
908.316	2601.58
910.726	1731.25
913.137	1212.77
915.548	713.248
917.958	554.965
920.369	347.172
922.779	426.674
925.19	329.09
927.601	189.982
930.011	233.445
932.422	295.748
934.832	202.506
937.243	159.06
939.654	95.8457
942.064	29.7773
944.475	35.5449
946.885	5.91992
949.296	120.475
951.706	152.932
954.117	85.6758
956.528	87.7793
958.938	31.9707
961.349	41.7266
963.759	47.5059
966.17	4.93945
968.581	39.8789
970.991	69.8555
973.402	38.0703
975.812	288.75
978.223	400.424
980.633	508.603
983.044	639.566
985.455	753.449
987.865	833.299
990.276	933.115
992.686	1152.85
995.097	1361.02
997.508	1580.61
999.918	1807.57
1002.33	1866.53
1004.74	2053.39
1007.15	2274.31
1009.56	2394.72
1011.97	2465.32
1014.38	2563.57
1016.79	2642.01
1019.2	2908.29
1021.61	3027.86
1024.02	3243.8
1026.43	3324.23
1028.85	3323.8
1031.26	3530.32
1033.67	3732.96
1036.08	3753.34
1038.49	3900.07
1040.9	3959.34
1043.31	3938.43
1045.72	3862.1
1048.13	3765.08
1050.54	3545.93
1052.95	3461.84
1055.36	3107.96
1057.77	2853.68
1060.18	2660.64
1062.59	2246.89
1065	2097.36
1067.41	1931.36
1069.83	1731.89
1072.24	1473.86
1074.65	1233.91
1077.06	1015.66
1079.47	812.309
1081.88	724.18
1084.29	423.125
1086.7	149.383
1089.11	15.9922
1091.52	18.293
1093.93	222.625
1096.34	178.18
1098.75	54.6016
1101.16	341.648
1103.57	608.941
1105.98	784.641
1108.39	1171.45
1110.81	1234.94
1113.21	1681.94
1115.63	1789.67
1118.04	2080.86
1120.45	2311.55
1122.86	2365.51
1125.27	2150.99
1127.68	1971.33
1130.09	1828.68
1132.5	1680.73
1134.91	1608.16
1137.32	1578.42
1139.73	1002.97
1142.14	799.039
1144.55	586.992
1146.96	383.5
1149.37	244.984
1151.79	169.578
1154.19	0
