Measurement: Raman, 532 nm, unoriented, Raman Data Processed
Mineral: Chernovite-(Y)
Rruff sample: R070368
Ideal chemistry: YAs^5+^O_4_
Locality: Squaw Creek Mine, Taylor Creek Tin District (Black Range Tin District), Sierra County, New Mexico, USA
Source: Michael Scott
Description: Pale yellow pseudo-octahedral crystals associated with quartz and cassiterite
Raman shift (cm-1)	intensity
155.929	0
159.304	211.42
162.679	203.701
166.054	184.252
169.429	461.232
172.803	680.027
176.178	925.127
179.553	660.854
182.928	269.531
186.303	86.9023
189.678	87.1328
193.052	132.652
196.427	119.246
199.802	180.512
203.177	94.3477
206.552	16.1094
209.926	185.918
213.301	549.207
216.676	904.586
220.051	1457.28
223.426	2064.43
226.8	3092.37
230.175	4310.53
233.55	6036.69
236.925	6886.81
240.3	5994.48
243.675	6335.94
247.049	6801.18
250.424	7009.63
253.799	7127.09
257.174	7542.84
260.549	8081.98
263.923	9199.02
267.298	10340.8
270.673	12074.3
274.048	13630.3
277.423	15020.5
280.798	15973.5
284.173	16364.4
287.547	16339
290.922	15575.4
294.297	14905.7
297.672	14528.5
301.046	14577.7
304.421	14733
307.796	14411.9
311.171	13575.8
314.546	12009.4
317.921	10135.2
321.295	8019.34
324.67	6099.18
328.045	4741.69
331.42	3403
334.795	2572.48
338.17	1723.81
341.544	931.625
344.919	200.418
348.294	436.816
351.669	920.906
355.044	1157.77
358.418	1105.25
361.793	705.488
365.168	286.828
368.543	1888.58
371.918	4078.42
375.293	6837.16
378.667	10280.9
382.042	14070.9
385.417	17893
388.792	22124
392.167	27209.3
395.541	32748.4
398.916	38906.9
402.291	44392.1
405.666	47647.9
409.041	46510.2
412.416	43489.1
415.79	42398.6
419.165	44869.8
422.54	47240.6
425.915	46735.7
429.29	44715.7
432.664	42133.1
436.039	40467.4
439.414	39987.2
442.789	40230.6
446.164	41687.7
449.538	44712.8
452.913	48052.1
456.288	49443.4
459.663	49337.9
463.038	48795.8
466.413	44844.7
469.787	37846.2
473.162	30115.3
476.537	23467.5
479.912	17673.2
483.287	13897.5
486.661	10571.4
490.036	7494.14
493.411	4658.37
496.786	2408.28
500.161	566.594
503.536	601.672
506.911	1453.19
510.285	1245.52
513.66	368.844
517.035	1779.21
520.41	4771.99
523.784	9345.46
527.159	14437
530.534	18976.5
533.909	22200.9
537.284	23170.8
540.659	21510.6
544.033	18659.3
547.408	16087.1
550.783	14202.7
554.158	11946.5
557.533	9627.28
560.908	6936.14
564.282	4768.89
567.657	2701.23
571.032	1140.6
574.407	197.836
577.782	514.188
581.156	737.109
584.531	887.945
587.906	392.367
591.281	309.727
594.656	1847.18
598.031	4183.85
601.405	8003.42
604.78	12397.6
608.155	17245.4
611.53	21498.5
614.905	25511.5
618.279	29327.4
621.654	32184.1
625.029	34601.3
628.404	35532.9
631.779	35876.3
635.154	35653.9
638.528	35809.8
641.903	36210.3
645.278	37273.3
648.653	39217.8
652.028	41191.7
655.403	43537.1
658.777	44873.4
662.152	45191.6
665.527	44477.2
668.902	42746.7
672.277	39786.8
675.651	35861
679.026	31666.9
682.401	26810.4
685.776	22699
689.151	18639.5
692.525	15456.7
695.9	12672.2
699.275	10002.8
702.65	8173.1
706.025	6031.19
709.399	4337.36
712.774	3026.41
716.149	2305.62
719.524	1155.82
722.899	533.906
726.274	421.945
729.648	79.7109
733.023	127.148
736.398	340.406
739.773	52.6562
743.148	173.43
746.523	261.125
749.897	229.078
753.272	215.898
756.647	115.055
760.022	47.8516
763.397	420.539
766.771	214.148
770.146	569.414
773.521	520.727
776.896	693.922
780.271	800.977
783.646	933.516
787.02	1024.15
790.395	1191.73
793.77	1413.62
797.145	1533.17
800.52	1658.73
803.894	1559.36
807.269	1509.9
810.644	1234.44
814.019	1253.63
817.394	971.973
820.769	1176.03
824.143	731.891
827.518	1291.9
830.893	1103.98
834.268	1481.25
837.643	1268.98
841.018	837.254
844.392	730.394
847.767	420.738
851.142	599.445
854.517	822.867
857.891	1002.66
861.266	1600.5
864.641	2086.71
868.016	3725.45
871.391	5231.27
874.766	7117.38
878.14	8829.53
881.515	10335.2
884.89	11757.7
888.265	12400.7
891.64	10745.5
895.015	6841.4
898.389	3554.64
901.764	2017.57
905.139	1002.35
908.514	473.086
911.889	521.488
915.264	311.754
918.638	242.144
922.013	111.051
925.388	4.1875
928.763	53.9727
932.138	84.0312
935.512	57.9922
938.887	80.8398
942.262	48.6445
945.637	59.6758
949.012	49.5391
952.386	106.883
955.761	0.117188
959.136	129.875
962.511	107.609
965.886	70.3281
969.261	94.1523
972.635	90.875
976.01	60.2656
979.385	124.285
982.76	75.3867
986.135	15.7109
989.51	55.5391
992.884	133.098
996.259	111.644
999.634	229.082
1003.01	29.0977
1006.38	107.856
1009.76	74.8945
1013.13	212.473
1016.51	303.824
1019.88	252.629
1023.26	234.809
1026.63	249.273
1030.01	251.918
1033.38	154.531
1036.76	38.6172
1040.13	207.371
1043.51	163.43
1046.88	200.336
1050.26	129.457
1053.63	10.9453
1057.01	126.309
1060.38	245.629
1063.76	199.762
1067.13	198.59
1070.51	42.1367
1073.88	158.945
1077.26	261.25
1080.63	289.324
1084	231.035
1087.38	167.805
1090.75	248.836
1094.13	221.047
1097.5	400.656
1100.88	272.973
1104.25	253.375
1107.63	251.824
1111	356.547
1114.38	365.637
1117.75	152.547
1121.13	304.539
1124.5	218.141
1127.88	324.328
1131.25	300.484
1134.63	157.375
1138	111.914
1141.38	287.758
1144.75	52.9219
1148.13	250.523
1151.5	95.5625
1154.88	38.5781
1158.25	256.641
1161.62	81.4297
1165	170.039
1168.38	71.0312
1171.75	113.18
1175.12	20.6094
1178.5	8.53906
1181.87	11.1094
1185.25	93.2812
1188.62	100.867
1192	58.6328
1195.37	107.172
1198.75	101.477
1202.12	95.4922
1205.5	8.82031
1208.87	213.125
1212.25	151.594
1215.62	140.523
1219	272.594
1222.37	148.898
1225.75	50.2422
1229.12	152.438
1232.5	97.1484
1235.87	197.328
1239.25	65.2812
1242.62	226.156
1246	151.867
1249.37	279.383
1252.74	363.555
1256.12	215.617
1259.49	375.789
1262.87	357.125
1266.24	374.125
1269.62	347.711
1272.99	384.398
1276.37	368.953
1279.74	342.914
1283.12	567.914
1286.49	505.508
1289.87	360.414
1293.24	286.992
1296.62	323.406
1299.99	251.93
1303.37	289.125
1306.74	12.875
1310.12	315.906
1313.49	206.672
