Measurement: Raman, 780 nm, unoriented, Raman Data Processed
Mineral: Chervetite
Rruff sample: R080096
Ideal chemistry: Pb_2_V^5+^_2_O_7_
Locality: Franceville, Gabon, Africa
Source: William W. Pinch
Description: Long tabular light tan crystals associated with francevillite
Raman shift (cm-1)	intensity
152.306	0
155.199	17.6635
158.091	1.40259
160.984	4.6626
163.877	31.2134
166.769	80.8522
169.662	154.955
172.555	250.396
175.447	390.557
178.34	578.236
181.233	678.419
184.126	642.249
187.018	472.723
189.911	372.149
192.804	350.093
195.696	365.7
198.589	364.449
201.482	354.256
204.375	395.397
207.267	511.794
210.16	664.257
213.053	864.806
215.945	1149.81
218.838	1487.53
221.731	1825.79
224.623	2061.01
227.516	2089.73
230.409	2087.04
233.302	2219.73
236.194	2284.22
239.087	2184.32
241.98	1996.55
244.872	1925.23
247.765	2055.09
250.658	2324.2
253.55	2646.27
256.443	2878.73
259.336	2728.6
262.228	2105.47
265.121	1325.39
268.014	774.454
270.907	447.653
273.799	209.653
276.692	81.0527
279.585	13.5582
282.477	35.3468
285.37	58.4188
288.263	50.4861
291.156	28.7279
294.048	0.96814
296.941	86.9933
299.834	248.029
302.726	566.182
305.619	1037.05
308.512	1329.09
311.404	1751.75
314.297	2370.53
317.19	3139.14
320.082	4270.49
322.975	5235.99
325.868	3631.44
328.761	1819.93
331.653	1334.09
334.546	1226.47
337.439	1170.24
340.331	1361.63
343.224	1704.3
346.117	2263.99
349.01	3081.23
351.902	3455.22
354.795	3123.46
357.688	3171.27
360.58	3262.25
363.473	3316.07
366.366	3813.06
369.258	4098.34
372.151	3859.33
375.044	2874.93
377.937	1611
380.829	1014.84
383.722	725.963
386.615	541.802
389.507	381.568
392.4	242.378
395.293	143.189
398.185	90.6504
401.078	58.2764
403.971	36.9388
406.863	12.8334
409.756	2.2912
412.649	6.68036
415.542	5.69733
418.434	7.60944
421.327	9.91858
424.22	10.5033
427.112	11.6424
430.005	7.64752
432.898	0.27478
435.791	0.476624
438.683	6.67676
441.576	9.09949
444.469	16.5912
447.361	21.5589
450.254	21.1088
453.147	21.9977
456.039	31.1024
458.932	32.6932
461.825	31.3584
464.717	41.5091
467.61	39.0544
470.503	42.0488
473.396	40.7351
476.288	47.147
479.181	39.8112
482.074	38.9069
484.966	36.8208
487.859	35.0352
490.752	25.3381
493.644	21.9387
496.537	15.0706
499.43	14.3066
502.323	15.4321
505.215	11.029
508.108	12.3063
511.001	2.22699
513.893	2.14062
516.786	7.26593
519.679	1.28302
522.572	0.146606
525.464	2.16894
528.357	0.03479
531.25	1.41931
534.142	0.732422
537.035	7.69006
539.928	9.36438
542.82	7.23834
545.713	17.9146
548.606	17.8849
551.499	36.4356
554.391	70.6011
557.284	159.103
560.177	321.141
563.069	534.344
565.962	741.194
568.855	1055.56
571.747	1522.88
574.64	2256.45
577.533	2760.44
580.426	2152.62
583.318	1149.81
586.211	602.867
589.104	356.835
591.996	215.037
594.889	147.198
597.782	112.498
600.674	80.4908
603.567	65.4089
606.46	66.1561
609.352	64.6816
612.245	64.0906
615.138	62.3445
618.03	58.6398
620.923	39.929
623.816	31.3441
626.709	25.1254
629.601	17.3466
632.494	12.7037
635.387	15.2683
638.279	14.342
641.172	20.8401
644.065	22.3625
646.957	37.1597
649.85	68.2331
652.743	97.8602
655.636	171.222
658.528	275.122
661.421	405.998
664.314	576.685
667.206	788.626
670.099	1053.66
672.992	1255.95
675.885	1229.35
678.777	936.244
681.67	645.062
684.563	438.253
687.455	297.508
690.348	183.818
693.241	108.699
696.133	58.524
699.026	33.9445
701.919	10.532
704.812	1.81439
707.704	9.2843
710.597	2.28674
713.49	4.91235
716.382	14.6282
719.275	25.5918
722.168	34.0446
725.06	30.5106
727.953	41.6244
730.846	58.1571
733.739	79.9617
736.631	113.825
739.524	167.003
742.417	218.387
745.309	286.555
748.202	295.248
751.095	258.147
753.987	200.84
756.88	133.757
759.773	73.0236
762.665	25.9829
765.558	22.8413
768.451	46.7231
771.344	50.5103
774.236	44.025
777.129	35.7131
780.022	15.5408
782.914	29.7064
785.807	107.781
788.7	225.133
791.592	385.343
794.485	614.052
797.378	908.859
800.271	1309.52
803.163	1814.15
806.056	2369.07
808.949	2907.57
811.841	3398.57
814.734	3833.3
817.627	4040.54
820.519	3727.5
823.412	3171.61
826.305	2582.42
829.198	2101.56
832.09	1702.5
834.983	1315.48
837.876	1001.73
840.768	756.848
843.661	653.573
846.554	652.284
849.447	769.467
852.339	1003.34
855.232	1457.71
858.125	2328.06
861.017	3878.82
863.91	5839.21
866.803	7902.35
869.695	11048.4
872.588	15693.3
875.481	20476.1
878.374	17773.5
881.266	9818.12
884.159	5134.2
887.052	3048.11
889.944	1983.12
892.837	1305.42
895.73	920.957
898.622	686.691
901.515	522.511
904.408	398.55
907.301	304.404
910.193	223.12
913.086	159.18
915.979	103.817
918.871	52.6468
921.764	26.9934
924.657	4.0686
927.549	20.0654
930.442	24.3454
933.335	31.8892
936.227	27.6922
939.12	19.952
942.013	17.0046
944.906	13.4529
947.798	5.59363
950.691	4.23157
953.584	4.14679
956.476	9.64075
959.369	18.6505
962.262	24.8406
965.154	30.0028
968.047	46.315
970.94	58.4432
973.833	60.2231
976.725	74.2278
979.618	75.8466
982.511	88.5931
985.403	93.9037
988.296	96.3938
991.189	99.0671
994.082	96.8818
996.974	92.5117
999.867	93.349
1002.76	86.5034
1005.65	82.5153
1008.54	82.71
1011.44	73.7242
1014.33	70.5783
1017.22	69.1352
1020.12	71.1988
1023.01	66.1795
1025.9	61.3811
1028.79	60.4848
1031.69	63.6135
1034.58	55.016
1037.47	60.0434
1040.37	50.6246
1043.26	43.7313
1046.15	42.9199
1049.04	41.1501
1051.94	33.6614
1054.83	33.1388
1057.72	32.7137
1060.61	20.9561
1063.51	22.005
1066.4	20.5732
1069.29	21.0332
1072.18	16.181
1075.08	16.0118
1077.97	14.9209
1080.86	15.2507
1083.76	7.49087
1086.65	9.06119
1089.54	4.75153
1092.43	3.77655
1095.33	9.54416
1098.22	7.15951
1101.11	3.1153
1104	1.73932
1106.9	0.432159
1109.79	1.65784
1112.68	1.1474
1115.58	0.574463
1118.47	0.057709
1121.36	2.66632
1124.25	0.862762
1127.15	2.01483
1130.04	5.83777
1132.93	4.56989
1135.82	8.80795
1138.72	8.8876
1141.61	14.4759
1144.5	13.4395
1147.39	7.81622
1150.29	10.0581
1153.18	5.63345
1156.07	9.60648
1158.96	4.04523
1161.86	5.5311
1164.75	1.32831
1167.64	2.57703
1170.54	4.12109
1173.43	2.79089
1176.32	1.90536
1179.21	2.21106
1182.11	1.44226
1185	1.82117
1187.89	2.08423
1190.79	2.23788
1193.68	1.87201
1196.57	1.93622
1199.46	2.2214
1202.36	5.20847
1205.25	7.57077
1208.14	3.72876
1211.03	4.95489
1213.93	1.33511
1216.82	2.67651
1219.71	3.1955
1222.61	5.79691
1225.5	6.26459
1228.39	5.55734
1231.28	3.23532
1234.18	6.18918
1237.07	5.40134
1239.96	6.01834
1242.85	3.35187
1245.75	9.54059
1248.64	5.29028
1251.53	2.61508
1254.42	5.13058
1257.32	4.60254
1260.21	4.67136
1263.1	3.83374
1265.99	6.26553
1268.89	0.702606
1271.78	6.48236
1274.67	3.55664
1277.57	0.590881
1280.46	2.44644
