Measurement: Raman, 532 nm, unoriented, Raman Data Processed
Mineral: Chervetite
Rruff sample: R080096
Ideal chemistry: Pb_2_V^5+^_2_O_7_
Locality: Franceville, Gabon, Africa
Source: William W. Pinch
Description: Long tabular light tan crystals associated with francevillite
Raman shift (cm-1)	intensity
149.243	0
152.136	37.118
155.029	10.5529
157.921	13.2042
160.814	57.7847
163.707	175.822
166.6	261.729
169.492	337.062
172.385	475.591
175.278	716.526
178.17	1009.29
181.063	984.95
183.956	837.553
186.848	557.004
189.741	434.612
192.634	432.141
195.526	378.228
198.419	376.592
201.312	321.798
204.205	411.954
207.097	557.89
209.99	779.61
212.883	1004.93
215.775	1360.74
218.668	1779.25
221.561	2107.06
224.453	2303.77
227.346	2211.42
230.239	2261.72
233.132	2651.08
236.024	2832.71
238.917	2787.43
241.81	2639.72
244.702	2702.12
247.595	2969.1
250.488	3397.94
253.381	3892.12
256.273	4143.11
259.166	3672.42
262.059	2637.19
264.951	1598
267.844	931.69
270.737	474.721
273.629	201.474
276.522	69.196
279.415	28.4993
282.308	52.2482
285.2	99.432
288.093	71.2808
290.986	45.8383
293.878	41.9839
296.771	220.095
299.664	507.081
302.556	1128.75
305.449	2014.07
308.342	2821.18
311.235	3609.88
314.127	4743.34
317.02	6293.06
319.913	8653.04
322.805	9167.93
325.698	5027.03
328.591	2637.31
331.483	2101.12
334.376	1775.23
337.269	1774.65
340.161	2091.56
343.054	2720.91
345.947	3741.89
348.84	4881.33
351.732	5034.83
354.625	4953.86
357.518	5356.44
360.41	5213.84
363.303	5421.14
366.196	6001.68
369.089	6010.98
371.981	5383.4
374.874	3590.53
377.767	2176.23
380.659	1575.45
383.552	1298.19
386.445	1028.6
389.337	694.849
392.23	427.962
395.123	252.918
398.015	171.668
400.908	80.7738
403.801	70.8759
406.694	36.0116
409.586	7.96991
412.479	5.59833
415.372	1.36902
418.264	4.99786
421.157	16.0013
424.05	12.8215
426.942	2.60431
429.835	1.52338
432.728	12.7354
435.621	2.58972
438.513	4.65631
441.406	5.37933
444.299	34.9699
447.191	27.4769
450.084	18.9731
452.977	25.782
455.87	33.7913
458.762	41.473
461.655	45.7082
464.548	49.8276
467.44	77.5605
470.333	85.4861
473.226	75.9487
476.118	66.3725
479.011	61.8163
481.904	74.9901
484.796	67.8227
487.689	57.0807
490.582	67.9131
493.475	53.9073
496.367	76.33
499.26	28.0529
502.153	32.6242
505.045	23.1148
507.938	13.0261
510.831	14.2917
513.723	19.12
516.616	1.22876
519.509	4.37183
522.402	7.03409
525.294	18.6118
528.187	8.82996
531.08	7.33426
533.972	7.12048
536.865	3.01816
539.758	17.7708
542.65	18.9248
545.543	4.06635
548.436	47.9363
551.329	83.7214
554.221	193.326
557.114	403.513
560.007	811.575
562.899	1368.31
565.792	1961.54
568.685	2663.86
571.577	3885.6
574.47	5076.54
577.363	5175.91
580.256	3293.34
583.148	1758.75
586.041	952.931
588.934	580.411
591.826	375.889
594.719	293.298
597.612	210.656
600.505	184.168
603.397	166.324
606.29	190.032
609.183	174.998
612.075	161.621
614.968	176.852
617.861	145.033
620.753	103.569
623.646	87.503
626.539	78.1053
629.432	61.6218
632.324	52.4028
635.217	46.2112
638.11	37.4337
641.002	34.6237
643.895	68.7391
646.788	100.61
649.68	139.468
652.573	227.251
655.466	367.538
658.359	553.475
661.251	852.923
664.144	1126.38
667.037	1451.03
669.929	1789.21
672.822	1966.66
675.715	1753.91
678.607	1351.19
681.5	993.038
684.393	694.526
687.285	461.659
690.178	327.303
693.071	167.559
695.964	115.215
698.856	74.0774
701.749	42.7565
704.642	4.21057
707.534	23.3325
710.427	23.7593
713.32	10.7192
716.212	36.6733
719.105	58.6993
721.998	100.95
724.891	97.1362
727.783	116.535
730.676	236.315
733.569	338.828
736.461	500.025
739.354	734.246
742.247	1020.88
745.139	1209.68
748.032	1225.52
750.925	1032.53
753.818	755.223
756.71	487.053
759.603	249.059
762.496	59.6078
765.388	29.9546
768.281	136.813
771.174	183.114
774.067	184.122
776.959	113.008
779.852	14.4127
782.745	206.518
785.637	550.17
788.53	1093.91
791.423	1760.56
794.315	2729.48
797.208	3975.61
800.101	5732.22
802.994	7751.69
805.886	9937.42
808.779	12011.2
811.672	13962.9
814.564	15356.3
817.457	15305.4
820.35	13637.4
823.242	11390.9
826.135	9249.4
829.028	7485.15
831.92	5950.85
834.813	4543.32
837.706	3408.25
840.599	2601.71
843.491	2163.19
846.384	2061.9
849.277	2379.14
852.169	3157.42
855.062	4530.73
857.955	7265.55
860.847	11926.3
863.74	17611.8
866.633	24481.1
869.526	34173.1
872.418	47282.5
875.311	53325.6
878.204	37666.9
881.096	19732.2
883.989	10822.1
886.882	6713.31
889.774	4319.47
892.667	2917.69
895.56	2031.44
898.453	1541.53
901.345	1182.34
904.238	891.76
907.131	645.381
910.023	433.38
912.916	302.354
915.809	161.544
918.702	63.3301
921.594	3.72571
924.487	65.2384
927.38	77.0492
930.272	82.683
933.165	103.591
936.058	59.6376
938.95	53.4194
941.843	54.0382
944.736	17.072
947.629	22.8068
950.521	34.4181
953.414	44.0841
956.307	78.0443
959.199	106.468
962.092	122.644
964.985	149.656
967.877	182.625
970.77	211.725
973.663	246.647
976.556	252.681
979.448	263.522
982.341	319.541
985.234	320.7
988.126	324.613
991.019	310.043
993.912	294.259
996.804	291.784
999.697	256.9
1002.59	279.214
1005.48	237.508
1008.38	231.808
1011.27	232.632
1014.16	221.872
1017.05	209.042
1019.95	195.853
1022.84	184.196
1025.73	189.29
1028.62	191.553
1031.52	175.004
1034.41	155.382
1037.3	148.601
1040.19	149.43
1043.09	120.332
1045.98	124.877
1048.87	86.7856
1051.77	98.3497
1054.66	77.9434
1057.55	65.5797
1060.44	66.4297
1063.34	67.5603
1066.23	52.5358
1069.12	48.1065
1072.02	45.5478
1074.91	40.3392
1077.8	41.1267
1080.69	33.0167
1083.59	35.0768
1086.48	25.5534
1089.37	22.3937
1092.26	9.57367
1095.16	24.7792
1098.05	2.46439
1100.94	4.21002
1103.83	10.8272
1106.73	5.84689
1109.62	2.47476
1112.51	21.1164
1115.4	12.2337
1118.3	3.69604
1121.19	9.99518
1124.08	9.78046
1126.98	24.0986
1129.87	6.02228
1132.76	22.0429
1135.65	38.7273
1138.55	32.9128
1141.44	45.0722
1144.33	48.1587
1147.22	37.6982
1150.12	35.5399
1153.01	22.5768
1155.9	32.5017
1158.8	27.9808
1161.69	0.74054
1164.58	6.49149
1167.47	1.1629
1170.37	10.2599
1173.26	4.70816
1176.15	3.25601
1179.04	2.32837
1181.94	8.38876
1184.83	22.0707
1187.72	12.715
1190.62	30.4229
1193.51	0.302124
1196.4	0.489075
1199.29	6.85452
1202.19	4.63684
1205.08	15.6969
1207.97	0.337616
1210.86	6.25824
1213.76	10.5463
1216.65	15.1049
1219.54	11.9449
1222.43	15.2436
1225.33	3.05743
1228.22	22.0542
1231.11	18.5501
1234.01	24.2386
1236.9	13.815
1239.79	8.0405
1242.68	17.4149
1245.58	15.3314
1248.47	19.064
1251.36	10.9846
1254.26	16.7714
1257.15	16.4604
1260.04	9.77615
1262.93	19.1333
1265.83	23.3859
1268.72	16.2913
1271.61	23.935
1274.5	6.15469
1277.4	3.31207
1280.29	4.3064
