Measurement: Raman, 785 nm, unoriented, Raman Data Processed
Mineral: Chesnokovite
Rruff sample: R070234
Ideal chemistry: Na_2_SiO_2_(OH)_2_8H_2_O
Locality: Kedykverpakhk Mt, Lovozero Massif, Kola Peninsula, Murmanskaya Oblast'; Northern Region, Russia
Source: Michael Scott
Description: Light purple massive fragment in a sealed glass vial
Raman shift (cm-1)	intensity
146.572	0
149.464	6.12854
152.357	86.1697
155.25	157.981
158.142	224.489
161.035	108.737
163.928	58.4282
166.821	96.5618
169.713	160.945
172.606	226.157
175.499	131.084
178.391	38.3627
181.284	10.6116
184.177	10.4321
187.069	26.3002
189.962	48.5837
192.855	106.087
195.748	121.64
198.64	143.617
201.533	127.353
204.426	89.184
207.318	73.9608
210.211	17.0467
213.104	0.502747
215.996	4.82275
218.889	1.88159
221.782	17.356
224.674	15.3308
227.567	6.75348
230.46	8.32727
233.353	11.9885
236.245	60.7362
239.138	36.1443
242.031	22.9097
244.923	25.3617
247.816	81.6231
250.709	134.189
253.601	177.248
256.494	264.418
259.387	411.446
262.28	507.935
265.172	511.653
268.065	349.808
270.958	216.686
273.85	112.138
276.743	76.9031
279.636	50.0828
282.529	70.6573
285.421	64.5097
288.314	96.8776
291.207	168.433
294.099	194.251
296.992	198.089
299.885	238.807
302.777	205.215
305.67	155.382
308.563	74.3151
311.455	36.9855
314.348	20.6513
317.241	8.96948
320.134	8.37701
323.026	45.4467
325.919	59.3108
328.812	132.422
331.704	175.886
334.597	104.575
337.49	38.0709
340.382	12.7918
343.275	4.08685
346.168	18.0539
349.061	29.8742
351.953	48.4474
354.846	99.0213
357.739	130.159
360.631	161.668
363.524	163.952
366.417	138.377
369.31	136.491
372.202	100.649
375.095	33.7576
377.988	10.7048
380.88	17.4351
383.773	20.2217
386.666	23.2722
389.558	40.1098
392.451	88.6962
395.344	82.9925
398.236	22.7658
401.129	17.0759
404.022	24.689
406.915	6.03021
409.807	18.4325
412.7	26.7436
415.593	37.7991
418.485	115.42
421.378	170.02
424.271	189.498
427.163	157.541
430.056	109.7
432.949	61.4001
435.842	45.4151
438.734	16.0181
441.627	18.0776
444.52	27.7974
447.412	26.9347
450.305	63.678
453.198	79.9105
456.091	161.928
458.983	255.734
461.876	393.976
464.769	540.59
467.661	715.417
470.554	980.619
473.447	1136.18
476.339	1028.93
479.232	912.76
482.125	845.16
485.017	964.27
487.91	1088.4
490.803	896.11
493.696	500.615
496.588	264.069
499.481	170.072
502.374	105.338
505.266	55.5969
508.159	59.7991
511.052	36.9767
513.944	36.1887
516.837	18.8613
519.73	27.7991
522.623	16.7716
525.515	18.3215
528.408	22.7152
531.301	0.167664
534.193	13.719
537.086	13.5181
539.979	12.1835
542.871	5.2774
545.764	25.0981
548.657	26.9305
551.55	60.8618
554.442	83.4787
557.335	120.996
560.228	191.576
563.12	210.097
566.013	222.995
568.906	172.374
571.798	118.646
574.691	75.4003
577.584	58.4651
580.477	40.8447
583.369	37.1061
586.262	25.2027
589.155	19.363
592.047	14.8277
594.94	10.1555
597.833	17.1702
600.726	12.2028
603.618	10.8777
606.511	2.57596
609.404	9.25452
612.296	16.5089
615.189	2.85764
618.082	7.03384
620.974	13.3035
623.867	19.2567
626.76	20.8069
629.653	21.3951
632.545	2.40683
635.438	25.5486
638.331	14.9633
641.223	5.8779
644.116	22.0958
647.009	20.4073
649.901	18.7488
652.794	43.0394
655.687	82.2468
658.58	91.9935
661.472	76.1249
664.365	59.8327
667.258	81.3138
670.15	101.362
673.043	101.811
675.936	47.6375
678.828	22.174
681.721	31.6011
684.614	10.3473
687.506	10.8311
690.399	2.57852
693.292	43.1239
696.185	15.737
699.077	17.3674
701.97	14.6599
704.863	15.8604
707.755	7.78119
710.648	32.5548
713.541	14.3704
716.433	24.3554
719.326	19.1211
722.219	56.0993
725.112	33.465
728.004	38.218
730.897	21.837
733.79	6.14008
736.682	30.7435
739.575	40.8786
742.468	83.9995
745.361	109.104
748.253	156.928
751.146	182.105
754.039	191.718
756.931	148.674
759.824	93.5968
762.717	48.9074
765.609	21.6136
768.502	17.2281
771.395	10.5099
774.288	3.48218
777.18	1.57373
780.073	9.12802
782.966	2.14478
785.858	11.8553
788.751	17.2141
791.644	25.5275
794.536	19.5961
797.429	36.8862
800.322	45.2255
803.215	78.8008
806.107	55.7532
809	60.7856
811.893	52.4152
814.785	22.694
817.678	22.8371
820.571	39.5032
823.463	34.6973
826.356	40.9857
829.249	24.9624
832.141	1.6564
835.034	15.2212
837.927	2.67676
840.82	4.52472
843.712	12.5529
846.605	6.87503
849.498	7.06647
852.39	1.80533
855.283	0.44693
858.176	9.40195
861.068	10.6261
863.961	8.36154
866.854	13.6964
869.746	6.70291
872.639	7.05856
875.532	0.892944
878.425	24.4761
881.317	7.41217
884.21	5.61786
887.103	27.1431
889.995	12.9129
892.888	30.2451
895.781	13.2571
898.673	36.5729
901.566	26.0291
904.459	24.6063
907.352	29.0233
910.244	40.4558
913.137	35.7348
916.03	44.5356
918.922	21.0487
921.815	57.6508
924.708	82.5652
927.601	145.039
930.493	232.603
933.386	333.419
936.279	349.221
939.171	238.836
942.064	155.771
944.957	95.8344
947.849	87.2367
950.742	88.7185
953.635	85.075
956.528	94.7444
959.42	92.1307
962.313	107.583
965.206	104.579
968.098	67.1278
970.991	75.9774
973.884	87.3848
976.776	77.7728
979.669	62.4591
982.562	65.5183
985.455	85.0445
988.347	56.1494
991.24	49.2685
994.133	39.0666
997.025	32.8274
999.918	1.30514
1002.81	12.6082
1005.7	3.5744
1008.6	8.58551
1011.49	0.011322
1014.38	1.24133
1017.27	1.05905
1020.17	14.446
1023.06	22.3477
1025.95	16.1822
1028.85	16.9909
1031.74	2.77338
1034.63	13.0476
1037.52	38.5851
1040.42	61.4363
1043.31	81.2592
1046.2	105.458
1049.09	98.2715
1051.99	124.623
1054.88	120.747
1057.77	170.862
1060.66	138.642
1063.56	78.8323
1066.45	69.3899
1069.34	42.1645
1072.24	48.3074
1075.13	31.5269
1078.02	70.6361
1080.91	95.4481
1083.81	65.9673
1086.7	82.866
1089.59	121.294
1092.48	141.696
1095.38	143.538
1098.27	103.824
1101.16	98.352
1104.06	66.4962
1106.95	85.5073
1109.84	62.7871
1112.73	72.6313
1115.63	42.6143
1118.52	35.2658
1121.41	30.6413
1124.3	35.5423
1127.2	18.6062
1130.09	5.8717
1132.98	10.2516
1135.88	21.325
1138.77	16.1984
1141.66	0.481537
1144.55	5.27832
1147.45	17.8098
1150.34	9.84128
1153.23	5.09082
1156.12	1.74966
1159.02	0.856201
1161.91	7.82651
1164.8	6.41141
1167.69	31.7528
1170.59	20.659
1173.48	18.7165
1176.37	28.6597
1179.27	26.6995
1182.16	30.0901
1185.05	25.6043
1187.94	16.3539
1190.84	38.7601
1193.73	22.0844
1196.62	23.1693
1199.51	19.6536
1202.41	62.6775
1205.3	23.0804
1208.19	29.1659
1211.09	31.4242
1213.98	42.8768
1216.87	25.967
1219.76	8.90533
1222.66	3.04224
1225.55	23.1084
1228.44	29.0104
1231.33	3.84705
1234.23	7.55075
1237.12	26.3758
1240.01	1.68408
