Measurement: Raman, 532 nm, unoriented, Raman Data Processed
Mineral: Chesnokovite
Rruff sample: R070234
Ideal chemistry: Na_2_SiO_2_(OH)_2_8H_2_O
Locality: Kedykverpakhk Mt, Lovozero Massif, Kola Peninsula, Murmanskaya Oblast'; Northern Region, Russia
Source: Michael Scott
Description: Light purple massive fragment in a sealed glass vial
Raman shift (cm-1)	intensity
146.769	0
150.144	128.412
153.519	548.895
156.894	1057.45
160.268	603.671
163.643	297.611
167.018	294.088
170.393	521.565
173.768	500.084
177.143	83.8972
180.517	1.64172
183.892	10.2606
187.267	86.871
190.642	188.518
194.017	255.161
197.391	303.178
200.766	224.147
204.141	123.072
207.516	52.3396
210.891	16.1237
214.266	13.1252
217.64	10.9418
221.015	9.96985
224.39	17.3919
227.765	16.3151
231.14	68.6792
234.514	147.31
237.889	158.262
241.264	70.0656
244.639	101.102
248.014	155.324
251.388	391.132
254.763	574.775
258.138	886.536
261.513	1254.25
264.888	1202.98
268.263	718.449
271.637	389.875
275.012	147.76
278.387	110.969
281.762	119.441
285.137	136.356
288.512	196.71
291.886	333.452
295.261	407.654
298.636	503.916
302.011	521.561
305.386	343.678
308.76	111.467
312.135	35.9761
315.51	0.47583
318.885	37.0977
322.26	81.1916
325.635	192.891
329.009	327.698
332.384	377.934
335.759	117.986
339.134	63.7227
342.509	26.1089
345.883	89.9238
349.258	181.086
352.633	277.074
356.008	463.981
359.383	614.735
362.757	625.494
366.132	551.232
369.507	463.432
372.882	299.847
376.257	45.6345
379.632	11.4353
383.006	12.8914
386.381	51.4236
389.756	115.955
393.131	168.29
396.506	158.09
399.88	40.2693
403.255	32.3623
406.63	11.1956
410.005	60.6052
413.38	49.8879
416.755	177.586
420.129	417.464
423.504	599.739
426.879	472.517
430.254	248.425
433.629	142.745
437.003	126.65
440.378	96.1643
443.753	73.2373
447.128	154.787
450.503	221.352
453.878	370.73
457.252	590.251
460.627	943.307
464.002	1483.37
467.377	2196.41
470.752	2881.15
474.127	3207.64
477.501	2817.21
480.876	2441.28
484.251	2590.29
487.626	2973.01
491.001	2018.15
494.375	921.67
497.75	473.205
501.125	297.239
504.5	159.785
507.875	94.1577
511.25	80.5708
514.624	51.9512
517.999	86.0217
521.374	36.0481
524.749	65.7939
528.124	18.9197
531.498	24.7808
534.873	17.0098
538.248	3.86206
541.623	12.0535
544.998	11.4023
548.372	105.884
551.747	179.864
555.122	332.018
558.497	495.749
561.872	643.51
565.247	710.29
568.621	544.053
571.996	355.703
575.371	185.896
578.746	137.117
582.121	109.157
585.495	52.5535
588.87	93.8716
592.245	40.0102
595.62	2.43335
598.995	45.3145
602.37	14.2256
605.744	29.0554
609.119	33.4863
612.494	22.1248
615.869	0.90625
619.244	11.8643
622.619	57.9827
625.993	11.0764
629.368	36.0906
632.743	23.7273
636.118	23.7927
639.493	21.6934
642.867	81.4285
646.242	135.968
649.617	114.438
652.992	158.629
656.367	233.717
659.741	290.94
663.116	248.312
666.491	246.611
669.866	306.235
673.241	260.228
676.616	107.793
679.99	33.585
683.365	72.3433
686.74	3.68921
690.115	11.4216
693.49	22.8274
696.865	12.6182
700.239	15.0942
703.614	8.60278
706.989	48.3145
710.364	7.9856
713.739	78.1501
717.113	125.335
720.488	167.054
723.863	173.679
727.238	77.8418
730.613	45.0681
733.987	82.6763
737.362	139.92
740.737	207.013
744.112	307.293
747.487	405.646
750.862	518.712
754.236	485.738
757.611	305.283
760.986	139.297
764.361	86.385
767.736	52.6787
771.111	31.2788
774.485	9.19214
777.86	22.9331
781.235	37.1294
784.61	56.1672
787.985	52.5112
791.359	26.2105
794.734	98.9233
798.109	89.0039
801.484	170.692
804.859	197.703
808.234	181.285
811.608	126.271
814.983	94.2764
818.358	107.507
821.733	159.952
825.108	139.425
828.482	97.6338
831.857	109.236
835.232	59.0715
838.607	21.8774
841.982	41.4009
845.356	6.24292
848.731	22.407
852.106	20.6284
855.481	46.915
858.856	1.51953
862.231	5.41968
865.605	11.7478
868.98	6.43823
872.355	32.8237
875.73	1.66943
879.105	10.2969
882.48	7.38354
885.854	65.5427
889.229	54.4644
892.604	53.4741
895.979	92.2109
899.354	107.168
902.729	119.574
906.103	130.469
909.478	123.35
912.853	98.5281
916.228	157.22
919.602	173.599
922.977	298.087
926.352	556.537
929.727	833.288
933.102	1344.63
936.477	1272.45
939.851	643.854
943.226	578.596
946.601	360.39
949.976	329.002
953.351	324.503
956.726	316.235
960.1	350.013
963.475	346.73
966.85	355.69
970.225	344.735
973.6	301.19
976.974	342.985
980.349	303.624
983.724	320.676
987.099	335.28
990.474	219.593
993.848	121.02
997.223	10.2373
1000.6	0.659668
1003.97	26.6108
1007.35	39.7681
1010.72	5.41162
1014.1	35.8648
1017.47	52.9199
1020.85	102.484
1024.22	93.8672
1027.6	22.9858
1030.97	8.76074
1034.35	64.3276
1037.72	217.621
1041.1	327.557
1044.47	390.707
1047.85	436.973
1051.22	457.853
1054.6	622.051
1057.97	726.037
1061.35	464.246
1064.72	246.186
1068.09	184.837
1071.47	156.505
1074.84	194.553
1078.22	338.442
1081.59	315.604
1084.97	335.935
1088.34	492.902
1091.72	636.54
1095.09	654.793
1098.47	534.469
1101.84	408.282
1105.22	313.55
1108.59	302.224
1111.97	235.601
1115.34	140.879
1118.72	127.132
1122.09	62.7041
1125.47	39.1392
1128.84	6.34766
1132.22	48.0908
1135.59	2.56494
1138.97	19.0972
1142.34	51.9575
1145.71	3.08008
1149.09	4.81104
1152.46	5.90771
1155.84	15.5933
1159.21	9.38281
1162.59	31.3887
1165.96	60.2598
1169.34	43.7588
1172.71	95.835
1176.09	93.1084
1179.46	55.4375
1182.84	70.0557
1186.21	56.4307
1189.59	154.724
1192.96	148.522
1196.34	41.084
1199.71	72.2935
1203.09	22.8447
1206.46	72.4136
1209.84	27.0855
1213.21	2.42481
1216.59	57.4785
1219.96	48.3272
1223.34	20.8169
1226.71	48.0098
1230.09	34.0737
1233.46	24.5693
1236.84	65.5981
1240.21	3.99414
1243.59	16.6274
1246.96	110.538
1250.34	19.1826
1253.71	115.027
1257.08	54.1543
1260.46	95.7222
1263.83	103.653
1267.21	114.501
1270.58	118.717
1273.96	116.159
1277.33	88.1899
1280.71	109.099
1284.08	65.6118
1287.46	71.9292
1290.83	71.0693
1294.21	52.459
1297.58	0.436035
1300.96	58.7895
1304.33	42.6665
1307.71	73.9477
1311.08	57.8901
