Measurement: Raman, 785 nm, unoriented, Raman Data Processed
Mineral: Childrenite
Rruff sample: R070538
Ideal chemistry: Fe^2+^AlPO_4_(OH)_2_H_2_O
Locality: Llallagua, Bustillos Province, Potosi, Bolivia
Source: James Shigley
Description: Brown pyramidal, prismatic crystals
Raman shift (cm-1)	intensity
154.184	0
157.076	1.53931
159.969	119.905
162.862	101.319
165.755	136.795
168.647	51.6025
171.54	90.0249
174.433	138.471
177.325	171.477
180.218	174.61
183.111	130.228
186.003	152.052
188.896	245.952
191.789	316.969
194.681	464.263
197.574	531.869
200.467	585.487
203.36	668.735
206.252	721.351
209.145	739.332
212.038	649.554
214.93	565.29
217.823	572.577
220.716	486.214
223.608	436.252
226.501	448.435
229.394	539.769
232.287	691.566
235.179	851.104
238.072	1096.49
240.965	1417.85
243.857	1607.19
246.75	1825.44
249.643	2001.4
252.536	1965.21
255.428	1639.1
258.321	1259.07
261.214	996.079
264.106	569.075
266.999	254.621
269.892	58.1387
272.784	46.946
275.677	62.9839
278.57	29.4617
281.462	59.2478
284.355	159.042
287.248	342.667
290.141	566.592
293.033	788.593
295.926	1028
298.819	1207.41
301.711	1395.31
304.604	1491.4
307.497	1548.11
310.389	1406.86
313.282	1243.91
316.175	979.563
319.068	798.464
321.96	563.764
324.853	420.758
327.746	374.726
330.638	256.08
333.531	202.927
336.424	133.855
339.317	99.7529
342.209	57.3989
345.102	113.275
347.995	65.1091
350.887	69.365
353.78	38.9165
356.673	54.4502
359.565	27.3523
362.458	11.594
365.351	14.9856
368.243	25.0232
371.136	27.7273
374.029	41.6741
376.922	36.5566
379.814	7.68823
382.707	42.939
385.6	30.5261
388.492	12.9551
391.385	2.32764
394.278	44.8298
397.171	96.438
400.063	144.766
402.956	243.127
405.849	267.403
408.741	300.875
411.634	301.832
414.527	242.45
417.42	237.694
420.312	190.064
423.205	110.086
426.098	125.431
428.99	109.916
431.883	181.217
434.776	255.941
437.668	292.329
440.561	453.822
443.454	592.169
446.346	818.005
449.239	1144.74
452.132	1538.72
455.025	2018.31
457.917	2694.83
460.81	3402.62
463.703	3868.26
466.595	3760.01
469.488	3254.64
472.381	2831.34
475.274	2252.64
478.166	1797.08
481.059	1376.84
483.952	1021.72
486.844	744.33
489.737	540.338
492.63	341.242
495.522	218.485
498.415	168.039
501.308	79.5452
504.2	75.8752
507.093	87.0029
509.986	4.91894
512.879	1.06738
515.771	29.0586
518.664	3.5249
521.557	1.23975
524.449	32.2808
527.342	42.8665
530.235	50.2315
533.128	48.3081
536.02	136.065
538.913	226.338
541.806	402.416
544.698	696.062
547.591	1083.47
550.484	1468.72
553.376	1927.73
556.269	2200.09
559.162	1932.59
562.054	1254.54
564.947	714.729
567.84	455.408
570.733	412.317
573.625	468.894
576.518	528.706
579.411	649.805
582.303	675.661
585.196	815.321
588.089	993.961
590.981	1157.72
593.874	1389.93
596.767	1475.82
599.66	1507.04
602.552	1278.1
605.445	843.084
608.338	558.657
611.23	435.765
614.123	389.125
617.016	384.315
619.909	396.558
622.801	362.722
625.694	327.179
628.587	261.018
631.479	237.14
634.372	171.631
637.265	137.451
640.157	117.455
643.05	85.588
645.943	37.123
648.836	24.2616
651.728	5.06811
654.621	4.25415
657.514	2.93042
660.406	12.0271
663.299	14.1498
666.192	0.832886
669.084	16.8806
671.977	8.24573
674.87	14.752
677.763	23.0482
680.655	34.3682
683.548	30.6256
686.441	16.1168
689.333	58.5889
692.226	43.2819
695.119	52.202
698.011	33.3809
700.904	42.3982
703.797	23.8608
706.69	50.3851
709.582	39.2844
712.475	22.0415
715.368	47.6597
718.26	50.4802
721.153	39.7986
724.046	7.66711
726.938	21.4993
729.831	21.3704
732.724	10.8535
735.617	4.67529
738.509	13.1975
741.402	8.23791
744.295	47.9939
747.187	14.6204
750.08	9.02624
752.973	6.31189
755.865	28.6602
758.758	10.7553
761.651	4.06311
764.544	55.7252
767.436	21.1738
770.329	3.72388
773.222	36.54
776.114	31.9487
779.007	27.9799
781.9	74.9066
784.793	76.9937
787.685	69.6732
790.578	79.7432
793.471	135.755
796.363	141.408
799.256	202.755
802.149	221.179
805.041	264.216
807.934	334.796
810.827	323.11
813.72	360.51
816.612	324.296
819.505	306.208
822.398	267.459
825.29	168.434
828.183	143.881
831.076	127.963
833.968	82.6223
836.861	99.3118
839.754	53.4827
842.646	22.2728
845.539	45.4476
848.432	9.66223
851.325	19.542
854.217	45.0884
857.11	14.6469
860.003	13.4828
862.895	2.60303
865.788	3.96179
868.681	33.198
871.573	55.8356
874.466	60.8005
877.359	47.4519
880.252	81.2406
883.144	53.2577
886.037	89.0236
888.93	107.239
891.822	132.136
894.715	95.2675
897.608	131.781
900.5	134.043
903.393	140.367
906.286	117.517
909.179	111.536
912.071	100.347
914.964	55.6687
917.857	21.5337
920.749	21.0746
923.642	34.7343
926.535	26.3556
929.428	33.3945
932.32	27.1511
935.213	20.0419
938.106	34.0847
940.998	93.0375
943.891	205.316
946.784	361.25
949.676	629.858
952.569	1178.05
955.462	2229.39
958.355	3971.94
961.247	6548.58
964.14	9285.18
967.033	9810.33
969.925	7295.5
972.818	4416.85
975.711	2585.47
978.604	1675.96
981.496	1198.31
984.389	895.625
987.282	708.465
990.174	622.439
993.067	581.604
995.96	621.041
998.852	769.869
1001.75	1047.75
1004.64	1458.76
1007.53	2065.97
1010.42	2733.47
1013.32	3230.43
1016.21	3028.3
1019.1	2351.27
1021.99	1633.45
1024.89	1290.89
1027.78	1222.16
1030.67	1261.06
1033.57	1383.95
1036.46	1475.01
1039.35	1414.29
1042.24	1292.18
1045.13	1104.55
1048.03	928.357
1050.92	776.432
1053.81	569.1
1056.71	386.824
1059.6	275.863
1062.49	142.811
1065.38	97.7051
1068.28	29.0303
1071.17	9.8374
1074.06	38.9857
1076.95	14.8707
1079.85	14.5105
1082.74	18.5858
1085.63	32.0562
1088.53	12.4543
1091.42	5.87219
1094.31	25.9789
1097.2	57.1564
1100.1	78.8752
1102.99	85.3103
1105.88	116.75
1108.78	130.044
1111.67	74.1439
1114.56	71.4354
1117.45	76.0582
1120.35	61.2698
1123.24	60.2876
1126.13	22.6227
1129.02	40.9452
1131.92	43.273
1134.81	67.3018
1137.7	31.2419
1140.6	74.2935
1143.49	90.7498
1146.38	135.515
1149.27	162.239
1152.17	207.325
1155.06	147.745
1157.95	125.682
1160.84	110.974
1163.74	68.0041
1166.63	69.276
1169.52	68.1533
1172.41	15.1082
1175.31	26.6819
1178.2	26.8577
1181.09	44.6168
1183.98	31.6495
1186.88	4.22424
1189.77	0.073486
1192.66	15.9022
1195.56	9.39099
1198.45	39.504
1201.34	29.218
1204.23	18.87
1207.13	6.77026
1210.02	24.8534
1212.91	19.967
1215.81	9.75195
1218.7	26.3353
1221.59	8.51331
1224.48	35.7944
1227.38	44.6833
1230.27	46.3451
1233.16	20.0371
1236.05	29.2642
1238.95	28.0543
1241.84	27.8945
1244.73	10.6721
1247.62	20.1548
1250.52	28.7368
1253.41	36.6625
1256.3	40.2294
1259.19	55.7159
1262.09	48.4576
1264.98	44.6632
1267.87	3.67065
1270.77	2.4751
