Measurement: Raman, 780 nm, unoriented, Raman Data Processed
Mineral: Childrenite
Rruff sample: R060146
Ideal chemistry: Fe^2+^AlPO_4_(OH)_2_H_2_O
Locality: George and Charlotte mine, Tavistock, Devon, England
Source: Marcus Origlieri
Description: Brown transparent pyramidal single crystals
Measured chemistry: (Fe^2+^_0.83_Mn_0.15_Ca_0.02_)_Σ=1_Al_1.00_(P_1.00_O_4_)(OH)_2_·H_2_O
Raman shift (cm-1)	intensity
149.879	0
152.772	3.05643
155.665	2.47465
158.557	1.84012
161.45	0.08989
164.343	1.23421
167.236	1.90279
170.128	4.48669
173.021	8.76384
175.914	11.6857
178.806	9.42705
181.699	10.3854
184.592	11.4128
187.484	12.7088
190.377	18.0056
193.27	19.743
196.162	28.2937
199.055	31.3683
201.948	36.6044
204.841	40.0099
207.733	41.6538
210.626	40.0107
213.519	34.5603
216.411	28.9145
219.304	26.1683
222.197	23.3584
225.089	21.1071
227.982	21.4801
230.875	26.0616
233.768	30.5927
236.66	36.301
239.553	43.3535
242.446	51.6485
245.338	61.2173
248.231	72.7745
251.124	78.0566
254.017	74.5275
256.909	57.2709
259.802	40.2957
262.695	26.5709
265.587	16.8814
268.48	6.86067
271.373	1.79126
274.265	1.30379
277.158	1.32216
280.051	1.47855
282.943	4.05391
285.836	7.6546
288.729	11.0382
291.622	14.4733
294.514	17.5598
297.407	20.3298
300.3	24.8531
303.192	26.4036
306.085	27.4862
308.978	26.2139
311.87	23.1414
314.763	18.5729
317.656	15.111
320.548	7.90309
323.441	4.75755
326.334	1.83348
329.227	2.05463
332.119	0.194626
335.012	1.75536
337.905	0.432251
340.797	0.219177
343.69	0.649673
346.583	0.069778
349.476	0.410065
352.368	3.21722
355.261	5.08951
358.154	1.76114
361.046	1.85561
363.939	1.1281
366.832	2.41927
369.724	4.33746
372.617	5.34819
375.51	6.36018
378.402	8.39029
381.295	11.2736
384.188	13.1815
387.081	16.4431
389.973	16.7649
392.866	19.3557
395.759	21.0648
398.651	20.7535
401.544	19.8111
404.437	17.6782
407.329	12.6286
410.222	9.44553
413.115	5.94171
416.008	3.47893
418.9	1.62904
421.793	1.3183
424.686	0.447159
427.578	0.722076
430.471	0.620796
433.364	1.16664
436.257	2.86258
439.149	7.12542
442.042	10.1746
444.935	15.8536
447.827	23.673
450.72	32.8616
453.613	41.16
456.505	52.8462
459.398	72.917
462.291	94.4827
465.183	100.842
468.076	79.8087
470.969	62.1961
473.861	49.4733
476.754	39.3202
479.647	29.4523
482.54	21.1134
485.432	16.4567
488.325	11.1598
491.218	8.76586
494.11	4.83019
497.003	3.24058
499.896	2.62357
502.788	1.32702
505.681	0.988304
508.574	0.449097
511.467	1.40179
514.359	0.222435
517.252	0.326447
520.145	0.657974
523.037	0.073624
525.93	0.792854
528.823	0.528221
531.716	0.989197
534.608	1.09674
537.501	1.47448
540.394	6.33511
543.286	9.38777
546.179	14.7972
549.072	20.4145
551.964	29.9867
554.857	42.5768
557.75	46.5664
560.643	32.8322
563.535	17.8873
566.428	10.6889
569.321	8.48031
572.213	11.1071
575.106	16.7353
577.999	23.7278
580.891	32.3348
583.784	38.917
586.677	51.6428
589.569	62.8496
592.462	71.8684
595.355	73.1984
598.248	62.9167
601.14	53.958
604.033	42.6712
606.926	36.1643
609.818	33.0615
612.711	38.1053
615.604	45.43
618.496	52.4873
621.389	56.2336
624.282	49.9468
627.174	41.8517
630.067	33.4308
632.96	24.6963
635.853	18.757
638.745	15.7139
641.638	10.4786
644.531	8.094
647.423	4.89572
650.316	3.2919
653.209	2.09322
656.101	0.552132
658.994	0.125832
661.887	0.549599
664.78	0.447144
667.672	0.261307
670.565	0.320206
673.458	0.179115
676.35	0.441498
679.243	0.422356
682.136	0.667343
685.029	0.20668
687.921	0.03933
690.814	0.728851
693.707	0.385414
696.599	0.402534
699.492	0.527222
702.385	0.650337
705.277	0.325951
708.17	0.741798
711.063	1.18903
713.955	2.00004
716.848	1.58972
719.741	1.84793
722.634	1.26479
725.526	0.756279
728.419	0.491447
731.312	0.903198
734.204	1.44106
737.097	0.125061
739.99	0.715965
742.882	0.230873
745.775	0.335045
748.668	1.07194
751.561	0.223793
754.453	0.218323
757.346	0.79673
760.239	0.315361
763.131	1.1382
766.024	0.892349
768.917	0.542557
771.809	0.09523
774.702	0.749626
777.595	1.06566
780.487	0.969276
783.38	1.57626
786.273	1.51342
789.166	1.56591
792.058	3.64981
794.951	3.02731
797.844	2.53075
800.736	3.59431
803.629	3.03333
806.522	4.01266
809.414	5.52685
812.307	4.90424
815.2	5.94425
818.093	5.3408
820.985	4.8578
823.878	4.32189
826.771	4.24245
829.663	2.80069
832.556	2.7858
835.449	1.77521
838.341	0.872414
841.234	0.265549
844.127	1.03752
847.02	0.770851
849.912	0.420036
852.805	0.872643
855.698	0.217857
858.59	0.280937
861.483	1.02241
864.376	0.71563
867.269	0.242317
870.161	0.017563
873.054	1.24278
875.947	2.18204
878.839	1.55682
881.732	1.25691
884.625	1.83678
887.517	2.39246
890.41	2.76098
893.303	4.47119
896.195	4.47709
899.088	4.51469
901.981	4.38114
904.874	4.82778
907.766	4.02787
910.659	3.32591
913.552	2.4934
916.444	0.962486
919.337	0.892197
922.23	1.09021
925.122	0.215874
928.015	0.880913
930.908	0.599655
933.801	0.211716
936.693	0.36261
939.586	2.56605
942.479	6.01278
945.371	10.5212
948.264	21.1437
951.157	37.1187
954.049	64.1773
956.942	105.024
959.835	164.466
962.727	257.778
965.62	365.709
968.513	369.06
971.406	238.314
974.298	130.762
977.191	74.9686
980.084	45.6988
982.976	30.0581
985.869	20.4391
988.762	13.6406
991.654	10.0322
994.547	7.73759
997.44	8.60397
1000.33	10.3542
1003.23	15.3689
1006.12	24.0794
1009.01	33.7617
1011.9	46.8299
1014.8	55.7416
1017.69	50.7634
1020.58	35.9589
1023.47	22.9047
1026.37	17.6534
1029.26	18.7919
1032.15	23.1049
1035.05	28.013
1037.94	32.9519
1040.83	34.7152
1043.72	33.0296
1046.62	33.571
1049.51	33.2388
1052.4	30.9134
1055.29	27.8765
1058.19	19.3123
1061.08	12.79
1063.97	7.18509
1066.87	4.09043
1069.76	0.699776
1072.65	0.663727
1075.54	0.239693
1078.43	1.32663
1081.33	0.909706
1084.22	0.328064
1087.11	0.113747
1090.01	0.171352
1092.9	2.68927
1095.79	2.82894
1098.68	4.83331
1101.58	6.46708
1104.47	6.51869
1107.36	6.32856
1110.26	5.93325
1113.15	4.36739
1116.04	2.43351
1118.93	2.21931
1121.83	0.826256
1124.72	0.693863
1127.61	1.07033
1130.5	0.790478
1133.4	1.13366
1136.29	0.170193
1139.18	0.866657
1142.08	1.01934
1144.97	0.099586
1147.86	2.33435
1150.75	3.03278
1153.65	2.96611
1156.54	3.72465
1159.43	3.54782
1162.32	0.706139
1165.22	0.928719
1168.11	0.915428
1171	1.52487
1173.89	2.01109
1176.79	1.54676
1179.68	1.25345
1182.57	0.597248
1185.46	0.178574
1188.36	1.00673
1191.25	1.34581
1194.14	0.215946
1197.04	1.95504
1199.93	1.51143
1202.82	1.52977
1205.71	0.148315
1208.61	1.72689
1211.5	0.774448
1214.39	1.41962
1217.29	2.15551
1220.18	1.43402
1223.07	0.958965
1225.96	1.74651
1228.86	0.894451
1231.75	0.723656
1234.64	1.01125
1237.53	1.02185
1240.43	0.966129
1243.32	1.19398
1246.21	0.731754
1249.11	1.46755
1252	0.238499
1254.89	0.863762
1257.78	0.608955
1260.67	0.594582
1263.57	1.00328
1266.46	1.8113
1269.35	1.30062
1272.25	2.01349
1275.14	0.516327
1278.03	0.919483
1280.92	0.6376
1283.82	0.241241
