Measurement: Raman, 532 nm, unoriented, Raman Data Processed
Mineral: Childrenite
Rruff sample: R060146
Ideal chemistry: Fe^2+^AlPO_4_(OH)_2_H_2_O
Locality: George and Charlotte mine, Tavistock, Devon, England
Source: Marcus Origlieri
Description: Brown transparent pyramidal single crystals
Measured chemistry: (Fe^2+^_0.83_Mn_0.15_Ca_0.02_)_Σ=1_Al_1.00_(P_1.00_O_4_)(OH)_2_·H_2_O
Raman shift (cm-1)	intensity
149.564	0
152.457	2.55466
155.35	1.43427
158.242	0.385933
161.135	0.202721
164.028	0.412628
166.92	0.976974
169.813	4.13246
172.706	9.1545
175.598	12.9094
178.491	12.8546
181.384	11.7517
184.277	12.6953
187.169	16.7722
190.062	20.2137
192.955	26.0695
195.847	32.0396
198.74	36.6909
201.633	43.907
204.525	48.6215
207.418	51.1686
210.311	49.5347
213.204	44.8909
216.096	40.3205
218.989	37.0387
221.882	33.8543
224.774	32.843
227.667	34.4509
230.56	39.2956
233.452	44.7475
236.345	49.3481
239.238	54.1417
242.131	60.2859
245.023	66.4765
247.916	72.5927
250.809	73.5027
253.701	65.0611
256.594	49.939
259.487	33.6624
262.38	21.0837
265.272	10.882
268.165	5.90585
271.058	0.498787
273.95	1.41508
276.843	1.65125
279.736	1.4966
282.628	4.16602
285.521	8.18645
288.414	14.0358
291.307	18.4676
294.199	23.5286
297.092	28.4889
299.985	31.3586
302.877	33.0599
305.77	33.2991
308.663	31.1098
311.555	27.3986
314.448	22.141
317.341	16.1006
320.234	11.0877
323.126	6.94077
326.019	3.74235
328.912	2.55244
331.804	0.066681
334.697	0.134987
337.59	0.238304
340.483	0.833832
343.375	0.453217
346.268	0.215294
349.161	0.266068
352.053	0.565239
354.946	0.413734
357.839	0.166374
360.731	0.077827
363.624	0.794495
366.517	2.67434
369.41	3.35197
372.302	3.32539
375.195	5.49606
378.088	5.71697
380.98	6.84963
383.873	10.2279
386.766	12.5007
389.659	14.4317
392.551	16.0884
395.444	18.5936
398.337	18.4642
401.229	17.7664
404.122	15.6423
407.015	12.8082
409.908	11.2899
412.8	8.00617
415.693	6.33444
418.586	4.0287
421.478	2.14281
424.371	1.68494
427.264	1.50255
430.156	2.67664
433.049	3.84829
435.942	5.5796
438.834	8.91157
441.727	12.1853
444.62	16.0027
447.513	23.1202
450.405	30.679
453.298	38.1005
456.191	48.5921
459.083	61.13
461.976	69.3255
464.869	72.2832
467.762	63.3883
470.654	52.6391
473.547	43.7396
476.44	35.0494
479.332	26.6911
482.225	19.4449
485.118	13.005
488.01	8.83156
490.903	5.11726
493.796	2.70367
496.689	1.80486
499.581	1.32265
502.474	0.4851
505.367	0.552048
508.259	0.467888
511.152	0.001122
514.045	0.910576
516.938	0.936752
519.83	0.588112
522.723	0.833344
525.616	0.936058
528.508	0.664207
531.401	1.25159
534.294	3.44466
537.187	5.35171
540.079	10.5429
542.972	16.9932
545.865	22.8742
548.757	29.1001
551.65	35.7361
554.543	40.9046
557.435	39.834
560.328	29.4438
563.221	18.1181
566.114	13.9248
569.006	14.4586
571.899	20.1748
574.792	27.8441
577.684	37.5002
580.577	49.6594
583.47	63.282
586.362	79.7678
589.255	96.6332
592.148	110.019
595.04	120.035
597.933	121.727
600.826	114.411
603.719	93.9463
606.611	75.8105
609.504	68.0781
612.397	65.4253
615.289	69.4837
618.182	69.888
621.075	67.1236
623.967	58.3162
626.86	48.1124
629.753	37.2919
632.646	30.4434
635.538	23.0887
638.431	17.4592
641.324	14.3372
644.216	10.0484
647.109	6.61806
650.002	3.75388
652.895	3.00084
655.787	1.69995
658.68	0.856842
661.573	0.223648
664.465	0.210831
667.358	0.024506
670.251	0.318855
673.144	0.678001
676.036	0.906174
678.929	0.046959
681.822	0.59211
684.714	0.542442
687.607	0.17601
690.5	0.888016
693.393	0.951576
696.285	0.669815
699.178	0.953598
702.071	0.432968
704.963	1.23375
707.856	1.12415
710.749	1.25816
713.641	1.63911
716.534	1.54733
719.427	1.90166
722.319	1.14292
725.212	0.767181
728.105	1.3662
730.998	1.28017
733.89	1.04232
736.783	1.08839
739.676	1.05067
742.568	0.317017
745.461	0.917236
748.354	0.828232
751.246	0.139465
754.139	0.599312
757.032	0.512405
759.925	0.260544
762.817	0.771751
765.71	0.798706
768.603	0.88575
771.495	0.592003
774.388	0.292892
777.281	1.43829
780.174	1.85186
783.066	1.24039
785.959	1.83688
788.852	1.91518
791.744	3.24757
794.637	2.61426
797.53	3.21799
800.423	4.83408
803.315	4.53539
806.208	5.36171
809.101	6.85419
811.993	7.37454
814.886	6.61688
817.779	6.58233
820.671	5.95278
823.564	4.67989
826.457	4.79057
829.35	3.15506
832.242	2.93896
835.135	2.56709
838.028	1.39969
840.92	0.988388
843.813	1.44951
846.706	1.00572
849.598	0.750381
852.491	0.242744
855.384	0.626068
858.277	0.512634
861.169	0.021469
864.062	0.328499
866.955	0.872108
869.847	0.865227
872.74	1.88432
875.633	1.95519
878.525	2.33758
881.418	3.6309
884.311	5.26122
887.204	4.90395
890.096	5.99374
892.989	7.41159
895.882	8.99069
898.774	9.73429
901.667	9.36783
904.56	8.64435
907.452	8.11688
910.345	5.57302
913.238	4.35376
916.131	1.69012
919.023	1.58842
921.916	1.03149
924.809	1.27651
927.702	1.74078
930.594	2.16499
933.487	0.303116
936.38	2.03481
939.272	7.34918
942.165	14.2751
945.058	26.7634
947.95	50.1286
950.843	90.8525
953.736	165.373
956.629	268.671
959.521	382.557
962.414	510.442
965.307	610.463
968.199	563.44
971.092	369.509
973.985	213.746
976.877	125.709
979.77	79.7473
982.663	53.256
985.556	37.5166
988.448	27.5741
991.341	20.9053
994.234	19.9167
997.126	21.844
1000.02	30.1473
1002.91	42.3487
1005.8	59.6532
1008.7	78.9215
1011.59	95.5695
1014.48	100.73
1017.38	86.0614
1020.27	60.7899
1023.16	42.5084
1026.05	36.3112
1028.95	38.2944
1031.84	44.5442
1034.73	50.7848
1037.62	57.6042
1040.52	58.3357
1043.41	54.1429
1046.3	50.1343
1049.19	46.366
1052.09	40.1049
1054.98	31.88
1057.87	22.9385
1060.77	14.188
1063.66	8.00457
1066.55	3.22702
1069.44	0.331192
1072.34	1.62231
1075.23	2.28136
1078.12	1.67594
1081.02	1.62386
1083.91	0.788452
1086.8	1.16112
1089.69	2.29613
1092.59	4.34497
1095.48	7.13716
1098.37	9.08112
1101.26	11.3001
1104.16	11.863
1107.05	10.9258
1109.94	9.36519
1112.83	7.0434
1115.73	5.49995
1118.62	3.28025
1121.51	2.83334
1124.4	3.26151
1127.3	2.30725
1130.19	2.23833
1133.08	1.40619
1135.98	1.46867
1138.87	1.20682
1141.76	1.13621
1144.65	2.57908
1147.55	4.09157
1150.44	5.00036
1153.33	5.43535
1156.22	4.49606
1159.12	3.94154
1162.01	2.18685
1164.9	0.876526
1167.8	1.67573
1170.69	0.347458
1173.58	0.17643
1176.47	0.11673
1179.37	1.2899
1182.26	0.451157
1185.15	0.228806
1188.05	0.009689
1190.94	0.022423
1193.83	1.27203
1196.72	0.35936
1199.62	0.823624
1202.51	0.698845
1205.4	0.5811
1208.29	0.043686
1211.19	1.27308
1214.08	0.07206
1216.97	1.32008
1219.87	1.50999
1222.76	1.85723
1225.65	0.126534
1228.54	0.421043
1231.43	2.14777
1234.33	1.208
1237.22	1.90208
1240.11	0.485909
1243.01	1.1542
1245.9	0.554367
1248.79	0.389198
1251.68	0.048683
1254.58	1.30799
1257.47	0.265808
1260.36	0.149902
1263.26	0.9403
1266.15	0.59594
1269.04	0.465828
1271.93	0.975418
1274.83	0.592865
1277.72	0.907272
1280.61	0.51152
1283.5	0.696457
1286.4	0.775314
1289.29	0.769928
1292.18	0.973503
1295.08	0.613312
1297.97	1.34526
1300.86	1.09112
