Measurement: Raman, 532 nm, unoriented, Raman Data Processed
Mineral: Childrenite
Rruff sample: R070538
Ideal chemistry: Fe^2+^AlPO_4_(OH)_2_H_2_O
Locality: Llallagua, Bustillos Province, Potosi, Bolivia
Source: James Shigley
Description: Brown pyramidal, prismatic crystals
Raman shift (cm-1)	intensity
153.53	0
156.423	137.147
159.316	70.7051
162.208	46.9514
165.101	25.9253
167.994	66.5217
170.886	140.204
173.779	213.887
176.672	268.019
179.565	186.518
182.457	226.196
185.35	254.853
188.243	328.273
191.135	361.603
194.028	382.656
196.921	501.139
199.813	602.433
202.706	652.069
205.599	709.893
208.492	797.413
211.384	729.87
214.277	703.407
217.17	580.877
220.062	452.437
222.955	446.332
225.848	368.68
228.74	439.07
231.633	482.333
234.526	585.27
237.418	597.408
240.311	696.072
243.204	894.564
246.097	988.383
248.989	1238.67
251.882	1214.98
254.775	1014.26
257.667	780.618
260.56	538.142
263.453	353.09
266.346	209.382
269.238	65.3762
272.131	21.2595
275.024	1.69897
277.916	13.8281
280.809	5.61914
283.702	79.8811
286.594	191.832
289.487	299.628
292.38	365.939
295.273	504.267
298.165	573.867
301.058	681.968
303.951	733.526
306.843	762.537
309.736	757.918
312.629	680.997
315.522	520.597
318.414	399.003
321.307	345.152
324.2	238.421
327.092	184.006
329.985	142.873
332.878	81.9561
335.77	75.3267
338.663	34.2444
341.556	34.8884
344.449	22.7769
347.341	6.86279
350.234	7.1521
353.127	46.5193
356.019	14.2253
358.912	47.4477
361.805	24.9822
364.697	12.5073
367.59	34.2134
370.483	8.62964
373.375	48.0569
376.268	50.6775
379.161	19.8852
382.054	10.7854
384.946	19.041
387.839	6.36231
390.732	21.4531
393.624	21.29
396.517	32.543
399.41	40.0273
402.303	38.4417
405.195	1.84326
408.088	23.1504
410.981	53.7769
413.873	29.9216
416.766	5.00244
419.659	4.41846
422.551	15.9951
425.444	17.699
428.337	22.3308
431.229	21.4143
434.122	115.038
437.015	144.397
439.908	228.907
442.8	283.116
445.693	404.156
448.586	575.709
451.478	789.601
454.371	1065.99
457.264	1408.17
460.156	1770.41
463.049	2033.27
465.942	1958.76
468.835	1728.25
471.727	1491.65
474.62	1207.74
477.513	954.768
480.405	722.114
483.298	582.375
486.191	390.055
489.084	311.57
491.976	239.536
494.869	146.897
497.762	88.5537
500.654	53.1841
503.547	7.22705
506.44	15.4587
509.332	35.6138
512.225	23.0381
515.118	6.65137
518.011	15.3401
520.903	1.61035
523.796	10.7893
526.689	0.841309
529.581	14.7761
532.474	31.896
535.367	41.6265
538.26	112.171
541.152	165.242
544.045	360.118
546.938	541.086
549.83	735.864
552.723	1018.37
555.616	1148.24
558.508	1049.44
561.401	709.864
564.294	385.629
567.187	260.515
570.079	237.455
572.972	281.738
575.865	329.534
578.757	432.297
581.65	507.207
584.543	646.9
587.435	839.441
590.328	1105.14
593.221	1389.79
596.114	1482.14
599.006	1517.54
601.899	1395.03
604.792	1043.83
607.684	759.928
610.577	601.315
613.47	556.555
616.362	575.442
619.255	596.4
622.148	564.548
625.04	460.176
627.933	379.061
630.826	354.596
633.719	243.588
636.611	186.27
639.504	137.957
642.397	87.1558
645.289	56.0127
648.182	60.7217
651.075	35.2022
653.967	40.4136
656.86	12.0239
659.753	20.7
662.646	1.4602
665.538	10.2627
668.431	31.8745
671.324	5.40308
674.216	29.7393
677.109	18.5085
680.002	35.5981
682.894	17.3618
685.787	65.0886
688.68	39.5752
691.573	43.3438
694.465	72.0002
697.358	68.1333
700.251	91.6133
703.143	62.6914
706.036	94.5654
708.929	56.7114
711.822	28.4751
714.714	38.4756
717.607	47.9443
720.5	0.470947
723.392	21.2532
726.285	13.6814
729.178	28.6196
732.07	21.76
734.963	11.9158
737.856	5.67603
740.749	37.3472
743.641	33.5147
746.534	1.5398
749.427	34.0615
752.319	22.8811
755.212	8.32471
758.105	25.4915
760.997	55.7512
763.89	1.49512
766.783	58.7353
769.676	14.542
772.568	28.1252
775.461	19.5828
778.354	34.4053
781.246	23.3245
784.139	42.3921
787.032	65.3989
789.924	62.0139
792.817	82.1843
795.71	73.2849
798.602	109.333
801.495	124.714
804.388	148.473
807.281	217.234
810.173	209.872
813.066	233.773
815.959	207.355
818.851	156.308
821.744	143.765
824.637	121.634
827.529	95.1848
830.422	59.6045
833.315	32.6108
836.208	32.8242
839.1	7.26758
841.993	5.06445
844.886	7.35596
847.779	37.3528
850.671	19.2825
853.564	10.5693
856.457	4.27759
859.349	43.4497
862.242	17.3911
865.135	8.92334
868.027	32.7129
870.92	48.1401
873.813	43.4807
876.706	44.0393
879.598	110.618
882.491	86.1728
885.384	54.0662
888.276	48.2251
891.169	142.739
894.062	186.505
896.954	149.634
899.847	128.37
902.74	144.177
905.633	152.539
908.525	145.22
911.418	80.291
914.311	94.5681
917.203	19.5266
920.096	3.33765
922.989	28.3625
925.881	26.0298
928.774	7.88452
931.667	22.3711
934.559	2.65088
937.452	35.4917
940.345	78.2246
943.238	225.333
946.13	345.078
949.023	581.749
951.916	1145.3
954.808	2105.22
957.701	3894.79
960.594	6409.24
963.486	8970.73
966.379	9988.85
969.272	7800.21
972.165	4759.29
975.057	2759.02
977.95	1663.47
980.843	1128.27
983.735	798.958
986.628	645.565
989.521	522.29
992.413	451.709
995.306	477.615
998.199	554.486
1001.09	740.715
1003.98	1061.05
1006.88	1512.1
1009.77	2111.78
1012.66	2549.57
1015.55	2505.94
1018.45	1979.12
1021.34	1304.93
1024.23	999.748
1027.13	904.057
1030.02	1040.41
1032.91	1144.36
1035.8	1226.96
1038.7	1249.85
1041.59	1159.65
1044.48	1013.42
1047.38	906.288
1050.27	715.645
1053.16	554.007
1056.05	392.322
1058.95	241.693
1061.84	112.768
1064.73	68.9109
1067.62	45.5125
1070.52	5.88721
1073.41	56.2471
1076.3	13.3262
1079.19	0.576904
1082.09	2.73657
1084.98	10.5688
1087.87	0.028809
1090.77	28.8359
1093.66	3.68213
1096.55	60.1074
1099.44	141.722
1102.34	125.88
1105.23	107.927
1108.12	93.7498
1111.01	91.376
1113.91	121.671
1116.8	75.0408
1119.69	63.3291
1122.59	48.7168
1125.48	26.4866
1128.37	8.28565
1131.26	25.0693
1134.16	82.6851
1137.05	46.0913
1139.94	69.3757
1142.83	91.1921
1145.73	66.4653
1148.62	108.394
1151.51	149.074
1154.4	167.245
1157.3	101.968
1160.19	55.8667
1163.08	4.64673
1165.98	21.9565
1168.87	69.6475
1171.76	30.8525
1174.65	12.5527
1177.55	42.1043
1180.44	48.7871
1183.33	82.5396
1186.22	13.7793
1189.12	11.9446
1192.01	0.57959
1194.9	36.3181
1197.8	31.3831
1200.69	12.2976
1203.58	10.4065
1206.47	28.0212
1209.37	27.7866
1212.26	4.20752
1215.15	10.3806
1218.04	47.7422
1220.94	60.0813
1223.83	50.2944
1226.72	45.0986
1229.62	1.23853
1232.51	70.3206
1235.4	53.4053
1238.29	12.9817
1241.19	16.667
1244.08	67.0188
1246.97	37.3694
1249.86	32.5076
1252.76	15.563
1255.65	20.6191
1258.54	42.5671
1261.43	9.78076
1264.33	27.186
1267.22	136.526
1270.11	46.7063
1273.01	29.7192
1275.9	17.6555
1278.79	18.8201
1281.68	45.1484
1284.58	48.1509
1287.47	41.1013
1290.36	3.21338
1293.26	14.804
