Measurement: Raman, 514 nm, unoriented, Raman Data Processed
Mineral: Chiolite
Rruff sample: R050412
Ideal chemistry: Na_5_Al_3_F_14_
Locality: Ivigtut cryolite deposit, Arsuk Fjord, Greenland
Source: G.R. Rossman
Description: Colorless fragment
Measured chemistry: (Na_4.96_K_0.04_)_Î£=5_Al_3.00_F_14.00_ ; trace amounts of Si and Ca
Raman shift (cm-1)	intensity
91.981	0
96.161	119.814
100.34	1277.78
104.516	3263.82
108.691	5185.09
112.864	5283.42
117.034	4481.35
121.203	3015.38
125.369	1965.6
129.534	1371.12
133.696	1058.71
137.857	1448.35
142.016	2039.51
146.172	1382.61
150.327	612.611
154.48	466.741
158.63	199.227
162.779	35.235
166.926	83.29
171.07	67.271
175.213	66.522
179.354	48.969
183.493	170.146
187.63	570.771
191.765	1099.29
195.898	1940.91
200.029	2532.81
204.158	2686.52
208.285	2222.97
212.41	1477.23
216.533	856.522
220.654	707.085
224.773	524.065
228.891	440.342
233.006	548.875
237.119	764.293
241.231	1097.87
245.34	1332.13
249.448	1150.35
253.553	889.133
257.657	501.312
261.758	105.167
265.858	95.541
269.956	34.288
274.052	21.894
278.146	5.396
282.237	87.108
286.327	2.945
290.416	73.812
294.502	33.12
298.586	57.116
302.668	296.316
306.749	395.603
310.827	890.969
314.903	1048.32
318.978	1176.63
323.051	964.89
327.121	340.097
331.19	102.254
335.257	218.598
339.322	479.205
343.385	892.461
347.446	1713.05
351.505	3241.76
355.563	3960.56
359.618	2831.67
363.672	1511.86
367.723	672.14
371.773	211.496
375.821	139.934
379.866	321.428
383.91	330.035
387.952	100.635
391.992	159.266
396.031	201.154
400.067	75.592
404.101	392.947
408.134	309.246
412.165	467.441
416.193	401.6
420.22	323.754
424.245	203.107
428.268	351.924
432.289	340.504
436.309	265.473
440.326	610.93
444.342	488.766
448.355	612.105
452.367	256.793
456.377	224.617
460.385	73.736
464.391	330.553
468.395	311.121
472.398	353.389
476.398	198.109
480.397	496.67
484.394	671.023
488.389	774.436
492.382	968.674
496.373	1111.17
500.362	1704.75
504.349	2408.55
508.335	3096.29
512.319	4596.02
516.3	6790.15
520.28	10698.8
524.259	17441.7
528.235	26640.2
532.209	33066
536.182	25785.2
540.152	14706.8
544.121	8127.69
548.088	4377.44
552.053	2806.47
556.017	1688.6
559.978	1295.35
563.938	932.936
567.895	709.42
571.851	571.279
575.805	410.895
579.758	171.457
583.708	256.65
587.657	318.547
591.603	759.457
595.548	402.943
599.491	328.402
603.432	223.836
607.372	269.986
611.309	239.623
615.245	14.344
619.179	116.562
623.111	89.166
627.041	169.15
630.97	217.002
634.896	140.41
638.821	409.85
642.744	563.801
646.665	268.814
650.584	327.607
654.502	291.193
658.418	15.486
662.331	18.371
666.244	250.902
670.154	172.482
674.062	115.152
677.969	95.389
681.874	69.834
685.777	251.451
689.678	66.918
693.577	184.727
697.475	158.471
701.371	66.906
705.265	118.062
709.157	65.049
713.047	17.344
716.936	386.189
720.823	370.334
724.708	81.111
728.591	180.529
732.472	80.262
736.352	136.18
740.23	117.773
744.106	201.771
747.98	268.826
751.853	152.203
755.723	215.266
759.592	285.014
763.459	111.83
767.325	71.824
771.188	371.35
775.05	258.877
778.91	176.932
782.768	224.461
786.625	186.633
790.479	317.365
794.332	282.607
798.183	380.139
802.033	139.17
805.88	529.051
809.726	132.125
813.57	293.516
817.413	238.873
821.253	214.85
825.092	291.045
828.929	313.729
832.764	522.621
836.598	187.414
840.429	250.068
844.259	269.939
848.088	76.693
851.914	327.516
855.739	202.363
859.562	492.318
863.383	348.332
867.203	239.934
871.02	428.225
874.836	257.342
878.65	112.215
882.463	158.92
886.274	300.564
890.083	560.736
893.89	502.451
897.695	153.496
901.499	325.125
905.301	476.312
909.102	501.119
912.9	372.818
916.697	497.725
920.492	375.877
924.285	273.104
928.077	322.91
931.867	159.094
935.655	222.189
939.442	506.898
943.226	511.955
947.009	202.131
950.791	220.531
954.57	267.779
958.348	357.078
962.124	330.469
965.899	258.857
969.671	220.213
973.442	245.191
977.211	480.393
980.979	610.943
984.745	626.059
988.509	562.812
992.271	487.133
996.032	301.953
999.791	530.793
1003.55	166.062
1007.3	423.723
1011.06	567.363
1014.81	570.215
1018.56	536.016
1022.31	680.645
1026.06	744.184
1029.8	433.277
1033.55	440.617
1037.29	524.227
1041.03	302.844
1044.77	626.504
1048.5	394.453
1052.24	450.309
1055.97	515.125
1059.7	562.172
1063.43	463.191
1067.16	427.164
1070.89	38.289
1074.61	297.258
1078.34	420.234
1082.06	504.594
1085.78	848.859
1089.5	815.676
1093.21	589.172
1096.93	529.102
1100.64	91.668
1104.35	333.07
1108.06	91.961
1111.77	570.488
1115.48	219.168
1119.18	3.926
1122.89	182.395
1126.59	324.957
1130.29	312.312
1133.99	39.93
1137.68	459.312
1141.38	32.07
1145.07	53.465
1148.76	295.789
1152.45	69.488
1156.14	285.691
1159.83	41.52
1163.51	185.238
1167.19	388.387
1170.88	439.754
1174.56	67.457
1178.23	232.055
1181.91	40.773
1185.59	435.105
1189.26	149.25
1192.93	296.188
1196.6	331.98
1200.27	61.527
1203.94	636.043
1207.6	680.406
1211.27	317.605
1214.93	520.523
1218.59	248.555
1222.25	510.34
1225.9	446.332
1229.56	388.957
1233.21	512.137
1236.86	451.855
1240.51	393.148
1244.16	419.574
1247.81	611.715
1251.45	725.828
1255.1	461.164
1258.74	144.91
1262.38	315.359
1266.02	352.062
1269.66	370.859
1273.29	379.367
1276.93	348.434
1280.56	437.746
1284.19	304.945
1287.82	363.527
1291.45	30.277
1295.07	379.488
1298.7	404.871
1302.32	354.574
1305.94	397.828
1309.56	395.68
1313.18	181.906
1316.8	661.641
1320.41	250.062
1324.02	0
