Measurement: Raman, 532 nm, unoriented, Raman Data Processed
Mineral: Chiolite
Rruff sample: R050412
Ideal chemistry: Na_5_Al_3_F_14_
Locality: Ivigtut cryolite deposit, Arsuk Fjord, Greenland
Source: G.R. Rossman
Description: Colorless fragment
Measured chemistry: (Na_4.96_K_0.04_)_Î£=5_Al_3.00_F_14.00_ ; trace amounts of Si and Ca
Raman shift (cm-1)	intensity
93.7999	0
97.1747	1.53636
100.549	0.289747
103.924	2.08596
107.299	8.77097
110.674	16.8622
114.049	23.8557
117.424	29.2998
120.798	33.4507
124.173	39.463
127.548	29.9069
130.923	29.2401
134.298	25.5273
137.673	25.3993
141.047	25.6694
144.422	17.7342
147.797	16.3431
151.172	15.6888
154.547	15.9076
157.921	10.9623
161.296	7.82018
164.671	5.40402
168.046	3.02151
171.421	4.70274
174.796	5.99009
178.17	7.61136
181.545	11.2397
184.92	17.5304
188.295	23.2203
191.67	31.2933
195.044	40.5932
198.419	48.23
201.794	53.3594
205.169	47.026
208.544	37.6513
211.918	32.4865
215.293	32.4149
218.668	34.4808
222.043	28.2553
225.418	18.5413
228.792	13.5598
232.167	12.4785
235.542	14.8991
238.917	17.471
242.292	19.0474
245.667	19.578
249.041	15.2274
252.416	9.45174
255.791	4.58178
259.166	2.48709
262.541	0.234146
265.916	1.61698
269.29	0.500359
272.665	1.46839
276.04	1.03684
279.415	0.798164
282.79	0.94891
286.164	1.3436
289.539	3.25667
292.914	4.82885
296.289	7.53854
299.664	12.3117
303.038	17.9465
306.413	24.0797
309.788	28.9324
313.163	36.5855
316.538	39.1071
319.913	32.8614
323.287	21.8753
326.662	16.1063
330.037	16.0846
333.412	18.0028
336.787	25.254
340.161	33.1996
343.536	41.9018
346.911	51.7269
350.286	66.7398
353.661	74.7671
357.036	64.7781
360.41	38.9137
363.785	22.4392
367.16	13.2578
370.535	10.3611
373.91	11.1549
377.284	11.949
380.659	15.3489
384.034	17.2313
387.409	14.7606
390.784	8.54338
394.159	4.14011
397.533	2.4432
400.908	1.2306
404.283	0.315189
407.658	0.770668
411.033	0.424789
414.408	0.753025
417.782	1.06715
421.157	0.22702
424.532	0.825535
427.907	2.21273
431.282	5.18039
434.656	7.06858
438.031	10.824
441.406	13.9281
444.781	13.7051
448.156	11.2376
451.531	9.5058
454.905	4.6909
458.28	3.09314
461.655	1.08593
465.03	0.76189
468.404	0.393036
471.779	0.501442
475.154	0.562641
478.529	2.02326
481.904	4.5577
485.279	8.65135
488.653	10.5114
492.028	14.8816
495.403	21.4007
498.778	31.4736
502.153	43.8637
505.527	62.8658
508.902	91.9989
512.277	139.62
515.652	203.807
519.027	289.969
522.402	389.55
525.776	500.525
529.151	584.031
532.526	542.104
535.901	380.262
539.276	222.09
542.65	123.518
546.025	71.5041
549.4	41.2572
552.775	25.5058
556.15	15.4034
559.525	8.9422
562.899	4.48174
566.274	1.99558
569.649	0.840931
573.024	0.086411
576.399	0.175674
579.774	0.399742
583.148	2.46393
586.523	4.5994
589.898	6.4677
593.273	6.85349
596.648	5.32242
600.022	2.24918
603.397	0.78381
606.772	0.357754
610.147	0.533062
613.522	0.680574
616.896	0.502384
620.271	0.283941
623.646	0.566404
627.021	0.090214
630.396	1.72685
633.771	3.16807
637.145	2.02846
640.52	2.77938
643.895	2.815
647.27	3.49055
650.645	2.97799
654.019	2.91158
657.394	2.2797
660.769	3.02184
664.144	2.80007
667.519	2.90441
670.894	1.66996
674.268	1.57894
677.643	1.32492
681.018	0.977364
684.393	0.866861
687.768	0.524958
691.143	0.678417
694.517	1.20865
697.892	1.10303
701.267	1.23577
704.642	0.999117
708.016	1.20772
711.391	0.645065
714.766	0.00548
718.141	1.08033
721.516	1.12369
724.891	0.897125
728.265	0.727049
731.64	0.251116
735.015	0.59174
738.39	0.179173
741.765	0.04377
745.139	0.863298
748.514	0.268276
751.889	0.202015
755.264	0.120209
758.639	0.293777
762.014	0.720531
765.388	0.375671
768.763	0.661228
772.138	1.75858
775.513	0.702448
778.888	0.517008
782.263	0.381144
785.637	1.02368
789.012	1.2967
792.387	0.357946
795.762	2.3546
799.137	1.03357
802.511	0.931768
805.886	1.56244
809.261	1.45182
812.636	1.29727
816.011	0.780657
819.385	1.35084
822.76	2.82737
826.135	1.13815
829.51	1.62455
832.885	1.29788
836.26	0.998392
839.634	1.09765
843.009	0.988785
846.384	1.37954
849.759	0.343456
853.134	1.18618
856.509	0.798866
859.883	1.44212
863.258	1.22829
866.633	1.4308
870.008	1.33706
873.383	1.49766
876.757	0.732851
880.132	0.798674
883.507	0.279984
886.882	0.457211
890.257	0.386145
893.631	0.237062
897.006	0.61981
900.381	0.432314
903.756	0.117647
907.131	0.085501
910.506	0.870182
913.88	0.585861
917.255	0.30718
920.63	0.336353
924.005	0.073309
927.38	0.496893
930.755	0.569632
934.129	0.555616
937.504	0.041906
940.879	0.128069
944.254	0.268896
947.629	0.036942
951.003	0.080517
954.378	0.620031
957.753	0.44383
961.128	0.088049
964.503	0.678316
967.877	0.724062
971.252	0.686226
974.627	1.38453
978.002	0.275475
981.377	0.830887
984.751	1.27046
988.126	1.03595
991.501	0.661737
994.876	1.17691
998.251	0.650618
1001.63	0.984699
1005	0.849888
1008.38	1.04298
1011.75	0.788885
1015.12	1.17586
1018.5	0.345024
1021.88	1.11028
1025.25	0.271338
1028.62	0.957163
1032	0.377689
1035.37	0.894394
1038.75	0.788897
1042.12	0.928503
1045.5	0.650396
1048.87	1.08865
1052.25	0.583521
1055.62	0.677324
1059	0.572952
1062.37	0.181793
1065.75	0.373938
1069.12	0.548779
1072.5	0.403748
1075.87	0.436735
1079.25	0.524286
1082.62	0.275738
1086	1.04458
1089.37	0.560192
1092.75	0.573198
1096.12	1.16347
1099.49	0.659178
1102.87	0.515982
1106.24	0.45961
1109.62	0.905624
1112.99	0.476524
1116.37	1.2779
1119.74	0.645016
1123.12	0.30484
1126.49	0.467506
1129.87	0.050102
1133.24	0.349588
1136.62	0.189035
1139.99	1.27548
1143.37	0.81794
1146.74	1.30618
1150.12	0.026163
1153.49	0.688385
1156.87	0.930588
1160.24	1.54914
1163.62	2.87193
1166.99	3.33589
1170.37	2.29068
1173.74	2.28431
1177.12	0.992228
1180.49	1.13115
1183.87	0.888233
1187.24	0.023283
1190.62	0.636217
1193.99	0.686138
1197.37	0.60708
1200.74	1.11195
1204.12	0.432127
1207.49	0.801764
1210.86	0.710674
1214.24	0.830524
1217.61	0.326437
1220.99	0.468472
1224.36	0.464256
1227.74	1.09676
1231.11	0.284058
1234.49	0.519449
1237.86	0.35516
1241.24	0.479786
1244.61	1.18628
1247.99	1.63181
1251.36	1.03115
1254.74	1.59663
1258.11	1.50588
1261.49	2.13253
1264.86	2.66615
1268.24	4.48796
1271.61	0.016603
1274.99	0.76239
1278.36	0.208223
1281.73	0.196686
1285.11	0.70854
1288.48	0.804602
1291.86	0.674837
1295.23	0.552502
1298.61	1.21961
1301.98	0.805943
