Measurement: Raman, 780 nm, unoriented, Raman Data Processed
Mineral: Chiolite
Rruff sample: R050412
Ideal chemistry: Na_5_Al_3_F_14_
Locality: Ivigtut cryolite deposit, Arsuk Fjord, Greenland
Source: G.R. Rossman
Description: Colorless fragment
Measured chemistry: (Na_4.96_K_0.04_)_Î£=5_Al_3.00_F_14.00_ ; trace amounts of Si and Ca
Raman shift (cm-1)	intensity
97.3446	0
100.719	1.58731
104.094	7.84301
107.469	19.4604
110.844	23.9428
114.219	22.1604
117.594	16.806
120.968	11.1157
124.343	9.45191
127.718	5.34288
131.093	3.92399
134.468	2.24861
137.842	1.70211
141.217	0.897348
144.592	0.9832
147.967	0.478924
151.342	0.382277
154.716	0.522566
158.091	1.2982
161.466	0.805712
164.841	0.511827
168.216	0.254028
171.591	0.726904
174.965	2.60283
178.34	3.40675
181.715	3.91011
185.09	5.84599
188.465	7.66611
191.839	10.672
195.214	14.2121
198.589	16.9227
201.964	20.0677
205.339	19.1578
208.714	14.9953
212.088	10.9482
215.463	9.60322
218.838	9.9298
222.213	8.81699
225.588	6.55227
228.962	4.77843
232.337	3.84655
235.712	5.04644
239.087	5.89871
242.462	6.66014
245.837	7.02628
249.211	6.09145
252.586	4.35361
255.961	2.86934
259.336	1.91633
262.711	0.792094
266.085	0.21555
269.46	0.459313
272.835	0.120864
276.21	0.479381
279.585	0.645308
282.959	0.249053
286.334	0.07278
289.709	0.931993
293.084	0.81157
296.459	1.40147
299.834	2.31161
303.208	3.33348
306.583	5.21457
309.958	6.99493
313.333	10.0751
316.708	12.5722
320.082	12.1414
323.457	7.86275
326.832	4.9406
330.207	4.10859
333.582	3.75286
336.957	4.88672
340.331	6.61419
343.706	8.26199
347.081	12.0888
350.456	17.9221
353.831	24.4403
357.205	25.4596
360.58	16.5708
363.955	8.84311
367.33	4.93096
370.705	2.91655
374.079	2.24282
377.454	2.11612
380.829	2.42191
384.204	3.28093
387.579	3.28699
390.954	2.33535
394.328	0.94251
397.703	0.555088
401.078	0.272515
404.453	0.23098
407.828	0.191075
411.202	0.306294
414.577	0.252003
417.952	0.215152
421.327	0.030812
424.702	0.123697
428.077	1.00851
431.451	0.638301
434.826	1.67939
438.201	2.39873
441.576	3.77796
444.951	4.44416
448.325	3.73471
451.7	2.59013
455.075	1.8119
458.45	0.894417
461.825	0.504877
465.2	0.788157
468.574	0.711034
471.949	0.182064
475.324	0.867326
478.699	0.005191
482.074	0.710504
485.449	1.3664
488.823	2.3041
492.198	2.97359
495.573	4.3436
498.948	5.96644
502.323	8.87435
505.697	12.5462
509.072	17.4155
512.447	25.2476
515.822	37.0554
519.197	51.9456
522.572	76.0088
525.946	108.408
529.321	147.219
532.696	160.372
536.071	123.733
539.446	75.4661
542.82	41.566
546.195	23.3676
549.57	13.5364
552.945	7.79119
556.32	5.15337
559.694	2.28133
563.069	1.5247
566.444	0.778436
569.819	0.18614
573.194	0.066761
576.568	0.056886
579.943	0.391399
583.318	0.050497
586.693	0.513087
590.068	1.07278
593.443	2.07282
596.817	1.73088
600.192	0.773615
603.567	0.412312
606.942	0.073007
610.317	0.210764
613.692	0.371382
617.066	0.035031
620.441	0.30368
623.816	0.326124
627.191	0.330687
630.566	0.687043
633.94	0.716065
637.315	0.247556
640.69	0.512511
644.065	1.17194
647.44	0.837568
650.814	0.743495
654.189	0.603153
657.564	1.52043
660.939	0.791607
664.314	1.14567
667.688	0.618844
671.063	0.566494
674.438	0.65004
677.813	0.520666
681.188	0.289747
684.563	0.173125
687.937	0.1257
691.312	0.395754
694.687	0.499998
698.062	0.199392
701.437	0.266594
704.812	0.633663
708.186	0.134084
711.561	0.344166
714.936	0.517096
718.311	0.134921
721.686	0.402786
725.06	0.009622
728.435	0.312561
731.81	0.429289
735.185	0.396299
738.56	0.112455
741.934	0.397273
745.309	0.168404
748.684	0.33388
752.059	0.49926
755.434	0.182641
758.809	0.239493
762.183	0.264684
765.558	0.248731
768.933	0.160616
772.308	0.019946
775.683	0.986762
779.058	0.373297
782.432	0.862146
785.807	0.543067
789.182	0.826976
792.557	0.505932
795.932	0.664668
799.306	0.546385
802.681	0.738229
806.056	1.04269
809.431	0.714009
812.806	1.21325
816.181	1.012
819.555	0.533668
822.93	1.24176
826.305	0.956013
829.68	0.90211
833.055	0.579448
836.429	1.01373
839.804	1.1871
843.179	0.753393
846.554	1.22066
849.929	0.996397
853.303	0.967789
856.678	1.31141
860.053	1.41511
863.428	1.20825
866.803	1.37545
870.178	1.17963
873.552	0.944238
876.927	0.845301
880.302	1.07297
883.677	0.895745
887.052	0.693388
890.427	0.935837
893.801	0.281537
897.176	0.611756
900.551	0.321819
903.926	0.318689
907.301	0.564932
910.675	0.409243
914.05	0.222054
917.425	0.105222
920.8	0.425701
924.175	0.563839
927.549	0.027763
930.924	0.149424
934.299	0.107507
937.674	0.144073
941.049	0.088552
944.423	0.406848
947.798	0.538413
951.173	0.631191
954.548	0.247818
957.923	0.556976
961.298	0.41704
964.672	0.763507
968.047	0.730085
971.422	0.475568
974.797	0.229785
978.172	0.253189
981.546	0.121018
984.921	0.326477
988.296	0.237376
991.671	0.112012
995.046	0.313399
998.42	0.449611
1001.79	0.387038
1005.17	0.548231
1008.54	0.219667
1011.92	0.30304
1015.29	0.135607
1018.67	0.638207
1022.04	0.276818
1025.42	0.426664
1028.79	0.556429
1032.17	0.475733
1035.54	0.448493
1038.92	0.646603
1042.29	0.432439
1045.67	0.265084
1049.04	0.574616
1052.42	0.282978
1055.79	0.034547
1059.17	0.747051
1062.54	0.075106
1065.92	0.756124
1069.29	0.469011
1072.67	0.225119
1076.04	0.530816
1079.42	0.439533
1082.79	0.501589
1086.17	0.490206
1089.54	0.35511
1092.91	0.271765
1096.29	0.53695
1099.66	0.476428
1103.04	0.439741
1106.41	0.317666
1109.79	0.304397
1113.16	0.455521
1116.54	0.257922
1119.91	0.378536
1123.29	0.358217
1126.66	0.697187
1130.04	0.393479
1133.41	0.865606
1136.79	0.136401
1140.16	0.461112
1143.54	0.231489
1146.91	0.156974
1150.29	0.907777
1153.66	0.464242
1157.04	0.336012
1160.41	0.503947
1163.79	0.731168
1167.16	0.918971
1170.54	0.494895
1173.91	0.313145
1177.29	0.881031
1180.66	0.659013
1184.04	0.085901
1187.41	0.261513
1190.79	0.469011
1194.16	0.147573
1197.54	0.094711
1200.91	0.28999
1204.28	0.318974
1207.66	0.07605
1211.03	0.351477
1214.41	0.028951
1217.78	0.601927
1221.16	0.554744
1224.53	0.400804
1227.91	0.402483
1231.28	0.841072
1234.66	0.640691
1238.03	0.967886
1241.41	0.834387
1244.78	1.15854
1248.16	0.514401
1251.53	0.556773
1254.91	0.405058
1258.28	0.577154
1261.66	0.391898
1265.03	0.384726
1268.41	0.03187
1271.78	0.251498
1275.16	0.390611
1278.53	0.000103
