Measurement: Raman, 532 nm, unoriented, Raman Data Processed
Mineral: Chistyakovaite
Rruff sample: R070024
Ideal chemistry: Al(U^6+^O_2_)_2_(As^5+^O_4_)_2_F6.5H_2_O
Locality: Bota-Burum U deposit, Kazakhstan
Source: Michael Scott
Description: Platy fragment of a pale yellow crystal, co-type material
Raman shift (cm-1)	intensity
151.146	0
154.521	150.855
157.896	96.9141
161.271	294.571
164.646	415.333
168.02	565.549
171.395	693.705
174.77	719.569
178.145	804.406
181.52	776.761
184.894	867.514
188.269	897.117
191.644	704.052
195.019	588.205
198.394	483.442
201.769	399.028
205.143	299.807
208.518	276.572
211.893	207.026
215.268	136.276
218.643	128.738
222.018	23.4668
225.392	112.745
228.767	63.5234
232.142	58.2109
235.517	11.7002
238.892	26.5078
242.266	31.1104
245.641	9.37988
249.016	32.7734
252.391	87.499
255.766	60.8037
259.14	13.0449
262.515	53.0234
265.89	6.89453
269.265	150.331
272.64	288.335
276.014	315.949
279.389	405.173
282.764	416.368
286.139	254.198
289.514	191.793
292.889	16.6797
296.263	85.1211
299.638	65.4297
303.013	231.01
306.388	263.165
309.763	437.706
313.137	611.661
316.512	616.88
319.887	575.731
323.262	403.908
326.637	189.066
330.012	109.435
333.386	39.5752
336.761	16.415
340.136	34.6084
343.511	16.7773
346.886	23.6445
350.26	82.418
353.635	15.2578
357.01	88.9648
360.385	104.512
363.76	125.121
367.134	221.272
370.509	220.916
373.884	208.633
377.259	282.629
380.634	311.75
384.009	374.447
387.383	360.367
390.758	493.647
394.133	633.106
397.508	626.387
400.883	377.022
404.257	230.06
407.632	97.0195
411.007	99.7559
414.382	84.0078
417.757	105.519
421.131	31.9062
424.506	37.3672
427.881	29.9883
431.256	65.5195
434.631	113.17
438.005	190.06
441.38	259.264
444.755	443.19
448.13	397.883
451.505	460.728
454.88	511.797
458.254	543.844
461.629	458.606
465.004	405.182
468.379	335.297
471.754	246.613
475.128	172.75
478.503	141.068
481.878	149.113
485.253	66.8555
488.628	39.8789
492.002	89.332
495.377	25.0215
498.752	7.06055
502.127	64.3164
505.502	5.67383
508.877	22.7773
512.251	70.2715
515.626	81.8965
519.001	198.15
522.376	279.344
525.751	332.693
529.125	314.777
532.5	234.522
535.875	315.435
539.25	240.092
542.625	220.621
546	256.988
549.374	172.852
552.749	266.188
556.124	295.641
559.499	287.565
562.874	223.422
566.248	262.668
569.623	277.008
572.998	305.016
576.373	353.191
579.748	295.809
583.122	371.945
586.497	337.092
589.872	346.5
593.247	324.195
596.622	564.094
599.996	410.519
603.371	545.986
606.746	492.1
610.121	523.076
613.496	484.549
616.871	577.492
620.245	477.07
623.62	493.438
626.995	575.34
630.37	470.82
633.745	552.182
637.119	448.328
640.494	364.258
643.869	513.229
647.244	459.322
650.619	510.4
653.994	509.762
657.368	420.633
660.743	308.168
664.118	325.834
667.493	249.871
670.868	293.416
674.242	251.58
677.617	163.129
680.992	203.412
684.367	235.816
687.742	184.984
691.116	78.5273
694.491	130.08
697.866	78.9219
701.241	251.144
704.616	137.945
707.99	237.75
711.365	239.799
714.74	179.211
718.115	22.3027
721.49	23.0977
724.865	48.7324
728.239	20.998
731.614	22.3223
734.989	100.615
738.364	39.8672
741.739	143.252
745.114	9.81055
748.488	2.9668
751.863	114.445
755.238	11.3047
758.613	110.522
761.987	146.551
765.362	357.219
768.737	418.359
772.112	685.809
775.487	881.791
778.862	1306.38
782.236	1761.96
785.611	2298.66
788.986	3118.85
792.361	4180.98
795.736	5768.69
799.111	7997
802.485	10878.5
805.86	14710.2
809.235	19061.4
812.61	22618.2
815.985	24506.2
819.359	23256.4
822.734	17490.5
826.109	10326.6
829.484	5669.51
832.859	3257.36
836.233	2081.86
839.608	1432.83
842.983	914.088
846.358	414.66
849.733	151.756
853.107	25.2305
856.482	7.11133
859.857	9.33203
863.232	35.7109
866.607	101.234
869.981	221.725
873.356	318.168
876.731	502.785
880.106	663.139
883.481	781.322
886.856	985.385
890.23	1181.76
893.605	1265.37
896.98	1233.91
900.355	1184.85
903.73	1060.23
907.105	915.338
910.479	678.084
913.854	566.938
917.229	325.482
920.604	108.336
923.979	116.922
927.353	13.9199
930.728	27.2793
934.103	45.8125
937.478	111.168
940.853	72.2109
944.227	56.0566
947.602	8.69531
950.977	21.6016
954.352	48.8828
957.727	32.1543
961.101	197.269
964.476	296.865
967.851	489.865
971.226	704.025
974.601	678.633
977.976	742.273
981.35	656.684
984.725	735.516
988.1	662.576
991.475	649.627
994.85	576.762
998.224	524.621
1001.6	375.662
1004.97	160.543
1008.35	73.5469
1011.72	71.1465
1015.1	14.0605
1018.47	219.18
1021.85	67.0938
1025.22	257.832
1028.6	292.508
1031.97	326.348
1035.35	398.338
1038.72	346.971
1042.1	263.5
1045.47	279.129
1048.85	149.482
1052.22	133.295
1055.6	93.0957
1058.97	199.496
1062.35	294.613
1065.72	205.022
1069.1	66.1934
1072.47	30.4902
1075.85	224.656
1079.22	629.504
1082.6	1197.16
1085.97	1719.17
1089.34	722.26
1092.72	157.935
1096.09	74.0996
1099.47	29.0938
1102.84	19.8535
1106.22	56.9805
1109.59	62.6562
1112.97	51.5039
1116.34	88.7031
1119.72	131.019
1123.09	118.445
1126.47	24.3574
1129.84	93.3457
1133.22	91.1777
1136.59	123.631
1139.97	128.185
1143.34	360.998
1146.72	452.006
1150.09	679.436
1153.47	696.769
1156.84	494.51
1160.21	429.047
1163.59	533.379
1166.96	528.455
1170.34	458.832
1173.71	232.148
1177.09	123.772
1180.46	94.2109
1183.84	22.3809
1187.21	60.3848
1190.59	5.87109
1193.96	94.1426
1197.34	137.443
1200.71	87.2754
1204.09	100.012
1207.46	153.117
1210.84	247.533
1214.21	285.647
1217.59	358.486
1220.96	398.258
1224.34	141.107
1227.71	158.094
1231.09	95.0801
1234.46	117.711
1237.84	27.2617
1241.21	65.793
1244.59	43.4414
1247.96	21.0742
1251.34	97.7559
1254.71	108.174
1258.09	25.2031
1261.46	9.84375
1264.84	4.08203
1268.21	59.5859
1271.58	14.2715
1274.96	79.0606
1278.33	105.15
1281.71	73.3965
1285.08	172.76
1288.46	138.801
1291.83	299.084
1295.21	378.834
1298.58	289.244
1301.96	90.3535
1305.33	170.953
1308.71	56.9141
1312.08	26.373
1315.46	63.4453
