Measurement: Raman, 785 nm, unoriented, Raman Data Processed
Mineral: Chistyakovaite
Rruff sample: R070024
Ideal chemistry: Al(U^6+^O_2_)_2_(As^5+^O_4_)_2_F6.5H_2_O
Locality: Bota-Burum U deposit, Kazakhstan
Source: Michael Scott
Description: Platy fragment of a pale yellow crystal, co-type material
Raman shift (cm-1)	intensity
145.898	0
148.79	52.449
151.683	86.0621
154.576	53.1475
157.469	4.95325
160.361	28.3549
163.254	96.0665
166.147	129.383
169.039	191.425
171.932	179.291
174.825	192.594
177.717	227.44
180.61	229.451
183.503	258.813
186.395	274.572
189.288	249.978
192.181	221.095
195.074	152.726
197.966	147.83
200.859	115.552
203.752	92.2669
206.644	45.2617
209.537	21.9546
212.43	5.83374
215.322	8.39917
218.215	19.7889
221.108	7.71753
224.001	15.2219
226.893	12.6009
229.786	3.43909
232.679	1.30701
235.571	14.5071
238.464	21.163
241.357	38.7755
244.25	41.8721
247.142	29.5359
250.035	60.7208
252.928	44.3444
255.82	67.1075
258.713	92.9857
261.606	92.5091
264.498	116.932
267.391	141.807
270.284	177.71
273.176	237.639
276.069	286.589
278.962	358.168
281.855	379.95
284.747	309.969
287.64	215.576
290.533	143.849
293.425	87.7244
296.318	103.783
299.211	107.358
302.103	134.47
304.996	180.367
307.889	219.806
310.782	294.4
313.674	345.294
316.567	372.461
319.46	355.756
322.352	259.676
325.245	169.422
328.138	79.9342
331.031	56.5395
333.923	39.8618
336.816	35.6735
339.709	23.0032
342.601	30.6992
345.494	7.87537
348.387	3.49158
351.279	9.29205
354.172	2.2229
357.065	0.258423
359.957	0.368042
362.85	6.87653
365.743	22.208
368.636	9.22278
371.528	27.7731
374.421	31.1838
377.314	47.872
380.207	39.3107
383.099	71.2519
385.992	110.562
388.885	147.287
391.777	172.59
394.67	201.538
397.563	259.743
400.455	212.47
403.348	136.548
406.241	57.8818
409.134	51.0999
412.026	34.0436
414.919	30.4957
417.812	17.8461
420.704	5.71271
423.597	35.4935
426.49	16.6717
429.382	20.124
432.275	24.911
435.168	60.7418
438.06	98.4855
440.953	100.885
443.846	164.013
446.739	193.682
449.631	227.687
452.524	264.258
455.417	317.762
458.309	314.645
461.202	309.547
464.095	274.182
466.988	265.812
469.88	217.057
472.773	176.713
475.666	161.741
478.558	146.946
481.451	124.808
484.344	79.5048
487.236	81.8675
490.129	73.9987
493.022	48.9333
495.914	33.543
498.807	13.588
501.7	2.63989
504.593	1.1098
507.485	10.6028
510.378	3.83057
513.271	25.3568
516.163	41.6549
519.056	17.8013
521.949	46.372
524.841	66.7309
527.734	55.2187
530.627	61.8726
533.52	35.4242
536.412	0.781433
539.305	1.52765
542.198	13.3611
545.09	11.4826
547.983	9.37927
550.876	19.0558
553.769	7.26709
556.661	10.9222
559.554	17.686
562.447	3.25787
565.339	17.0643
568.232	26.3799
571.125	7.31372
574.017	15.9834
576.91	16.4416
579.803	8.15063
582.696	29.9941
585.588	32.8951
588.481	22.1304
591.374	39.5766
594.266	22.2549
597.159	24.9199
600.052	19.5225
602.944	22.9131
605.837	46.2111
608.73	33.6918
611.622	36.46
614.515	42.1915
617.408	25.6877
620.301	34.2279
623.193	54.2522
626.086	48.1387
628.979	51.4233
631.871	54.4415
634.764	38.4585
637.657	34.9074
640.549	30.4347
643.442	27.7091
646.335	36.4402
649.228	23.0353
652.12	21.4046
655.013	30.6343
657.906	16.1752
660.798	13.1965
663.691	11.6606
666.584	0.844177
669.476	22.7359
672.369	42.6841
675.262	21.2195
678.155	25.4327
681.047	33.5891
683.94	36.5621
686.833	46.3856
689.726	40.038
692.618	42.6738
695.511	32.3801
698.404	59.86
701.296	40.691
704.189	81.1125
707.082	77.3153
709.974	103.401
712.867	105.47
715.76	54.974
718.653	24.7734
721.545	3.72076
724.438	5.17487
727.331	13.169
730.223	16.9981
733.116	0.355957
736.009	7.03796
738.901	5.77637
741.794	3.69019
744.687	5.35718
747.58	7.89246
750.472	0.693115
753.365	23.0576
756.258	2.41827
759.15	17.3636
762.043	58.9541
764.936	76.6778
767.828	126.221
770.721	141.466
773.614	217.097
776.506	293.171
779.399	420.482
782.292	529.214
785.185	690.71
788.077	959.986
790.97	1238.81
793.863	1628.56
796.755	2154.86
799.648	2846.42
802.541	3741.87
805.433	4898.29
808.326	6293.01
811.219	7617.63
814.112	8710.43
817.004	9430.41
819.897	9123.46
822.79	7404.58
825.682	4898.11
828.575	2913.88
831.468	1790.99
834.361	1060.36
837.253	717.053
840.146	556.892
843.039	360.755
845.931	187.424
848.824	95.4319
851.717	38.9231
854.609	1.9967
857.502	5.55933
860.395	8.20007
863.288	6.31726
866.18	39.0144
869.073	44.005
871.966	79.567
874.858	143.1
877.751	224.068
880.644	245.4
883.536	320.742
886.429	403.892
889.322	516.319
892.215	590.52
895.107	633.259
898	598.067
900.893	526.516
903.785	501.68
906.678	452.774
909.571	373.368
912.463	294.077
915.356	229.236
918.249	152.898
921.141	70.6573
924.034	48.9119
926.927	15.2443
929.82	12.7009
932.712	22.3483
935.605	7.78076
938.498	0.458374
941.39	10.446
944.283	6.60663
947.176	16.0167
950.068	18.6957
952.961	12.1278
955.854	4.03894
958.747	23.4308
961.639	38.3178
964.532	76.2909
967.425	138.862
970.317	247.465
973.21	307.43
976.103	262.193
978.995	249.341
981.888	210.671
984.781	278
987.674	254.513
990.566	253.156
993.459	236.543
996.352	216.468
999.244	165.744
1002.14	121.303
1005.03	101.955
1007.92	60.9998
1010.82	24.6101
1013.71	27.6113
1016.6	39.9711
1019.49	54.511
1022.39	51.6648
1025.28	51.8691
1028.17	106.535
1031.06	107.237
1033.96	145.374
1036.85	139.872
1039.74	111.938
1042.63	104.529
1045.53	58.7943
1048.42	58.8043
1051.31	63.7118
1054.21	50.4904
1057.1	77.2937
1059.99	65.0808
1062.88	60.8776
1065.78	56.3812
1068.67	58.5884
1071.56	27.6971
1074.45	28.1873
1077.35	94.5435
1080.24	187.388
1083.13	435.402
1086.03	745.934
1088.92	386.853
1091.81	120.114
1094.7	11.5504
1097.6	10.122
1100.49	17.7247
1103.38	3.52643
1106.27	3.90234
1109.17	9.28912
1112.06	16.5851
1114.95	33.5529
1117.85	20.2745
1120.74	20.7329
1123.63	19.0763
1126.52	20.9017
1129.42	19.7019
1132.31	27.0807
1135.2	21.7738
1138.09	25.0132
1140.99	35.2756
1143.88	52.2224
1146.77	89.185
1149.66	128.437
1152.56	151.95
1155.45	128.347
1158.34	96.0475
1161.24	126.028
1164.13	152.149
1167.02	176.038
1169.91	153.446
1172.81	101.975
1175.7	43.4101
1178.59	9.33014
1181.48	7.47504
1184.38	0.020325
1187.27	0.452698
1190.16	6.05609
1193.06	15.9553
1195.95	2.70105
1198.84	6.70929
1201.73	15.2205
1204.63	5.31061
1207.52	5.28455
1210.41	42.191
1213.3	55.8079
1216.2	71.4888
1219.09	92.2443
1221.98	62.5235
1224.88	28.0163
1227.77	70.4144
1230.66	5.61444
1233.55	19.2652
1236.45	6.10962
1239.34	23.5543
1242.23	20.5148
