Measurement: Raman, 532 nm, unoriented, Raman Data Processed
Mineral: Chkalovite
Rruff sample: R060682
Ideal chemistry: Na_2_BeSi_2_O_6_
Locality: Khibiny Massif, Kola Peninsula, Murmanskaja Oblast', Northern Region, Russia
Source: Michael Scott
Description: Colorless coarse granular mass
Measured chemistry: Na_2.00_Be_1.00_Si_2.00_O_6_; Be estimated by difference and stoichiometry
Raman shift (cm-1)	intensity
108.024	0
111.399	38.642
114.773	277.73
118.148	866.549
121.523	648.046
124.898	687.513
128.273	677.38
131.648	619.705
135.022	722.721
138.397	1108.17
141.772	1455.51
145.147	1143.01
148.522	1300.78
151.896	1574.62
155.271	2186.64
158.646	3778.49
162.021	4262.38
165.396	5082.1
168.77	3378.34
172.145	1447.82
175.52	1108.79
178.895	1283.63
182.27	1036.63
185.645	1245.18
189.019	2009.3
192.394	1667.51
195.769	1114.77
199.144	864.493
202.519	1070.77
205.893	1971.72
209.268	2179.23
212.643	1134.08
216.018	597.029
219.393	523.811
222.768	407.392
226.142	507.712
229.517	793.12
232.892	1282.2
236.267	1610.49
239.642	1665.67
243.016	1981.68
246.391	2457.18
249.766	3141.63
253.141	4341.6
256.516	4816.93
259.891	3696.9
263.265	3316.67
266.64	3854.36
270.015	3383.86
273.39	2196.51
276.765	1617.22
280.139	1197.8
283.514	979.831
286.889	1121.92
290.264	1601.8
293.639	2081.93
297.013	2045.3
300.388	1118.88
303.763	532.117
307.138	279.846
310.513	222.519
313.888	395.057
317.262	731.985
320.637	1284.23
324.012	2338.86
327.387	4018.74
330.762	6544.86
334.136	9911.54
337.511	11595.6
340.886	13459.2
344.261	13449.6
347.636	12657.4
351.01	11966.8
354.385	8640.52
357.76	5745.52
361.135	4742.62
364.51	4920.11
367.885	5340.69
371.259	4062.42
374.634	2455.58
378.009	2067.9
381.384	2621.79
384.759	3929.38
388.134	4981.36
391.508	3850.72
394.883	2475.25
398.258	1946.18
401.633	2082.41
405.008	2818.43
408.382	4824.68
411.757	8782.6
415.132	11292.6
418.507	6686.97
421.882	3139.85
425.256	1612.78
428.631	928.625
432.006	687.376
435.381	614.158
438.756	709.138
442.13	1146.06
445.505	1903.9
448.88	3094.25
452.255	5940.43
455.63	11596.1
459.005	11334.3
462.379	4877.46
465.754	2410.41
469.129	1614.59
472.504	951.67
475.879	485.501
479.254	256.095
482.628	114.42
486.003	80.955
489.378	2.978
492.753	71.891
496.128	134.954
499.502	137.874
502.877	218.873
506.252	165.336
509.627	191.776
513.002	132.057
516.376	23.107
519.751	157.781
523.126	638.924
526.501	533.623
529.876	125.552
533.25	28.545
536.625	108.728
540	123.814
543.375	142.199
546.75	65.856
550.125	2.776
553.499	101.415
556.874	171.039
560.249	172.62
563.624	241.024
566.999	642.167
570.373	542.739
573.748	218.375
577.123	109.13
580.498	124.226
583.873	215.575
587.248	508.767
590.622	859.403
593.997	1562.33
597.372	2625.38
600.747	2587.92
604.122	1332.55
607.497	884.744
610.871	859.22
614.246	1024.07
617.621	1426.51
620.996	2421.07
624.37	4295.93
627.745	5099.71
631.12	5079.8
634.495	7098.18
637.87	11701.7
641.245	20101.7
644.619	29125.5
647.994	21655
651.369	10555.2
654.744	5619.98
658.119	3570.56
661.494	2836.74
664.868	2967.49
668.243	4270.89
671.618	4618.41
674.993	2896.96
678.368	1407.69
681.742	763.727
685.117	443.049
688.492	287.798
691.867	193.772
695.242	159.066
698.617	110.469
701.991	108.313
705.366	110.585
708.741	104.298
712.116	90.184
715.49	149.275
718.865	226.353
722.24	353.495
725.615	565.231
728.99	919.457
732.365	1497.24
735.739	2271.36
739.114	2930.14
742.489	2461.3
745.864	1536.28
749.239	972.471
752.614	690.901
755.988	668.117
759.363	664.893
762.738	727.224
766.113	724.717
769.487	664.807
772.862	493.521
776.237	229.309
779.612	95.422
782.987	46.698
786.362	23.013
789.737	14.167
793.111	20.992
796.486	45.268
799.861	43.927
803.236	24.453
806.61	11.935
809.985	41.482
813.36	51.771
816.735	28.719
820.11	19.56
823.485	33.018
826.859	29.984
830.234	45.231
833.609	14.825
836.984	45.575
840.359	36.709
843.734	49.833
847.108	28.694
850.483	17.258
853.858	47.572
857.233	81.237
860.608	50.802
863.982	38.403
867.357	17.405
870.732	31.801
874.107	99.696
877.482	30.064
880.857	37.979
884.231	16.004
887.606	98.854
890.981	79.606
894.356	57.4
897.731	48.22
901.105	28.301
904.48	0.998
907.855	18.201
911.23	7.919
914.605	17.19
917.979	14.466
921.354	100.765
924.729	218.537
928.104	454.062
931.479	786.713
934.854	1564.69
938.228	2981.61
941.603	3166.42
944.978	1810.16
948.353	792.023
951.728	850.717
955.102	1278.81
958.477	1217.9
961.852	598.266
965.227	336.417
968.602	203.853
971.977	165.82
975.351	190.071
978.726	210.165
982.101	214.35
985.476	296.946
988.851	454.136
992.225	598.682
995.6	862.4
998.975	1308.71
1002.35	1914.37
1005.73	2850.97
1009.1	4349.9
1012.47	6275.71
1015.85	6336.02
1019.22	4476.92
1022.6	3501.82
1025.97	3428.8
1029.35	3968.91
1032.72	4749.01
1036.1	5469.43
1039.47	6143.95
1042.85	8471.53
1046.22	13509.6
1049.6	22940.7
1052.97	35161.9
1056.35	33222.8
1059.72	20235.6
1063.1	11523.9
1066.47	6878.79
1069.85	4487.94
1073.22	3367.72
1076.6	2952.61
1079.97	3184.8
1083.35	3504.34
1086.72	2955.11
1090.1	1976.14
1093.47	1334.92
1096.85	913.333
1100.22	701.641
1103.59	499.036
1106.97	419.359
1110.34	297.744
1113.72	270.088
1117.09	247.624
1120.47	205.871
1123.84	283.002
1127.22	343.513
1130.59	513.82
1133.97	755.724
1137.34	1070.12
1140.72	1204.83
1144.09	935.934
1147.47	539.741
1150.84	304.242
1154.22	166.011
1157.59	99.438
1160.97	37.091
1164.34	13.475
1167.72	24.484
1171.09	29.091
1174.46	20.772
1177.84	7.828
1181.21	37.665
1184.59	12.557
1187.96	48.191
1191.34	24.313
1194.71	64.131
1198.09	53.923
1201.46	66.987
1204.84	92.51
1208.21	44.225
1211.59	2.727
1214.96	1.316
1218.34	35.194
1221.71	17.022
1225.09	8.817
1228.46	17.898
1231.84	6.544
1235.21	7.54
1238.59	1.303
1241.96	15.534
1245.34	31.169
1248.71	21.022
1252.09	18.67
1255.46	18.313
1258.84	24.37
1262.21	8.109
1265.59	13.607
1268.96	6.753
1272.34	14.865
1275.71	31.772
1279.09	55.353
1282.46	23.63
1285.83	22.732
1289.21	35.325
1292.58	2.161
