Measurement: Raman, 785 nm, unoriented, Raman Data Processed
Mineral: Chkalovite
Rruff sample: R060682
Ideal chemistry: Na_2_BeSi_2_O_6_
Locality: Khibiny Massif, Kola Peninsula, Murmanskaja Oblast', Northern Region, Russia
Source: Michael Scott
Description: Colorless coarse granular mass
Measured chemistry: Na_2.00_Be_1.00_Si_2.00_O_6_; Be estimated by difference and stoichiometry
Raman shift (cm-1)	intensity
125.385	0
128.278	4.29813
131.17	14.9266
134.063	127.988
136.956	301.373
139.848	263.405
142.741	103.984
145.634	82.3132
148.527	254.306
151.419	477.207
154.312	635.316
157.205	1000.82
160.097	1362.97
162.99	1974.29
165.883	3036.05
168.775	2137.61
171.668	794.99
174.561	387.539
177.454	323.94
180.346	246.521
183.239	173.867
186.132	261.467
189.024	486.579
191.917	373.625
194.81	260.914
197.702	205.691
200.595	346.031
203.488	808.587
206.38	1528.05
209.273	1559.53
212.166	716.493
215.059	212.623
217.951	45.3789
220.844	10.0869
223.737	8.99589
226.629	6.7982
229.522	83.243
232.415	227.13
235.307	402.701
238.2	489.57
241.093	595.155
243.986	753.262
246.878	973.925
249.771	1238.4
252.664	1701.95
255.556	2062.09
258.449	1892.14
261.342	1827.77
264.234	2211.41
267.127	2650.13
270.02	2262.85
272.913	1363.38
275.805	785.537
278.698	454.349
281.591	244.577
284.483	173.992
287.376	202.056
290.269	315.781
293.161	457.569
296.054	473.528
298.947	288.752
301.84	94.8923
304.732	34.2772
307.625	-9.5105
310.518	25.6967
313.41	24.6573
316.303	103.447
319.196	303.758
322.089	546.894
324.981	1062.54
327.874	1845.36
330.767	2936.03
333.659	4239.84
336.552	4980.25
339.445	5253.41
342.337	5394.81
345.23	4806.58
348.123	4234.17
351.016	3694.65
353.908	2735.17
356.801	1824.96
359.694	1326.6
362.586	1138.27
365.479	1027.89
368.372	871.513
371.264	574.304
374.157	299.729
377.05	218.645
379.943	303.565
382.835	492.17
385.728	756.397
388.621	820.545
391.513	493.879
394.406	277.526
397.299	188.539
400.191	219.08
403.084	412.295
405.977	807.972
408.87	1534.52
411.762	2659.2
414.655	3193.38
417.548	2148.62
420.44	1003.63
423.333	445.55
426.226	149.253
429.118	11.6355
432.011	14.7633
434.904	19.1942
437.797	20.2609
440.689	63.898
443.582	195.795
446.475	414.621
449.367	571.66
452.26	1010.58
455.153	1594.94
458.045	1635.67
460.938	918.106
463.831	439.062
466.724	251.524
469.616	203.098
472.509	118.592
475.402	61.6074
478.294	43.0655
481.187	30.073
484.08	22.807
486.972	47.0793
489.865	14.3401
492.758	3.9592
495.651	10.7737
498.543	8.18768
501.436	26.7427
504.329	8.60303
507.221	5.77078
510.114	23.2549
513.007	42.0149
515.899	95.7888
518.792	224.424
521.685	433.222
524.578	539.061
527.47	291.584
530.363	137.254
533.256	63.3347
536.148	50.1247
539.041	18.7215
541.934	16.6077
544.826	8.12878
547.719	15.2047
550.612	6.32565
553.505	31.2517
556.397	52.1105
559.29	25.1198
562.183	33.8394
565.075	62.6538
567.968	103.084
570.861	40.7229
573.753	7.62836
576.646	19.5327
579.539	23.3261
582.432	12.2847
585.324	85.1305
588.217	177.603
591.11	419
594.002	699.268
596.895	1124.66
599.788	1133.89
602.68	662.94
605.573	326.043
608.466	217.296
611.359	195.131
614.251	192.278
617.144	374.781
620.037	608.753
622.929	1001.87
625.822	1339.64
628.715	1345.2
631.607	1517.04
634.5	2388.83
637.393	4044.4
640.286	6648.75
643.178	9607.48
646.071	9144.01
648.964	5448.48
651.856	2890.91
654.749	1683.56
657.642	1135.96
660.534	914.191
663.427	830.014
666.32	1073.99
669.213	1461.86
672.105	1385.1
674.998	833.025
677.891	432.616
680.783	241.831
683.676	142.032
686.569	78.2103
689.461	35.0459
692.354	8.57849
695.247	6.39984
698.14	2.16983
701.032	11.3746
703.925	19.8958
706.818	1.43466
709.71	3.97656
712.603	2.65295
715.496	5.89947
718.388	10.2249
721.281	41.9812
724.174	57.1726
727.067	105.222
729.959	176.66
732.852	273.912
735.745	421.37
738.637	495.067
741.53	445.372
744.423	323.579
747.315	212.517
750.208	178.29
753.101	156.097
755.994	157.384
758.886	142.299
761.779	162.883
764.672	150.841
767.564	132.38
770.457	91.5383
773.35	58.6854
776.242	50.798
779.135	17.6638
782.028	14.9271
784.92	6.40614
787.813	9.9823
790.706	19.1811
793.599	2.29686
796.491	24.5425
799.384	11.3512
802.277	9.31506
805.169	7.59546
808.062	5.79662
810.955	22.2774
813.847	2.15518
816.74	9.30463
819.633	27.2379
822.526	7.99087
825.418	8.92387
828.311	9.32738
831.204	17.6649
834.096	15.4885
836.989	15.4715
839.882	26.98
842.774	16.6731
845.667	19.1847
848.56	26.0682
851.453	12.2526
854.345	9.59386
857.238	25.9404
860.131	12.5498
863.023	2.06303
865.916	28.5937
868.809	14.2179
871.701	0.418457
874.594	0.173676
877.487	0.53923
880.38	5.47742
883.272	13.7166
886.165	3.39772
889.058	5.80646
891.95	14.5755
894.843	1.12422
897.736	4.37289
900.628	2.27487
903.521	0.705261
906.414	8.80928
909.307	11.878
912.199	15.2371
915.092	26.9664
917.985	49.4182
920.877	46.4325
923.77	74.8662
926.663	108.761
929.555	158.254
932.448	284.838
935.341	491.612
938.234	773.119
941.126	694.545
944.019	342.66
946.912	202.213
949.804	153.258
952.697	219.434
955.59	267.124
958.482	183.956
961.375	103.027
964.268	19.749
967.161	4.88202
970.053	23.105
972.946	9.73444
975.839	17.4383
978.731	8.12469
981.624	22.0161
984.517	0.232239
987.409	20.8558
990.302	40.725
993.195	68.1685
996.088	124.216
998.98	238.142
1001.87	328.01
1004.77	548.759
1007.66	917.132
1010.55	1357.47
1013.44	1636.28
1016.34	1353.39
1019.23	931.254
1022.12	709.917
1025.02	663.193
1027.91	801.268
1030.8	1057.62
1033.69	1317.49
1036.59	1449.94
1039.48	1432.1
1042.37	1784.39
1045.26	2754.74
1048.16	4556.21
1051.05	7031.21
1053.94	8162.19
1056.83	6242.26
1059.73	3816.08
1062.62	2286.26
1065.51	1425.31
1068.4	986.899
1071.3	749.094
1074.19	747.264
1077.08	880.9
1079.98	1112.04
1082.87	1305.33
1085.76	1097.94
1088.65	682.167
1091.55	421.448
1094.44	249.431
1097.33	166.491
1100.22	65.1097
1103.12	37.9708
1106.01	4.37411
1108.9	26.1894
1111.8	25.6238
1114.69	24.011
1117.58	15.1036
1120.47	7.13376
1123.37	10.0495
1126.26	13.4479
1129.15	45.6574
1132.04	58.875
1134.94	86.4172
1137.83	145.709
1140.72	162.602
1143.62	113.326
1146.51	93.4059
1149.4	46.6145
1152.29	52.3908
1155.19	23.2144
1158.08	27.1436
1160.97	9.78011
1163.86	15.1381
1166.76	24.9873
1169.65	11.8538
1172.54	1.47769
1175.43	2.16844
1178.33	8.22015
1181.22	2.65118
1184.11	16.8747
1187.01	36.0429
1189.9	13.2033
1192.79	33.2961
1195.68	13.3685
1198.58	35.4311
1201.47	35.1697
1204.36	18.3738
1207.26	26.5644
1210.15	34.5152
1213.04	39.6183
1215.93	42.9317
1218.83	43.3898
1221.72	38.3595
1224.61	35.1103
1227.5	30.5578
1230.4	38.319
1233.29	36.4675
1236.18	38.7669
1239.07	20.8683
1241.97	3.52156
1244.86	13.0326
1247.75	31.8915
1250.64	29.3476
1253.54	27.9275
1256.43	18.5566
1259.32	30.9166
1262.22	0.963303
1265.11	14.9883
1268	6.06963
