Measurement: Raman, 532 nm, unoriented, Raman Data Processed
Mineral: Chloroxiphite
Rruff sample: R060267
Ideal chemistry: Pb_3_CuO_2_Cl_2_(OH)_2_
Locality: Merehead Quarry, Mendips, Somerset, England
Source: Michael Scott
Description: Green colored elongated bladed crystals in subparallel group associated with white mendipite
Measured chemistry: Pb_3.00_(Cu_0.96_Fe_0.04_)_Î£=1_O_2_Cl_2.00_(OH)_2_ ; H not measured but estimated by difference and stoichiometry
Raman shift (cm-1)	intensity
90.0101	0
93.3849	6.96655
96.7597	2.26579
100.135	3.71372
103.509	8.58806
106.884	8.20982
110.259	8.56372
113.634	15.1295
117.009	5.98778
120.383	5.33622
123.758	2.60235
127.133	0.840045
130.508	2.67292
133.883	6.55681
137.257	33.9023
140.632	69.4477
144.007	59.1624
147.382	39.743
150.757	36.4028
154.132	40.1016
157.506	38.3656
160.881	34.902
164.256	32.0378
167.631	34.8108
171.006	35.575
174.381	31.993
177.755	22.7494
181.13	25.5365
184.505	20.0623
187.88	18.1881
191.255	18.2185
194.629	19.1432
198.004	16.6975
201.379	21.4253
204.754	21.8826
208.129	18.4506
211.504	23.4779
214.878	24.6102
218.253	22.1673
221.628	17.8053
225.003	10.2393
228.377	5.30981
231.752	1.55619
235.127	0.661224
238.502	0.850113
241.877	3.93219
245.252	5.60504
248.626	16.7168
252.001	18.3094
255.376	16.3587
258.751	16.918
262.126	25.7405
265.5	31.9733
268.875	31.6867
272.25	18.8931
275.625	9.01454
279	4.52662
282.375	1.8025
285.75	2.03303
289.124	4.14597
292.499	0.672264
295.874	2.27744
299.249	3.37634
302.623	5.45366
305.998	10.6344
309.373	20.908
312.748	31.2846
316.123	23.8279
319.498	17.9397
322.872	13.992
326.247	18.6679
329.622	22.828
332.997	22.3971
336.372	15.913
339.747	15.7594
343.121	21.4904
346.496	22.0596
349.871	25.2158
353.246	23.4107
356.621	18.1994
359.995	7.10076
363.37	3.81405
366.745	1.86515
370.12	1.94597
373.495	0.812897
376.87	0.012188
380.244	5.53331
383.619	16.8825
386.994	25.6716
390.369	43.3004
393.744	58.4493
397.118	75.3314
400.493	91.0396
403.868	98.358
407.243	102.888
410.618	90.735
413.993	71.7814
417.367	48.0939
420.742	33.0846
424.117	19.2233
427.492	10.6753
430.866	4.6881
434.241	1.68396
437.616	1.43641
440.991	3.20652
444.366	2.63142
447.741	5.26359
451.115	14.5145
454.49	22.0015
457.865	33.2631
461.24	48.9721
464.615	61.4829
467.99	66.4904
471.364	65.6064
474.739	59.3481
478.114	46.8454
481.489	34.0706
484.864	25.7188
488.238	20.8543
491.613	15.0771
494.988	12.5533
498.363	7.95076
501.738	5.6674
505.113	6.02423
508.487	3.21857
511.862	4.46129
515.237	2.66826
518.612	0.834547
521.987	1.28017
525.361	0.785862
528.736	1.11435
532.111	0.64782
535.486	0.21224
538.861	0.50037
542.236	0.140154
545.61	0.357878
548.985	0.544191
552.36	2.28143
555.735	0.311645
559.11	1.80703
562.484	1.46641
565.859	2.88357
569.234	2.73618
572.609	3.21643
575.984	4.00941
579.359	2.91727
582.733	4.35288
586.108	4.26142
589.483	4.88595
592.858	3.16009
596.232	4.23431
599.607	2.8825
602.982	2.81444
606.357	1.73131
609.732	1.66832
613.107	4.68028
616.481	2.3273
619.856	2.31227
623.231	0.894043
626.606	1.02008
629.981	1.53007
633.356	2.14192
636.73	1.38283
640.105	0.180039
643.48	0.99194
646.855	1.28465
650.23	1.9469
653.604	2.93972
656.979	0.027716
660.354	1.01452
663.729	0.8555
667.104	0.062658
670.479	0.172823
673.853	1.94608
677.228	0.399751
680.603	0.668614
683.978	1.61832
687.353	2.83974
690.727	1.42492
694.102	2.00312
697.477	2.58904
700.852	0.370922
704.227	2.4698
707.601	4.57996
710.976	2.30477
714.351	1.16257
717.726	3.442
721.101	3.87287
724.476	3.05233
727.85	1.84913
731.225	2.43673
734.6	1.19802
737.975	0.078511
741.35	0.676214
744.725	0.955477
748.099	0.147693
751.474	2.99319
754.849	2.3129
758.224	1.74648
761.599	1.24653
764.973	1.84489
768.348	2.62507
771.723	5.83738
775.098	4.0166
778.473	6.81039
781.847	7.89058
785.222	7.49087
788.597	4.88846
791.972	6.35432
795.347	1.7803
798.722	2.79545
802.096	1.29079
805.471	0.762858
808.846	1.49733
812.221	1.24985
815.596	1.8167
818.971	1.10405
822.345	1.35304
825.72	0.101888
829.095	2.43234
832.47	2.55014
835.845	2.30667
839.219	2.37951
842.594	3.05469
845.969	2.19308
849.344	2.86835
852.719	2.01279
856.093	1.93348
859.468	3.27141
862.843	2.18964
866.218	1.64777
869.593	3.11649
872.967	4.35664
876.342	1.3232
879.717	3.17541
883.092	3.55309
886.467	1.48174
889.842	2.09462
893.216	0.101037
896.591	1.89799
899.966	0.781366
903.341	2.12967
906.716	2.23774
910.091	1.72723
913.465	0.38262
916.84	0.86854
920.215	0.279718
923.59	2.2329
926.965	4.689
930.339	0.568919
933.714	1.25915
937.089	1.76979
940.464	0.551529
943.839	1.6361
947.213	1.60074
950.588	0.357183
953.963	1.04071
957.338	0.831544
960.713	2.30327
964.088	1.69935
967.462	1.44697
970.837	1.32154
974.212	0.002258
977.587	0.457874
980.962	2.85526
984.337	0.25712
987.711	0.843719
991.086	1.94755
994.461	2.87451
997.836	1.41569
1001.21	2.99191
1004.59	0.865663
1007.96	0.062147
1011.34	1.90349
1014.71	2.95807
1018.09	3.40528
1021.46	0.426499
1024.83	2.22421
1028.21	2.88844
1031.58	0.540641
1034.96	2.13575
1038.33	2.74898
1041.71	2.7714
1045.08	1.94819
1048.46	1.60484
1051.83	1.41689
1055.21	0.400122
1058.58	0.75278
1061.96	1.94492
1065.33	1.00534
1068.71	3.53582
1072.08	1.5249
1075.46	2.31318
1078.83	3.61328
1082.21	2.78212
1085.58	1.94694
1088.96	2.75504
1092.33	0.463247
1095.7	4.0143
1099.08	2.36167
1102.45	1.59464
1105.83	2.68903
1109.2	2.44017
1112.58	3.29957
1115.95	1.17813
1119.33	0.191679
1122.7	2.86305
1126.08	1.93297
1129.45	0.556825
1132.83	1.48252
1136.2	0.587872
1139.58	1.51202
1142.95	0.26424
1146.33	3.92562
1149.7	2.42328
1153.08	1.97099
1156.45	0.76282
1159.83	0.73618
1163.2	1.86784
1166.58	1.22545
1169.95	1.59308
1173.33	1.78797
1176.7	1.38441
1180.08	1.7278
1183.45	1.20393
1186.83	2.78673
1190.2	0.006107
1193.58	1.4156
1196.95	2.44552
1200.33	1.72483
1203.7	1.49588
1207.07	0.689133
1210.45	1.23577
1213.82	0.018976
1217.2	0.930078
1220.57	2.41291
1223.95	2.49904
1227.32	1.61256
1230.7	2.8748
1234.07	0.274057
1237.45	2.35221
1240.82	1.88674
1244.2	1.30333
1247.57	2.38285
1250.95	2.46977
1254.32	1.00974
1257.7	2.7547
1261.07	1.4242
1264.45	2.00092
1267.82	1.3091
1271.2	1.70385
1274.57	0.05615
1277.95	1.54214
1281.32	0.511074
1284.69	0.239128
1288.07	1.11358
1291.44	2.16341
1294.82	2.31703
1298.19	1.42063
1301.57	1.11464
