Measurement: Raman, 514 nm, unoriented, Raman Data Processed
Mineral: Chloritoid
Rruff sample: R050334
Ideal chemistry: Fe^2+^Al_2_OSiO_4_(OH)_2_
Locality: Selçuk, Mugla Province, Turkey
Source: George Rossman
Description: Dark greenish-black foliated cleavage fragments
Measured chemistry: (Fe^2+^_1.84_Mg_0.12_Mn_0.04_)_Σ=2_(Al_3.95_Fe^3+^_0.05_)_Σ=4_Si_2.00_O_10_(OH)_4_ ; H not measured but estimated by difference and stoichiometry
Raman shift (cm-1)	intensity
235.479	0
239.601	19.111
243.72	97.475
247.837	396.623
251.953	557.625
256.066	436.782
260.177	313.992
264.285	118.284
268.392	86.03
272.497	121.421
276.599	413.666
280.7	893.015
284.798	744.097
288.894	374.733
292.989	335.86
297.081	489.58
301.171	538.994
305.259	432.792
309.345	256.492
313.428	81.862
317.51	7.542
321.59	20.538
325.667	109.911
329.743	381.718
333.816	410.789
337.888	156.043
341.957	148.419
346.024	257.869
350.09	20.649
354.153	138.156
358.214	48.317
362.273	144.422
366.33	246.71
370.385	82.164
374.437	46.656
378.488	100.687
382.537	229.786
386.584	379.247
390.628	332.892
394.671	299.75
398.711	429.154
402.75	387.944
406.786	473.304
410.821	659.562
414.853	672.615
418.883	512.416
422.912	378.954
426.938	244.245
430.962	263.564
434.984	180.353
439.005	133.857
443.023	153.59
447.039	202.189
451.053	158.758
455.065	247.255
459.075	221.074
463.083	306.819
467.089	306.707
471.093	364.558
475.095	438.999
479.095	459.913
483.093	512.466
487.089	543.489
491.083	821.525
495.075	1285.5
499.065	1673.35
503.052	1385.9
507.038	1194.29
511.022	1165.73
515.004	875.766
518.984	678.965
522.962	700.656
526.938	991.067
530.912	1064.96
534.883	809.89
538.853	597.699
542.821	550.569
546.787	920.27
550.751	1835.05
554.713	1517.85
558.673	709.221
562.631	403.192
566.587	355.962
570.541	434.602
574.493	447.114
578.443	589.499
582.391	1054.76
586.337	2845.89
590.281	10002.9
594.223	22515.8
598.164	8198.6
602.102	2490.38
606.038	1248.33
609.972	748.26
613.905	411.176
617.835	210.335
621.763	240.437
625.69	168.183
629.614	136.699
633.537	74.113
637.457	100.176
641.376	76.187
645.292	65.027
649.207	4.585
653.12	18.496
657.031	10.418
660.939	65.186
664.846	25.809
668.751	68.299
672.654	23.189
676.555	1.772
680.454	27.426
684.352	35.594
688.247	4.969
692.14	26.582
696.031	23.4
699.921	30.522
703.808	10.21
707.694	65.647
711.577	74.145
715.459	89.015
719.339	174.999
723.217	275.858
727.093	406.595
730.967	634.211
734.839	668.398
738.709	611.089
742.577	551.355
746.443	414.51
750.308	193.554
754.17	170.49
758.031	53.318
761.89	86.014
765.746	20.439
769.601	1.944
773.454	58.896
777.305	2.98
781.154	15.426
785.001	14.047
788.847	28.859
792.69	49.646
796.532	27.993
800.371	92.454
804.209	79.223
808.045	81.625
811.879	152.227
815.711	125.071
819.541	208.79
823.369	287.871
827.195	412.882
831.02	665.069
834.842	795.831
838.663	1027.37
842.482	1100.94
846.299	1056.73
850.114	904.049
853.927	784.595
857.738	703.071
861.548	728.812
865.355	841.206
869.161	1250.95
872.965	1875.99
876.767	2614.05
880.567	3001.11
884.365	2465.19
888.161	1887.31
891.956	1473.48
895.748	1152.73
899.539	1112.99
903.328	1165.26
907.115	1027.55
910.9	920.59
914.683	731.645
918.465	757.877
922.244	565.941
926.022	563.772
929.798	495.838
933.572	533.713
937.344	542.435
941.115	567.706
944.883	581.654
948.65	626.795
952.414	682.345
956.177	608.078
959.938	517.935
963.698	457.852
967.455	381.814
971.211	292.879
974.964	259.031
978.716	116.254
982.466	199.578
986.215	162.999
989.961	101.539
993.706	106.237
997.448	216.237
1001.19	162.913
1004.93	214.322
1008.67	130.018
1012.4	144.621
1016.13	126.327
1019.87	120.711
1023.6	86.189
1027.33	121.742
1031.05	51.035
1034.78	138.204
1038.5	215.798
1042.22	166.343
1045.94	103.604
1049.65	116.476
1053.37	91.16
1057.08	66.136
1060.8	68.019
1064.51	92.652
1068.21	174.589
1071.92	200.263
1075.63	70.418
1079.33	115.592
1083.03	99.859
1086.73	162.575
1090.43	202.944
1094.12	123.462
1097.82	143.926
1101.51	137.465
1105.2	115
1108.89	58.512
1112.57	77.505
1116.26	75.124
1119.94	72.981
1123.62	96.625
1127.3	116.59
1130.98	46.166
1134.66	63.103
1138.33	42.64
1142	39.468
1145.67	28.023
1149.34	38.812
1153.01	80.494
1156.67	60
1160.34	33.431
1164	36.774
1167.66	21.48
1171.32	17.111
1174.97	35.315
1178.63	19.883
1182.28	50.061
1185.93	36.073
1189.58	28.373
1193.23	17.136
1196.88	6.368
1200.52	12.065
1204.16	12.456
1207.8	45.092
1211.44	138.366
1215.08	28.589
1218.71	20.738
1222.35	42.826
1225.98	38.867
1229.61	10.268
1233.24	116.655
1236.87	22.479
1240.49	57.252
1244.11	81.98
1247.73	79.683
1251.35	97.3
1254.97	10.799
1258.59	1.231
1262.2	54.681
1265.82	65.964
1269.43	108.125
1273.04	113.217
1276.64	115.449
1280.25	83.389
1283.85	58.262
1287.45	44.072
1291.06	21.826
1294.65	0.52
1298.25	103.743
1301.85	84.388
1305.44	100.533
1309.03	113.552
1312.62	127.584
1316.21	115.032
1319.8	106.278
1323.38	86.306
1326.96	67.224
1330.55	122.809
1334.13	100.388
1337.7	121.348
1341.28	162.408
1344.86	122.113
1348.43	127.804
1352	82.68
1355.57	81.085
1359.14	71.806
1362.7	115.679
1366.27	40.265
1369.83	149.787
1373.39	130.792
1376.95	160.272
1380.51	311.74
1384.07	194.715
1387.62	119.699
1391.17	143.174
1394.72	34.087
1398.27	17.102
1401.82	38.086
1405.37	136.087
1408.91	101.936
1412.45	137.475
1415.99	171.481
1419.53	157.325
1423.07	149.292
1426.61	119.371
1430.14	9.7
1433.67	72.039
1437.2	96.864
1440.73	9.84
1444.26	21.478
1447.79	93.129
1451.31	72.362
1454.83	148.608
1458.35	151.743
1461.87	179.207
1465.39	180.478
1468.9	115.13
1472.42	56.371
1475.93	39.659
1479.44	98.397
1482.95	52.265
1486.46	78.449
1489.96	53.937
1493.47	113.684
1496.97	83.779
1500.47	81.219
1503.97	157.399
1507.47	146.119
1510.96	62.031
1514.45	38.845
1517.95	4.286
1521.44	0
