Measurement: Raman, 780 nm, unoriented, Raman Data Processed
Mineral: Chloritoid
Rruff sample: R060292
Ideal chemistry: Fe^2+^Al_2_OSiO_4_(OH)_2_
Locality: Pech, Kunar Province, Afghanistan
Source: Herb Obodda
Description: Black tabular crystal
Measured chemistry: (Fe^2+^_1.55_Mg_0.43_Mn_0.02_)_Σ=2_(Al_3.93_Fe^3+^_0.07_)_Σ=4_Si_2.00_O_10_(OH)_4_
Raman shift (cm-1)	intensity
160.476	0
163.369	2.01208
166.261	0.834686
169.154	3.31567
172.047	2.76379
174.939	5.53706
177.832	7.12273
180.725	7.49185
183.618	2.91755
186.51	1.79304
189.403	3.70454
192.296	7.58487
195.188	0.525131
198.081	0.484177
200.974	2.21242
203.866	3.15707
206.759	7.10791
209.652	6.63356
212.544	6.88969
215.437	4.7397
218.33	4.28602
221.223	7.70587
224.115	0.352814
227.008	5.66479
229.901	3.88292
232.793	6.09401
235.686	11.9791
238.579	8.17564
241.471	10.2281
244.364	12.4008
247.257	6.84624
250.15	12.0087
253.042	4.95169
255.935	4.08509
258.828	11.6438
261.72	9.82003
264.613	18.7936
267.506	18.5247
270.399	25.2159
273.291	33.7193
276.184	35.7739
279.077	43.6361
281.969	54.4336
284.862	46.3505
287.755	35.7032
290.647	24.3119
293.54	28.1754
296.433	23.6305
299.325	22.4429
302.218	17.9226
305.111	18.1884
308.004	7.6971
310.896	2.49246
313.789	4.67444
316.682	0.664581
319.574	1.09935
322.467	0.861725
325.36	2.86578
328.252	5.78187
331.145	10.0321
334.038	8.61259
336.931	6.17641
339.823	6.1234
342.716	3.41281
345.609	11.1741
348.501	12.9046
351.394	20.7717
354.287	27.5538
357.18	30.0096
360.072	35.2992
362.965	37.8122
365.858	40.0035
368.75	33.3828
371.643	30.0535
374.536	20.4847
377.428	20.4784
380.321	18.061
383.214	15.7308
386.106	15.5617
388.999	19.1768
391.892	11.6119
394.785	11.1724
397.677	17.6099
400.57	14.047
403.463	11.5502
406.355	16.1299
409.248	20.7878
412.141	19.3315
415.034	22.8109
417.926	16.7181
420.819	13.3383
423.712	5.11997
426.604	6.41207
429.497	6.33999
432.39	0.90308
435.282	0.290253
438.175	2.2823
441.068	2.25582
443.961	2.10522
446.853	2.51443
449.746	0.897182
452.639	3.91883
455.531	8.67181
458.424	13.1684
461.317	14.8221
464.209	20.2738
467.102	28.5796
469.995	28.5005
472.887	36.1764
475.78	47.3937
478.673	44.0206
481.566	49.2023
484.458	50.8493
487.351	44.8687
490.244	51.1878
493.136	49.3772
496.029	40.2827
498.922	48.6424
501.815	40.2849
504.707	32.7867
507.6	22.0333
510.493	18.8295
513.385	8.86763
516.278	4.5541
519.171	6.26227
522.063	0.200821
524.956	2.6544
527.849	3.80836
530.741	3.31647
533.634	0.651184
536.527	0.218369
539.42	2.32565
542.312	3.39925
545.205	7.44533
548.098	9.54527
550.99	17.6144
553.883	19.2858
556.776	13.8435
559.668	3.81165
562.561	3.63467
565.454	1.2406
568.347	5.15058
571.239	16.6921
574.132	26.8285
577.025	59.8309
579.917	153.634
582.81	229.252
585.703	271.071
588.596	353.131
591.488	449.269
594.381	528.605
597.274	440.402
600.166	202.499
603.059	110.905
605.952	68.6782
608.845	44.369
611.737	28.4159
614.63	20.4721
617.523	13.2889
620.415	8.52071
623.308	6.65113
626.201	4.53243
629.093	4.39814
631.986	0.020958
634.879	1.44113
637.771	1.10572
640.664	3.80787
643.557	1.83058
646.45	2.70906
649.342	4.0428
652.235	0.604168
655.128	1.48363
658.02	4.17699
660.913	2.84707
663.806	1.59094
666.698	0.198898
669.591	2.28149
672.484	2.7265
675.377	0.515285
678.269	4.05591
681.162	0.455357
684.055	2.16882
686.947	0.217842
689.84	2.65496
692.733	3.63059
695.625	3.19155
698.518	2.2426
701.411	3.07196
704.304	1.9528
707.196	0.109726
710.089	1.92274
712.982	6.58568
715.874	7.57755
718.767	8.85197
721.66	8.06207
724.553	18.3439
727.445	20.8964
730.338	24.0026
733.231	22.827
736.123	23.3002
739.016	18.5295
741.909	17.8721
744.801	9.43084
747.694	1.4631
750.587	2.45055
753.48	3.95441
756.372	0.064304
759.265	2.17652
762.158	0.084679
765.05	2.83337
767.943	0.794437
770.836	0.828693
773.728	0.521049
776.621	0.43898
779.514	1.19666
782.407	2.03521
785.299	0.90427
788.192	0.598923
791.085	6.33683
793.977	13.6363
796.87	22.1648
799.763	41.6775
802.655	61.8066
805.548	88.5801
808.441	122.714
811.333	142.494
814.226	114.892
817.119	49.0119
820.012	16.3567
822.904	11.6798
825.797	12.4942
828.69	15.4256
831.582	15.3996
834.475	20.5855
837.368	23.9834
840.26	29.1845
843.153	28.4828
846.046	26.8952
848.939	19.048
851.831	12.9672
854.724	10.6744
857.617	11.3205
860.509	11.1508
863.402	20.0916
866.295	23.6579
869.188	30.9249
872.08	40.7389
874.973	52.0321
877.866	48.9593
880.758	50.2393
883.651	46.1069
886.544	30.9672
889.436	20.2767
892.329	11.0488
895.222	5.63252
898.115	3.95681
901.007	0.357956
903.9	5.18311
906.793	0.298553
909.685	1.34622
912.578	0.445427
915.471	1.44886
918.363	0.733322
921.256	0.647339
924.149	1.25693
927.042	0.291409
929.934	1.37194
932.827	3.346
935.72	5.5775
938.612	2.36378
941.505	11.1301
944.398	15.3289
947.29	20.6585
950.183	25.402
953.076	32.353
955.968	34.9859
958.861	47.5336
961.754	51.0405
964.647	54.3079
967.539	51.8582
970.432	48.1392
973.325	48.9669
976.217	45.2266
979.11	47.6328
982.003	47.2459
984.895	46.0907
987.788	47.4006
990.681	46.4151
993.574	42.5344
996.466	34.1891
999.359	28.9681
1002.25	18.652
1005.14	12.5588
1008.04	5.83207
1010.93	4.57757
1013.82	5.27252
1016.72	1.65288
1019.61	2.86169
1022.5	0.450218
1025.39	1.21213
1028.29	0.755432
1031.18	0.901752
1034.07	1.46145
1036.96	1.7189
1039.86	3.9287
1042.75	1.61488
1045.64	5.45917
1048.54	2.82908
1051.43	2.89531
1054.32	6.43847
1057.21	5.75753
1060.11	4.60353
1063	6.80193
1065.89	9.78848
1068.78	5.473
1071.68	5.4577
1074.57	1.95068
1077.46	0.796671
1080.36	3.49084
1083.25	3.37996
1086.14	6.44233
1089.03	5.97671
1091.92	3.44107
1094.82	6.61369
1097.71	5.80728
1100.6	2.70341
1103.5	6.81668
1106.39	2.8361
1109.28	10.1555
1112.17	5.55547
1115.07	10.0857
1117.96	11.7978
1120.85	11.2253
1123.74	9.89481
1126.64	9.50609
1129.53	6.84407
1132.42	2.81967
1135.32	3.71664
1138.21	2.76938
1141.1	4.25616
1143.99	3.94554
1146.89	5.85754
1149.78	1.3548
1152.67	5.95046
1155.57	7.50967
1158.46	9.65039
1161.35	9.04228
1164.24	2.45835
1167.14	7.08348
1170.03	11.6934
1172.92	8.91727
1175.81	6.4468
1178.71	7.65531
1181.6	11.049
1184.49	15.6186
1187.38	15.5789
1190.28	8.1855
1193.17	7.94554
1196.06	9.30273
1198.95	3.66602
1201.85	4.87961
1204.74	3.13472
1207.63	2.19543
1210.53	2.43674
1213.42	2.39301
1216.31	0.306908
1219.2	0.956749
1222.1	0.721516
1224.99	5.85321
1227.88	2.58168
1230.78	5.61331
1233.67	6.48091
1236.56	8.70153
1239.45	6.20507
1242.35	8.82018
1245.24	8.27819
1248.13	3.43982
1251.02	8.03532
1253.92	0.424761
1256.81	6.50418
1259.7	2.12492
1262.6	3.1071
1265.49	0.369293
1268.38	2.07113
1271.27	4.17685
1274.17	5.24411
1277.06	1.90257
1279.95	6.34276
1282.84	0.720484
1285.74	0
