Measurement: Raman, 532 nm, unoriented, Raman Data Processed
Mineral: Chloritoid
Rruff sample: R050334
Ideal chemistry: Fe^2+^Al_2_OSiO_4_(OH)_2_
Locality: Selçuk, Mugla Province, Turkey
Source: George Rossman
Description: Dark greenish-black foliated cleavage fragments
Measured chemistry: (Fe^2+^_1.84_Mg_0.12_Mn_0.04_)_Σ=2_(Al_3.95_Fe^3+^_0.05_)_Σ=4_Si_2.00_O_10_(OH)_4_ ; H not measured but estimated by difference and stoichiometry
Raman shift (cm-1)	intensity
142.012	0
145.386	0.03672
148.761	1.67674
152.136	6.10403
155.511	7.41409
158.886	6.33723
162.26	6.36422
165.635	6.54033
169.01	9.23766
172.385	8.90324
175.76	7.25975
179.135	6.82887
182.509	5.26274
185.884	8.28413
189.259	9.57975
192.634	11.3241
196.009	15.0846
199.383	14.9306
202.758	15.2364
206.133	16.9681
209.508	14.403
212.883	13.4646
216.257	11.669
219.632	11.6482
223.007	10.1836
226.382	4.42589
229.757	0.888229
233.132	0.089851
236.506	1.36288
239.881	1.49143
243.256	3.11941
246.631	9.17448
250.006	14.5897
253.381	12.6516
256.755	12.6079
260.13	11.4043
263.505	12.1415
266.88	19.8953
270.255	24.105
273.629	30.9037
277.004	43.2914
280.379	64.5456
283.754	63.2414
287.129	38.2983
290.503	21.4294
293.878	21.6298
297.253	20.0097
300.628	23.5983
304.003	20.8272
307.378	11.6884
310.752	5.29829
314.127	0.72477
317.502	0.066273
320.877	0.719414
324.252	2.28976
327.627	7.98978
331.001	16.0748
334.376	15.7112
337.751	8.22325
341.126	5.85228
344.5	12.957
347.875	10.9763
351.25	2.7531
354.625	2.51357
358	2.6326
361.375	7.14919
364.75	9.82617
368.124	9.29091
371.499	3.38533
374.874	1.44257
378.249	0.696693
381.623	2.74073
384.998	7.78258
388.373	10.9735
391.748	13.4895
395.123	20.2398
398.498	21.6535
401.872	15.912
405.247	10.8185
408.622	9.6983
411.997	13.1038
415.372	13.9526
418.747	9.18682
422.121	7.13006
425.496	4.97279
428.871	4.78178
432.246	2.17747
435.621	0.22979
438.995	1.18097
442.37	0.779297
445.745	0.710205
449.12	1.71008
452.495	3.0815
455.87	4.25743
459.244	1.53215
462.619	5.75514
465.994	5.23189
469.369	6.84101
472.744	7.36824
476.118	7.2671
479.493	9.24828
482.868	12.5618
486.243	14.6115
489.618	20.2808
492.993	30.5859
496.367	38.7278
499.742	38.4505
503.117	31.5212
506.492	26.5258
509.867	21.7382
513.241	15.6717
516.616	13.5849
519.991	11.523
523.366	13.6513
526.741	20.7023
530.115	22.2518
533.49	15.219
536.865	8.00852
540.24	7.35574
543.615	9.41356
546.99	14.96
550.364	27.0899
553.739	26.864
557.114	7.76905
560.489	0.017601
563.864	1.70757
567.239	0.1208
570.613	3.95426
573.988	11.901
577.363	44.5719
580.738	107.618
584.112	156.767
587.487	258.696
590.862	475.586
594.237	681.697
597.612	365.452
600.987	107.421
604.361	51.0536
607.736	31.7556
611.111	20.3152
614.486	11.2562
617.861	9.11978
621.236	6.07313
624.61	3.46212
627.985	2.73803
631.36	2.92456
634.735	3.0539
638.11	1.39321
641.484	0.354351
644.859	0.649376
648.234	0.501091
651.609	0.701019
654.984	0.688828
658.359	1.29264
661.733	0.649311
665.108	0.891003
668.483	0.412903
671.858	1.46903
675.233	0.413013
678.607	0.391941
681.982	0.451878
685.357	0.066601
688.732	1.31771
692.107	3.082
695.481	2.64305
698.856	4.07286
702.231	5.86709
705.606	5.1446
708.981	8.42862
712.356	12.4817
715.73	16.8571
719.105	23.2382
722.48	28.6733
725.855	37.9526
729.23	45.2635
732.605	49.4092
735.979	47.3756
739.354	42.0396
742.729	34.1844
746.104	23.945
749.479	16.8475
752.853	10.136
756.228	8.41354
759.603	5.57601
762.978	3.79477
766.353	1.92656
769.727	1.52494
773.102	1.20806
776.477	0.286755
779.852	0.362442
783.227	0.353569
786.602	0.55703
789.976	0.242016
793.351	1.44975
796.726	0.475929
800.101	0.551285
803.476	0.195843
806.851	0.740826
810.225	0.674805
813.6	1.77058
816.975	0.727592
820.35	1.85956
823.725	4.62912
827.099	8.39178
830.474	15.5862
833.849	20.7554
837.224	26.7449
840.599	29.1847
843.973	28.6161
847.348	23.8105
850.723	19.613
854.098	15.2311
857.473	16.2985
860.847	16.6535
864.222	24.3017
867.597	36.9792
870.972	52.1817
874.347	70.3572
877.722	88.9795
881.096	95.9745
884.471	77.4112
887.846	53.7967
891.221	35.7333
894.596	25.3901
897.971	17.5944
901.345	14.3846
904.72	10.5092
908.095	8.92785
911.47	8.30522
914.845	6.81781
918.219	5.55449
921.594	5.96001
924.969	7.02426
928.344	7.53381
931.719	8.36707
935.093	9.02388
938.468	11.0018
941.843	13.1984
945.218	13.0708
948.593	15.4007
951.968	16.6437
955.342	13.5317
958.717	11.9201
962.092	9.09542
965.467	6.1934
968.842	4.19013
972.216	2.54623
975.591	0.556541
978.966	0.583618
982.341	0.620583
985.716	2.32133
989.091	1.01935
992.465	0.622143
995.84	0.500179
999.215	3.19932
1002.59	3.49754
1005.97	3.21338
1009.34	2.50865
1012.71	3.36515
1016.09	3.71438
1019.46	3.82544
1022.84	5.62871
1026.21	5.61818
1029.59	4.15038
1032.96	5.96204
1036.34	2.64768
1039.71	3.31553
1043.09	4.14305
1046.46	2.58754
1049.84	4.03931
1053.21	1.43077
1056.59	2.7652
1059.96	1.7253
1063.34	0.180149
1066.71	0.945511
1070.09	1.40924
1073.46	1.64074
1076.84	0.634609
1080.21	1.46863
1083.59	1.78326
1086.96	2.84395
1090.34	1.14957
1093.71	1.81689
1097.09	4.2889
1100.46	1.43716
1103.83	1.26998
1107.21	1.70071
1110.58	0.808956
1113.96	0.776146
1117.33	1.81032
1120.71	1.63571
1124.08	2.88273
1127.46	1.38336
1130.83	0.725811
1134.21	0.910767
1137.58	1.64265
1140.96	1.61076
1144.33	2.02769
1147.71	0.979248
1151.08	1.01288
1154.46	0.205639
1157.83	0.799828
1161.21	0.180378
1164.58	1.45584
1167.96	0.625149
1171.33	0.202503
1174.71	0.748627
1178.08	0.097324
1181.45	0.815964
1184.83	2.18833
1188.2	0.082535
1191.58	0.537518
1194.95	0.0298
1198.33	0.489979
1201.7	1.01051
1205.08	1.10319
1208.45	1.43365
1211.83	1.47116
1215.2	0.212204
1218.58	1.92164
1221.95	0.714424
1225.33	1.0364
1228.7	0.786373
1232.08	2.69766
1235.45	0.884132
1238.83	0.842686
1242.2	1.45841
1245.58	2.54675
1248.95	2.17762
1252.33	2.25412
1255.7	0.824593
1259.08	1.9054
1262.45	0.674374
1265.83	0.318878
1269.2	1.82524
1272.58	0.938419
1275.95	3.20516
1279.33	1.65456
1282.7	1.43243
1286.07	2.9734
1289.45	1.84124
1292.82	1.12804
1296.2	0.812771
1299.57	1.4909
1302.95	0.48082
