Measurement: Raman, 780 nm, unoriented, Raman Data Processed
Mineral: Chlorapatite
Rruff sample: R060192
Ideal chemistry: Ca_5_(PO_4_)_3_Cl
Locality: Parelhas, Rio Grande de Norte, Brazil
Source: Luiz Menezes
Description: Colorless to gray fine-grained parallel aggregates
Measured chemistry: (Ca_4.97_Mn_0.03_)_Σ=5_(P_1.00_O_4_)_3_(Cl_0.69_(OH)_0.29_F_0.02_)_Σ=1_ ; trace amounts of Sr ; (OH) estimated by difference and stoichiometry
Raman shift (cm-1)	intensity
113.108	0
116.483	0.808281
119.858	2.56032
123.232	3.5057
126.607	5.61495
129.982	5.39917
133.357	6.10658
136.732	7.54258
140.107	5.15602
143.481	2.58887
146.856	0.923416
150.231	0.756344
153.606	0.427551
156.981	1.21236
160.355	0.588409
163.73	1.20768
167.105	1.22236
170.48	1.30891
173.855	2.70937
177.23	4.24528
180.604	5.22825
183.979	5.75734
187.354	4.79017
190.729	4.46054
194.104	6.29041
197.478	8.33103
200.853	9.74761
204.228	10.73
207.603	10.2512
210.978	9.27986
214.352	6.15125
217.727	5.01383
221.102	7.29438
224.477	7.36907
227.852	7.75216
231.226	6.71871
234.601	5.74163
237.976	4.35456
241.351	2.57464
244.726	1.42791
248.101	0.711302
251.475	0.687683
254.85	0.148075
258.225	0.09112
261.6	1.85729
264.975	2.15768
268.349	3.4142
271.724	4.12525
275.099	5.722
278.474	6.67166
281.849	8.57357
285.224	8.72879
288.598	8.991
291.973	9.41387
295.348	8.70586
298.723	8.64866
302.098	8.52746
305.473	7.85834
308.847	7.14375
312.222	6.1794
315.597	3.4933
318.972	3.17769
322.347	1.75872
325.721	0.910633
329.096	0.668934
332.471	0.735535
335.846	0.567732
339.221	0.046415
342.596	0.411072
345.97	0.227816
349.345	0.423248
352.72	0.233118
356.095	0.118212
359.469	0.101255
362.844	0.390795
366.219	0.265779
369.594	0.289442
372.969	0.85285
376.344	0.752472
379.718	0.640036
383.093	0.799553
386.468	1.22265
389.843	1.10438
393.218	2.27566
396.592	3.1001
399.967	5.54844
403.342	9.22861
406.717	13.9585
410.092	22.612
413.467	32.1786
416.841	43.4671
420.216	56.0597
423.591	69.5837
426.966	77.9507
430.341	69.4072
433.716	50.9611
437.09	38.0361
440.465	31.5052
443.84	28.2603
447.215	25.3145
450.59	22.2822
453.964	17.8378
457.339	14.8599
460.714	10.8366
464.089	8.40284
467.464	5.36735
470.839	4.49252
474.213	3.61418
477.588	2.34267
480.963	1.63869
484.338	1.30366
487.713	0.663843
491.087	0.848162
494.462	0.40003
497.837	0.280045
501.212	0.723732
504.587	0.537214
507.962	0.182796
511.336	0.626554
514.711	0.596796
518.086	0.452059
521.461	0.439251
524.836	0.262859
528.21	0.804306
531.585	0.362425
534.96	0.697649
538.335	0.614862
541.71	0.070435
545.085	1.90257
548.459	1.39494
551.834	2.26964
555.209	3.20631
558.584	4.60815
561.959	6.60881
565.333	10.4158
568.708	15.075
572.083	25.9338
575.458	36.5149
578.833	44.4508
582.207	53.6762
585.582	65.8881
588.957	63.4761
592.332	38.1989
595.707	18.0257
599.082	12.8402
602.456	13.2565
605.831	17.5272
609.206	14.5639
612.581	8.34088
615.956	5.76311
619.33	4.12857
622.705	1.8776
626.08	1.30331
629.455	0.053759
632.83	0.625776
636.205	0.117975
639.579	0.391989
642.954	1.2251
646.329	0.981216
649.704	0.670536
653.079	0.500406
656.453	0.106867
659.828	0.610453
663.203	0.016445
666.578	0.762589
669.953	0.496679
673.327	0.040543
676.702	1.0334
680.077	0.870647
683.452	1.02299
686.827	0.043257
690.202	0.817894
693.576	0.153357
696.951	0.275667
700.326	0.529181
703.701	0.055759
707.076	0.763277
710.45	0.504082
713.825	0.822165
717.2	0.406561
720.575	0.290228
723.95	0.187971
727.324	0.156557
730.699	0.105207
734.074	1.006
737.449	0.298187
740.824	0.758326
744.199	0.066847
747.573	0.159353
750.948	0.612017
754.323	0.349371
757.698	0.329823
761.073	0.812418
764.447	0.360104
767.822	0.389723
771.197	0.123539
774.572	0.623743
777.947	0.118334
781.322	0.836704
784.696	0.347845
788.071	0.819523
791.446	0.122459
794.821	0.285265
798.196	0.2987
801.571	0.504061
804.945	0.711142
808.32	0.581335
811.695	0.58457
815.07	0.69463
818.445	1.11548
821.819	0.565878
825.194	1.03679
828.569	0.952162
831.944	1.35395
835.319	1.45684
838.693	1.03303
842.068	0.319237
845.443	1.0226
848.818	0.422092
852.193	1.41799
855.568	0.498648
858.942	1.37914
862.317	0.710688
865.692	1.12563
869.067	0.728815
872.442	0.604706
875.817	0.01458
879.191	0.739668
882.566	0.227259
885.941	0.180206
889.316	0.642221
892.691	0.17523
896.065	0.276436
899.44	0.125671
902.815	0.264044
906.19	0.086348
909.565	0.377281
912.939	0.070238
916.314	1.01081
919.689	1.17014
923.064	0.578279
926.439	2.44406
929.813	3.64965
933.188	6.78314
936.563	12.9872
939.938	27.2198
943.313	52.3506
946.688	93.7294
950.062	158.544
953.437	221.739
956.812	271.169
960.187	294.94
963.562	240.047
966.937	123.367
970.311	50.6961
973.686	19.5812
977.061	6.12729
980.436	1.89509
983.811	0.177256
987.185	0.122131
990.56	0.818506
993.935	0.124395
997.31	1.18505
1000.68	1.73362
1004.06	2.88972
1007.43	3.6677
1010.81	6.2309
1014.18	7.82164
1017.56	10.2338
1020.93	12.8645
1024.31	15.8533
1027.68	21.8791
1031.06	29.6861
1034.43	39.5063
1037.81	49.3514
1041.18	56.9682
1044.56	49.4546
1047.93	33.564
1051.31	19.2094
1054.68	11.9687
1058.06	8.37098
1061.43	6.90812
1064.81	7.7087
1068.18	11.5113
1071.56	15.2509
1074.93	20.1721
1078.31	23.2358
1081.68	17.4966
1085.06	10.0245
1088.43	4.62478
1091.81	1.9508
1095.18	0.682013
1098.55	0.182322
1101.93	0.147654
1105.3	0.118336
1108.68	0.102045
1112.05	0.456762
1115.43	0.443768
1118.8	0.236753
1122.18	0.306374
1125.55	0.181715
1128.93	0.963346
1132.3	1.00442
1135.68	2.04826
1139.05	2.48034
1142.43	2.28412
1145.8	1.71987
1149.18	1.42919
1152.55	1.64356
1155.93	0.902321
1159.3	0.824392
1162.68	0.725876
1166.05	0.571739
1169.42	0.93853
1172.8	0.665949
1176.17	1.7082
1179.55	0.687878
1182.92	0.692711
1186.3	1.2306
1189.67	1.12403
1193.05	1.18441
1196.42	1.06331
1199.8	1.40465
1203.17	0.684441
1206.55	0.164906
1209.92	0.144896
1213.3	1.20503
1216.67	0.363207
1220.05	1.30031
1223.42	0.28804
1226.8	0.071518
1230.17	0.344954
1233.55	1.00598
1236.92	0.295172
1240.3	0.968512
1243.67	0.708065
1247.05	0.215508
1250.42	0.562796
1253.8	0.101873
1257.17	1.60988
1260.55	0.980364
1263.92	1.4043
1267.3	1.75832
1270.67	0.7484
1274.05	1.31886
1277.42	0.991652
1280.79	0.566053
1284.17	0.020153
