Measurement: Raman, 532 nm, unoriented, Raman Data Processed
Mineral: Chlorartinite
Rruff sample: R060878
Ideal chemistry: Mg_2_CO_3_Cl(OH)2.5H_2_O
Locality: 500m level, Quarry of Udachnaya-Vostochnaya pipe, Yakutia, Russia
Source: Michael Scott
Description: White fibrous mass, associated with larger crystals of aragonite
Raman shift (cm-1)	intensity
177.107	0
180	5.28398
182.892	19.7379
185.785	26.7387
188.678	23.4271
191.57	24.1199
194.463	30.1936
197.356	29.5301
200.249	32.0642
203.141	33.9181
206.034	38.3676
208.927	40.3341
211.819	35.3411
214.712	28.4226
217.605	25.7172
220.497	22.2492
223.39	17.6155
226.283	12.5593
229.175	8.93583
232.068	8.44214
234.961	8.0091
237.854	9.34967
240.746	10.2407
243.639	10.0658
246.532	14.3852
249.424	16.2196
252.317	13.7569
255.21	8.67291
258.103	4.36401
260.995	0.15612
263.888	0.692566
266.781	0.999374
269.673	1.44127
272.566	0.324295
275.459	1.2299
278.351	1.35877
281.244	0.004204
284.137	1.26543
287.029	1.59752
289.922	1.39629
292.815	1.1182
295.708	0.097435
298.6	1.05605
301.493	2.60778
304.386	1.64294
307.278	2.65124
310.171	3.68076
313.064	5.76065
315.957	5.8629
318.849	4.45494
321.742	4.04393
324.635	1.87414
327.527	1.02036
330.42	2.38625
333.313	1.88786
336.205	2.63429
339.098	1.88522
341.991	1.94952
344.884	2.50207
347.776	3.53277
350.669	3.65543
353.562	2.60207
356.454	3.26258
359.347	3.3381
362.24	4.54539
365.132	3.813
368.025	5.14763
370.918	4.39278
373.81	5.21749
376.703	5.85567
379.596	5.58803
382.489	7.0576
385.381	6.76323
388.274	8.2971
391.167	10.0869
394.059	11.6013
396.952	11.6785
399.845	9.36696
402.738	5.5404
405.63	5.10771
408.523	2.46518
411.416	1.65512
414.308	1.33459
417.201	0.146507
420.094	0.859428
422.986	0.278252
425.879	0.906448
428.772	0.419502
431.664	0.783905
434.557	0.292709
437.45	0.822281
440.343	1.19397
443.235	1.15109
446.128	1.08902
449.021	1.48711
451.913	0.962669
454.806	0.481926
457.699	1.11241
460.591	0.986145
463.484	0.658913
466.377	0.475159
469.27	0.117004
472.162	0.065018
475.055	0.177048
477.948	0.757721
480.84	0.911469
483.733	0.03196
486.626	0.435127
489.519	0.530449
492.411	0.019699
495.304	0.429428
498.197	0.429115
501.089	0.181206
503.982	0.295128
506.875	0.038391
509.767	0.544617
512.66	1.11251
515.553	1.31913
518.446	1.26728
521.338	1.70085
524.231	2.56339
527.124	2.36379
530.016	1.51367
532.909	1.62414
535.802	1.10417
538.694	2.00216
541.587	1.04887
544.48	1.1385
547.372	0.469658
550.265	0.271019
553.158	0.683411
556.051	0.107719
558.943	0.884254
561.836	0.254723
564.729	1.01236
567.621	0.52684
570.514	2.30833
573.407	1.90543
576.299	3.13641
579.192	3.00437
582.085	3.10875
584.978	5.1622
587.87	5.18681
590.763	6.23383
593.656	8.5091
596.548	8.75002
599.441	9.12421
602.334	9.17622
605.226	9.3069
608.119	8.24239
611.012	6.6436
613.905	5.21017
616.797	4.1283
619.69	2.96151
622.583	2.84912
625.475	2.30572
628.368	1.06422
631.261	0.655968
634.154	0.751938
637.046	0.68042
639.939	0.222855
642.832	0.083328
645.724	0.332664
648.617	0.353737
651.51	0.574539
654.402	1.07706
657.295	0.15625
660.188	0.549667
663.081	0.751106
665.973	0.567764
668.866	0.011879
671.759	0.142807
674.651	0.532959
677.544	0.999947
680.437	1.03641
683.329	1.29785
686.222	1.72307
689.115	2.26347
692.008	3.74093
694.9	4.46371
697.793	5.86558
700.686	8.10065
703.578	8.13538
706.471	7.29552
709.364	7.72514
712.256	7.66692
715.149	6.50455
718.042	4.49737
720.934	3.36786
723.827	3.67414
726.72	3.27625
729.613	3.75966
732.505	2.80244
735.398	2.76281
738.291	2.59011
741.183	2.85439
744.076	1.24192
746.969	1.69381
749.861	0.78212
752.754	0.939224
755.647	0.022186
758.54	0.088081
761.432	0.531105
764.325	0.030457
767.218	0.364494
770.11	1.25102
773.003	2.81838
775.896	1.74161
778.788	2.52181
781.681	3.51448
784.574	4.12595
787.467	4.69202
790.359	5.51827
793.252	5.42112
796.145	4.66747
799.037	3.91554
801.93	1.97456
804.823	0.304008
807.716	0.054665
810.608	0.385689
813.501	0.279274
816.394	1.75175
819.286	2.2801
822.179	2.56135
825.072	2.91213
827.964	3.07858
830.857	4.34938
833.75	3.19874
836.643	4.17642
839.535	3.61854
842.428	3.88039
845.321	4.03885
848.213	4.83266
851.106	3.28539
853.999	4.46767
856.891	3.40447
859.784	4.297
862.677	2.40514
865.569	2.85818
868.462	1.3369
871.355	2.38321
874.248	0.637398
877.14	0.924538
880.033	0.06337
882.926	0.596939
885.818	0.058144
888.711	0.622398
891.604	1.19406
894.496	0.773651
897.389	1.00913
900.282	0.803009
903.175	1.26527
906.067	1.26561
908.96	1.04659
911.853	0.811699
914.745	0.606583
917.638	0.634476
920.531	1.33635
923.423	1.33934
926.316	1.68585
929.209	1.40546
932.102	1.1619
934.994	1.3353
937.887	0.519043
940.78	1.14017
943.672	0.224174
946.565	0.122803
949.458	0.553627
952.351	1.36801
955.243	0.175949
958.136	0.884422
961.029	0.25383
963.921	0.862366
966.814	0.501625
969.707	0.724525
972.599	1.18858
975.492	0.953987
978.385	0.216934
981.278	1.18395
984.17	0.701355
987.063	0.091698
989.956	0.42923
992.848	1.0188
995.741	0.421761
998.634	0.439209
1001.53	0.236893
1004.42	0.433678
1007.31	0.173531
1010.21	1.47002
1013.1	0.070084
1015.99	0.326752
1018.88	0.462425
1021.77	0.805496
1024.67	0.401978
1027.56	0.354645
1030.45	0.19381
1033.35	0.007393
1036.24	0.396149
1039.13	0.389221
1042.02	0.778938
1044.92	0.6856
1047.81	0.643692
1050.7	1.0897
1053.6	0.733887
1056.49	1.05296
1059.38	1.0769
1062.27	1.21458
1065.17	1.07971
1068.06	0.494301
1070.95	1.05085
1073.84	1.11269
1076.74	1.74707
1079.63	2.07414
1082.52	3.50005
1085.41	5.91041
1088.31	4.49528
1091.2	5.60468
1094.09	6.76331
1096.99	8.41865
1099.88	13.4975
1102.77	24.8126
1105.66	48.8638
1108.56	87.5016
1111.45	150.761
1114.34	200.622
1117.23	138.405
1120.13	54.6432
1123.02	23.013
1125.91	12.2686
1128.81	6.7074
1131.7	4.89867
1134.59	3.0688
1137.48	2.56001
1140.38	2.45836
1143.27	1.20473
1146.16	1.0007
1149.05	0.294258
1151.95	0.542488
1154.84	0.004517
1157.73	0.90136
1160.62	0.007065
1163.52	1.38918
1166.41	0.167374
1169.3	0.917755
1172.2	0.20919
1175.09	1.24951
1177.98	0.657898
1180.87	0.482681
1183.77	0.686287
1186.66	0.321594
1189.55	0.448448
1192.44	0.868889
1195.34	0.45652
1198.23	1.8794
1201.12	0.71888
1204.02	0.826813
1206.91	1.13218
1209.8	2.08949
1212.69	1.21271
1215.59	1.172
1218.48	1.66592
1221.37	2.00715
1224.26	1.41888
1227.16	2.64714
1230.05	2.08894
1232.94	1.38542
1235.84	0.004929
1238.73	0.849968
1241.62	0.861633
1244.51	1.86687
1247.41	0.833076
1250.3	0.473976
1253.19	0.579918
1256.08	0.102531
1258.98	1.57081
1261.87	2.0825
1264.76	1.51009
1267.65	1.09388
1270.55	0.966774
1273.44	1.19116
1276.33	0.208107
1279.23	1.3688
1282.12	1.27582
1285.01	1.04892
1287.9	0.065384
1290.8	0.371521
1293.69	1.11175
1296.58	0.725334
1299.47	0.560913
