Measurement: Raman, 780 nm, unoriented, Raman Data Processed
Mineral: Chlorartinite
Rruff sample: R060878
Ideal chemistry: Mg_2_CO_3_Cl(OH)2.5H_2_O
Locality: 500m level, Quarry of Udachnaya-Vostochnaya pipe, Yakutia, Russia
Source: Michael Scott
Description: White fibrous mass, associated with larger crystals of aragonite
Raman shift (cm-1)	intensity
109.038	0
112.413	0.714241
115.787	1.60773
119.162	1.49437
122.537	2.24338
125.912	2.0862
129.287	3.74072
132.662	2.90762
136.036	2.52457
139.411	1.53098
142.786	0.747383
146.161	0.430332
149.536	0.370808
152.911	0.44912
156.285	0.838631
159.66	2.62974
163.035	3.67992
166.41	5.87583
169.785	9.39483
173.159	14.733
176.534	22.6369
179.909	32.6388
183.284	36.3597
186.659	22.5144
190.033	11.7875
193.408	9.5087
196.783	10.108
200.158	11.2507
203.533	13.8438
206.907	14.1214
210.282	13.0447
213.657	11.6001
217.032	8.94046
220.407	7.91917
223.782	5.8678
227.156	2.92854
230.531	2.15837
233.906	1.9407
237.281	2.00178
240.656	2.79466
244.03	4.06773
247.405	6.06962
250.78	5.92822
254.155	3.59789
257.53	0.927305
260.904	0.413723
264.279	0.217356
267.654	0.029528
271.029	0.258076
274.404	0.038662
277.779	0.267229
281.153	0.331861
284.528	0.264313
287.903	0.60401
291.278	0.804832
294.653	0.516235
298.027	0.653739
301.402	0.580973
304.777	0.6346
308.152	1.23066
311.527	1.5213
314.902	1.63417
318.276	1.16582
321.651	0.812899
325.026	0.867647
328.401	0.238194
331.776	0.140708
335.151	0.060693
338.525	0.480401
341.9	0.493194
345.275	0.586032
348.65	0.502667
352.024	0.408362
355.399	0.309333
358.774	0.736226
362.149	0.940586
365.524	1.00889
368.899	0.843313
372.273	0.871574
375.648	1.6892
379.023	1.14978
382.398	1.29674
385.773	2.0236
389.147	2.15773
392.522	2.96145
395.897	2.53103
399.272	2.19631
402.647	1.29192
406.022	0.770012
409.396	0.534888
412.771	0.423671
416.146	0.25523
419.521	0.288614
422.896	0.07402
426.27	0.241842
429.645	0.071449
433.02	0.058811
436.395	0.423697
439.77	0.874759
443.144	0.336115
446.519	0.1847
449.894	0.195984
453.269	0.532866
456.644	0.17919
460.019	0.326962
463.393	0.10846
466.768	0.116588
470.143	0.515324
473.518	0.267742
476.893	0.40555
480.267	0.730918
483.642	0.32895
487.017	0.789946
490.392	0.102539
493.767	0.366851
497.142	0.404592
500.516	0.185212
503.891	0.221275
507.266	0.06662
510.641	0.076517
514.016	0.284638
517.39	0.580094
520.765	0.151554
524.14	0.279293
527.515	0.475831
530.89	0.124759
534.264	0.129581
537.639	0.36599
541.014	0.008148
544.389	0.386091
547.764	0.362142
551.139	0.472439
554.513	0.528298
557.888	0.587584
561.263	0.581893
564.638	0.331116
568.013	0.687606
571.388	0.134932
574.762	0.398925
578.137	0.5676
581.512	0.325194
584.887	1.1335
588.261	1.20222
591.636	1.5056
595.011	1.99506
598.386	2.1468
601.761	2.69606
605.136	1.97986
608.51	1.90851
611.885	1.44832
615.26	1.20957
618.635	0.598657
622.01	0.645459
625.385	0.503911
628.759	0.510028
632.134	0.322222
635.509	0.173694
638.884	0.173142
642.259	0.18132
645.633	0.010318
649.008	0.231965
652.383	0.131178
655.758	0.004607
659.133	0.040894
662.507	0.141808
665.882	0.081391
669.257	0.019499
672.632	0.061626
676.007	0.204762
679.381	0.411777
682.756	0.326377
686.131	0.35077
689.506	0.221561
692.881	0.690249
696.256	0.88234
699.63	1.58282
703.005	1.64133
706.38	1.7449
709.755	2.01617
713.13	2.10664
716.505	1.30763
719.879	1.26217
723.254	0.79813
726.629	0.957614
730.004	0.598102
733.379	0.17608
736.753	0.887096
740.128	0.58805
743.503	0.789318
746.878	0.268381
750.253	0.139952
753.627	0.097647
757.002	0.091335
760.377	0.153262
763.752	0.094975
767.127	0.091271
770.501	0.182745
773.876	0.293974
777.251	0.60269
780.626	0.660849
784.001	0.717439
787.376	1.41252
790.75	1.09642
794.125	0.905295
797.5	1.16551
800.875	0.251906
804.25	0.700581
807.625	0.171986
810.999	0.059789
814.374	0.074818
817.749	0.305372
821.124	0.368986
824.499	0.882146
827.873	0.884403
831.248	0.823112
834.623	1.13813
837.998	1.14348
841.373	0.899444
844.747	0.878493
848.122	1.11384
851.497	1.10399
854.872	0.903662
858.247	1.03483
861.621	0.30123
864.996	0.612874
868.371	0.30351
871.746	0.214869
875.121	0.049984
878.495	0.21281
881.87	0.150605
885.245	0.306372
888.62	0.178252
891.995	0.421519
895.37	0.184985
898.744	0.372128
902.119	0.418569
905.494	0.38019
908.869	0.327538
912.244	0.289729
915.619	0.097825
918.993	0.279054
922.368	0.586059
925.743	0.262736
929.118	0.335628
932.493	0.369547
935.867	0.050312
939.242	0.213967
942.617	0.514511
945.992	0.230436
949.367	0.251901
952.741	0.482795
956.116	0.074678
959.491	0.438106
962.866	0.240015
966.241	0.224331
969.615	0.044754
972.99	0.201864
976.365	0.392142
979.74	0.421654
983.115	0.150274
986.49	0.22636
989.864	0.34448
993.239	0.091529
996.614	0.037857
999.989	0.115043
1003.36	0.282075
1006.74	0.12182
1010.11	0.192364
1013.49	0.125925
1016.86	0.617926
1020.24	0.164575
1023.61	0.275322
1026.99	0.575094
1030.36	0.000383
1033.74	0.270577
1037.11	0.030052
1040.49	0.029213
1043.86	0.200387
1047.24	0.523899
1050.61	0.278225
1053.99	0.190067
1057.36	0.10209
1060.74	0.286005
1064.11	0.025577
1067.48	0.039709
1070.86	0.471003
1074.23	0.394875
1077.61	0.46708
1080.98	0.497103
1084.36	0.874423
1087.73	0.912121
1091.11	0.996174
1094.48	1.28029
1097.86	1.77745
1101.23	2.99375
1104.61	6.21083
1107.98	15.6144
1111.36	35.3286
1114.73	43.944
1118.11	19.3664
1121.48	6.19022
1124.86	2.52573
1128.23	1.63092
1131.61	0.930789
1134.98	0.47611
1138.36	0.453112
1141.73	0.288594
1145.11	0.223543
1148.48	0.294992
1151.86	0.275354
1155.23	0.098674
1158.61	0.017994
1161.98	0.201093
1165.36	0.383982
1168.73	0.398563
1172.1	0.156028
1175.48	0.171402
1178.85	0.00979
1182.23	0.546223
1185.6	0.692511
1188.98	0.027591
1192.35	0.174815
1195.73	0.255803
1199.1	0.6684
1202.48	0.38047
1205.85	0.370863
1209.23	0.496817
1212.6	0.48243
1215.98	0.528421
1219.35	0.529432
1222.73	0.405349
1226.1	0.729338
1229.48	0.332181
1232.85	0.434753
1236.23	0.588332
1239.6	0.193575
1242.97	0.391687
1246.35	0.545992
1249.72	0.110547
1253.1	0.3017
1256.47	0.724456
1259.85	0.460867
1263.22	0.211381
1266.6	0.390252
1269.97	0.26152
1273.35	0.07143
1276.72	0.455309
1280.1	0.381171
1283.47	0.017725
