Measurement: Raman, 532 nm, unoriented, Raman Data Processed
Mineral: Chloritoid
Rruff sample: R060292
Ideal chemistry: Fe^2+^Al_2_OSiO_4_(OH)_2_
Locality: Pech, Kunar Province, Afghanistan
Source: Herb Obodda
Description: Black tabular crystal
Measured chemistry: (Fe^2+^_1.55_Mg_0.43_Mn_0.02_)_Σ=2_(Al_3.93_Fe^3+^_0.07_)_Σ=4_Si_2.00_O_10_(OH)_4_
Raman shift (cm-1)	intensity
126.651	0
130.026	1.16559
133.401	4.32966
136.775	0.361063
140.15	3.85481
143.525	6.15337
146.9	9.66062
150.275	11.5527
153.649	18.6278
157.024	28.747
160.399	28.5272
163.774	29.6417
167.149	35.4828
170.524	36.5975
173.898	32.4362
177.273	27.9229
180.648	28.343
184.023	27.9308
187.398	25.2594
190.773	25.3718
194.147	19.7702
197.522	19.2555
200.897	15.7836
204.272	17.4164
207.647	18.8727
211.021	15.6861
214.396	13.5855
217.771	11.1644
221.146	12.9888
224.521	9.25964
227.895	3.23032
231.27	3.3606
234.645	6.71603
238.02	2.97569
241.395	2.69771
244.769	3.37036
248.144	4.48815
251.519	1.41761
254.894	1.43805
258.269	2.03793
261.644	2.56746
265.018	4.77412
268.393	8.46149
271.768	14.2575
275.143	17.6047
278.518	25.5198
281.892	43.3399
285.267	49.6647
288.642	33.7128
292.017	17.0169
295.392	11.7441
298.767	12.3759
302.141	7.85503
305.516	8.69833
308.891	6.29349
312.266	3.54135
315.641	1.85318
319.015	0.460411
322.39	2.3492
325.765	4.42455
329.14	11.7311
332.515	21.3198
335.89	25.2024
339.264	8.19941
342.639	1.60744
346.014	5.25851
349.389	5.28128
352.764	7.20589
356.139	3.15076
359.513	7.78062
362.888	10.7516
366.263	13.3349
369.638	14.7894
373.012	7.23164
376.387	4.05012
379.762	3.65667
383.137	3.46836
386.512	5.07748
389.887	4.82739
393.261	10.7235
396.636	12.1793
400.011	9.65112
403.386	9.29679
406.761	7.73201
410.135	14.8942
413.51	25.3975
416.885	30.5817
420.26	27.2876
423.635	10.2314
427.01	12.5372
430.384	6.23098
433.759	1.19687
437.134	0.127377
440.509	0.078018
443.884	0.170399
447.259	1.08079
450.633	0.120075
454.008	1.89841
457.383	2.80909
460.758	3.39339
464.133	6.4771
467.507	12.4084
470.882	13.0322
474.257	15.6355
477.632	17.5413
481.007	20.0173
484.382	20.5301
487.756	17.157
491.131	18.7456
494.506	21.687
497.881	31.6093
501.256	35.0828
504.63	25.5542
508.005	13.0016
511.38	7.76672
514.755	3.06618
518.13	0.966026
521.505	0.4916
524.879	4.78405
528.254	12.5949
531.629	17.031
535.004	10.4891
538.379	1.87071
541.753	3.96738
545.128	1.42509
548.503	10.6838
551.878	25.0876
555.253	39.2786
558.628	21.0372
562.002	5.06431
565.377	0.731049
568.752	1.93251
572.127	7.77158
575.502	13.0828
578.876	40.5352
582.251	138.665
585.626	236.929
589.001	350.084
592.376	631.687
595.75	994.599
599.125	922.58
602.5	267.019
605.875	109.677
609.25	63.0526
612.625	37.1621
615.999	23.1562
619.374	15.6181
622.749	7.56993
626.124	4.17228
629.499	3.60245
632.873	1.03915
636.248	2.56164
639.623	0.941666
642.998	0.861343
646.373	0.700535
649.747	1.4921
653.122	0.597626
656.497	1.79368
659.872	1.57497
663.247	3.87339
666.622	1.77992
669.996	1.8504
673.371	0.299225
676.746	3.62629
680.121	2.90902
683.496	0.176571
686.87	1.35731
690.245	0.381401
693.62	4.69209
696.995	0.146999
700.37	3.37678
703.745	2.77362
707.119	2.74987
710.494	2.16345
713.869	4.68887
717.244	8.54785
720.619	12.0183
723.994	15.2903
727.368	22.6581
730.743	33.073
734.118	36.7074
737.493	34.325
740.868	27.2497
744.242	26.0473
747.617	18.0295
750.992	9.41557
754.367	8.9131
757.742	5.96557
761.116	4.31816
764.491	0.512119
767.866	4.27985
771.241	2.03381
774.616	1.30464
777.99	0.604813
781.365	1.07652
784.74	0.694199
788.115	0.677597
791.49	1.61543
794.865	1.44733
798.239	6.8701
801.614	13.5757
804.989	28.3216
808.364	50.1267
811.739	87.5689
815.114	71.503
818.488	22.3845
821.863	7.42999
825.238	7.15726
828.613	6.4188
831.988	13.4939
835.362	22.7319
838.737	27.8609
842.112	35.6512
845.487	34.3801
848.862	30.0015
852.236	23.7039
855.611	20.8208
858.986	20.0178
862.361	21.7108
865.736	26.726
869.111	42.8759
872.485	61.5221
875.86	88.8883
879.235	111.743
882.61	120.261
885.985	104.307
889.36	74.7712
892.734	45.2182
896.109	27.9409
899.484	16.2975
902.859	10.868
906.234	6.9026
909.608	7.27673
912.983	4.03358
916.358	3.85531
919.733	1.96219
923.108	0.301041
926.482	2.11486
929.857	1.34346
933.232	0.722885
936.607	1.75333
939.982	4.34174
943.357	8.61934
946.731	10.1314
950.106	16.7573
953.481	17.5825
956.856	24.2059
960.231	23.7181
963.606	25.2307
966.98	29.1147
970.355	24.9205
973.73	22.4294
977.105	20.0047
980.48	21.477
983.854	22.1084
987.229	21.1653
990.604	21.2508
993.979	16.7367
997.354	14.6077
1000.73	13.5468
1004.1	5.55813
1007.48	4.85534
1010.85	0.527252
1014.23	0.780159
1017.6	0.438656
1020.98	2.17232
1024.35	3.23885
1027.73	1.88253
1031.1	0.817307
1034.48	1.08003
1037.85	1.135
1041.23	0.102631
1044.6	0.043934
1047.98	5.37811
1051.35	6.63838
1054.73	1.91231
1058.1	2.82808
1061.47	2.23384
1064.85	4.35892
1068.22	3.28638
1071.6	2.51845
1074.97	4.60123
1078.35	2.2455
1081.72	3.57959
1085.1	1.23872
1088.47	2.22085
1091.85	5.78657
1095.22	5.24721
1098.6	5.94574
1101.97	4.44757
1105.35	6.22401
1108.72	4.95847
1112.1	3.97356
1115.47	6.71286
1118.85	1.53677
1122.22	9.92346
1125.6	7.20114
1128.97	1.93096
1132.35	2.77557
1135.72	0.709316
1139.1	1.46524
1142.47	0.230148
1145.85	0.635139
1149.22	2.25479
1152.6	2.88907
1155.97	1.77652
1159.35	0.829556
1162.72	1.52322
1166.09	2.41403
1169.47	1.7536
1172.84	6.84395
1176.22	4.79369
1179.59	4.68018
1182.97	4.2465
1186.34	5.67186
1189.72	4.11578
1193.09	1.22081
1196.47	4.98537
1199.84	1.74012
1203.22	1.76823
1206.59	0.961346
1209.97	3.33924
1213.34	1.2678
1216.72	0.538822
1220.09	1.57466
1223.47	0.789299
1226.84	2.60547
1230.22	2.21045
1233.59	2.63776
1236.97	3.62326
1240.34	5.2886
1243.71	2.75705
1247.09	4.14054
1250.46	2.36986
1253.84	4.33437
1257.21	3.69733
1260.59	3.36091
1263.96	0.162106
1267.34	4.4075
1270.71	0.400982
1274.09	3.7751
1277.46	3.09957
1280.84	1.22404
1284.21	0.619881
1287.59	2.72198
1290.96	2.71841
1294.34	1.36474
1297.71	4.35303
1301.09	0.005486
