Measurement: Raman, 785 nm, unoriented, Raman Data Processed
Mineral: Chondrodite
Rruff sample: R040016
Ideal chemistry: Mg_5_(SiO_4_)_2_F_2_
Locality: Vastmanland, Kafveltorp, Sweden
Source: University of Arizona Mineral Museum
Description: Deep red single crystals embedded in matrix
Measured chemistry: (Mg_4.61_Fe_0.31_Mn_0.07_Ca_0.01_)_Σ=5_(Si_1.00_O_4_)_2_(F_1.16_(OH)_0.84_)_Σ=2_
Raman shift (cm-1)	intensity
127.314	0
129.724	38.7452
132.135	81.2191
134.545	70.9238
136.956	7.69101
139.367	17.0166
141.777	43.2733
144.188	130.313
146.598	227.963
149.009	346.353
151.419	409.012
153.83	380.345
156.24	352.067
158.651	292.077
161.062	311.391
163.472	337.405
165.883	402.39
168.293	470.711
170.704	533.04
173.115	626.477
175.525	711.149
177.936	773.458
180.346	659.168
182.757	515.562
185.167	410.243
187.578	343.487
189.989	326.115
192.399	266.503
194.81	224.233
197.22	216.507
199.631	208.273
202.042	196.7
204.452	172.847
206.863	142.669
209.273	127.697
211.684	97.9262
214.095	78.7302
216.505	61.3513
218.916	77.691
221.326	79.6727
223.737	97.3397
226.147	75.0485
228.558	81.0033
230.969	63.582
233.379	34.4121
235.79	3.47412
238.2	18.7939
240.611	5.26233
243.022	19.226
245.432	21.3163
247.843	41.9946
250.253	44.6591
252.664	61.221
255.074	89.0044
257.485	87.0002
259.896	164.848
262.306	165.857
264.717	169.831
267.127	179.966
269.538	248.333
271.949	384.43
274.359	461.314
276.77	415.332
279.18	282.884
281.591	161.09
284.001	112.018
286.412	61.5129
288.823	61.283
291.233	88.7954
293.644	116.224
296.054	83.4086
298.465	14.2377
300.875	12.4324
303.286	24.0452
305.697	7.68726
308.107	8.30798
310.518	25.4967
312.928	21.1693
315.339	28.7562
317.75	27.9265
320.16	18.8601
322.571	31.6062
324.981	60.625
327.392	63.4794
329.803	41.8993
332.213	36.9835
334.624	14.0658
337.034	4.93164
339.445	12.0547
341.855	12.1204
344.266	2.3396
346.677	28.5345
349.087	36.1797
351.498	61.2621
353.908	90.964
356.319	131.314
358.729	130.09
361.14	126.355
363.551	135.38
365.961	99.5126
368.372	65.7914
370.782	62.4125
373.193	62.3125
375.604	105.873
378.014	157.172
380.425	255.051
382.835	304.277
385.246	273.659
387.656	170.658
390.067	113.372
392.478	54.3438
394.888	56.8341
397.299	0.501221
399.709	29.8969
402.12	60.1045
404.531	159.442
406.941	165.021
409.352	186.768
411.762	153.684
414.173	145.057
416.584	104.724
418.994	69.7233
421.405	56.2474
423.815	66.4336
426.226	55.7877
428.636	80.8778
431.047	99.5588
433.458	136.54
435.868	106.094
438.279	106.04
440.689	66.0859
443.1	79.6822
445.51	51.6832
447.921	62.2783
450.332	79.2861
452.742	85.4871
455.153	115.083
457.563	108.411
459.974	170.859
462.385	221.066
464.795	283.33
467.206	333.89
469.616	352.018
472.027	302.927
474.438	258.308
476.848	198.601
479.259	130.722
481.669	86.3608
484.08	65.7339
486.49	62.4757
488.901	40.4656
491.312	50.288
493.722	35.7415
496.133	23.1355
498.543	14.2393
500.954	7.88098
503.365	12.981
505.775	14.3206
508.186	21.3326
510.596	1.97009
513.007	14.6169
515.417	5.26392
517.828	14.0721
520.239	29.6726
522.649	7.23712
525.06	33.5638
527.47	42.95
529.881	50.4252
532.292	75.4747
534.702	137.48
537.113	221.475
539.523	336.444
541.934	488.109
544.344	633.773
546.755	726.279
549.166	624.588
551.576	464.069
553.987	344.214
556.397	254.508
558.808	248.109
561.218	283.974
563.629	322.024
566.04	397.633
568.45	423.232
570.861	553.035
573.271	674.121
575.682	840.635
578.093	949.053
580.503	893.044
582.914	749.354
585.324	562.888
587.735	411.13
590.145	317.874
592.556	313.36
594.967	404.314
597.377	465.051
599.788	593.456
602.198	741.202
604.609	832.58
607.02	859.955
609.43	718.895
611.841	585.22
614.251	450.804
616.662	339.335
619.072	252.57
621.483	181.415
623.894	143.341
626.304	124.336
628.715	94.8614
631.125	79.8988
633.536	55.9695
635.947	38.4213
638.357	23.3898
640.768	8.0791
643.178	6.09906
645.589	2.59912
648	4.76856
650.41	3.39581
652.821	7.39661
655.231	20.1315
657.642	9.65881
660.052	1.63452
662.463	5.44611
664.874	0.268921
667.284	18.3527
669.695	8.61707
672.105	7.1543
674.516	14.2942
676.927	39.1409
679.337	26.7553
681.748	1.96381
684.158	22.4833
686.569	50.8508
688.979	29.5965
691.39	22.6845
693.801	8.93518
696.211	26.3738
698.622	37.0817
701.032	12.327
703.443	20.8225
705.854	9.2356
708.264	9.97095
710.675	8.50446
713.085	16.908
715.496	9.92017
717.906	8.90881
720.317	10.1807
722.728	2.7912
725.138	4.91516
727.549	3.46307
729.959	2.17291
732.37	9.3421
734.78	4.23413
737.191	1.92456
739.602	4.62061
742.012	27.5054
744.423	30.266
746.833	50.1722
749.244	60.7195
751.655	46.0762
754.065	59.5038
756.476	81.9363
758.886	82.2072
761.297	84.4678
763.707	56.6602
766.118	36.282
768.529	6.97235
770.939	4.26917
773.35	18.2669
775.76	5.63831
778.171	2.51086
780.582	1.07129
782.992	10.6751
785.403	22.6586
787.813	23.8824
790.224	1.39978
792.635	0.999146
795.045	16.5872
797.456	32.6859
799.866	36.0594
802.277	54.3855
804.687	118.982
807.098	164.014
809.509	217.237
811.919	274.67
814.33	356.175
816.74	469.15
819.151	619.799
821.562	786.077
823.972	1095.77
826.383	1480.5
828.793	2049.69
831.204	2954.56
833.614	4378.64
836.025	6647.77
838.436	10015.7
840.846	14355.7
843.257	18355.8
845.667	18611.7
848.078	14700.2
850.489	10101.1
852.899	6920.73
855.31	4926.72
857.72	3792.06
860.131	3297.94
862.541	3202.68
864.952	3358.31
867.362	3569.54
869.773	3420.88
872.184	2770.98
874.594	2006.92
877.005	1370.41
879.415	910.462
881.826	628.796
884.237	420.693
886.647	255.609
889.058	197.142
891.468	98.1653
893.879	65.3816
896.29	10.9809
898.7	8.828
901.111	6.95331
903.521	12.98
905.932	22.1299
908.342	28.9277
910.753	5.56244
913.164	8.75098
915.574	37.4021
917.985	87.757
920.395	168.193
922.806	313.393
925.217	586.105
927.627	930.739
930.038	1314.91
932.448	1414.09
934.859	1363.7
937.269	1561.91
939.68	1757.35
942.091	1477.03
944.501	935.589
946.912	568.621
949.322	396.133
951.733	290.436
954.144	266.945
956.554	223.148
958.965	282.087
961.375	341.56
963.786	483.356
966.197	634.942
968.607	601.664
971.018	437.639
973.428	280.437
975.839	160.805
978.249	137.263
980.66	110.334
983.071	34.8174
985.481	27.2264
987.892	13.9461
990.302	19.6632
992.713	1.55402
995.124	16.1504
997.534	12.7222
999.945	19.4683
1002.36	32.788
1004.77	16.4568
1007.18	43.5713
1009.59	21.7207
1012	52.7603
1014.41	36.3513
1016.82	36.5826
1019.23	29.0929
1021.64	17.4753
1024.05	13.9255
1026.46	9.44293
1028.87	20.821
1031.28	30.4086
1033.69	21.9388
1036.1	32.6796
1038.51	7.64343
1040.92	0.073181
