Measurement: Raman, 780 nm, unoriented, Raman Data Processed
Mineral: Chondrodite
Rruff sample: R110158
Ideal chemistry: Mg_5_(SiO_4_)_2_F_2_
Locality: Pein Pyit, Mogok, Mandalay Division, Burma
Source: Marcus Origlieri
Description: Orange bleb enclosed in calcite, associated with red spinel
Raman shift (cm-1)	intensity
214.543	0
217.436	17.0806
220.329	0.460693
223.221	14.8972
226.114	37.6982
229.007	19.6699
231.899	21.9805
234.792	35.7996
237.685	26.7473
240.578	7.08789
243.47	2.80957
246.363	20.9404
249.256	33.397
252.148	26.6975
255.041	16.1116
257.934	17.458
260.827	35.4995
263.719	35.6206
266.612	25.8596
269.505	40.4275
272.397	65.2136
275.29	108.488
278.183	150.853
281.075	87.5535
283.968	48.8962
286.861	24.4854
289.753	39.2275
292.646	28.7996
295.539	22.0989
298.432	31.7344
301.324	17.6538
304.217	18.8101
307.11	33.9817
310.002	22.6365
312.895	6.07373
315.788	23.2986
318.68	5.08838
321.573	7.85132
324.466	25.51
327.359	18.2583
330.251	21.093
333.144	28.9814
336.037	50.3301
338.929	62.0684
341.822	40.0415
344.715	26.8518
347.608	5.18091
350.5	9.54297
353.393	7.07129
356.286	3.13135
359.178	2.35254
362.071	20.9744
364.964	6.87402
367.856	26.2671
370.749	57.5842
373.642	37.8137
376.534	24.6753
379.427	45.822
382.32	126.418
385.213	270.022
388.105	375.909
390.998	238.574
393.891	180.985
396.783	124.659
399.676	82.2952
402.569	80.405
405.462	78.3989
408.354	103.047
411.247	108.233
414.14	103.736
417.032	98.0173
419.925	78.1902
422.818	52.2
425.71	25.2742
428.603	11.4048
431.496	13.8943
434.389	20.8579
437.281	27.6135
440.174	24.9631
443.067	20.7971
445.959	8.62305
448.852	7.39673
451.745	13.4597
454.637	3.4353
457.53	2.09961
460.423	7.63599
463.315	9.6919
466.208	5.80371
469.101	18.9006
471.994	31.9033
474.886	40.322
477.779	18.0659
480.672	20.7725
483.564	28.4856
486.457	16.1948
489.35	24.2927
492.243	15.0815
495.135	35.0342
498.028	17.1655
500.921	4.70923
503.813	23.6753
506.706	21.1997
509.599	31.2566
512.491	4.71387
515.384	7.62646
518.277	1.37939
521.169	1.47363
524.062	1.21777
526.955	12.6194
529.848	5.21289
532.74	0.729248
535.633	20.2451
538.526	20.2922
541.418	17.1873
544.311	44.9888
547.204	49.8621
550.096	59.394
552.989	30.072
555.882	25.0764
558.775	2.604
561.667	13.9387
564.56	14.7248
567.453	21.5962
570.345	48.1846
573.238	55.9875
576.131	92.1216
579.024	130.842
581.916	182.995
584.809	177.325
587.702	117.717
590.594	73.7393
593.487	66.6384
596.38	87.355
599.272	67.1345
602.165	117.166
605.058	122.395
607.951	150.657
610.843	129.368
613.736	79.7412
616.629	45.5947
619.521	31.2021
622.414	36.1694
625.307	30.0903
628.199	31.739
631.092	23.3301
633.985	31.8677
636.878	27.4412
639.77	21.4023
642.663	27.0857
645.556	13.4665
648.448	19.324
651.341	12.5393
654.234	6.94189
657.126	8.80542
660.019	10.1565
662.912	11.79
665.804	16.2012
668.697	19.8528
671.59	3.17139
674.483	9.62769
677.375	12.4673
680.268	21.679
683.161	20.8064
686.053	18.0647
688.946	15.8286
691.839	25.8806
694.731	2.27539
697.624	2.44531
700.517	17.8733
703.41	7.50879
706.302	1.30469
709.195	3.58496
712.088	5.71289
714.98	2.45898
717.873	3.40845
720.766	5.17139
723.659	1.28052
726.551	4.64478
729.444	1.30908
732.337	26.9121
735.229	25.7629
738.122	41.1733
741.015	75.4692
743.907	80.8989
746.8	100.394
749.693	102.992
752.586	53.1521
755.478	38.2544
758.371	30.2341
761.264	23.2009
764.156	2.04272
767.049	26.3826
769.942	9.05054
772.834	2.50024
775.727	12.3457
778.62	57.3335
781.513	157.588
784.405	256.99
787.298	311.37
790.191	206.24
793.083	124.642
795.976	52.4233
798.869	7.44458
801.761	32.9727
804.654	100.844
807.547	173.55
810.439	224.448
813.332	181.689
816.225	152.272
819.118	152.217
822.01	167.846
824.903	167.473
827.796	233.968
830.688	360.667
833.581	562.052
836.474	831.653
839.366	1317.3
842.259	2192.37
845.152	3559.84
848.045	3815.21
850.937	2415.53
853.83	1369.48
856.723	865.709
859.615	615.012
862.508	552.703
865.401	604.161
868.293	724.843
871.186	650.957
874.079	445.835
876.972	271.127
879.864	173.544
882.757	124.248
885.65	76.6411
888.542	43.5085
891.435	21.5388
894.328	15.9558
897.221	4.13086
900.113	2.52954
903.006	6.89209
905.899	1.62451
908.791	5.00146
911.684	4.17041
914.577	2.36279
917.469	0.841064
920.362	8.83691
923.255	3.17896
926.148	15.1362
929.04	39.1728
931.933	94.6709
934.826	128.614
937.718	191.078
940.611	337.495
943.504	289.654
946.396	146.618
949.289	82.1892
952.182	49.9434
955.074	55.0592
957.967	46.1375
960.86	69.449
963.753	107.133
966.645	226.863
969.538	416.21
972.431	386.438
975.323	179.942
978.216	77.2866
981.109	51.259
984.001	28.0878
986.894	8.64062
989.787	12.6322
992.68	3.28491
995.572	4.75391
998.465	25.5584
1001.36	12.1675
1004.25	0.53418
1007.14	8.39368
1010.04	8.36096
1012.93	12.0832
1015.82	20.9309
1018.71	6.77539
1021.61	15.6959
1024.5	5.74878
1027.39	5.22559
1030.29	3.86731
1033.18	16.6683
1036.07	19.361
1038.96	30.8656
1041.86	24.6007
1044.75	23.213
1047.64	8.70801
1050.53	1.90186
1053.43	10.8385
1056.32	7.02075
1059.21	11.7456
1062.1	28.9514
1065	30.0917
1067.89	35.519
1070.78	26.2076
1073.67	7.58032
1076.57	15.2219
1079.46	11.4884
1082.35	21.1799
1085.25	38.3579
1088.14	38.2844
1091.03	22.6991
1093.92	37.3971
1096.82	7.05884
1099.71	4.47559
1102.6	4.29614
1105.49	10.8743
1108.39	25.6682
1111.28	22.858
1114.17	3.37878
1117.07	5.91894
1119.96	6.52576
1122.85	8.48413
1125.74	9.24268
1128.64	12.5416
1131.53	7.28332
1134.42	5.05054
1137.32	26.2555
1140.21	20.0254
1143.1	13.631
1145.99	26.7336
1148.88	19.1822
1151.78	19.2675
1154.67	36.1917
1157.56	11.9302
1160.46	11.7393
1163.35	13.373
1166.24	11.22
1169.13	20.3529
1172.03	19.3294
1174.92	11.3678
1177.81	14.5242
1180.7	20.5518
1183.6	3.06677
1186.49	11.9009
1189.38	14.0536
1192.28	21.6799
1195.17	24.406
1198.06	28.6156
1200.95	12.7546
1203.85	5.17725
1206.74	6.80884
1209.63	7.44617
1212.53	10.9563
1215.42	14.8186
1218.31	20.245
1221.2	10.4243
1224.1	34.3861
1226.99	24.9551
1229.88	11.4296
1232.77	2.00244
1235.67	5.82104
1238.56	5.35034
1241.45	7.3905
1244.34	0.552979
1247.24	12.913
1250.13	1.04089
1253.02	2.40784
1255.91	4.79114
1258.81	5.65222
1261.7	55.225
1264.59	21.8428
1267.49	16.4936
1270.38	3.18262
1273.27	12.2389
1276.16	0.906982
1279.06	11.3105
1281.95	0.755127
1284.84	7.5116
