Measurement: Raman, 532 nm, unoriented, Raman Data Processed
Mineral: Chondrodite
Rruff sample: R110158
Ideal chemistry: Mg_5_(SiO_4_)_2_F_2_
Locality: Pein Pyit, Mogok, Mandalay Division, Burma
Source: Marcus Origlieri
Description: Orange bleb enclosed in calcite, associated with red spinel
Raman shift (cm-1)	intensity
220.664	0
223.556	185.594
226.449	76.8086
229.342	155.785
232.234	70.7578
235.127	274.211
238.02	180.25
240.913	46.1445
243.805	74.457
246.698	32.6602
249.591	224.731
252.483	356.961
255.376	383.391
258.269	433.664
261.161	373.262
264.054	363.93
266.947	390.606
269.84	490.039
272.732	857.652
275.625	1169.48
278.518	1110.68
281.41	844.199
284.303	273.992
287.196	5.25781
290.089	85.5312
292.981	286.789
295.874	276.008
298.767	411.305
301.659	373.539
304.552	496.492
307.445	451.375
310.337	489.781
313.23	523.758
316.123	595.258
319.015	529.75
321.908	394.727
324.801	319.602
327.694	281.484
330.586	269.117
333.479	270.086
336.372	541.273
339.264	486.992
342.157	268.031
345.05	82.8594
347.942	32.5469
350.835	122.359
353.728	222.883
356.621	452.125
359.513	430.898
362.406	485.531
365.299	405.938
368.191	490.273
371.084	480.031
373.977	471.914
376.87	390.898
379.762	585.781
382.655	959.656
385.548	1507.62
388.44	1459.7
391.333	853.594
394.226	478.062
397.118	330.344
400.011	362.992
402.904	381.609
405.796	462.375
408.689	579.367
411.582	680.016
414.475	754.695
417.367	507.117
420.26	100.148
423.153	23.1953
426.045	38.375
428.938	164.266
431.831	89.0078
434.724	129.93
437.616	113.18
440.509	121.75
443.402	189.695
446.294	196.164
449.187	180.758
452.08	93.875
454.972	45.9609
457.865	36.8359
460.758	156.727
463.651	40.875
466.543	34.1719
469.436	41.6484
472.329	7.33594
475.221	16.7812
478.114	26.1953
481.007	71.1562
483.899	91.75
486.792	104.047
489.685	155.906
492.577	228.445
495.47	370.82
498.363	312.102
501.256	296.234
504.148	176.734
507.041	188.305
509.934	180.898
512.826	211.023
515.719	112.469
518.612	2.11719
521.505	11.8828
524.397	345.633
527.29	525.148
530.183	464.133
533.075	515.758
535.968	512.789
538.861	704.656
541.753	938.359
544.646	1303.32
547.539	1587.08
550.432	1521.96
553.324	954.328
556.217	545.211
559.11	366.32
562.002	442.922
564.895	362.461
567.788	478.352
570.68	476.422
573.573	584.32
576.466	902.609
579.359	1234.88
582.251	1403.02
585.144	990.188
588.037	986.789
590.929	805.211
593.822	843.742
596.715	648.602
599.607	753.586
602.5	694.086
605.393	719.5
608.285	799.617
611.178	712.617
614.071	448.617
616.964	308.523
619.856	319.688
622.749	78.8594
625.642	38.0625
628.534	58.0078
631.427	10.8906
634.32	134.523
637.212	137.711
640.105	46.0703
642.998	25.8203
645.891	52.9922
648.783	100.07
651.676	18.0312
654.569	257.578
657.461	187.867
660.354	247.641
663.247	295.031
666.139	178.18
669.032	236.875
671.925	193.711
674.818	280.562
677.71	262.188
680.603	446.812
683.496	552.883
686.388	474.305
689.281	571.445
692.174	465.492
695.067	428.672
697.959	522.164
700.852	321.367
703.745	16.7188
706.637	77.3359
709.53	251.992
712.423	243.703
715.315	36.1641
718.208	156.75
721.101	140.195
723.994	58.3906
726.886	312.766
729.779	595.602
732.672	649.859
735.564	839.297
738.457	980.023
741.35	1049.13
744.242	1112.16
747.135	1025.98
750.028	1106.56
752.92	1353.68
755.813	1469.18
758.706	1195.19
761.599	816.586
764.491	670.445
767.384	503.898
770.277	348.508
773.169	443.438
776.062	542.234
778.955	907.375
781.847	1439.89
784.74	1829.11
787.633	1565.24
790.526	833.508
793.418	387.773
796.311	8.46094
799.204	83.6797
802.096	67.9453
804.989	306
807.882	901.414
810.774	907.5
813.667	707.211
816.56	640.758
819.453	650.297
822.345	927.242
825.238	917.188
828.131	1389.16
831.023	2647.48
833.916	3984.09
836.809	6273.34
839.702	9573.06
842.594	14434.1
845.487	19050.5
848.38	16385.9
851.272	9585.91
854.165	5681.19
857.058	4028.73
859.95	3487.85
862.843	3716.54
865.736	4545.06
868.629	4847.48
871.521	4091.48
874.414	2707.46
877.307	1558.59
880.199	748.242
883.092	441.094
885.985	340.008
888.877	338.281
891.77	135.359
894.663	12.5703
897.556	133.25
900.448	163.742
903.341	21.4766
906.234	78.0703
909.126	226.906
912.019	93.6641
914.912	202.898
917.804	244.633
920.697	241.867
923.59	174.758
926.482	357.188
929.375	705.633
932.268	879.047
935.161	1022.3
938.053	1503.98
940.946	1952.5
943.839	1234.26
946.731	502.609
949.624	81.9453
952.517	100.391
955.409	2.70312
958.302	130.703
961.195	302.438
964.088	832.617
966.98	1657.83
969.873	2458.43
972.766	1689.22
975.658	734.148
978.551	548.586
981.444	347.898
984.337	162.242
987.229	193.328
990.122	263.5
993.015	293.781
995.907	123.828
998.8	38.5391
1001.69	110.273
1004.59	46.7109
1007.48	177.047
1010.37	264.242
1013.26	63.7109
1016.16	33.2344
1019.05	119.773
1021.94	433.641
1024.83	253
1027.73	233.578
1030.62	213.672
1033.51	298.664
1036.4	462.141
1039.3	250.844
1042.19	221.844
1045.08	222.125
1047.98	160.836
1050.87	337.141
1053.76	442.281
1056.65	392.305
1059.55	443.797
1062.44	416.938
1065.33	250.844
1068.22	159.234
1071.12	313.234
1074.01	6.35938
1076.9	67.0938
1079.8	1.86719
1082.69	115.727
1085.58	148.164
1088.47	26.2578
1091.37	68.8125
1094.26	216.781
1097.15	297.117
1100.04	368.391
1102.94	254.984
1105.83	184.625
1108.72	114.188
1111.62	391.586
1114.51	419.031
1117.4	299.602
1120.29	250.156
1123.19	377.75
1126.08	147.352
1128.97	68.9844
1131.86	87.3672
1134.76	51.8047
1137.65	187.516
1140.54	205.211
1143.43	265.109
1146.33	244.789
1149.22	278.281
1152.11	206.398
1155.01	238.844
1157.9	52.5469
1160.79	113.656
1163.68	178.609
1166.58	178.359
1169.47	66.0938
1172.36	211.719
1175.26	337.352
1178.15	116.227
1181.04	274.109
1183.93	223.82
1186.83	445.016
1189.72	298.422
1192.61	437.805
1195.5	243.148
1198.4	399.398
1201.29	436.773
1204.18	289.812
1207.07	582.172
1209.97	702.062
1212.86	564.859
1215.75	431.586
1218.64	78.2031
1221.54	159.852
1224.43	351.531
1227.32	307.516
1230.22	193.719
1233.11	117.039
1236	153.914
1238.89	46.5234
1241.79	153.156
1244.68	298.141
1247.57	97.5156
1250.46	123.594
1253.36	126.984
1256.25	164.164
1259.14	311.953
1262.04	308.148
1264.93	354.773
1267.82	189.961
1270.71	112.336
1273.61	111.711
1276.5	249.742
1279.39	139.594
1282.29	86.1016
1285.18	6.57031
1288.07	215.062
1290.96	298.523
1293.86	88.6094
1296.75	136.992
1299.64	344.445
1302.53	54.9453
