Measurement: Raman, 532 nm, unoriented, Raman Data Processed
Mineral: Chondrodite
Rruff sample: R040016
Ideal chemistry: Mg_5_(SiO_4_)_2_F_2_
Locality: Vastmanland, Kafveltorp, Sweden
Source: University of Arizona Mineral Museum
Description: Deep red single crystals embedded in matrix
Measured chemistry: (Mg_4.61_Fe_0.31_Mn_0.07_Ca_0.01_)_Σ=5_(Si_1.00_O_4_)_2_(F_1.16_(OH)_0.84_)_Σ=2_
Raman shift (cm-1)	intensity
157.199	0
159.61	4.04211
162.02	8.92529
164.431	22.4535
166.841	3.96155
169.252	42.9268
171.662	62.2406
174.073	101.553
176.484	131.551
178.894	132.001
181.305	132.087
183.715	71.9681
186.126	78.951
188.537	77.1042
190.947	87.0715
193.358	52.7529
195.768	58.9574
198.179	72.9955
200.589	49.7134
203	70.4408
205.411	63.9832
207.821	36.0006
210.232	32.0922
212.642	20.0481
215.053	4.91907
217.464	20.2816
219.874	30.781
222.285	22.3326
224.695	28.4425
227.106	45.4427
229.517	58.9613
231.927	50.0317
234.338	26.3546
236.748	10.1145
239.159	6.65637
241.569	23.2733
243.98	17.467
246.391	13.7064
248.801	12.8166
251.212	13.309
253.622	30.7385
256.033	59.6903
258.443	84.1538
260.854	102.246
263.265	135.063
265.675	158.287
268.086	215.05
270.496	263.681
272.907	336.269
275.317	348
277.728	298.389
280.139	204.639
282.549	128.886
284.96	58.9893
287.37	31.2375
289.781	50.8555
292.192	56.8083
294.602	56.3923
297.013	38.4886
299.423	34.4581
301.834	38.1461
304.245	67.3314
306.655	113.831
309.066	126.694
311.476	172.283
313.887	172.762
316.297	142.63
318.708	134.224
321.119	107.442
323.529	101.2
325.94	104.18
328.35	81.0675
330.761	99.496
333.171	53.6036
335.582	77.2827
337.993	35.6534
340.403	13.3889
342.814	3.26184
345.224	8.78955
347.635	14.4489
350.046	31.1682
352.456	22.4668
354.867	57.7835
357.277	83.8225
359.688	51.0033
362.099	104.274
364.509	104.352
366.92	106.056
369.33	131.272
371.741	148.132
374.151	214.403
376.562	312.931
378.973	465.388
381.383	586.332
383.794	674.635
386.204	643.088
388.615	455.267
391.026	279.033
393.436	172.964
395.847	113.62
398.257	132.407
400.668	118.136
403.078	143.008
405.489	172.871
407.899	194.947
410.31	205.201
412.721	247.977
415.131	206.044
417.542	160.137
419.952	70.9134
422.363	32.8629
424.774	71.3472
427.184	77.0509
429.595	79.4554
432.005	98.338
434.416	123.363
436.827	133.138
439.237	91.6585
441.648	84.2571
444.058	50.7175
446.469	12.2858
448.879	25.0787
451.29	15.6135
453.701	9.39758
456.111	3.65356
458.522	8.9281
460.932	6.06763
463.343	45.567
465.753	52.3035
468.164	76.9218
470.575	96.9556
472.985	51.9329
475.396	40.2122
477.806	7.33142
480.217	9.56006
482.627	0.858276
485.038	32.1338
487.449	11.704
489.859	7.67847
492.27	8.89319
494.68	6.71191
497.091	14.5344
499.502	7.83472
501.912	9.31079
504.323	31.9781
506.733	6.35669
509.144	17.2744
511.555	9.2915
513.965	0.585205
516.376	5.79297
518.786	1.23901
521.197	56.8577
523.607	82.1477
526.018	130.453
528.429	194.822
530.839	211.332
533.25	312.215
535.66	403.147
538.071	515.836
540.481	657.998
542.892	841.761
545.303	1042
547.713	1071.6
550.124	832.25
552.534	531.38
554.945	348.792
557.356	269.841
559.766	244.568
562.177	275.348
564.587	329.93
566.998	420.412
569.409	466.212
571.819	564.351
574.23	626.957
576.64	765.401
579.051	825.98
581.461	765.779
583.872	586.072
586.283	423.487
588.693	288.153
591.104	228.569
593.514	252.299
595.925	299.41
598.335	391.775
600.746	484.732
603.157	493.995
605.567	573.574
607.978	518.905
610.388	481.326
612.799	384.56
615.21	311.345
617.62	276.675
620.031	232.343
622.441	233.21
624.852	193.442
627.263	195.805
629.673	156.963
632.084	183.651
634.494	152.65
636.905	158.577
639.315	98.8992
641.726	61.7974
644.136	94.7024
646.547	50.312
648.958	37.1855
651.368	33.2439
653.779	61.1965
656.189	35.6704
658.6	25.4038
661.011	34.3501
663.421	21.2676
665.832	1.00488
668.242	8.2373
670.653	0.994385
673.063	7.56421
675.474	7.23242
677.885	15.8752
680.295	3.35303
682.706	30.1494
685.116	27.1238
687.527	3.99731
689.938	31.4524
692.348	4.37207
694.759	25.9219
697.169	6.49658
699.58	7.69995
701.99	20.6035
704.401	19.7207
706.812	13.249
709.222	3.31982
711.633	14.7339
714.043	2.56616
716.454	14.2398
718.865	20.7988
721.275	43.3101
723.686	38.1699
726.096	59.0039
728.507	73.2434
730.917	142.76
733.328	121.638
735.739	154.233
738.149	183.252
740.56	221.79
742.97	235.3
745.381	349.656
747.792	456.167
750.202	492.756
752.613	478.778
755.023	617.981
757.434	606.747
759.844	545.366
762.255	460.554
764.666	369.334
767.076	276.827
769.487	130.624
771.897	79.7625
774.308	24.6777
776.718	12.6948
779.129	13.9556
781.54	30.5576
783.95	57.6184
786.361	36.1001
788.771	31.4885
791.182	53.813
793.593	20.6931
796.003	25.8721
798.414	6.58569
800.824	0.141602
803.235	16.2541
805.645	30.8418
808.056	98.1719
810.467	201.243
812.877	280.188
815.288	460.594
817.698	620.319
820.109	877
822.519	1155.43
824.93	1690.22
827.341	2308.4
829.751	3260.53
832.162	4744.41
834.572	6931.66
836.983	10055.3
839.394	14316.8
841.804	18967.6
844.215	22257.2
846.625	20571.9
849.036	14886
851.447	9979.4
853.857	6885.85
856.268	4939.05
858.678	3896.89
861.089	3297.44
863.5	3057.59
865.91	3006.69
868.321	2970.03
870.731	2634.74
873.142	2058.01
875.552	1468.55
877.963	964.955
880.374	681.719
882.784	497.035
885.195	326.017
887.605	208.347
890.016	157.429
892.426	98.708
894.837	54.5115
897.248	65.3308
899.658	20.4231
902.069	2.02734
904.479	30.6567
906.89	25.2139
909.301	20.9766
911.711	32.0593
914.122	45.9126
916.532	36.9763
918.943	88.9551
921.353	193.293
923.764	322.671
926.175	561.726
928.585	836.783
930.996	1113.38
933.406	1279.6
935.817	1460.41
938.227	1923.66
940.638	2081.28
943.049	1478.45
945.459	861.86
947.87	505.33
950.28	383.658
952.691	370.938
955.102	356.237
957.512	499.338
959.923	693.56
962.333	972.36
964.744	1368.15
967.154	1693.08
969.565	1614.91
971.976	1083.38
974.386	674.623
976.797	440.35
979.207	276.881
981.618	142.492
984.029	83.3203
986.439	39.2827
988.85	26.4541
991.26	74.5647
993.671	15.2424
996.081	45.9714
998.492	1.79883
1000.9	23.4714
1003.31	28.1155
1005.72	34.1233
1008.13	43.6526
1010.54	25.3914
1012.96	44.7107
1015.37	28.8396
1017.78	8.6687
1020.19	27.7114
1022.6	79.7317
1025.01	74.9482
1027.42	11.1572
1029.83	19.6755
1032.24	47.0435
1034.65	46.6235
1037.06	22.7239
1039.47	27.2004
1041.88	40.1411
1044.29	36.7144
1046.7	0
