Measurement: Raman, 514 nm, unoriented, Raman Data Processed
Mineral: Chondrodite
Rruff sample: R040016
Ideal chemistry: Mg_5_(SiO_4_)_2_F_2_
Locality: Vastmanland, Kafveltorp, Sweden
Source: University of Arizona Mineral Museum
Description: Deep red single crystals embedded in matrix
Measured chemistry: (Mg_4.61_Fe_0.31_Mn_0.07_Ca_0.01_)_Σ=5_(Si_1.00_O_4_)_2_(F_1.16_(OH)_0.84_)_Σ=2_
Raman shift (cm-1)	intensity
89.193	0
93.375	15.819
97.554	64.388
101.732	78.586
105.908	117.254
110.082	193.067
114.254	156.131
118.424	364.63
122.592	313.51
126.758	291.994
130.922	358.358
135.083	634.281
139.243	959.271
143.401	921.282
147.557	554.725
151.711	353.869
155.863	268.578
160.013	250.894
164.161	276.001
168.308	314.417
172.452	368.45
176.594	480.861
180.734	451.367
184.872	343.085
189.008	250.066
193.143	308.327
197.275	336.794
201.405	344.305
205.534	260.979
209.66	238.955
213.784	123.338
217.907	60.281
222.027	6.653
226.146	70.391
230.263	9.038
234.377	9.635
238.49	16.88
242.601	84.454
246.709	37.357
250.816	53.227
254.921	68.823
259.024	106.469
263.125	153.571
267.224	295.597
271.321	234.289
275.416	384.498
279.51	302.125
283.601	50.098
287.69	23.365
291.778	2.886
295.863	148.623
299.947	25.534
304.029	12.6
308.108	19.188
312.186	25.998
316.262	72.503
320.336	118.001
324.408	114.601
328.478	113.517
332.546	80
336.612	148.278
340.677	130.316
344.739	129.785
348.799	83.488
352.858	143.008
356.915	157.026
360.969	103.701
365.022	25.48
369.073	117.944
373.122	74.899
377.169	229.573
381.215	156.517
385.258	157.509
389.299	227.589
393.339	56.787
397.376	118.904
401.412	276.054
405.446	392.685
409.478	333.922
413.508	355.334
417.536	326.53
421.562	261.762
425.586	255.015
429.609	337.27
433.629	293.515
437.648	342.739
441.665	207.935
445.68	131.603
449.693	220.209
453.704	113.275
457.713	141.285
461.721	169.587
465.726	323.279
469.73	266.617
473.731	194.763
477.731	124.43
481.729	168.85
485.725	9.587
489.72	85.975
493.712	36.651
497.703	57.916
501.691	80.104
505.678	67.45
509.663	125.285
513.646	78.534
517.627	42.165
521.607	12.426
525.584	14.765
529.56	123.321
533.534	19.506
537.506	228.23
541.476	248.134
545.444	273.026
549.41	274.582
553.375	338.096
557.337	326.28
561.298	406.347
565.257	579.242
569.214	591.982
573.17	895.268
577.123	986.714
581.075	968.925
585.024	924.953
588.972	987.797
592.918	1171.46
596.863	1671.93
600.805	2444.22
604.746	2698.32
608.685	2290.23
612.621	1589.96
616.557	969.496
620.49	754.867
624.421	625.062
628.351	236.082
632.279	324.977
636.205	244.7
640.129	149.24
644.051	208.134
647.972	237.546
651.89	13.745
655.807	118.222
659.722	51.312
663.636	63.638
667.547	110.49
671.457	33.808
675.365	8.312
679.271	45.386
683.175	113.708
687.077	28.954
690.978	48.451
694.877	38.854
698.774	15.95
702.669	22.726
706.562	35.127
710.454	94.321
714.344	141.887
718.232	140.724
722.118	111.965
726.002	135.847
729.885	77.611
733.766	158.282
737.645	146.868
741.522	353.364
745.397	281.775
749.271	313.104
753.143	438.355
757.013	389.532
760.881	478.639
764.748	362.678
768.613	529.69
772.476	395.665
776.337	494.396
780.196	562.48
784.054	428.343
787.91	632.16
791.764	551.933
795.616	715.637
799.467	743.443
803.316	788.27
807.163	782.652
811.008	954.195
814.851	1241.97
818.693	1479.1
822.533	2156.24
826.371	3025.78
830.208	4681.89
834.042	8003.64
837.875	15310.9
841.706	28078.9
845.536	32978.6
849.363	21577.9
853.189	12103.2
857.013	7454.8
860.836	5240.06
864.656	4866.82
868.475	5139.87
872.292	4155.24
876.108	2633.74
879.922	1851.34
883.733	1119.24
887.544	816.528
891.352	558.354
895.159	556.249
898.964	546.217
902.767	302.293
906.568	348.448
910.368	480.659
914.166	489.927
917.962	575.712
921.757	262.865
925.55	1382.03
929.341	2269.86
933.13	2592.28
936.918	2249.32
940.703	1895.98
944.488	1006.28
948.27	432.979
952.051	316.084
955.83	138.33
959.607	326.034
963.383	599.465
967.156	1206.12
970.928	1036.15
974.699	774.923
978.468	495.946
982.234	341.086
986	134.348
989.763	148.703
993.525	113.872
997.285	162.87
1001.04	94.692
1004.8	55.8
1008.55	65.755
1012.31	61.044
1016.06	154.549
1019.81	101.887
1023.56	167.64
1027.31	223.744
1031.05	270.912
1034.79	47.486
1038.53	112.822
1042.27	115.451
1046.01	191.563
1049.75	176.606
1053.48	209.136
1057.22	160.802
1060.95	155.356
1064.68	80.809
1068.4	73.669
1072.13	9.435
1075.86	92.048
1079.58	40.138
1083.3	82.919
1087.02	180.967
1090.74	51.773
1094.45	83.572
1098.17	16.044
1101.88	136.484
1105.59	15.341
1109.3	82.464
1113.01	7.114
1116.71	131.902
1120.42	121.686
1124.12	278.507
1127.82	63.073
1131.52	46.547
1135.22	56.342
1138.91	160.909
1142.61	139.776
1146.3	111.695
1149.99	193.025
1153.68	4.637
1157.37	223.45
1161.06	35.007
1164.74	108.786
1168.42	132.004
1172.1	18.234
1175.78	18.988
1179.46	144.988
1183.14	178.119
1186.81	84.357
1190.48	163.141
1194.15	148.557
1197.83	5.204
1201.49	271.156
1205.16	318.387
1208.82	353.19
1212.49	287.953
1216.15	201.58
1219.81	166.886
1223.46	202.273
1227.12	366.985
1230.78	292.183
1234.43	167.459
1238.08	173.311
1241.73	261.097
1245.38	251.857
1249.03	205.586
1252.67	181.701
1256.31	204.682
1259.95	0.109
1263.6	70.658
1267.23	117.928
1270.87	185.199
1274.51	146.48
1278.14	81.465
1281.77	262.795
1285.4	1.492
1289.03	91.002
1292.66	160.902
1296.28	85.463
1299.91	17.256
1303.53	47.969
1307.15	147.271
1310.77	268.135
1314.38	8.184
1318	45.832
1321.61	253.574
1325.23	105.357
1328.84	43.551
1332.45	1.92
1336.06	157.85
1339.66	132.199
1343.27	122.117
1346.87	168.129
1350.47	273.336
1354.07	223.184
1357.67	10.143
1361.26	286.719
1364.86	200.416
1368.45	310.949
1372.04	309.744
1375.63	280.18
1379.22	142.779
1382.81	234.229
1386.39	367.164
1389.98	275.502
1393.56	253.492
1397.14	132.971
1400.72	385.42
1404.3	198.191
1407.87	350.246
1411.45	444.705
1415.02	111.197
1418.59	402.508
1422.16	200.08
1425.73	491.139
1429.29	411.963
1432.86	454.82
1436.42	376.43
1439.98	283.998
1443.54	460.873
1447.1	401.924
1450.66	455.832
1454.21	398.168
1457.77	256.279
1461.32	305.129
1464.87	482.252
1468.42	620.814
1471.96	559.762
1475.51	368.629
1479.06	284.529
1482.6	532.01
1486.14	267.908
1489.68	565.082
1493.22	286.855
1496.75	328.805
1500.29	132.732
1503.82	52.898
1507.35	347.359
1510.88	331.924
1514.41	248.795
1517.94	236.135
1521.46	0.594
