Measurement: Raman, 785 nm, unoriented, Raman Data Processed
Mineral: Christelite
Rruff sample: R060792
Ideal chemistry: Zn_3_Cu_2_(SO_4_)_2_(OH)_6_4H_2_O
Locality: San Francisco mine, Sierra Gorda, Chile
Source: Bob Jenkins
Description: Greenish blue bladed crystals associated with hemimorphite and quartz
Raman shift (cm-1)	intensity
119.599	0
122.492	2.17
125.385	2.941
128.277	16.878
131.17	33.194
134.063	44.027
136.956	55.599
139.848	98.305
142.741	187.368
145.634	271.405
148.526	263.01
151.419	189.033
154.312	134.044
157.204	93.252
160.097	75.391
162.99	69.985
165.883	49.451
168.775	55.789
171.668	30.16
174.561	27.881
177.453	14.262
180.346	25.578
183.239	25.251
186.131	12.58
189.024	26.54
191.917	30.529
194.809	40.472
197.702	54.764
200.595	67.296
203.488	88.605
206.38	100.401
209.273	135.265
212.166	124.185
215.058	80.956
217.951	65.643
220.844	51.181
223.736	42.293
226.629	37.246
229.522	47.662
232.415	68.883
235.307	69.444
238.2	84.398
241.093	66.152
243.985	62.329
246.878	66.444
249.771	65.761
252.663	52.34
255.556	51.149
258.449	43.994
261.342	18.672
264.234	17.925
267.127	9.984
270.02	16.569
272.912	23.763
275.805	35.417
278.698	57.426
281.591	74.218
284.483	74.181
287.376	55.2
290.269	40.797
293.161	41.161
296.054	36.55
298.947	33.915
301.839	41.322
304.732	48.68
307.625	59.564
310.517	57.833
313.41	44.197
316.303	31.922
319.196	24.47
322.088	6.271
324.981	9.8
327.874	21.708
330.766	22.954
333.659	37.327
336.552	28.89
339.444	41.439
342.337	50.764
345.23	65.719
348.123	72.132
351.015	62.474
353.908	48.835
356.801	51.99
359.693	41.277
362.586	36.013
365.479	45.135
368.371	35.75
371.264	46.567
374.157	71.399
377.05	95.759
379.942	130.428
382.835	124.668
385.728	114.619
388.62	112.081
391.513	72.936
394.406	66.111
397.298	54.208
400.191	41.08
403.084	30.077
405.977	34.041
408.869	38.982
411.762	39.504
414.655	61.945
417.547	80.664
420.44	93.607
423.333	132.544
426.225	173.885
429.118	257.96
432.011	309.604
434.904	389.355
437.796	390.098
440.689	359.394
443.582	388.067
446.474	452.419
449.367	512.367
452.26	513.722
455.152	482.037
458.045	456.891
460.938	453.257
463.831	455.607
466.723	447.284
469.616	404.687
472.509	323.247
475.401	268.211
478.294	196.084
481.187	156.018
484.079	105.612
486.972	77.941
489.865	48.925
492.758	24.25
495.65	23.369
498.543	13.863
501.436	3.387
504.328	8.644
507.221	7.836
510.114	2.464
513.006	0.481
515.899	0.856
518.792	2.081
521.685	0.528
524.577	8.32
527.47	4.368
530.363	10.113
533.255	10.931
536.148	16.585
539.041	6.138
541.933	6.064
544.826	3.325
547.719	6.875
550.612	2.658
553.504	0.429
556.397	8.442
559.29	5.803
562.182	16.336
565.075	11.626
567.968	18.181
570.86	17.656
573.753	33.572
576.646	58.175
579.539	69.069
582.431	81.998
585.324	114.183
588.217	128.159
591.109	165.224
594.002	179.526
596.895	205.915
599.788	233.453
602.68	260.906
605.573	267.037
608.466	280.173
611.358	235.981
614.251	202.452
617.144	161.669
620.036	138.054
622.929	113.934
625.822	88.845
628.715	72.515
631.607	54.321
634.5	43.071
637.393	31.521
640.285	32.343
643.178	23.633
646.071	15.751
648.964	10.645
651.856	0.357
654.749	7.839
657.642	5.97
660.534	2.199
663.427	2.851
666.32	4.431
669.212	4.32
672.105	9.59
674.998	8.823
677.891	9.942
680.783	11.221
683.676	11.653
686.569	17.539
689.461	7.457
692.354	12.456
695.247	6.351
698.139	4.262
701.032	6.08
703.925	0.889
706.818	3.331
709.71	6
712.603	1.326
715.496	8.945
718.388	2.664
721.281	8.284
724.174	4.498
727.066	0.922
729.959	1.879
732.852	3.397
735.745	2.985
738.637	5.683
741.53	10.788
744.423	1.409
747.315	3.752
750.208	15.18
753.101	12.648
755.993	4.808
758.886	8.7
761.779	6.611
764.672	12.139
767.564	6.523
770.457	4.011
773.35	8.434
776.242	19.226
779.135	8.149
782.028	21.646
784.92	15.37
787.813	19.97
790.706	28.899
793.599	25.645
796.491	32.882
799.384	6.63
802.277	13.014
805.169	28.097
808.062	13.309
810.955	21.104
813.847	22.253
816.74	26.234
819.633	28.349
822.526	26.446
825.418	21.07
828.311	29.493
831.204	25.887
834.096	27.88
836.989	26.285
839.882	17.752
842.774	33.682
845.667	21.611
848.56	21.168
851.453	16.154
854.345	14.123
857.238	15.283
860.131	18.352
863.023	15.263
865.916	18.72
868.809	19.254
871.701	16.07
874.594	19.145
877.487	17.605
880.38	22.054
883.272	9.376
886.165	3.932
889.058	2.675
891.95	0.778
894.843	2.919
897.736	6.191
900.628	9.251
903.521	3.663
906.414	13.899
909.307	12.459
912.199	5.583
915.092	6.059
917.985	9.466
920.877	6.934
923.77	3.358
926.663	8.451
929.555	2.263
932.448	2.577
935.341	0.356
938.234	2.304
941.126	4.647
944.019	15.917
946.912	11.848
949.804	11.515
952.697	17.897
955.59	17.406
958.482	20.347
961.375	26.582
964.268	17.108
967.161	38.554
970.053	40.997
972.946	72.118
975.839	126.148
978.731	211.573
981.624	372.579
984.517	654.644
987.409	1275.55
990.302	2524.49
993.195	4000.84
996.088	2361.14
998.98	748.739
1001.87	305.797
1004.77	156.687
1007.66	77.717
1010.55	54.503
1013.44	37.144
1016.34	35.783
1019.23	19.45
1022.12	21.59
1025.02	1.388
1027.91	7.729
1030.8	8.965
1033.69	2.872
1036.59	8.285
1039.48	2.918
1042.37	0.769
1045.26	4.281
1048.16	1.732
1051.05	8.561
1053.94	1.178
1056.83	7.63
1059.73	3.823
1062.62	13.346
1065.51	8.812
1068.4	4.777
1071.3	20.134
1074.19	5.81
1077.08	4.743
1079.98	3.777
1082.87	2.349
1085.76	12.07
1088.65	6.162
1091.55	11.377
1094.44	31.149
1097.33	42.535
1100.22	50.785
1103.12	96.119
1106.01	141.52
1108.9	208.994
1111.8	240.304
1114.69	214.897
1117.58	172.912
1120.47	150.49
1123.37	130.193
1126.26	135.856
1129.15	130.201
1132.05	121.728
1134.94	108.568
1137.83	89.197
1140.72	60.776
1143.62	27.984
1146.51	26.812
1149.4	14.277
1152.29	10.829
1155.19	5.205
1158.08	0.256
1160.97	5.068
1163.86	5.395
1166.76	12.563
1169.65	7.443
1172.54	5.863
1175.43	2.157
1178.33	2.525
