Measurement: Raman, 532 nm, unoriented, Raman Data Processed
Mineral: Christelite
Rruff sample: R060792
Ideal chemistry: Zn_3_Cu_2_(SO_4_)_2_(OH)_6_4H_2_O
Locality: San Francisco mine, Sierra Gorda, Chile
Source: Bob Jenkins
Description: Greenish blue bladed crystals associated with hemimorphite and quartz
Raman shift (cm-1)	intensity
109.47	0
112.363	7.767
115.256	52.245
118.148	88.155
121.041	152.782
123.934	226.811
126.826	290.067
129.719	366.713
132.612	430.883
135.504	464.789
138.397	549.44
141.29	665.34
144.182	816.152
147.075	840.943
149.968	634.565
152.861	439.873
155.753	335.332
158.646	272.896
161.539	246.752
164.431	220.757
167.324	152.048
170.217	108.823
173.109	76.782
176.002	68.898
178.895	75.626
181.788	64.466
184.68	79.538
187.573	96.476
190.466	133.552
193.358	168.208
196.251	222.633
199.144	320.417
202.036	445.015
204.929	605.476
207.822	774.414
210.714	915.128
213.607	790.865
216.5	552.357
219.393	380.547
222.285	274.507
225.178	259.232
228.071	288.205
230.963	388.386
233.856	511.191
236.749	612.118
239.641	641.381
242.534	617.015
245.427	613.732
248.32	631.695
251.212	654.379
254.105	593.706
256.998	471.985
259.89	354.086
262.783	218.785
265.676	173.444
268.569	120.038
271.461	101.751
274.354	99.706
277.247	138.483
280.139	172.329
283.032	191.162
285.925	163.037
288.817	146.614
291.71	101.697
294.603	81.857
297.496	73.65
300.388	92.842
303.281	119.306
306.174	168.454
309.066	211.673
311.959	229.836
314.852	166.64
317.744	102.189
320.637	56.238
323.53	46.545
326.422	41.12
329.315	77.705
332.208	67.146
335.1	50.2
337.993	53.21
340.886	58.606
343.779	84.251
346.671	89.601
349.564	101.018
352.457	99.323
355.349	75.185
358.242	53.303
361.135	33.234
364.027	37.35
366.92	51.457
369.813	87.679
372.706	145.358
375.598	253.936
378.491	345.518
381.384	393.751
384.276	448.672
387.169	397.086
390.062	309.288
392.954	251.555
395.847	166.082
398.74	119.256
401.633	93.334
404.525	115.782
407.418	123.582
410.311	148.528
413.203	228.288
416.096	309.036
418.989	410.328
421.881	612.607
424.774	804.242
427.667	1113.81
430.56	1523.54
433.452	2035.45
436.345	2294.86
439.238	1958.28
442.13	1647.6
445.023	1707.41
447.916	1949.79
450.808	2081.66
453.701	1966
456.594	1818.87
459.487	1883.13
462.379	2078.2
465.272	2234.92
468.165	2270.2
471.057	2035.34
473.95	1536.86
476.843	1067.92
479.735	748.846
482.628	540.664
485.521	373.056
488.414	238.128
491.306	162.052
494.199	119.375
497.092	74.319
499.984	38.397
502.877	18.315
505.77	16.357
508.662	10.1
511.555	1.06
514.448	3.486
517.341	3.508
520.233	0.973
523.126	20.598
526.019	7.848
528.911	22.467
531.804	28.707
534.697	17.168
537.589	34.21
540.482	30.064
543.375	17.737
546.268	1.474
549.16	10.544
552.053	7.334
554.945	19.759
557.838	32.997
560.731	21.446
563.624	52.007
566.516	60.6
569.409	86.639
572.302	121.033
575.194	172.886
578.087	238.764
580.98	315.791
583.872	411.097
586.765	526.306
589.658	636.891
592.551	784.911
595.443	937.329
598.336	1097.95
601.229	1276.59
604.121	1429.79
607.014	1538.41
609.907	1421.34
612.799	1245.45
615.692	1106.77
618.585	937.555
621.477	803.053
624.37	635.9
627.263	495.909
630.156	427.329
633.048	334.76
635.941	277.092
638.834	229.114
641.726	183.292
644.619	152.735
647.512	115.233
650.404	112.555
653.297	70.458
656.19	53.527
659.083	40.579
661.975	19.685
664.868	16.749
667.761	4.265
670.653	8.506
673.546	6.203
676.439	12.294
679.331	17.622
682.224	23.049
685.117	27.952
688.01	30.393
690.902	25.319
693.795	19.38
696.688	19.979
699.58	7.512
702.473	7.806
705.366	2.709
708.258	2.544
711.151	20.961
714.044	19.193
716.937	1.557
719.829	3.794
722.722	6.272
725.615	0.72
728.507	7.649
731.4	25.759
734.293	19.991
737.185	20.435
740.078	26.317
742.971	32.226
745.864	30.691
748.756	22.96
751.649	16.077
754.542	25.256
757.434	35.263
760.327	39.473
763.22	52.668
766.112	44.615
769.005	49.316
771.898	47.325
774.791	51.994
777.683	38.979
780.576	55.27
783.469	42.092
786.361	58.092
789.254	41.936
792.147	45.358
795.039	63.811
797.932	80.007
800.825	66.545
803.718	67.624
806.61	74.562
809.503	65.891
812.396	68.306
815.288	74.307
818.181	70.025
821.074	68.107
823.966	73.344
826.859	65.694
829.752	89.128
832.644	78.006
835.537	76.435
838.43	78.792
841.323	82.09
844.215	71.518
847.108	86.917
850.001	83.748
852.893	93.192
855.786	77.406
858.679	68.262
861.571	52.804
864.464	52.011
867.357	36.969
870.25	54.305
873.142	35.172
876.035	38.845
878.928	29.445
881.82	26.928
884.713	30.824
887.606	26.786
890.498	36.496
893.391	17.928
896.284	29.862
899.177	8.06
902.069	0.984
904.962	2.205
907.855	2.801
910.747	5.021
913.64	12.469
916.533	3.401
919.425	2.005
922.318	0.461
925.211	1.657
928.104	8.034
930.996	2.272
933.889	3.887
936.782	2.153
939.674	0.836
942.567	1.268
945.46	5.193
948.352	1.704
951.245	1.993
954.138	24.7
957.031	25.938
959.923	41.905
962.816	52.623
965.709	83.586
968.601	130.933
971.494	206.901
974.387	319.029
977.279	523.255
980.172	989.06
983.065	1820.5
985.957	3040.57
988.85	5219.48
991.743	10040.2
994.635	13581.7
997.528	4515.28
1000.42	1534.99
1003.31	658.753
1006.21	361.069
1009.1	222.617
1011.99	145.202
1014.88	95.741
1017.78	59.757
1020.67	46.941
1023.56	14.52
1026.45	8.105
1029.35	8.217
1032.24	1.653
1035.13	7.477
1038.03	0.539
1040.92	8.071
1043.81	2.521
1046.7	0.632
1049.6	5.703
1052.49	8.032
1055.38	11.39
1058.28	12.833
1061.17	12.411
1064.06	10.902
1066.95	11.451
1069.85	18.392
1072.74	23.416
1075.63	36.241
1078.52	41.129
1081.42	47.805
1084.31	76.589
1087.2	91.846
1090.09	122.746
1092.99	174.46
1095.88	231.669
1098.77	327.026
1101.66	502.73
1104.56	771.737
1107.45	1216.77
1110.34	1766.63
1113.24	1971.29
1116.13	1858.48
1119.02	1698.32
1121.91	1347.22
1124.81	1116.22
1127.7	1030.95
1130.59	942.473
1133.48	801.486
1136.38	598.989
1139.27	390.332
1142.16	239.607
1145.06	169.598
1147.95	117.212
1150.84	87.304
1153.73	42.882
1156.63	24.587
1159.52	15.259
1162.41	18.584
1165.31	4.402
