Measurement: Raman, 532 nm, unoriented, Raman Data Processed
Mineral: Chromite
Rruff sample: R110060
Ideal chemistry: Fe^2+^Cr_2_O_4_
Locality: Pilliken mine, south of Auburn, El Dorado County, California, USA
Source: James Shigley
Description: Black massive with conchoidal cleavage
Raman shift (cm-1)	intensity
196.558	0
199.451	0.164612
202.343	3.64395
205.236	2.75243
208.129	3.92308
211.021	1.81192
213.914	0.94632
216.807	0.52916
219.699	3.35045
222.592	1.60516
225.485	2.41937
228.377	2.93805
231.27	1.64525
234.163	0.459961
237.056	3.4216
239.948	1.91534
242.841	1.9081
245.734	1.84055
248.626	2.41449
251.519	2.66754
254.412	2.13699
257.305	2.67972
260.197	3.98854
263.09	2.79297
265.983	1.48511
268.875	3.05922
271.768	1.46767
274.661	3.86453
277.553	3.95078
280.446	5.48828
283.339	4.08296
286.232	1.36398
289.124	2.25233
292.017	1.83756
294.91	1.61901
297.802	3.51652
300.695	2.16592
303.588	1.46216
306.481	1.74939
309.373	0.162399
312.266	1.46157
315.159	0.495255
318.051	2.05204
320.944	1.45394
323.837	2.3381
326.729	3.1033
329.622	0.492401
332.515	0.701912
335.408	2.12515
338.3	1.44634
341.193	3.39085
344.086	1.82021
346.978	0.748779
349.871	2.68487
352.764	1.42416
355.656	3.201
358.549	2.84471
361.442	1.87672
364.334	1.87775
367.227	3.56996
370.12	4.99686
373.012	3.26657
375.905	5.72567
378.798	4.29192
381.691	5.34782
384.583	3.71056
387.476	7.51849
390.369	4.22595
393.261	5.46226
396.154	3.54727
399.047	4.85086
401.94	4.70387
404.832	3.61267
407.725	2.05312
410.618	3.88423
413.51	3.2232
416.403	3.96796
419.296	2.88156
422.188	0.041977
425.081	0.896896
427.974	0.74279
430.866	1.13159
433.759	0.953598
436.652	0.381538
439.545	1.82546
442.437	2.35019
445.33	3.1861
448.223	4.44681
451.115	4.81956
454.008	6.38796
456.901	5.09466
459.793	5.59525
462.686	6.44036
465.579	5.91935
468.472	9.32287
471.364	8.69962
474.257	7.48478
477.15	7.80589
480.042	6.45692
482.935	5.07246
485.828	3.1318
488.721	1.61546
491.613	0.696602
494.506	1.56547
497.399	2.21865
500.291	1.87623
503.184	0.330978
506.077	1.50066
508.969	4.26894
511.862	7.42683
514.755	13.8505
517.648	19.7396
520.54	25.7093
523.433	33.9211
526.326	42.4988
529.218	51.321
532.111	58.987
535.004	69.9762
537.896	80.4785
540.789	92.9182
543.682	104.735
546.575	117.199
549.467	127.728
552.36	131.641
555.253	133.18
558.145	132.258
561.038	130.509
563.931	128.52
566.823	128.939
569.716	127.193
572.609	127.682
575.502	122.312
578.394	119.015
581.287	109.916
584.18	100.426
587.072	89.8607
589.965	80.4275
592.858	74.3417
595.75	67.5872
598.643	63.373
601.536	57.9417
604.428	50.576
607.321	44.2437
610.214	32.9352
613.107	24.0381
615.999	12.5065
618.892	5.95703
621.785	0.477234
624.677	4.75557
627.57	4.76079
630.463	3.22513
633.356	5.16904
636.248	15.0955
639.141	26.2492
642.034	36.6072
644.926	45.5416
647.819	50.0187
650.712	52.6732
653.604	51.485
656.497	52.2557
659.39	52.3463
662.283	51.0886
665.175	58.0998
668.068	64.3319
670.961	72.8521
673.853	84.3301
676.746	97.2514
679.639	111.083
682.531	125.505
685.424	138.641
688.317	152.253
691.21	159.648
694.102	165.025
696.995	161.05
699.888	151.626
702.78	132.726
705.673	113.511
708.566	96.6644
711.458	79.3093
714.351	63.1326
717.244	50.5454
720.136	40.0994
723.029	30.2823
725.922	25.1424
728.815	20.5671
731.707	13.682
734.6	11.0918
737.493	9.81158
740.385	4.1338
743.278	2.08575
746.171	0.288933
749.063	0.317001
751.956	0.046356
754.849	2.0265
757.742	0.115974
760.634	0.777832
763.527	1.45064
766.42	0.707932
769.312	0.367058
772.205	0.352234
775.098	1.21551
777.99	1.44855
780.883	0.505959
783.776	3.61307
786.669	2.86826
789.561	5.08181
792.454	5.2936
795.347	6.11358
798.239	6.20656
801.132	6.91225
804.025	7.37948
806.918	8.74511
809.81	9.52516
812.703	9.46014
815.596	9.64157
818.488	9.30999
821.381	11.7235
824.274	9.16038
827.166	8.99499
830.059	9.94466
832.952	11.3191
835.845	10.9376
838.737	11.003
841.63	11.5389
844.523	11.2675
847.415	12.5053
850.308	13.5491
853.201	13.1324
856.093	12.5451
858.986	12.8513
861.879	12.3577
864.771	11.8277
867.664	10.2986
870.557	9.91167
873.45	10.7568
876.342	9.96095
879.235	8.59384
882.128	7.95064
885.02	4.84261
887.913	5.12919
890.806	4.47078
893.698	2.9035
896.591	2.71616
899.484	2.44204
902.377	0.271919
905.269	0.855011
908.162	0.689713
911.055	0.674767
913.947	0.197708
916.84	0.150047
919.733	1.07004
922.625	0.551994
925.518	1.06529
928.411	0.297096
931.304	0.206123
934.196	0.347305
937.089	0.411705
939.982	1.7249
942.875	0.319824
945.767	0.360428
948.66	1.00294
951.553	0.714211
954.445	1.93948
957.338	1.28272
960.231	1.18507
963.123	0.03495
966.016	0.390446
968.909	1.23972
971.802	0.152573
974.694	1.08411
977.587	1.13136
980.48	0.941757
983.372	0.757938
986.265	0.492188
989.158	0.829052
992.05	0.842823
994.943	0.614193
997.836	1.70138
1000.73	1.54227
1003.62	1.88403
1006.51	1.34669
1009.41	2.30382
1012.3	1.50435
1015.19	1.65388
1018.09	3.03181
1020.98	3.17799
1023.87	2.24962
1026.76	2.36366
1029.66	2.09904
1032.55	2.02282
1035.44	1.61102
1038.33	3.59486
1041.23	0.574471
1044.12	1.17378
1047.01	2.22809
1049.9	2.52804
1052.8	2.82177
1055.69	0.959736
1058.58	1.29623
1061.47	0.220161
1064.37	0.687107
1067.26	0.1134
1070.15	0.00507
1073.05	0.185829
1075.94	1.25462
1078.83	0.808968
1081.72	1.12933
1084.62	1.57505
1087.51	1.69022
1090.4	1.23244
1093.3	2.9664
1096.19	3.25576
1099.08	3.63188
1101.97	3.87262
1104.87	4.31705
1107.76	4.31921
1110.65	4.60548
1113.54	5.27862
1116.44	5.15094
1119.33	7.54702
1122.22	7.92601
1125.12	5.23934
1128.01	4.98116
1130.9	4.4056
1133.79	4.52165
1136.68	5.2457
1139.58	4.8949
1142.47	4.44273
1145.36	4.11571
1148.26	3.95999
1151.15	5.78178
1154.04	3.34376
1156.93	2.79366
1159.83	3.84177
1162.72	3.20293
1165.61	2.6577
1168.51	2.98131
1171.4	3.24206
1174.29	1.5839
1177.18	1.99961
1180.08	0.800255
1182.97	1.1179
1185.86	1.68696
1188.75	0.685627
1191.65	0.049496
1194.54	0.784359
1197.43	0.710304
1200.33	0.291409
1203.22	0.559223
1206.11	0.633095
1209	0.096191
1211.9	1.7028
1214.79	0.53738
1217.68	2.00981
1220.57	0.176453
1223.47	1.12619
1226.36	1.91979
1229.25	1.92302
1232.14	0.973682
1235.04	1.04877
1237.93	0.107033
1240.82	0.240505
1243.71	1.42112
1246.61	0.722153
1249.5	0.018742
1252.39	1.32722
1255.29	2.61545
1258.18	2.56717
1261.07	2.0526
1263.96	0.905514
1266.86	1.8691
1269.75	0.378086
1272.64	1.79235
1275.54	1.26887
1278.43	1.32681
1281.32	1.36277
1284.21	2.01433
1287.11	2.85033
1290	2.61792
1292.89	1.37602
1295.78	1.96145
1298.68	0.334957
1301.57	1.92467
