Measurement: Raman, 780 nm, unoriented, Raman Data Processed
Mineral: Chromite
Rruff sample: R110060
Ideal chemistry: Fe^2+^Cr_2_O_4_
Locality: Pilliken mine, south of Auburn, El Dorado County, California, USA
Source: James Shigley
Description: Black massive with conchoidal cleavage
Raman shift (cm-1)	intensity
150.904	0
153.797	0.234905
156.689	0.412563
159.582	0.916512
162.475	0.847363
165.367	0.360462
168.26	1.27664
171.153	1.10624
174.046	0.539303
176.938	0.594776
179.831	0.196552
182.724	1.01945
185.616	0.211857
188.509	0.844021
191.402	0.565193
194.294	0.45491
197.187	0.377872
200.08	0.059258
202.972	0.936497
205.865	0.402721
208.758	0.815285
211.651	0.12455
214.543	0.342499
217.436	0.430649
220.329	1.19939
223.221	0.988457
226.114	1.05266
229.007	1.13008
231.899	1.41622
234.792	1.49161
237.685	1.58636
240.578	1.82807
243.47	1.70796
246.363	1.72101
249.256	1.19629
252.148	1.01445
255.041	0.944023
257.934	1.1968
260.827	1.3709
263.719	0.739315
266.612	0.335903
269.505	0.819794
272.397	0.417473
275.29	0.719387
278.183	0.840694
281.075	0.624348
283.968	0.852608
286.861	0.00705
289.753	0.385464
292.646	0.773033
295.539	0.22369
298.432	0.276737
301.324	0.357361
304.217	0.120232
307.11	0.589855
310.002	0.472191
312.895	0.915226
315.788	0.367317
318.68	0.266735
321.573	0.009949
324.466	0.50708
327.359	0.651989
330.251	0.138279
333.144	0.202873
336.037	0.539005
338.929	0.757774
341.822	0.897057
344.715	0.620575
347.608	0.470894
350.5	1.23749
353.393	0.239635
356.286	0.87801
359.178	0.904625
362.071	0.392441
364.964	0.474144
367.856	1.49427
370.749	1.31133
373.642	0.963203
376.534	1.04316
379.427	0.986832
382.32	1.05019
385.213	0.996956
388.105	1.25565
390.998	0.797588
393.891	1.37016
396.783	1.18138
399.676	1.26519
402.569	0.884747
405.462	0.479118
408.354	0.017818
411.247	0.848083
414.14	0.87534
417.032	0.705284
419.925	0.692455
422.818	0.198376
425.71	0.408978
428.603	0.410831
431.496	0.410831
434.389	0.739372
437.281	0.366592
440.174	0.320854
443.067	0.64431
445.959	0.315487
448.852	0.619484
451.745	0.975613
454.637	1.31568
457.53	1.31958
460.423	1.40572
463.315	1.75295
466.208	1.9012
469.101	2.70968
471.994	2.71701
474.886	2.24745
477.779	2.26836
480.672	1.11658
483.564	0.897011
486.457	0.674236
489.35	0.587116
492.243	0.451244
495.135	0.198242
498.028	0.431622
500.921	0.268715
503.813	0.602116
506.706	1.52617
509.599	2.51702
512.491	4.63137
515.384	5.79539
518.277	7.60586
521.169	9.4085
524.062	11.2204
526.955	12.2565
529.848	10.6045
532.74	8.95654
535.633	8.27571
538.526	8.05512
541.418	7.52355
544.311	8.15269
547.204	9.62923
550.096	9.43883
552.989	9.63877
555.882	9.83318
558.775	9.0488
561.667	9.3523
564.56	8.91127
567.453	9.91677
570.345	11.0177
573.238	11.5959
576.131	11.674
579.024	11.0879
581.916	11.5634
584.809	10.5016
587.702	10.2579
590.594	9.74841
593.487	9.82852
596.38	9.07111
599.273	9.05992
602.165	8.55234
605.058	7.86223
607.951	6.79113
610.843	5.65987
613.736	3.86308
616.629	2.6577
619.521	1.65717
622.414	0.122963
625.307	1.00767
628.199	1.36665
631.092	0.657612
633.985	1.05167
636.878	3.04266
639.77	5.08791
642.663	7.14845
645.556	8.40918
648.448	9.8342
651.341	9.99194
654.234	10.8077
657.126	10.9674
660.019	10.5746
662.912	11.9841
665.805	13.7376
668.697	15.634
671.59	19.1873
674.483	22.1443
677.375	26.6244
680.268	31.3691
683.161	36.5536
686.053	41.9501
688.946	46.5617
691.839	51.1544
694.732	52.0338
697.624	50.4675
700.517	46.9727
703.41	40.1427
706.302	33.8948
709.195	28.5906
712.088	22.5823
714.981	18.5688
717.873	15.068
720.766	12.0587
723.659	9.43665
726.551	7.55031
729.444	5.63065
732.337	4.43431
735.229	3.62776
738.122	2.70651
741.015	1.143
743.908	0.876429
746.8	0.608761
749.693	0.076664
752.586	0.113398
755.478	0.117178
758.371	0.020533
761.264	0.206909
764.156	0.054533
767.049	0.302702
769.942	0.10603
772.835	0.44445
775.727	0.319431
778.62	0.233141
781.513	0.585205
784.405	0.436295
787.298	0.47048
790.191	0.794361
793.083	1.17988
795.976	0.832993
798.869	1.3875
801.761	1.41219
804.654	1.58709
807.547	2.17089
810.44	1.80974
813.332	1.7462
816.225	2.86706
819.118	2.13335
822.01	2.23888
824.903	2.69455
827.796	2.91426
830.688	2.38986
833.581	2.22637
836.474	2.10125
839.367	2.81955
842.259	2.71285
845.152	2.96273
848.045	2.85874
850.937	2.6153
853.83	2.80153
856.723	2.74803
859.615	3.12226
862.508	2.73666
865.401	3.12825
868.294	2.03548
871.186	2.58125
874.079	2.41199
876.972	2.13496
879.864	1.83488
882.757	1.30775
885.65	1.77636
888.543	1.4327
891.435	0.808475
894.328	1.08519
897.221	0.913605
900.113	0.238085
903.006	0.352697
905.899	0.356186
908.791	0.228107
911.684	0.144505
914.577	0.460527
917.47	0.190773
920.362	0.256958
923.255	0.052397
926.148	0.000877
929.04	0.062706
931.933	0.404024
934.826	0.283983
937.718	0.051222
940.611	0.153078
943.504	0.04048
946.396	0.253563
949.289	0.391247
952.182	0.414217
955.075	0.220844
957.967	0.310642
960.86	0.142197
963.753	0.583403
966.645	0.59581
969.538	0.436743
972.431	0.315706
975.323	0.099825
978.216	0.571592
981.109	0.197634
984.002	1.04789
986.894	0.08976
989.787	0.278393
992.68	0.054733
995.572	0.179716
998.465	0.672297
1001.36	0.329716
1004.25	0.121679
1007.14	0.120779
1010.04	0.387739
1012.93	0.834118
1015.82	0.428342
1018.71	0.456153
1021.61	0.350654
1024.5	0.429786
1027.39	0.401714
1030.29	0.817071
1033.18	0.568931
1036.07	0.408204
1038.96	0.639832
1041.86	0.722333
1044.75	0.621034
1047.64	0.441384
1050.53	0.579273
1053.43	0.26302
1056.32	0.31361
1059.21	0.048351
1062.1	0.153833
1065	0.606791
1067.89	0.569887
1070.78	0.287018
1073.67	0.390678
1076.57	0.440804
1079.46	0.215311
1082.35	0.334118
1085.25	0.14178
1088.14	0.229165
1091.03	0.323862
1093.92	0.384686
1096.82	0.265697
1099.71	0.257272
1102.6	0.472055
1105.49	0.104847
1108.39	0.073977
1111.28	0.491619
1114.17	0.425169
1117.07	0.138139
1119.96	0.23161
1122.85	0.214537
1125.74	0.391761
1128.64	0.068378
1131.53	0.200887
1134.42	0.202928
1137.32	0.628171
1140.21	0.272599
1143.1	0.324309
1145.99	0.284328
1148.88	0.327039
1151.78	0.121758
1154.67	0.45639
1157.56	0.395725
1160.46	0.432531
1163.35	0.748248
1166.24	0.213799
1169.13	0.588317
1172.03	1.56116
1174.92	0.502742
1177.81	0.462601
1180.7	0.406436
1183.6	0.255005
1186.49	0.313599
1189.38	0.592278
1192.28	0.383858
1195.17	0.648897
1198.06	0.876922
1200.95	0.351151
1203.85	0.288945
1206.74	0.304058
1209.63	0.531463
1212.53	0.583562
1215.42	0.156053
1218.31	0.606649
1221.2	0.415466
1224.1	0.260786
1226.99	0.828025
1229.88	0.137413
1232.77	0.192378
1235.67	0.336491
1238.56	0.461597
1241.45	0.489312
1244.35	0.410276
1247.24	0.284905
1250.13	0.610919
1253.02	0.1191
1255.91	0.384295
1258.81	0.306937
1261.7	0.58574
1264.59	0.412162
1267.49	0.185121
1270.38	0.472533
1273.27	0.284473
1276.16	0.154387
1279.06	0.321504
1281.95	0.376195
1284.84	0.568611
