Measurement: Raman, 532 nm, unoriented, Raman Data Processed
Mineral: Chrysotile
Rruff sample: R070088
Ideal chemistry: Mg_3_Si_2_O_5_(OH)_4_
Locality: Cassiar Asbestos mine, Cassiar, British Columbia, Canada
Source: Lloyd Twaites
Description: Green silky fibrous aggregate, transparent in parts
Raman shift (cm-1)	intensity
180.554	0
183.447	25.2891
186.339	173.013
189.232	117.215
192.125	203.223
195.018	300.361
197.91	428.635
200.803	528.676
203.696	501.76
206.588	318.144
209.481	309.344
212.374	296.154
215.266	372.139
218.159	453.998
221.052	830.549
223.945	1216.12
226.837	1746.76
229.73	2169.91
232.623	2560.22
235.515	2476.32
238.408	1601.68
241.301	770.371
244.193	426.022
247.086	278.076
249.979	281.553
252.871	267.453
255.764	296.336
258.657	180.647
261.55	227.088
264.442	201.949
267.335	138.219
270.228	240.889
273.12	31.5859
276.013	12.7285
278.906	32.7148
281.798	54.9219
284.691	13.7461
287.584	62.5801
290.477	71.5762
293.369	100.08
296.262	133.582
299.155	183.754
302.047	107.857
304.94	271.963
307.833	238.781
310.726	157.512
313.618	197.947
316.511	300.412
319.404	400.873
322.296	142.848
325.189	61.957
328.082	34.7676
330.974	13.9805
333.867	89.3203
336.76	223.953
339.652	427.109
342.545	678.854
345.438	948.367
348.331	665.609
351.223	240.877
354.116	62.4375
357.009	47.3652
359.901	85.8477
362.794	128.404
365.687	200.043
368.579	464.344
371.472	664.445
374.365	819.287
377.258	1292.94
380.15	1810.19
383.043	2840.65
385.936	4105.37
388.828	5515.03
391.721	5637.9
394.614	2877.52
397.507	1171.6
400.399	702.906
403.292	424.051
406.185	306.955
409.077	172.93
411.97	180.035
414.863	127.912
417.755	149.359
420.648	90.9453
423.541	33.7871
426.434	66.9082
429.326	240.613
432.219	471.141
435.112	456.111
438.004	188.139
440.897	2.24023
443.79	135.664
446.683	180.178
449.575	189.984
452.468	294.316
455.361	341.238
458.253	428.5
461.146	471.574
464.039	532.93
466.931	353.541
469.824	316.775
472.717	135.519
475.61	99.7188
478.502	71.5566
481.395	27.4004
484.288	59.334
487.18	25.7188
490.073	20.7109
492.966	156.457
495.858	127.133
498.751	230.982
501.644	78.5195
504.536	170.969
507.429	112.613
510.322	47.1484
513.215	46.2793
516.107	151.482
519	96.4062
521.893	254.043
524.785	191.227
527.678	299.982
530.571	331.168
533.463	165.123
536.356	260.248
539.249	251.815
542.142	200.965
545.034	139.506
547.927	274.463
550.82	156.299
553.712	171.119
556.605	72.7695
559.498	122.031
562.39	135.185
565.283	112.281
568.176	155.635
571.069	26.4648
573.961	18.6406
576.854	116.731
579.747	2.23828
582.639	28.9922
585.532	35.4824
588.425	52.9375
591.317	97.8848
594.21	126.115
597.103	298.998
599.996	358.133
602.888	296.15
605.781	303.754
608.674	303.404
611.566	533.279
614.459	797.859
617.352	902.166
620.245	1078.34
623.137	1258.45
626.03	936.672
628.923	728.998
631.815	541.596
634.708	434.426
637.601	316.889
640.493	271.836
643.386	281.404
646.279	211.867
649.172	217.59
652.064	58.3711
654.957	212.535
657.85	131.41
660.742	324.098
663.635	270.676
666.528	395.609
669.42	369.152
672.313	498.652
675.206	730.941
678.098	1095.76
680.991	1728.56
683.884	2531.76
686.777	3916.46
689.669	5389.66
692.562	6212.49
695.455	5203.98
698.347	3322.35
701.24	2276.91
704.133	1729.18
707.025	1273.87
709.918	943.293
712.811	720.891
715.704	435.992
718.596	256.219
721.489	212
724.382	110.387
727.274	21.4492
730.167	73.5664
733.06	20.1016
735.953	11.5859
738.845	170.269
741.738	123.109
744.631	61.6016
747.523	29.6484
750.416	30.6523
753.309	40.9922
756.202	9.38281
759.094	63.6094
761.987	145.492
764.88	174.402
767.772	324.328
770.665	160.992
773.558	194.356
776.45	147.856
779.343	271.062
782.236	175.613
785.129	216.867
788.021	148.719
790.914	14.0742
793.807	104.281
796.699	99.8555
799.592	146.633
802.485	38.3477
805.377	9.37891
808.27	115.516
811.163	91.4727
814.056	62.6094
816.948	76.8438
819.841	97.0586
822.734	282.391
825.626	123.18
828.519	160.106
831.412	179.562
834.304	136.996
837.197	135.266
840.09	178.676
842.982	88.4219
845.875	219.016
848.768	141.356
851.661	71.8672
854.553	151.871
857.446	116.242
860.339	104.211
863.231	96.0391
866.124	156.797
869.017	181.504
871.909	45.3359
874.802	127.078
877.695	11.0117
880.588	122.785
883.48	71.75
886.373	191.223
889.266	156.199
892.158	250.41
895.051	83.4336
897.944	162.555
900.837	131.246
903.729	153.914
906.622	17.1367
909.515	1.07422
912.407	65.8477
915.3	10.8789
918.193	269.875
921.085	4.66406
923.978	102.738
926.871	269.234
929.764	90.3672
932.656	247.445
935.549	230.859
938.442	223.809
941.334	172.598
944.227	201.09
947.12	191.894
950.012	229.156
952.905	344.984
955.798	272.812
958.691	221.562
961.583	295.742
964.476	358.75
967.369	241.769
970.261	303.637
973.154	125.387
976.047	371.602
978.939	272.148
981.832	214.922
984.725	22.8086
987.618	181.793
990.51	3
993.403	250.856
996.296	162.25
999.188	53.7461
1002.08	210.531
1004.97	304.402
1007.87	182.898
1010.76	11.9375
1013.65	1.21484
1016.54	63.6211
1019.44	174.652
1022.33	92.9805
1025.22	65.7227
1028.12	3.23828
1031.01	24.7422
1033.9	28.4102
1036.79	105.477
1039.69	35.9727
1042.58	26.4414
1045.47	16.5391
1048.36	116.898
1051.26	70.6406
1054.15	48.8789
1057.04	139.301
1059.93	28.0586
1062.83	55.4648
1065.72	40.1133
1068.61	143.164
1071.51	39.582
1074.4	76.8203
1077.29	120.527
1080.18	258.316
1083.08	134.973
1085.97	287.441
1088.86	266.027
1091.76	344.711
1094.65	566.062
1097.54	610.879
1100.43	781.883
1103.33	977.801
1106.22	984.375
1109.11	1000.86
1112	684.363
1114.9	278.91
1117.79	181.699
1120.68	292.668
1123.57	168.477
1126.47	83.4727
1129.36	271.66
1132.25	3.01562
1135.14	136.082
1138.04	228
1140.93	146.211
1143.82	106.289
1146.72	218.695
1149.61	103.277
1152.5	199.027
1155.39	151.109
1158.29	180.898
1161.18	93.1992
1164.07	37.1445
1166.96	39.9648
1169.86	163.691
1172.75	135.367
1175.64	166.168
1178.54	151.758
1181.43	49.1484
1184.32	37.7773
1187.21	76.2148
1190.11	84.5742
1193	226.906
1195.89	184.231
1198.79	149.922
1201.68	65.1484
1204.57	111.527
1207.46	233.68
1210.36	48.1406
1213.25	50.2227
1216.14	30.4727
1219.03	214.383
1221.93	99.5391
1224.82	173.871
1227.71	73.9883
1230.6	73.6914
1233.5	170.676
1236.39	10.1289
1239.28	268.059
1242.17	30.6602
1245.07	62.4141
1247.96	118.68
1250.85	143.231
1253.75	24.2969
1256.64	235.207
1259.53	63.9531
1262.42	126.106
1265.32	150.883
1268.21	127.297
1271.1	200.656
1273.99	212.875
1276.89	160.68
1279.78	227.688
1282.67	128.086
1285.57	228.113
1288.46	295.285
1291.35	171.309
1294.24	95.793
1297.14	279.25
1300.03	247.094
1302.92	199.152
1305.82	57.5703
1308.71	9.91406
1311.6	238.859
1314.49	223.32
1317.38	37.1211
