Measurement: Raman, 780 nm, unoriented, Raman Data Processed
Mineral: Chrysoberyl
Rruff sample: R100130
Ideal chemistry: BeAl_2_O_4_
Locality: Ratnapura district, Sri Lanka
Source: William W. Pinch
Description: Pale yellow sixling twin
Raman shift (cm-1)	intensity
150.87	0
153.763	0.012207
156.655	0.962729
159.548	0.907566
162.441	1.27561
165.333	0.305296
168.226	0.635904
171.119	1.15075
174.012	0.698839
176.904	1.14659
179.797	0.902756
182.69	0.1152
185.582	1.19686
188.475	0.640688
191.368	0.802807
194.261	0.912729
197.153	2.13815
200.046	1.20149
202.939	2.67135
205.831	1.73994
208.724	3.22125
211.617	2.47466
214.509	3.78658
217.402	2.68348
220.295	3.54394
223.188	2.21536
226.08	2.79371
228.973	2.67295
231.866	3.13313
234.758	3.59829
237.651	5.97888
240.544	10.4742
243.436	8.59313
246.329	4.17736
249.222	0.381166
252.114	1.21554
255.007	0.565607
257.9	0.185183
260.793	0.611284
263.685	1.91048
266.578	0.113163
269.471	0.89723
272.363	0.301619
275.256	0.033525
278.149	0.808211
281.041	0.381042
283.934	1.51453
286.827	1.21473
289.719	1.77223
292.612	1.64415
295.505	1.23143
298.398	0.42148
301.29	1.41697
304.183	0.122614
307.076	0.319446
309.968	0.732537
312.861	1.64566
315.754	0.538846
318.647	0.176569
321.539	0.034636
324.432	0.309344
327.325	0.390955
330.217	1.48314
333.11	1.53242
336.003	1.97938
338.895	2.08523
341.788	5.96115
344.681	12.0768
347.574	22.0634
350.466	29.2313
353.359	11.5448
356.252	7.56749
359.144	6.11602
362.037	8.57298
364.93	15.5076
367.822	24.497
370.715	25.2276
373.608	11.5912
376.5	5.70324
379.393	2.78998
382.286	2.39857
385.179	1.90967
388.071	2.07648
390.964	5.5353
393.857	15.5854
396.749	27.6875
399.642	7.885
402.535	1.34562
405.427	0.579895
408.32	1.57388
411.213	0.3521
414.106	0.088539
416.998	0.298351
419.891	3.26003
422.784	2.2841
425.676	0.178131
428.569	0.264166
431.462	2.28585
434.354	4.27809
437.247	5.95077
440.14	16.57
443.033	39.7226
445.925	63.9751
448.818	27.1161
451.711	10.6741
454.603	15.1346
457.496	33.7508
460.389	45.5956
463.281	9.58288
466.174	3.28481
469.067	4.18549
471.959	9.13555
474.852	24.019
477.745	37.8796
480.638	18.3707
483.53	6.1039
486.423	4.09411
489.316	3.41523
492.208	4.83814
495.101	8.63939
497.994	23.4275
500.887	52.063
503.779	44.6241
506.672	12.0731
509.565	7.2344
512.457	8.68279
515.35	16.8116
518.243	34.0684
521.135	50.5343
524.028	55.0247
526.921	23.7095
529.813	8.8475
532.706	3.72388
535.599	2.1791
538.492	1.68342
541.384	2.77369
544.277	3.65563
547.17	4.86367
550.062	3.82809
552.955	2.30746
555.848	0.553892
558.74	1.00387
561.633	1.21131
564.526	0.9263
567.418	0.099109
570.311	0.293677
573.204	0.470001
576.097	0.05982
578.989	0.085648
581.882	0.217942
584.775	0.282174
587.667	1.10097
590.56	0.19826
593.453	1.65798
596.346	1.76048
599.238	0.921598
602.131	1.57619
605.024	2.11437
607.916	2.22565
610.809	3.14351
613.702	4.44719
616.594	4.71584
619.487	4.88896
622.38	5.34071
625.273	7.64049
628.165	9.74688
631.058	16.9693
633.951	36.9508
636.843	80.1755
639.736	104.817
642.629	42.0859
645.521	17.2428
648.414	11.0194
651.307	13.8468
654.199	17.8849
657.092	17.0573
659.985	7.72099
662.878	3.86364
665.77	2.38908
668.663	2.39489
671.556	2.19915
674.448	3.17981
677.341	2.9396
680.234	1.1213
683.126	2.70102
686.019	1.53352
688.912	2.00507
691.805	1.14568
694.697	2.58742
697.59	2.51391
700.483	0.976064
703.375	2.66514
706.268	5.87119
709.161	10.7317
712.053	11.6349
714.946	5.3559
717.839	1.96743
720.731	1.11248
723.624	0.961834
726.517	0.128554
729.41	0.44005
732.302	0.113274
735.195	0.094601
738.088	0.586596
740.98	0.885066
743.873	0.502907
746.766	1.31948
749.659	0.397922
752.551	1.23073
755.444	2.63949
758.337	1.94428
761.229	3.93368
764.122	5.54737
767.015	9.13283
769.907	15.9578
772.8	24.7317
775.693	37.471
778.586	43.9792
781.478	35.1818
784.371	21.3235
787.264	11.8586
790.156	7.93823
793.049	4.20592
795.942	4.1955
798.834	1.76121
801.727	4.37984
804.62	5.23735
807.513	7.73056
810.405	13.8703
813.298	23.9856
816.191	35.3279
819.083	28.5562
821.976	15.9356
824.869	9.50029
827.761	5.72478
830.654	3.71091
833.547	2.67168
836.439	1.42081
839.332	2.31165
842.225	0.996964
845.118	1.99827
848.01	1.46355
850.903	1.64451
853.796	1.30234
856.688	1.43441
859.581	1.27421
862.474	0.800365
865.366	0.11744
868.259	0.355176
871.152	0.57648
874.044	0.469378
876.937	0.20113
879.83	0.031652
882.723	0.227625
885.615	0.181
888.508	0.410892
891.401	0.922379
894.293	0.259604
897.186	0.547479
900.079	1.37692
902.971	2.00393
905.864	1.75725
908.757	4.88301
911.65	7.07073
914.542	10.8546
917.435	14.587
920.328	24.1864
923.22	40.6529
926.113	62.1793
929.006	87.2786
931.899	101.557
934.791	86.7698
937.684	61.587
940.577	39.6748
943.469	26.1731
946.362	18.8056
949.255	12.4596
952.147	9.68294
955.04	7.50362
957.933	4.60984
960.825	4.53262
963.718	4.14979
966.611	3.10377
969.504	2.42491
972.396	1.07843
975.289	1.83558
978.182	2.33
981.074	0.941121
983.967	1.40962
986.86	0.025078
989.752	0.808477
992.645	1.04949
995.538	0.844113
998.431	0.779946
1001.32	1.63798
1004.22	1.14348
1007.11	0.366879
1010	1.50019
1012.89	1.20418
1015.79	0.469423
1018.68	1.00176
1021.57	0.804205
1024.46	0.935164
1027.36	0.664218
1030.25	0.139537
1033.14	1.31857
1036.04	0.2549
1038.93	1.45032
1041.82	2.31581
1044.71	0.761784
1047.61	0.629847
1050.5	0.773807
1053.39	0.55907
1056.29	0.183059
1059.18	0.751741
1062.07	0.826604
1064.96	0.451728
1067.86	1.14511
1070.75	1.16353
1073.64	0.182863
1076.53	1.08631
1079.43	0.052657
1082.32	2.15651
1085.21	1.29008
1088.1	1.29989
1091	1.51937
1093.89	0.168639
1096.78	0.838345
1099.67	0.845084
1102.57	1.56439
1105.46	1.52011
1108.35	1.86949
1111.25	1.20847
1114.14	0.339044
1117.03	0.766611
1119.92	0.291245
1122.82	0.229825
1125.71	0.002435
1128.6	0.754186
1131.49	1.29014
1134.39	0.389311
1137.28	0.08018
1140.17	0.869372
1143.07	0.904788
1145.96	0.615744
1148.85	0.771505
1151.74	1.41431
1154.64	1.29391
1157.53	1.00481
1160.42	0.199076
1163.31	0.874197
1166.21	1.20723
1169.1	1.74367
1171.99	1.15715
1174.88	0.178518
1177.78	0.812963
1180.67	1.60793
1183.56	0.129848
1186.46	0.447177
1189.35	0.217134
1192.24	0.812951
1195.13	1.32158
1198.03	1.55476
1200.92	0.949309
1203.81	0.549872
1206.7	0.638404
1209.6	1.22166
1212.49	0.107179
1215.38	0.869282
1218.28	0.855733
1221.17	0.819721
1224.06	1.63944
1226.95	1.63397
1229.85	1.48986
1232.74	0.202566
1235.63	1.42169
1238.53	1.09051
1241.42	1.41366
1244.31	0.472906
1247.2	0.834423
1250.1	1.39927
1252.99	0.388342
1255.88	0.917765
1258.77	1.50555
1261.67	1.38743
1264.56	0.587409
1267.45	0.74302
1270.34	0.849398
1273.24	0.695506
1276.13	0.307566
1279.02	0.809923
1281.91	1.29378
1284.81	0
