Measurement: Raman, 532 nm, unoriented, Raman Data Processed
Mineral: Chrysotile
Rruff sample: R070355
Ideal chemistry: Mg_3_Si_2_O_5_(OH)_4_
Locality: Nizhniy Tagil, Ural, Russia
Source: Michael Scott
Description: White fine grained compact aggregate associated with light grey dolomite
Raman shift (cm-1)	intensity
186.785	0
189.678	23.5176
192.57	54.5332
195.463	262.045
198.356	451.971
201.248	651.617
204.141	693.242
207.034	574.654
209.926	414.221
212.819	654.301
215.712	1255.41
218.605	2493.87
221.497	3891.47
224.39	5936.66
227.283	8521.79
230.175	11106.9
233.068	11450
235.961	8379.72
238.853	4880.38
241.746	2602.59
244.639	1322.87
247.532	709.277
250.424	507.586
253.317	400.934
256.21	363.094
259.102	446.211
261.995	392.549
264.888	562.359
267.781	330.92
270.673	241.551
273.566	214.377
276.459	132.74
279.351	58.0508
282.244	24.9902
285.137	36.7812
288.029	85.6875
290.922	135.766
293.815	84.5723
296.707	124.656
299.6	256.566
302.493	248.957
305.386	390.572
308.278	443.244
311.171	265.404
314.064	348.699
316.956	454.697
319.849	592.824
322.742	498.387
325.635	294.402
328.527	131.865
331.42	34.0137
334.313	92.5606
337.205	176.018
340.098	427.902
342.991	727.426
345.883	1049.94
348.776	1445.06
351.669	1517.39
354.562	771.875
357.454	204.975
360.347	262.422
363.24	697.365
366.132	1276.17
369.025	2442
371.918	3919.03
374.81	6030.14
377.703	8567.56
380.596	11910.7
383.488	14636.6
386.381	14100.9
389.274	10094.8
392.167	6396.26
395.059	3596.31
397.952	1701.48
400.845	913.981
403.737	504.039
406.63	311.828
409.523	310.41
412.416	294.914
415.308	243.394
418.201	203.106
421.094	234.121
423.986	372.977
426.879	319.289
429.772	319.152
432.664	283.731
435.557	266.316
438.45	23.9766
441.343	14.793
444.235	114.348
447.128	99.375
450.021	126.211
452.913	253.957
455.806	427.016
458.699	457.082
461.591	737.562
464.484	908.359
467.377	1084.96
470.27	1198.14
473.162	1041.87
476.055	974.473
478.948	755.231
481.84	492.926
484.733	305.488
487.626	418.723
490.519	307.285
493.411	272.086
496.304	404.891
499.197	227.102
502.089	213.297
504.982	222.547
507.875	90.8047
510.767	210.691
513.66	288.16
516.553	447.988
519.446	507.988
522.338	631.809
525.231	602.074
528.124	640.547
531.016	432.59
533.909	242.394
536.802	434.07
539.694	302.621
542.587	266.691
545.48	241.797
548.372	329.418
551.265	371.887
554.158	210.496
557.051	72.8281
559.943	240.133
562.836	110.769
565.729	83.1875
568.621	16.3789
571.514	124.727
574.407	71.832
577.299	7.96094
580.192	29.957
583.085	145.078
585.978	26.168
588.87	131.738
591.763	221.293
594.656	309.844
597.548	209.578
600.441	327.668
603.334	634.441
606.227	784.746
609.119	1160.07
612.012	1536.12
614.905	2061.5
617.797	2265.98
620.69	2508.97
623.583	2272.21
626.476	1915.92
629.368	1312.94
632.261	1169.34
635.154	879.074
638.046	730.648
640.939	683.543
643.832	366.82
646.724	492.988
649.617	442.961
652.51	445.863
655.403	594.117
658.295	551.496
661.188	620.488
664.081	802.695
666.973	1360.36
669.866	2078.2
672.759	2953.38
675.651	4650.66
678.544	6887.28
681.437	9393.41
684.33	11731.8
687.222	12694.7
690.115	12017.1
693.008	9397.63
695.9	6823.95
698.793	4795.97
701.686	3676.11
704.578	2977.79
707.471	2297.6
710.364	2075.52
713.256	1602.28
716.149	1242.44
719.042	843.699
721.935	553.707
724.827	404.219
727.72	186.07
730.613	382.137
733.505	12.5
736.398	15.5234
739.291	198.293
742.183	98.918
745.076	30.7891
747.969	94.6406
750.862	122.629
753.754	170.144
756.647	238.488
759.54	224.984
762.432	328.418
765.325	418.195
768.218	427.082
771.111	96.293
774.003	146.371
776.896	295.016
779.789	189.055
782.681	22.1211
785.574	45.4609
788.467	157.508
791.359	206.578
794.252	103.023
797.145	116.594
800.038	75.3047
802.93	138.672
805.823	144.902
808.716	57.9023
811.608	221.91
814.501	126.219
817.394	132.09
820.286	224.871
823.179	227.273
826.072	79.3672
828.965	158.777
831.857	153.258
834.75	123.312
837.643	102.871
840.535	179.172
843.428	171.082
846.321	91.3008
849.213	116.394
852.106	295.414
854.999	136.566
857.891	227.481
860.784	77.3906
863.677	183.195
866.57	83.2539
869.462	30.5547
872.355	99.2305
875.248	178.691
878.14	167.797
881.033	112.012
883.926	186.859
886.819	27.8789
889.711	68.293
892.604	198.621
895.497	131
898.389	23.0586
901.282	21.4492
904.175	53.168
907.067	148.492
909.96	19.3398
912.853	172.055
915.746	188.688
918.638	325.539
921.531	355.707
924.424	357.695
927.316	327.891
930.209	417.344
933.102	412.672
935.995	574.258
938.887	403.027
941.78	346.738
944.673	283.211
947.565	295.602
950.458	345.93
953.351	163.574
956.243	224.992
959.136	293.738
962.029	131.969
964.922	70.2695
967.814	129.246
970.707	135.141
973.6	130.383
976.492	307.109
979.385	95.6289
982.278	257.207
985.17	167.656
988.063	111.422
990.956	19.2422
993.848	316.016
996.741	3.08594
999.634	287.043
1002.53	10.1719
1005.42	21.7148
1008.31	221.332
1011.21	120.863
1014.1	20.7695
1016.99	279.223
1019.88	90.5977
1022.78	248.519
1025.67	229.129
1028.56	53.8789
1031.45	213.606
1034.35	111.66
1037.24	128.141
1040.13	317.098
1043.02	199.617
1045.92	229.238
1048.81	215.242
1051.7	332.461
1054.6	415.207
1057.49	380.254
1060.38	520.363
1063.27	700.863
1066.17	715.441
1069.06	769.43
1071.95	847.227
1074.84	775.773
1077.74	1182.18
1080.63	1380.64
1083.52	1239.32
1086.41	1272.21
1089.31	1370.48
1092.2	1340.32
1095.09	1374.82
1097.99	1268.89
1100.88	937.652
1103.77	1022.9
1106.66	622.195
1109.56	443.512
1112.45	268.41
1115.34	105.898
1118.23	150.883
1121.13	205.848
1124.02	43.1289
1126.91	61.9492
1129.81	53.1445
1132.7	37.418
1135.59	43.9102
1138.48	80.2148
1141.38	183.988
1144.27	129.191
1147.16	82.0273
1150.05	107.231
1152.95	254.211
1155.84	107.785
1158.73	93.0977
1161.62	101.793
1164.52	178.051
1167.41	178.559
1170.3	109.195
1173.2	236.449
1176.09	182.254
1178.98	98.0938
1181.87	174.133
1184.77	126.262
1187.66	76.7617
1190.55	261.027
1193.44	103.719
1196.34	110.262
1199.23	34.3828
1202.12	291.223
1205.02	177.594
1207.91	101.883
1210.8	56.668
1213.69	135.285
1216.59	143.453
1219.48	151.766
1222.37	134.594
1225.27	38.3594
1228.16	152.57
1231.05	380.285
1233.94	124.484
1236.84	245.945
1239.73	254.512
1242.62	390.094
1245.51	257.852
1248.41	108.195
1251.3	234.734
1254.19	112.398
1257.08	106.586
1259.98	260.367
1262.87	263.281
1265.76	210.438
1268.65	220.188
1271.55	357.211
1274.44	244.898
1277.33	141.961
1280.23	259.672
1283.12	448.945
1286.01	183.445
1288.9	157.273
1291.8	344.211
1294.69	294.094
1297.58	162.516
1300.47	137.797
1303.37	119.781
1306.26	117.492
1309.15	212.812
1312.05	29.7188
1314.94	0
