Measurement: Raman, 785 nm, unoriented, Raman Data Processed
Mineral: Chrysotile
Rruff sample: R070088
Ideal chemistry: Mg_3_Si_2_O_5_(OH)_4_
Locality: Cassiar Asbestos mine, Cassiar, British Columbia, Canada
Source: Lloyd Twaites
Description: Green silky fibrous aggregate, transparent in parts
Raman shift (cm-1)	intensity
146.598	0
149.491	144.883
152.384	190.82
155.276	78.4331
158.169	22.585
161.062	46.3369
163.954	178.312
166.847	290.167
169.74	355.281
172.632	294.549
175.525	262.047
178.418	256.372
181.311	235.352
184.203	271.082
187.096	319.323
189.989	365.238
192.881	385.026
195.774	506.517
198.667	644.904
201.56	785.463
204.452	657.468
207.345	394.539
210.238	344.86
213.13	378.678
216.023	556.533
218.916	865.066
221.808	1537.04
224.701	2508.99
227.594	3564.81
230.487	4527.25
233.379	4938.77
236.272	4023.4
239.165	2210.33
242.057	1057.75
244.95	553.654
247.843	355.013
250.735	320.96
253.628	262.668
256.521	266.212
259.413	288.866
262.306	288.749
265.199	240.833
268.092	193.093
270.984	125.324
273.877	85.5337
276.77	83.3174
279.662	4.96655
282.555	25.1904
285.448	5.2605
288.341	4.0625
291.233	5.16235
294.126	19.5649
297.019	27.6284
299.911	87.7068
302.804	179.529
305.697	211.401
308.589	163.333
311.482	167.95
314.375	243.518
317.267	323.063
320.16	271.113
323.053	187.391
325.946	112.658
328.838	82.551
331.731	68.905
334.624	158.215
337.516	376.043
340.409	757.648
343.302	1190.48
346.195	1448.1
349.087	800.597
351.98	228.208
354.873	0.725098
357.765	17.4153
360.658	2.12402
363.551	82.3823
366.443	329.661
369.336	520.006
372.229	681.802
375.122	977.711
378.014	1576.37
380.907	2601.89
383.8	4274.48
386.692	6583.18
389.585	8716.89
392.478	7016.97
395.37	3161.96
398.263	1433.32
401.156	849.395
404.048	566.044
406.941	329.794
409.834	262.228
412.727	165.035
415.619	145.388
418.512	73.6858
421.405	53.0017
424.297	37.2703
427.19	40.7358
430.083	189.064
432.976	305.722
435.868	160.515
438.761	98.9104
441.654	14.3147
444.546	39.033
447.439	82.1724
450.332	143.729
453.224	229.936
456.117	342.812
459.01	454.062
461.902	487.549
464.795	559.533
467.688	464.723
470.581	315.731
473.473	147.649
476.366	68.5071
479.259	15.7539
482.151	37.0176
485.044	22.3201
487.937	51.5156
490.829	54.9861
493.722	84.3137
496.615	117.736
499.508	127.244
502.4	93.6719
505.293	101.862
508.186	114.148
511.078	161.086
513.971	106.043
516.864	122.211
519.756	194.978
522.649	216.875
525.542	231.575
528.435	202.925
531.327	173.066
534.22	194.395
537.113	194.148
540.005	185.685
542.898	164.261
545.791	181.018
548.683	197.579
551.576	125.416
554.469	147.253
557.362	86.0679
560.254	108.363
563.147	58.999
566.04	21.4409
568.932	2.729
571.825	22.8503
574.718	33.5488
577.611	14.252
580.503	4.09619
583.396	2.3689
586.289	37.948
589.181	8.56592
592.074	55.4553
594.967	119.737
597.859	149.038
600.752	149.348
603.645	196.593
606.538	235.853
609.43	324.295
612.323	447.173
615.216	576.471
618.108	795.22
621.001	938.938
623.894	990.756
626.786	886.202
629.679	747.21
632.572	529.89
635.465	376.735
638.357	238.824
641.25	178.126
644.143	96.0523
647.035	92.0237
649.928	59.1453
652.821	54.7437
655.713	34.4216
658.606	103.975
661.499	124.242
664.391	140.196
667.284	236.238
670.177	357.074
673.07	521.306
675.962	746.691
678.855	1147.06
681.748	1903.43
684.64	3136.99
687.533	5061.24
690.426	7016.17
693.318	7287.58
696.211	5492.7
699.104	3471.98
701.997	2272.37
704.889	1548.09
707.782	1169.11
710.675	811.388
713.567	535.27
716.46	367.959
719.353	248.822
722.245	184.125
725.138	89.321
728.031	46.9717
730.924	9.84692
733.816	11.6189
736.709	1.44678
739.602	1.0105
742.494	11.5584
745.387	21.0422
748.28	1.54688
751.173	26.0464
754.065	16.6299
756.958	30.0373
759.851	29.1621
762.743	83.4707
765.636	103.812
768.529	138.882
771.421	168.336
774.314	154.304
777.207	84.1626
780.1	78.646
782.992	86.0923
785.885	65.6628
788.778	56.761
791.67	26.8345
794.563	30.5161
797.456	11.3318
800.348	14.781
803.241	15.1887
806.134	35.7759
809.027	17.855
811.919	47.3625
814.812	39.529
817.705	54.6675
820.597	30.6072
823.49	40.7454
826.383	34.8003
829.275	71.5618
832.168	12.116
835.061	43.5154
837.953	44.0776
840.846	24.6243
843.739	5.72974
846.631	32.7178
849.524	18.8748
852.417	7.23438
855.31	27.5332
858.202	2.94214
861.095	51.4714
863.988	25.4421
866.88	45.9004
869.773	14.4395
872.666	34.9634
875.558	6.9729
878.451	0.511475
881.344	48.9465
884.237	6.38428
887.129	13.8831
890.022	32.4031
892.915	3.05786
895.807	2.70044
898.7	20.655
901.593	32.5226
904.486	7.32568
907.378	40.4238
910.271	4.60486
913.164	34.0731
916.056	21.3793
918.949	30.054
921.842	34.6251
924.734	28.6199
927.627	48.5324
930.52	32.5764
933.413	68.7996
936.305	44.0623
939.198	50.7981
942.091	58.5726
944.983	73.8737
947.876	78.6663
950.769	98.0106
953.661	118.061
956.554	113.403
959.447	108.176
962.34	100.869
965.232	112.119
968.125	119.94
971.018	147.016
973.91	173.235
976.803	245.268
979.696	234.074
982.588	196.564
985.481	124.578
988.374	80.9749
991.266	86.766
994.159	37.8663
997.052	51.6897
999.945	46.6877
1002.84	43.8286
1005.73	46.8557
1008.62	15.4019
1011.51	4.20593
1014.41	19.437
1017.3	21.5071
1020.19	13.1166
1023.09	5.20544
1025.98	1.25696
1028.87	10.9667
1031.76	19.7916
1034.66	1.44751
1037.55	25.91
1040.44	20.3658
1043.34	36.0279
1046.23	14.8118
1049.12	3.43506
1052.01	34.0551
1054.91	29.4283
1057.8	73.9053
1060.69	75.0752
1063.58	78.2739
1066.48	108.484
1069.37	69.6278
1072.26	117.969
1075.15	134.466
1078.05	170.043
1080.94	136.492
1083.83	210.943
1086.73	222.624
1089.62	272.995
1092.51	345.253
1095.4	493.052
1098.3	640.071
1101.19	880.76
1104.08	1140.05
1106.97	1245.18
1109.87	964.397
1112.76	581.398
1115.65	345.26
1118.55	205.284
1121.44	154.769
1124.33	87.364
1127.22	92.5437
1130.12	47.885
1133.01	30.8289
1135.9	37.8016
1138.79	36.2455
1141.69	40.4712
1144.58	45.7905
1147.47	9.94739
1150.37	12.604
1153.26	23.2432
1156.15	30.5419
1159.04	48.334
1161.94	1.69055
1164.83	36.5137
1167.72	10.5198
1170.61	15.7938
1173.51	46.7071
1176.4	21.6505
1179.29	13.584
1182.18	32.1165
1185.08	32.4888
1187.97	7.01868
1190.86	35.7515
1193.76	27.6454
1196.65	1.16907
1199.54	27.7467
1202.43	28.6371
1205.33	1.74072
1208.22	25.1277
1211.11	28.6534
1214	28.8302
1216.9	55.4474
1219.79	56.5035
1222.68	33.0992
1225.58	14.6389
1228.47	17.4501
1231.36	36.6571
1234.25	13.8529
1237.15	18.1511
1240.04	19.5125
1242.93	24.8661
1245.82	43.7993
1248.72	90.1759
1251.61	31.5192
1254.5	20.7404
1257.39	0
