Measurement: Raman, 780 nm, unoriented, Raman Data Processed
Mineral: Chrysoberyl
Rruff sample: R080110
Ideal chemistry: BeAl_2_O_4_
Locality: Ratonapura, Sri Lanka
Source: Shinichi Kihara
Description: Pale greenish blue euhedral single crystal
Raman shift (cm-1)	intensity
113.254	0
116.629	0.975979
120.004	0.919662
123.379	1.4768
126.754	0.777302
130.129	1.32022
133.503	0.683151
136.878	1.30359
140.253	2.13095
143.628	0.29579
147.003	0.553553
150.377	0.187235
153.752	0.050583
157.127	0.039585
160.502	0.40131
163.877	0.924479
167.251	0.445663
170.626	0.359262
174.001	0.780766
177.376	0.40612
180.751	1.19192
184.126	1.37961
187.5	1.70401
190.875	1.95418
194.25	2.62071
197.625	2.82083
201	3.81185
204.375	3.44026
207.749	3.60704
211.124	4.37394
214.499	4.42215
217.874	5.08632
221.249	5.62265
224.623	5.69468
227.998	5.91621
231.373	6.5607
234.748	8.48571
238.123	13.7974
241.498	21.302
244.872	20.749
248.247	4.11273
251.622	0.565212
254.997	0.655014
258.372	0.201416
261.746	0.338062
265.121	0.064684
268.496	0.143499
271.871	0.551672
275.246	0.373861
278.62	0.150034
281.995	0.636829
285.37	0.546825
288.745	1.09975
292.12	1.00389
295.495	0.481827
298.869	0.821611
302.244	0.876881
305.619	0.902887
308.994	0.445627
312.369	1.07231
315.743	0.365665
319.118	1.38264
322.493	0.828079
325.868	1.66784
329.243	1.50335
332.618	3.05162
335.992	4.19891
339.367	6.49021
342.742	10.2757
346.117	20.2713
349.492	44.7204
352.866	42.4154
356.241	20.6892
359.616	7.86565
362.991	3.51789
366.366	3.66977
369.74	4.1895
373.115	5.21273
376.49	2.49802
379.865	1.59605
383.24	0.665447
386.615	0.902517
389.989	1.1115
393.364	0.673609
396.739	1.3694
400.114	0.725914
403.489	0.168827
406.863	0.383295
410.238	0.069983
413.613	0.027266
416.988	0.546841
420.363	0.514513
423.738	0.136173
427.112	0.026018
430.487	0.494085
433.862	0.069775
437.237	2.66042
440.612	4.80085
443.986	4.08141
447.361	3.21885
450.736	3.19938
454.111	3.58445
457.486	7.64962
460.861	16.9295
464.235	9.40183
467.61	8.04426
470.985	15.2287
474.36	30.7289
477.735	77.8173
481.109	76.4522
484.484	20.3957
487.859	9.01872
491.234	5.3561
494.609	3.0532
497.983	2.33906
501.358	2.32551
504.733	1.2412
508.108	1.13023
511.483	1.99712
514.858	3.93778
518.232	6.39114
521.607	14.6875
524.982	22.3994
528.357	10.1971
531.732	2.43237
535.106	0.154509
538.481	0.053127
541.856	0.266256
545.231	0.163218
548.606	0.027721
551.981	0.119396
555.355	1.30056
558.73	2.2987
562.105	7.08523
565.48	17.2369
568.855	12.4541
572.23	3.21843
575.604	1.30492
578.979	1.15904
582.354	1.046
585.729	0.265589
589.104	0.948509
592.478	1.33732
595.853	1.37863
599.228	1.27903
602.603	1.575
605.978	0.495243
609.352	0.218023
612.727	0.218269
616.102	0.162752
619.477	0.287811
622.852	0.150038
626.226	0.344906
629.601	0.171192
632.976	0.494814
636.351	0.537003
639.726	1.96022
643.101	1.28825
646.475	0.796764
649.85	1.96209
653.225	3.0843
656.6	3.52811
659.975	3.96426
663.35	4.66902
666.724	5.49324
670.099	7.70524
673.474	13.2054
676.849	24.4832
680.224	21.5475
683.598	8.7089
686.973	4.22479
690.348	2.15192
693.723	2.16309
697.098	3.61071
700.472	4.08065
703.847	6.88366
707.222	12.6168
710.597	27.2312
713.972	30.8768
717.347	9.96022
720.721	3.11666
724.096	0.864981
727.471	0.032272
730.846	0.222591
734.221	0.34095
737.596	0.163815
740.97	2.11684
744.345	4.12678
747.72	3.45805
751.095	1.24343
754.47	0.819763
757.844	1.65185
761.219	2.12709
764.594	3.79447
767.969	6.81356
771.344	11.7761
774.718	22.0786
778.093	32.403
781.468	32.6962
784.843	19.8027
788.218	9.06592
791.592	4.81365
794.967	2.09717
798.342	0.542761
801.717	0.905924
805.092	0.216911
808.467	0.100613
811.841	0.007629
815.216	0.75786
818.591	0.730385
821.966	0.748653
825.341	1.0886
828.716	0.87438
832.09	1.10216
835.465	0.852636
838.84	0.859545
842.215	1.05102
845.59	0.792669
848.964	0.865097
852.339	0.597242
855.714	0.457548
859.089	1.32187
862.464	0.18173
865.838	0.374458
869.213	0.044235
872.588	0.339527
875.963	0.195595
879.338	0.014517
882.713	0.514137
886.087	0.361223
889.462	0.252714
892.837	0.610445
896.212	1.08454
899.587	0.85886
902.962	1.8069
906.336	3.69136
909.711	4.38267
913.086	7.79234
916.461	12.1564
919.836	21.2521
923.21	34.1653
926.585	55.7651
929.96	85.0707
933.335	102.14
936.71	82.4163
940.084	52.9447
943.459	32.9119
946.834	20.4767
950.209	13.8247
953.584	8.63036
956.958	6.44588
960.333	4.34065
963.708	3.52925
967.083	2.31105
970.458	1.60954
973.833	1.27416
977.207	0.390043
980.582	0.702354
983.957	0.282879
987.332	0.36659
990.707	0.203505
994.082	0.042755
997.456	0.291391
1000.83	0.047417
1004.21	0.499447
1007.58	0.099156
1010.96	0.416354
1014.33	0.352555
1017.71	0.253675
1021.08	0.466363
1024.45	0.144952
1027.83	0.231042
1031.2	0.658097
1034.58	0.162771
1037.95	0.996704
1041.33	0.240407
1044.7	0.165701
1048.08	0.28864
1051.45	0.132854
1054.83	0.506355
1058.2	0.613482
1061.58	0.068092
1064.95	0.066622
1068.33	0.483609
1071.7	0.503297
1075.08	0.514401
1078.45	0.087248
1081.83	0.608038
1085.2	0.704033
1088.58	0.149857
1091.95	0.004694
1095.33	0.357272
1098.7	0.357704
1102.08	0.502439
1105.45	0.045117
1108.83	0.7746
1112.2	0.196725
1115.58	0.494421
1118.95	0.479909
1122.32	0.591457
1125.7	1.03783
1129.07	0.368846
1132.45	0.575398
1135.82	0.123806
1139.2	0.202704
1142.57	0.457068
1145.95	0.425766
1149.32	0.848343
1152.7	0.432024
1156.07	0.647863
1159.45	0.941772
1162.82	0.123367
1166.2	0.171895
1169.57	0.343048
1172.95	0.592634
1176.32	0.856318
1179.7	0.173286
1183.07	0.344897
1186.45	0.693825
1189.82	0.338893
1193.2	0.228506
1196.57	0.023269
1199.94	0.112175
1203.32	0.24179
1206.69	0.406071
1210.07	0.453415
1213.44	0.522813
1216.82	0.183399
1220.19	0.094279
1223.57	0.293964
1226.94	1.44486
1230.32	3.27174
1233.69	2.35542
1237.07	2.52702
1240.44	3.59714
1243.82	6.38046
1247.19	3.85593
1250.57	2.0676
1253.94	0.753458
1257.32	1.07007
1260.69	1.20253
1264.07	0.247867
1267.44	0.930182
1270.82	0.331751
1274.19	0.430414
1277.57	0.021363
1280.94	0.177035
1284.32	0.449343
