Measurement: Raman, 532 nm, unoriented, Raman Data Processed
Mineral: Chrysoberyl
Rruff sample: R080110
Ideal chemistry: BeAl_2_O_4_
Locality: Ratonapura, Sri Lanka
Source: Shinichi Kihara
Description: Pale greenish blue euhedral single crystal
Raman shift (cm-1)	intensity
125.62	0
128.994	1.61278
132.369	3.47138
135.744	4.22146
139.119	5.71907
142.494	2.7299
145.869	2.63057
149.243	1.9595
152.618	2.11018
155.993	1.96695
159.368	1.40272
162.743	1.34835
166.117	0.409878
169.492	0.48925
172.867	0.002792
176.242	0.244263
179.617	0.855629
182.992	0.006302
186.366	0.738232
189.741	0.056316
193.116	0.035618
196.491	0.023743
199.865	1.2966
203.24	1.10563
206.615	1.08041
209.99	1.58192
213.365	1.90008
216.74	1.98972
220.114	2.2936
223.489	3.3156
226.864	5.18665
230.239	6.32723
233.614	9.00785
236.988	13.3839
240.363	17.8344
243.738	17.2146
247.113	3.33804
250.488	0.98579
253.863	0.612453
257.237	0.045994
260.612	0.431877
263.987	0.172802
267.362	0.673866
270.737	0.729446
274.111	0.345306
277.486	0.442146
280.861	1.17475
284.236	0.870842
287.611	1.25045
290.986	0.403721
294.36	0.713203
297.735	1.29161
301.11	0.836224
304.485	1.12962
307.86	1.64988
311.235	2.40074
314.609	2.65078
317.984	2.48189
321.359	3.35267
324.734	2.98339
328.109	2.99813
331.483	5.6241
334.858	8.33909
338.233	12.674
341.608	16.9022
344.983	23.816
348.358	38.2375
351.732	43.536
355.107	39.9529
358.482	19.9685
361.857	11.272
365.231	11.7503
368.606	14.6306
371.981	12.965
375.356	4.24265
378.731	0.968029
382.106	0.387165
385.48	0.063194
388.855	0.039467
392.23	0.026855
395.605	0.532898
398.98	0.061443
402.354	0.441322
405.729	0.431515
409.104	0.214497
412.479	0.558937
415.854	1.73307
419.229	1.4067
422.603	2.10672
425.978	1.46643
429.353	2.85329
432.728	3.84673
436.103	6.9385
439.478	10.2425
442.852	6.62828
446.227	3.52481
449.602	3.62324
452.977	3.44548
456.352	6.42638
459.726	14.0343
463.101	27.0957
466.476	35.6294
469.851	52.125
473.226	84.56
476.601	157.112
479.975	148.249
483.35	33.9602
486.725	11.2276
490.1	4.63985
493.475	1.71037
496.849	0.55666
500.224	0.133266
503.599	0.577221
506.974	1.05861
510.349	3.90481
513.723	6.33501
517.098	10.7391
520.473	16.7129
523.848	21.0201
527.223	9.79526
530.598	3.61167
533.972	1.88009
537.347	1.66954
540.722	0.769203
544.097	1.69812
547.472	3.81891
550.846	7.17851
554.221	10.7013
557.596	16.293
560.971	27.7834
564.346	43.8837
567.721	31.0537
571.095	8.12831
574.47	3.03463
577.845	1.78278
581.22	0.812649
584.595	0.408218
587.969	0.362358
591.344	0.148228
594.719	0.21397
598.094	0.692173
601.469	0.154598
604.843	0.202332
608.218	0.541626
611.593	0.983318
614.968	0.353691
618.343	0.512352
621.718	0.031673
625.092	0.887508
628.467	0.277054
631.842	0.094429
635.217	0.439014
638.592	1.84004
641.966	1.78367
645.341	1.71799
648.716	3.07437
652.091	4.63199
655.466	5.57135
658.841	6.91682
662.215	10.6837
665.59	15.9304
668.965	24.4344
672.34	39.2743
675.715	61.6061
679.09	48.9928
682.464	20.5443
685.839	7.26704
689.214	3.41404
692.589	2.36407
695.964	3.00889
699.338	6.52913
702.713	8.42341
706.088	14.3282
709.463	24.0609
712.838	25.3921
716.212	8.00103
719.587	1.85264
722.962	0.172165
726.337	0.528488
729.712	0.34761
733.087	1.23476
736.461	2.40679
739.836	5.80213
743.211	10.4767
746.586	7.12155
749.961	1.42076
753.335	0.786301
756.71	1.57787
760.085	5.16517
763.46	10.8685
766.835	20.9089
770.21	35.574
773.584	53.6282
776.959	71.6625
780.334	67.1904
783.709	40.0993
787.084	19.0582
790.458	9.44409
793.833	4.48296
797.208	2.32261
800.583	0.48843
803.958	0.363537
807.332	0.32476
810.707	0.16843
814.082	0.107002
817.457	0.782089
820.832	1.65222
824.207	1.90691
827.581	2.16737
830.956	2.25562
834.331	3.37516
837.706	1.88428
841.081	2.03011
844.456	1.30697
847.83	0.873894
851.205	0.858772
854.58	0.645866
857.955	1.21552
861.33	0.155151
864.704	0.822994
868.079	0.487869
871.454	0.226334
874.829	0.399345
878.204	0.76664
881.578	0.296848
884.953	0.554787
888.328	0.459431
891.703	0.774364
895.078	1.13031
898.453	1.19136
901.827	1.31763
905.202	3.88012
908.577	5.38894
911.952	9.03186
915.327	16.2394
918.702	27.6899
922.076	43.9975
925.451	66.0372
928.826	93.1137
932.201	104.59
935.576	84.9782
938.95	55.5445
942.325	33.0181
945.7	19.979
949.075	12.4812
952.45	8.81499
955.824	5.78995
959.199	3.83828
962.574	2.7239
965.949	2.02497
969.324	1.36079
972.698	0.898327
976.073	1.36483
979.448	0.481396
982.823	1.1253
986.198	0.434277
989.573	0.209248
992.947	0.571545
996.322	0.340042
999.697	1.62082
1003.07	1.24243
1006.45	1.56629
1009.82	1.55001
1013.2	1.43985
1016.57	0.975197
1019.95	1.91717
1023.32	0.814117
1026.7	1.51869
1030.07	1.27181
1033.44	0.934738
1036.82	1.58606
1040.19	0.194984
1043.57	0.738892
1046.94	0.721992
1050.32	0.669998
1053.69	0.410931
1057.07	0.803387
1060.44	0.417545
1063.82	0.515083
1067.19	0.144379
1070.57	0.20507
1073.94	0.473595
1077.32	0.003376
1080.69	0.36832
1084.07	0.225842
1087.44	0.402992
1090.82	0.961731
1094.19	0.583591
1097.57	1.44152
1100.94	0.459877
1104.32	0.317204
1107.69	0.258045
1111.07	0.627586
1114.44	1.21021
1117.82	0.182613
1121.19	1.10935
1124.57	0.054447
1127.94	0.470844
1131.32	1.26032
1134.69	0.874416
1138.07	0.880398
1141.44	0.977264
1144.81	0.695309
1148.19	0.666626
1151.56	0.457169
1154.94	0.611973
1158.31	1.09842
1161.69	0.664063
1165.06	0.540909
1168.44	0.625626
1171.81	0.668678
1175.19	0.395233
1178.56	0.08429
1181.94	1.20717
1185.31	0.364159
1188.69	0.743629
1192.06	0.947174
1195.44	0.328148
1198.81	0.637119
1202.19	0.439224
1205.56	1.21238
1208.94	1.3602
1212.31	0.417561
1215.68	0.282108
1219.06	0.943279
1222.43	1.04541
1225.81	1.08126
1229.18	1.10276
1232.56	1.40787
1235.93	1.65587
1239.31	1.08426
1242.68	1.21251
1246.06	0.806347
1249.43	1.17388
1252.81	1.2715
1256.18	1.33659
1259.56	0.412403
1262.93	0.934811
1266.31	0.844296
1269.68	0.164963
1273.06	0.192619
1276.43	0.653404
1279.81	0.785942
1283.18	0.889267
1286.56	1.14696
1289.93	0.215683
1293.31	0.76004
1296.68	0.85508
1300.06	0.063457
1303.43	0.188919
