Measurement: Raman, 780 nm, unoriented, Raman Data Processed
Mineral: Chrysoberyl
Rruff sample: X080004
Ideal chemistry: BeAl_2_O_4_
Locality: Synthetic
Source: Gemological Institute of America
Description: Faceted green gemstone, 4.65 ct
Raman shift (cm-1)	intensity
100.533	0
103.908	0.017807
107.282	2.43591
110.657	0.342709
114.032	0.363613
117.407	1.01152
120.782	0.05661
124.157	1.2878
127.531	1.1527
130.906	1.47014
134.281	1.48338
137.656	0.96557
141.031	1.47445
144.405	0.501068
147.78	0.842779
151.155	0.843929
154.53	0.918907
157.905	0.69009
161.28	1.38097
164.654	0.544167
168.029	0.233713
171.404	1.00758
174.779	0.339184
178.154	1.06713
181.529	0.73477
184.903	0.290932
188.278	0.675827
191.653	0.960188
195.028	0.97016
198.403	0.88566
201.777	0.756304
205.152	1.32555
208.527	1.66013
211.902	0.56465
215.277	2.06993
218.651	0.207026
222.026	1.8101
225.401	2.56645
228.776	2.10675
232.151	3.36713
235.526	7.20941
238.9	10.6737
242.275	21.6772
245.65	11.7383
249.025	2.83359
252.4	2.33923
255.774	0.4972
259.149	0.920073
262.524	0.30426
265.899	0.104305
269.274	0.182888
272.649	0.462515
276.023	0.294867
279.398	1.07317
282.773	0.172573
286.148	0.899977
289.523	0.194033
292.897	0.670645
296.272	0.408039
299.647	0.408464
303.022	0.448845
306.397	0.548872
309.772	0.829142
313.146	0.32416
316.521	0.99663
319.896	0.949778
323.271	0.600998
326.646	1.7358
330.021	1.57727
333.395	2.98808
336.77	4.10778
340.145	4.13653
343.52	5.955
346.895	9.91539
350.269	21.6602
353.644	18.3278
357.019	18.298
360.394	6.04232
363.769	5.07823
367.144	7.78284
370.518	15.167
373.893	10.6121
377.268	2.53506
380.643	0.393078
384.018	0.58762
387.392	0.817772
390.767	0.063433
394.142	0.002935
397.517	0.071978
400.892	0.491402
404.267	0.725439
407.641	0.24571
411.016	0.04953
414.391	0.863012
417.766	0.606901
421.141	1.10125
424.515	0.805124
427.89	0.333221
431.265	0.57342
434.64	1.41767
438.015	2.17543
441.389	5.39888
444.764	1.90192
448.139	0.768532
451.514	0.614931
454.889	1.57261
458.264	3.33065
461.639	9.84758
465.013	9.4836
468.388	9.55925
471.763	15.8367
475.138	32.0115
478.512	99.9253
481.887	62.3807
485.262	9.5191
488.637	2.32921
492.012	0.383999
495.387	0.509983
498.761	0.017666
502.136	0.578823
505.511	0.603441
508.886	0.915258
512.261	1.22879
515.636	2.49138
519.01	5.27149
522.385	9.94638
525.76	14.3271
529.135	3.92032
532.51	0.688309
535.885	0.661917
539.259	0.604095
542.634	0.390417
546.009	0.450338
549.384	1.79346
552.759	2.20625
556.133	3.59604
559.508	5.84534
562.883	12.9246
566.258	27.2223
569.633	13.0854
573.007	3.86903
576.382	1.68068
579.757	0.813733
583.132	0.20507
586.507	0.864431
589.882	0.119099
593.256	0.079007
596.631	0.802253
600.006	0.137331
603.381	0.167529
606.756	0.410815
610.13	0.090488
613.505	0.136983
616.88	0.283803
620.255	0.504627
623.63	0.535093
627.005	0.358587
630.379	0.089663
633.754	0.002201
637.129	1.02277
640.504	2.65341
643.879	0.891792
647.254	0.916464
650.628	0.003349
654.003	1.21236
657.378	1.69993
660.753	1.76461
664.128	4.80092
667.502	6.29734
670.877	10.0768
674.252	23.0226
677.627	42.1309
681.002	24.9384
684.376	8.55085
687.751	3.75123
691.126	1.64008
694.501	0.168243
697.876	1.5577
701.251	1.74555
704.625	3.82696
708	6.70459
711.375	16.8061
714.75	12.6861
718.125	3.59599
721.5	0.778728
724.874	0.225435
728.249	0.101265
731.624	0.081173
734.999	1.04192
738.374	2.42665
741.748	6.35515
745.123	11.5974
748.498	5.12817
751.873	1.85196
755.248	1.27347
758.622	2.0876
761.997	4.98888
765.372	7.97779
768.747	16.4917
772.122	25.3687
775.497	42.425
778.871	59.7126
782.246	50.6137
785.621	27.8873
788.996	13.4688
792.371	8.04036
795.745	5.42355
799.12	1.8278
802.495	2.09457
805.87	1.26195
809.245	0.489893
812.62	0.735224
815.994	0.194498
819.369	0.04649
822.744	0.488827
826.119	0.268143
829.494	0.080078
832.869	0.88802
836.243	0.250805
839.618	0.711782
842.993	0.178476
846.368	0.268465
849.743	0.919184
853.117	0.819572
856.492	0.257994
859.867	0.717648
863.242	0.695095
866.617	1.05316
869.991	0.168869
873.366	0.120283
876.741	0.928564
880.116	0.046217
883.491	0.356888
886.866	0.09506
890.24	0.557482
893.615	0.276035
896.99	0.17
900.365	1.00361
903.74	1.62764
907.115	2.59315
910.489	3.09985
913.864	4.81619
917.239	8.86489
920.614	13.741
923.989	22.5187
927.364	33.3117
930.738	47.555
934.113	54.1361
937.488	41.5298
940.863	25.932
944.237	16.87
947.612	10.0673
950.987	7.01904
954.362	3.98592
957.737	3.49993
961.112	2.51204
964.486	1.78963
967.861	1.22472
971.236	0.78117
974.611	0.706223
977.986	0.053708
981.361	0.090704
984.735	0.55362
988.11	0.032462
991.485	0.968005
994.86	0.411861
998.235	0.735515
1001.61	0.662801
1004.98	0.663671
1008.36	0.08389
1011.73	0.464232
1015.11	0.853843
1018.48	0.358378
1021.86	0.127315
1025.23	0.770119
1028.61	0.316653
1031.98	0.758819
1035.36	0.686699
1038.73	1.04527
1042.11	0.508333
1045.48	0.741817
1048.86	0.011033
1052.23	0.914905
1055.61	0.929668
1058.98	0.730542
1062.36	0.617858
1065.73	0.275751
1069.11	1.30242
1072.48	0.870368
1075.86	0.932795
1079.23	0.35274
1082.61	0.134521
1085.98	0.290403
1089.36	0.916502
1092.73	0.588937
1096.1	0.015213
1099.48	0.47689
1102.85	0.780123
1106.23	0.620235
1109.6	0.966054
1112.98	0.058022
1116.35	0.730858
1119.73	0.20669
1123.1	0.715237
1126.48	0.495145
1129.85	0.575017
1133.23	0.50507
1136.6	0.111971
1139.98	0.885011
1143.35	0.185814
1146.73	0.295597
1150.1	0.199614
1153.48	0.884785
1156.85	0.107057
1160.23	0.603299
1163.6	0.819658
1166.98	0.544503
1170.35	0.50857
1173.72	0.187366
1177.1	1.0076
1180.47	0.818009
1183.85	0.003056
1187.22	0.590528
1190.6	0.630671
1193.97	0.468232
1197.35	1.14403
1200.72	0.725804
1204.1	0.668763
1207.47	1.10711
1210.85	0.317469
1214.22	0.478317
1217.6	0.594719
1220.97	0.087608
1224.35	1.48568
1227.72	0.941898
1231.1	1.30973
1234.47	1.24002
1237.85	1.59221
1241.22	1.8378
1244.6	1.37736
1247.97	1.1259
1251.35	0.4279
1254.72	1.51747
1258.1	0.813498
1261.47	0.290844
1264.85	1.1174
1268.22	0.120695
1271.6	0.677961
1274.97	0.796175
1278.35	0.070656
1281.72	0.146284
1285.09	0.822296
