Measurement: Raman, 532 nm, unoriented, Raman Data Processed
Mineral: Chrysoberyl
Rruff sample: R110103
Ideal chemistry: BeAl_2_O_4_
Locality: Synthetic
Source: Gemological Institute of America
Description: A cut (1.15ct) alexandrite gemstone, blue-green under fluorescent light, which appears purple under halogen light; flux grown.
Raman shift (cm-1)	intensity
176.791	0
179.684	8.10571
182.577	0.343628
185.469	3.22687
188.362	4.92047
191.255	0.764832
194.147	6.99683
197.04	5.1167
199.933	9.54559
202.825	9.64618
205.718	8.13648
208.611	5.47095
211.504	2.38721
214.396	1.14917
217.289	1.77325
220.182	2.14069
223.074	3.01935
225.967	0.403137
228.86	1.61737
231.752	1.78821
234.645	10.3262
237.538	18.15
240.43	19.1935
243.323	28.1662
246.216	14.5222
249.109	11.7882
252.001	7.90381
254.894	11.7741
257.787	13.1567
260.679	11.7705
263.572	11.2632
266.465	12.1802
269.358	10.9487
272.25	11.9617
275.143	12.878
278.036	11.1768
280.928	11.9077
283.821	7.7666
286.714	7.18103
289.606	5.48853
292.499	7.9809
295.392	8.20831
298.284	7.04022
301.177	12.3029
304.07	9.73175
306.963	10.7004
309.855	10.8131
312.748	9.55396
315.641	7.68695
318.533	7.95001
321.426	5.84094
324.319	2.43011
327.212	3.26092
330.104	3.92102
332.997	6.5058
335.89	11.8357
338.782	9.67236
341.675	15.1411
344.568	21.905
347.46	38.8608
350.353	68.0656
353.246	53.2289
356.139	46.4466
359.031	21.1153
361.924	10.7198
364.817	7.86926
367.709	9.66266
370.602	13.2314
373.495	7.71869
376.387	2.82373
379.28	0.602173
382.173	1.04755
385.065	1.66632
387.958	1.4964
390.851	1.57837
393.744	6.31793
396.636	14.8043
399.529	8.474
402.422	2.04083
405.314	0.65033
408.207	0.978455
411.1	0.276123
413.993	0.781799
416.885	5.39856
419.778	12.1999
422.671	15.9454
425.563	0.411255
428.456	0.739807
431.349	6.31958
434.241	6.29486
437.134	9.23938
440.027	14.9695
442.92	23.9463
445.812	43.0843
448.705	35.4811
451.598	5.01215
454.49	4.09821
457.383	6.56769
460.276	10.3742
463.168	4.80017
466.061	7.64233
468.954	19.0981
471.846	39.097
474.739	86.0659
477.632	211.606
480.525	186.712
483.417	43.5257
486.31	13.5577
489.203	3.87176
492.095	2.53662
494.988	2.98401
497.881	10.0001
500.774	27.139
503.666	55.5812
506.559	17.113
509.452	4.29443
512.344	12.6759
515.237	22.9969
518.13	49.7823
521.022	41.2653
523.915	33.3314
526.808	21.7425
529.701	7.44904
532.593	1.30499
535.486	0.794128
538.379	3.53619
541.271	3.38788
544.164	9.63629
547.057	16.5687
549.949	19.903
552.842	10.4703
555.735	10.66
558.628	13.642
561.52	23.1556
564.413	48.7852
567.306	50.6298
570.198	18.5954
573.091	7.21585
575.984	5.56314
578.876	4.95969
581.769	5.28748
584.662	2.97153
587.554	1.35602
590.447	5.04468
593.34	1.62869
596.232	4.37561
599.125	2.04114
602.018	1.32867
604.911	2.68899
607.803	1.29742
610.696	0.33725
613.589	1.6998
616.481	2.60913
619.374	1.45831
622.267	0.421326
625.159	2.37357
628.052	0.982208
630.945	1.60663
633.838	5.35922
636.73	10.581
639.623	23.6692
642.516	14.8036
645.408	11.6983
648.301	8.48941
651.194	12.5323
654.087	18.4395
656.979	23.8969
659.872	21.1929
662.765	15.3112
665.657	16.766
668.55	19.8297
671.443	33.3492
674.335	54.8837
677.228	88.339
680.121	59.3493
683.014	27.8337
685.906	16.9124
688.799	9.66577
691.692	9.22516
694.584	6.45136
697.477	8.11023
700.37	5.95306
703.263	5.55627
706.155	10.4208
709.048	19.6577
711.941	35.8605
714.833	19.7813
717.726	3.05316
720.619	2.16168
723.511	0.004578
726.404	0.629456
729.297	0.777344
732.189	0.331909
735.082	1.11072
737.975	2.96674
740.868	5.35205
743.76	13.2905
746.653	12.5013
749.546	5.03339
752.438	2.828
755.331	4.56793
758.224	2.6568
761.116	2.69086
764.009	5.10004
766.902	7.42688
769.795	11.8799
772.687	22.2129
775.58	36.8926
778.473	47.835
781.365	42.7266
784.258	26.2406
787.151	14.2279
790.043	9.64172
792.936	7.6947
795.829	0.929749
798.722	0.200256
801.614	1.85309
804.507	3.22284
807.4	3.70612
810.292	9.46155
813.185	18.1954
816.078	30.837
818.971	40.6257
821.863	27.7966
824.756	13.202
827.649	8.26849
830.541	8.74414
833.434	6.34015
836.327	3.6972
839.219	2.9176
842.112	3.88239
845.005	2.85205
847.898	0.931946
850.79	0.562195
853.683	2.66156
856.576	0.116638
859.468	2.22638
862.361	1.55792
865.254	1.08551
868.146	1.20019
871.039	1.98651
873.932	2.72211
876.824	4.78394
879.717	2.33337
882.61	2.70483
885.503	3.29877
888.395	3.02258
891.288	2.62207
894.181	3.28027
897.073	3.42444
899.966	4.92358
902.859	4.66248
905.751	8.11914
908.644	8.66956
911.537	12.0879
914.43	17.4152
917.322	27.949
920.215	36.1965
923.108	53.3696
926	79.2534
928.893	113.309
931.786	143.81
934.678	144.148
937.571	106.656
940.464	73.8413
943.357	50.5484
946.249	35.3642
949.142	30.6326
952.035	21.4168
954.927	15.7314
957.82	11.1164
960.713	8.22192
963.606	6.27826
966.498	5.29132
969.391	3.09937
972.284	2.62775
975.176	0.827698
978.069	0.478638
980.962	0.547485
983.854	0.031128
986.747	2.08575
989.64	0.061096
992.533	0.127136
995.425	2.43542
998.318	1.94232
1001.21	1.40759
1004.1	0.41803
1007	4.78735
1009.89	5.37878
1012.78	1.24072
1015.67	4.51727
1018.57	4.22138
1021.46	7.17157
1024.35	3.92737
1027.24	1.73212
1030.14	3.05804
1033.03	4.2641
1035.92	6.4079
1038.82	5.58423
1041.71	0.030029
1044.6	0.638916
1047.49	1.38306
1050.39	1.37537
1053.28	3.51782
1056.17	2.79913
1059.07	5.75897
1061.96	3.85968
1064.85	4.36847
1067.74	3.13062
1070.63	3.90662
1073.53	5.23224
1076.42	2.92615
1079.31	2.23651
1082.21	4.86011
1085.1	4.13611
1087.99	4.08423
1090.88	2.84338
1093.78	6.06177
1096.67	7.21674
1099.56	7.55585
1102.45	6.40216
1105.35	5.30389
1108.24	7.88367
1111.13	10.4182
1114.03	9.85895
1116.92	7.99707
1119.81	10.3406
1122.7	11.8066
1125.6	11.7917
1128.49	12.3405
1131.38	10.1893
1134.28	9.09772
1137.17	11.9417
1140.06	10.4185
1142.95	9.74591
1145.85	7.55872
1148.74	7.43506
1151.63	6.15643
1154.52	5.60303
1157.42	2.93243
1160.31	3.76623
1163.2	4.28223
1166.09	4.93085
1168.99	2.74359
1171.88	3.4032
1174.77	1.78388
1177.66	5.57916
1180.56	4.06909
1183.45	4.38428
1186.34	3.99542
1189.24	3.00378
1192.13	3.36761
1195.02	0.79248
1197.91	1.74365
1200.81	0.888306
1203.7	1.26172
1206.59	2.85205
1209.48	1.29663
1212.38	4.45252
1215.27	3.29901
1218.16	1.83343
1221.06	1.81348
1223.95	3.96643
1226.84	5.80286
1229.73	0.018677
1232.63	1.44531
1235.52	0.790894
1238.41	5.71332
1241.31	11.136
1244.2	13.5021
1247.09	7.11334
1249.98	9.23724
1252.88	16.649
1255.77	17.9005
1258.66	18.2497
1261.55	10.7923
1264.45	8.69885
1267.34	10.0028
1270.23	5.96082
1273.12	5.06891
1276.02	2.76703
1278.91	7.93469
1281.8	2.75555
1284.69	2.76355
1287.59	6.39398
1290.48	3.58118
1293.37	4.10919
1296.27	3.30243
1299.16	5.85718
1302.05	0.897339
