Measurement: Raman, 532 nm, unoriented, Raman Data Processed
Mineral: Chrysoberyl
Rruff sample: R100130
Ideal chemistry: BeAl_2_O_4_
Locality: Ratnapura district, Sri Lanka
Source: William W. Pinch
Description: Pale yellow sixling twin
Raman shift (cm-1)	intensity
150.818	0
153.71	0.448456
156.603	5.49637
159.496	5.85555
162.388	4.74855
165.281	3.79231
168.174	9.13759
171.067	14.5089
173.959	14.9348
176.852	13.2883
179.745	10.7825
182.637	7.42053
185.53	10.6922
188.423	9.36434
191.315	9.8992
194.208	10.64
197.101	11.6183
199.994	8.95912
202.886	9.41729
205.779	9.79179
208.672	9.7124
211.565	7.61653
214.457	8.38223
217.35	8.1515
220.243	9.77285
223.135	6.69447
226.028	6.47553
228.921	5.76958
231.813	6.44212
234.706	6.49625
237.599	9.27038
240.492	12.8837
243.384	13.2196
246.277	8.41866
249.17	0.921459
252.062	0.247917
254.955	2.57799
257.848	0.027893
260.74	0.51659
263.633	4.1231
266.526	0.347698
269.418	1.76939
272.311	1.68117
275.204	0.859123
278.097	0.714931
280.989	0.049259
283.882	0.246559
286.775	1.17424
289.667	0.511887
292.56	0.129318
295.453	0.576134
298.346	0.228035
301.238	0.818874
304.131	1.47715
307.024	0.317593
309.916	0.33527
312.809	1.6558
315.702	1.41701
318.594	1.01766
321.487	1.1967
324.38	0.77113
327.273	3.24853
330.165	4.76418
333.058	6.38971
335.951	10.3722
338.843	11.9689
341.736	20.5288
344.629	34.0874
347.522	59.9217
350.414	86.7565
353.307	42.3967
356.2	27.9687
359.092	26.2356
361.985	37.7207
364.878	59.8604
367.77	90.7019
370.663	102.387
373.556	53.1236
376.449	21.7934
379.341	9.26863
382.234	7.37984
385.127	6.03883
388.019	5.56202
390.912	8.2881
393.805	18.1224
396.697	34.667
399.59	15.6976
402.483	1.20472
405.376	0.03627
408.268	2.3396
411.161	0.179832
414.054	0.845158
416.946	1.52345
419.839	2.138
422.732	0.382553
425.625	1.7266
428.517	1.34917
431.41	3.818
434.303	10.1797
437.195	12.1777
440.088	24.7853
442.981	50.8785
445.873	87.3726
448.766	56.1923
451.659	33.3478
454.551	52.6615
457.444	102.493
460.337	166.296
463.23	52.0649
466.122	22.5443
469.015	23.8889
471.908	37.7168
474.8	72.0605
477.693	111.216
480.586	69.9236
483.479	24.4983
486.371	15.2353
489.264	13.2475
492.157	15.229
495.049	18.994
497.942	36.5844
500.835	67.881
503.728	78.0283
506.62	28.027
509.513	23.4874
512.406	32.9136
515.298	50.0807
518.191	88.8199
521.084	141.065
523.976	185.423
526.869	104.314
529.762	34.1371
532.654	14.0386
535.547	9.87733
538.44	9.63226
541.333	9.94629
544.225	10.0832
547.118	9.03074
550.011	8.14198
552.903	5.51291
555.796	3.08128
558.689	1.24082
561.582	0.488129
564.474	2.05325
567.367	1.30364
570.26	0.657448
573.152	2.24586
576.045	0.926205
578.938	1.71903
581.83	0.100975
584.723	0.298885
587.616	1.70035
590.509	1.90526
593.401	1.53798
596.294	2.81071
599.187	4.49914
602.079	4.87907
604.972	6.13788
607.865	9.19939
610.758	11.3362
613.65	15.0161
616.543	18.004
619.436	19.798
622.328	24.5589
625.221	36.9204
628.114	52.1727
631.006	76.2944
633.899	135.003
636.792	250.52
639.684	366.97
642.577	178.069
645.47	59.7936
648.363	35.2596
651.255	27.1147
654.148	34.3589
657.041	31.3761
659.933	20.1697
662.826	11.3455
665.719	8.3243
668.612	7.9062
671.504	8.45696
674.397	7.21075
677.29	8.38854
680.182	10.432
683.075	7.81444
685.968	8.41743
688.861	6.80028
691.753	5.87751
694.646	4.05967
697.539	7.70709
700.431	6.33531
703.324	6.05719
706.217	9.2859
709.109	20.1613
712.002	23.8252
714.895	10.9213
717.788	3.29115
720.68	0.637398
723.573	1.87577
726.466	0.801208
729.358	0.149597
732.251	1.12471
735.144	0.539474
738.036	0.189941
740.929	0.989342
743.822	1.21748
746.715	0.34568
749.607	1.81842
752.5	5.0496
755.393	4.32708
758.285	9.59579
761.178	12.7936
764.071	21.651
766.963	35.4317
769.856	52.4071
772.749	79.6403
775.642	112.288
778.534	132.163
781.427	109.983
784.32	69.7543
787.212	42.1741
790.105	27.1062
792.998	16.5309
795.89	9.84457
798.783	8.87278
801.676	7.6503
804.569	9.36127
807.461	15.2939
810.354	21.9724
813.247	35.6012
816.139	54.1983
819.032	51.745
821.925	31.0895
824.818	17.5137
827.71	12.8068
830.603	9.11935
833.496	7.47621
836.388	6.17688
839.281	4.81435
842.174	3.53186
845.067	5.34946
847.959	3.99857
850.852	6.67487
853.745	3.52671
856.637	3.17996
859.53	5.08195
862.423	3.98184
865.315	2.71542
868.208	1.84073
871.101	1.67624
873.994	0.691772
876.886	1.10663
879.779	1.09651
882.672	1.27374
885.564	0.245743
888.457	0.1036
891.35	1.7067
894.242	0.926102
897.135	2.53185
900.028	3.01682
902.92	6.18234
905.813	8.68088
908.706	11.524
911.599	21.3409
914.491	32.6255
917.384	54.4556
920.277	85.5304
923.169	134.125
926.062	204.147
928.955	290.416
931.847	346.594
934.74	312.539
937.633	222.523
940.526	148.003
943.418	98.8123
946.311	68.0867
949.204	47.716
952.096	33.1188
954.989	27.2949
957.882	18.945
960.775	15.2463
963.667	11.514
966.56	8.03667
969.453	7.76075
972.345	6.418
975.238	4.84319
978.131	3.05663
981.024	0.199444
983.916	4.54735
986.809	3.21393
989.702	2.24044
992.594	1.0786
995.487	0.585052
998.38	0.047653
1001.27	3.01826
1004.16	0.98708
1007.06	2.35376
1009.95	1.74757
1012.84	1.29252
1015.74	2.45747
1018.63	2.7425
1021.52	2.23569
1024.41	0.028217
1027.31	0.162338
1030.2	2.40466
1033.09	0.337414
1035.98	2.23584
1038.88	1.49968
1041.77	0.631966
1044.66	0.038635
1047.56	0.310898
1050.45	0.94416
1053.34	0.867596
1056.23	0.744076
1059.13	0.766563
1062.02	1.44641
1064.91	0.35181
1067.81	1.28072
1070.7	1.18293
1073.59	1.26085
1076.48	0.733383
1079.38	2.31191
1082.27	1.82676
1085.16	0.455585
1088.05	2.22171
1090.95	0.586163
1093.84	3.14061
1096.73	2.40802
1099.62	3.23728
1102.52	2.84059
1105.41	0.160172
1108.3	1.67802
1111.19	2.10668
1114.09	2.03796
1116.98	2.19395
1119.87	0.083241
1122.77	1.17856
1125.66	1.31179
1128.55	2.07783
1131.44	1.63963
1134.34	0.613247
1137.23	1.808
1140.12	1.02547
1143.02	1.88785
1145.91	1.18745
1148.8	1.60294
1151.69	0.798359
1154.59	0.685726
1157.48	1.69541
1160.37	2.05125
1163.26	2.72871
1166.16	2.00691
1169.05	3.38134
1171.94	2.56618
1174.84	0.029621
1177.73	0.962341
1180.62	1.50723
1183.51	1.59136
1186.4	1.40587
1189.3	0.239124
1192.19	1.04575
1195.08	2.18021
1197.98	1.36721
1200.87	1.10909
1203.76	0.204231
1206.65	1.12955
1209.55	0.277054
1212.44	1.30008
1215.33	1.90285
1218.22	0.174717
1221.12	2.26466
1224.01	3.27252
1226.9	1.83556
1229.8	2.24851
1232.69	1.83334
1235.58	1.61361
1238.47	0.748589
1241.37	0.555473
1244.26	1.54639
1247.15	1.06173
1250.05	0.097786
1252.94	1.323
1255.83	0.182182
1258.72	0.523926
1261.62	1.25005
1264.51	2.02447
1267.4	1.15196
1270.29	0.827122
1273.19	1.59129
1276.08	1.14048
1278.97	1.97447
1281.87	0.097927
1284.76	0.157211
1287.65	0.475414
1290.54	2.2358
1293.43	0.437981
1296.33	1.48192
1299.22	2.74296
1302.11	0.007027
