Measurement: Raman, 532 nm, unoriented, Raman Data Processed
Mineral: Chrysoberyl
Rruff sample: X080004
Ideal chemistry: BeAl_2_O_4_
Locality: Synthetic
Source: Gemological Institute of America
Description: Faceted green gemstone, 4.65 ct
Raman shift (cm-1)	intensity
92.9363	0
96.3111	5.09479
99.6859	0.113861
103.061	2.00053
106.436	3.06416
109.81	3.04633
113.185	11.5275
116.56	13.2731
119.935	19.0049
123.31	28.5594
126.684	31.9015
130.059	35.9385
133.434	30.0105
136.809	28.1033
140.184	25.0348
143.559	22.9123
146.933	18.8674
150.308	13.3901
153.683	14.3117
157.058	11.5401
160.433	10.5403
163.807	8.20261
167.182	5.08148
170.557	8.61617
173.932	4.23702
177.307	3.77521
180.681	1.64702
184.056	3.49886
187.431	3.53134
190.806	0.426666
194.181	1.33878
197.556	1.82471
200.93	0.898117
204.305	0.12944
207.68	0.834518
211.055	0.453918
214.43	0.543503
217.804	2.34752
221.179	5.85403
224.554	9.97073
227.929	15.5204
231.304	19.5205
234.679	38.4814
238.053	58.9155
241.428	102.505
244.803	39.2206
248.178	4.37218
251.553	2.14033
254.928	1.1514
258.302	1.73598
261.677	1.73323
265.052	2.20285
268.427	1.23177
271.802	0.676422
275.176	0.475693
278.551	1.19232
281.926	0.462402
285.301	1.94293
288.676	0.171173
292.05	0.984329
295.425	4.2238
298.8	2.18118
302.175	2.90305
305.55	1.76222
308.925	3.91925
312.299	5.28415
315.674	3.88756
319.049	4.48505
322.424	4.95373
325.799	5.99927
329.173	6.90572
332.548	15.3001
335.923	26.1766
339.298	38.1807
342.673	55.3209
346.048	105.842
349.422	219.191
352.797	149.659
356.172	134.579
359.547	37.7294
362.922	20.0539
366.296	20.2902
369.671	34.8762
373.046	25.3273
376.421	6.84911
379.796	2.18156
383.171	1.24051
386.545	0.551132
389.92	1.23697
393.295	1.64091
396.67	1.51474
400.045	0.025482
403.419	1.17702
406.794	0.936859
410.169	0.169937
413.544	0.614975
416.919	0.694016
420.293	4.88759
423.668	1.41518
427.043	2.08551
430.418	4.39693
433.793	9.13142
437.168	19.063
440.542	41.3637
443.917	10.3366
447.292	7.78435
450.667	5.21869
454.042	9.39243
457.416	25.3851
460.791	59.8289
464.166	68.5082
467.541	95.9274
470.916	158.848
474.291	349.441
477.665	790.248
481.04	516.93
484.415	75.0352
487.79	23.4241
491.165	8.28392
494.539	1.5303
497.914	0.642456
501.289	1.91554
504.664	3.50737
508.039	3.98502
511.413	9.44792
514.788	19.6025
518.163	39.6755
521.538	66.4712
524.913	91.4935
528.288	27.3367
531.663	6.82059
535.037	0.431442
538.412	0.402267
541.787	0.843613
545.162	4.76349
548.537	9.86261
551.911	20.4331
555.286	30.2827
558.661	53.4514
562.036	107.853
565.411	188.961
568.785	94.6714
572.16	25.5055
575.535	10.5191
578.91	5.75493
582.285	3.32165
585.659	2.08867
589.034	2.8745
592.409	0.867279
595.784	2.04868
599.159	0.597748
602.534	0.956482
605.908	0.978027
609.283	0.294449
612.658	1.82608
616.033	0.828506
619.408	0.561615
622.783	0.383667
626.157	0.060715
629.532	0.203323
632.907	0.138519
636.282	2.30026
639.657	6.28595
643.031	2.49513
646.406	1.19565
649.781	2.57257
653.156	4.28168
656.531	8.3223
659.905	17.2945
663.28	30.7956
666.655	58.0508
670.03	103.442
673.405	196.242
676.779	312.704
680.154	189.016
683.529	65.357
686.904	25.4107
690.279	11.9504
693.654	7.01712
697.028	8.28069
700.403	18.0794
703.778	30.7147
707.153	66.1345
710.528	129.121
713.903	104.238
717.277	26.2962
720.652	5.22314
724.027	0.030533
727.402	0.575714
730.777	2.4111
734.151	9.97337
737.526	21.1376
740.901	50.0168
744.276	78.3992
747.651	38.4046
751.025	6.69672
754.4	1.41484
757.775	3.68886
761.15	10.1511
764.525	27.9819
767.9	50.8124
771.274	97.1496
774.649	160.948
778.024	220.251
781.399	189.012
784.774	102.666
788.149	47.248
791.523	22.1291
794.898	13.9483
798.273	5.86055
801.648	3.52431
805.023	2.326
808.397	1.54427
811.772	0.176422
815.147	3.02847
818.522	3.88959
821.897	2.43736
825.271	0.494171
828.646	0.268143
832.021	0.16687
835.396	2.90927
838.771	1.34982
842.146	0.876251
845.52	0.834641
848.895	0.479935
852.27	0.52803
855.645	2.26622
859.02	0.023483
862.394	1.35927
865.769	1.71405
869.144	0.825912
872.519	1.69325
875.894	1.22377
879.269	5.41223
882.643	6.57219
886.018	4.02013
889.393	7.19394
892.768	6.69547
896.143	10.4893
899.518	11.9073
902.892	15.4013
906.267	23.077
909.642	30.9662
913.017	48.8766
916.391	77.6781
919.766	127.242
923.141	208.803
926.516	325.745
929.891	469.816
933.266	516.006
936.64	391.674
940.015	247.382
943.39	152.534
946.765	96.0754
950.14	63.5944
953.514	44.2813
956.889	31.2088
960.264	19.9613
963.639	15.7277
967.014	12.5826
970.389	7.88123
973.763	4.51137
977.138	5.73537
980.513	5.10805
983.888	5.66711
987.263	3.30322
990.638	0.752762
994.012	0.494476
997.387	0.232941
1000.76	0.322342
1004.14	0.437119
1007.51	0.349457
1010.89	0.9505
1014.26	1.9227
1017.64	0.617905
1021.01	1.34445
1024.39	1.69623
1027.76	0.637039
1031.13	0.288406
1034.51	0.002228
1037.88	0.530991
1041.26	0.669189
1044.63	2.22089
1048.01	1.13313
1051.38	1.26405
1054.76	2.3768
1058.13	1.10591
1061.51	1.23868
1064.88	1.91673
1068.26	1.78462
1071.63	1.56955
1075.01	2.14578
1078.38	3.1888
1081.76	2.93217
1085.13	3.61574
1088.51	1.81313
1091.88	0.767761
1095.26	2.01639
1098.63	2.69557
1102.01	3.73215
1105.38	3.60797
1108.76	1.25488
1112.13	3.37621
1115.51	0.878479
1118.88	1.97449
1122.26	3.49824
1125.63	2.58887
1129.01	3.89397
1132.38	4.96162
1135.76	1.90364
1139.13	1.52853
1142.5	4.19765
1145.88	1.83668
1149.25	2.13477
1152.63	1.5258
1156	3.27423
1159.38	3.87254
1162.75	2.97732
1166.13	2.39616
1169.5	2.20383
1172.88	0.851227
1176.25	3.23004
1179.63	0.527695
1183	0.134399
1186.38	1.69601
1189.75	0.782776
1193.13	0.248138
1196.5	0.338013
1199.88	1.96965
1203.25	2.64107
1206.63	0.750107
1210	2.8679
1213.38	4.20494
1216.75	0.563171
1220.12	2.52661
1223.5	1.31044
1226.88	3.00816
1230.25	0.643997
1233.62	2.43185
1237	2.52342
1240.37	3.74503
1243.75	2.51376
1247.12	5.68295
1250.5	3.14502
1253.87	5.78709
1257.25	6.9568
1260.62	0.339188
1264	2.02344
1267.37	4.12593
1270.75	2.30328
1274.12	2.48694
1277.5	2.17242
1280.87	0.201538
1284.25	1.28815
1287.62	1.45615
1291	1.98785
1294.37	1.39413
1297.75	0.608185
1301.12	0.830353
