Measurement: Raman, 785 nm, unoriented, Raman Data Processed
Mineral: Chrysotile
Rruff sample: R070355
Ideal chemistry: Mg_3_Si_2_O_5_(OH)_4_
Locality: Nizhniy Tagil, Ural, Russia
Source: Michael Scott
Description: White fine grained compact aggregate associated with light grey dolomite
Raman shift (cm-1)	intensity
197.194	0
200.087	151.343
202.979	211.518
205.872	137.074
208.765	69.1143
211.657	3.44141
214.55	79.2041
217.443	549.84
220.335	1132.01
223.228	1769.75
226.121	2470.62
229.013	3629.85
231.906	4823.14
234.799	4525.41
237.692	3286.2
240.584	2021.81
243.477	985.622
246.37	403.762
249.262	188.09
252.155	169.643
255.048	215.593
257.941	120.099
260.833	154.977
263.726	137.014
266.619	222.756
269.511	136.63
272.404	137.649
275.297	94.8096
278.19	30.6152
281.082	5.77051
283.975	26.6592
286.868	67.2832
289.76	1.86621
292.653	69.4668
295.546	30.3623
298.438	32.4346
301.331	161.505
304.224	234.423
307.116	211.583
310.009	141.673
312.902	133.13
315.795	95.7412
318.687	130.876
321.58	378.867
324.473	185.64
327.365	126.936
330.258	1.71777
333.151	37.2031
336.043	103.216
338.936	75.5234
341.829	117.991
344.721	290.667
347.614	479.362
350.507	913.944
353.4	533.421
356.292	204.412
359.185	98.5654
362.078	195.993
364.97	298.142
367.863	596.532
370.756	1123.3
373.649	1735.41
376.541	2289.71
379.434	3367.9
382.327	4668.35
385.219	5581.23
388.112	5155.48
391.005	4086.55
393.897	2754.73
396.79	1536.19
399.683	666.84
402.575	358.483
405.468	160.196
408.361	99.1523
411.254	167.123
414.146	99.9336
417.039	206.203
419.932	188.984
422.824	100.786
425.717	254.892
428.61	179.622
431.502	96.3525
434.395	173.157
437.288	75.0713
440.181	21.3984
443.073	7.37891
445.966	11.3135
448.859	28.6504
451.751	11.4238
454.644	18.8662
457.537	178.916
460.43	229.445
463.322	297.95
466.215	505.007
469.108	469.353
472	350.883
474.893	270.429
477.786	184.523
480.678	159.679
483.571	123.245
486.464	105.016
489.356	180.726
492.249	228.498
495.142	63.9971
498.035	88.8252
500.927	29.4473
503.82	63.1758
506.713	67.874
509.605	117.607
512.498	29.8057
515.391	109.323
518.284	158.692
521.176	210.855
524.069	170.788
526.962	132.498
529.854	166.042
532.747	150.614
535.64	179.806
538.533	169.16
541.425	100.426
544.318	124.048
547.211	143.392
550.103	104.24
552.996	131.458
555.889	86.7373
558.781	62.9658
561.674	13.6611
564.567	0.692383
567.459	20.6943
570.352	57.5957
573.245	15.8779
576.138	14.9287
579.03	58.0713
581.923	65.7812
584.816	28.6719
587.708	4.36523
590.601	45.6055
593.494	115.475
596.386	80.1406
599.279	122.811
602.172	165.881
605.064	174.838
607.957	287.271
610.85	653.791
613.743	813.21
616.635	706.392
619.528	894.79
622.421	897.655
625.313	695.208
628.206	701.682
631.099	485.313
633.991	304.615
636.884	235.522
639.777	182.641
642.67	144.825
645.562	135.764
648.455	13.293
651.348	3.95898
654.24	19.3037
657.133	65.8789
660.026	103.981
662.918	161.685
665.811	233.501
668.704	382.92
671.597	599.926
674.489	931.41
677.382	1455.21
680.275	2158.11
683.167	3040.97
686.06	3938.1
688.953	4225.36
691.846	3653.27
694.738	2821.62
697.631	1974.61
700.524	1422.82
703.416	1057.31
706.309	863.852
709.202	749.801
712.094	544.744
714.987	390.027
717.88	368.875
720.773	282.387
723.665	169.681
726.558	115.879
729.451	70.9356
732.343	75.6611
735.236	53.7754
738.129	13.3389
741.021	47.7168
743.914	3.82031
746.807	36.874
749.699	85.9775
752.592	45.8984
755.485	91.54
758.378	74.4238
761.27	64.0186
764.163	115.599
767.056	61.3125
769.948	99.3223
772.841	106.662
775.734	16.8389
778.626	15.5967
781.519	7.54883
784.412	78.1211
787.305	32.5068
790.197	16.5234
793.09	19.5322
795.983	33.457
798.875	78.5508
801.768	48.6641
804.661	3.88769
807.553	26.9111
810.446	104.022
813.339	76.5606
816.232	48.8838
819.124	73.7656
822.017	65.3506
824.91	52.6504
827.802	88.4121
830.695	19.7959
833.588	83.0176
836.481	64.4502
839.373	115.619
842.266	2.00684
845.159	164.41
848.051	105.302
850.944	84.0352
853.837	129.169
856.729	25.6357
859.622	122.149
862.515	103.621
865.408	88.0352
868.3	102.786
871.193	78.4668
874.086	54.8818
876.978	55.6963
879.871	68.3711
882.764	13.5166
885.656	19.7539
888.549	59.1562
891.442	0.583008
894.335	41.7754
897.227	4.74609
900.12	42.3535
903.013	0.591797
905.905	42.6475
908.798	110.667
911.691	49.5352
914.583	53.3809
917.476	60.4463
920.369	85.874
923.261	59.6367
926.154	88.4658
929.047	135.886
931.94	96.7148
934.832	106.781
937.725	33.1035
940.618	104.17
943.51	160.328
946.403	90.6123
949.296	77.5478
952.188	92.6367
955.081	156
957.974	84.7529
960.867	69.5352
963.759	85.0078
966.652	82.9658
969.545	52.9199
972.437	29.916
975.33	22.7393
978.223	63.29
981.115	35.4629
984.008	24.2148
986.901	62.9287
989.794	29.6484
992.686	47.0996
995.579	147.885
998.472	71.8428
1001.36	21.1953
1004.26	56.501
1007.15	126.298
1010.04	44.5185
1012.93	59.8242
1015.83	76.8438
1018.72	4.22656
1021.61	62.6162
1024.51	71.667
1027.4	72.8398
1030.29	52.5283
1033.18	2.60644
1036.08	37.0732
1038.97	33.9238
1041.86	33.6435
1044.76	28.5078
1047.65	33.5723
1050.54	1.60059
1053.43	74.0156
1056.33	85.8144
1059.22	189.462
1062.11	152.082
1065	142.98
1067.9	177.764
1070.79	142.83
1073.68	200.873
1076.58	230.766
1079.47	318.046
1082.36	336.963
1085.25	351.767
1088.14	299.591
1091.04	286.717
1093.93	358.582
1096.82	373.742
1099.72	331.494
1102.61	341.125
1105.5	221.041
1108.39	163.327
1111.29	218.257
1114.18	114.124
1117.07	105.231
1119.96	0.333008
1122.86	74.0644
1125.75	111.464
1128.64	4.08008
1131.54	99.2588
1134.43	87.5166
1137.32	32.9844
1140.21	13.8623
1143.11	12.6514
1146	79.0312
1148.89	99.5205
1151.79	36.1914
1154.68	15.0713
1157.57	54.9072
1160.46	24.6465
1163.36	46.4736
1166.25	8.17383
1169.14	45.6289
1172.03	26.4873
1174.93	6.04394
1177.82	51.0986
1180.71	3.36231
1183.6	117.492
1186.5	39.7861
1189.39	103.311
1192.28	78.4961
1195.17	76.8369
1198.07	139.792
1200.96	91.3877
1203.85	84.2519
1206.75	104.069
1209.64	52.9834
1212.53	96.8906
1215.42	138.037
1218.32	106.257
1221.21	100.686
1224.1	92.5361
1226.99	107.212
1229.89	10.1426
1232.78	162.389
1235.67	107.728
1238.57	89.3135
1241.46	25.5088
