Measurement: Raman, 780 nm, unoriented, Raman Data Processed
Mineral: Chrysoberyl
Rruff sample: R110103
Ideal chemistry: BeAl_2_O_4_
Locality: Synthetic
Source: Gemological Institute of America
Description: A cut (1.15ct) alexandrite gemstone, blue-green under fluorescent light, which appears purple under halogen light; flux grown.
Raman shift (cm-1)	intensity
122.459	0
125.834	0.25
129.209	1.57922
132.583	6.58203
135.958	6.35474
139.333	10.5632
142.708	8.64514
146.083	17.674
149.458	15.3023
152.832	14.6274
156.207	14.9642
159.582	18.6367
162.957	13.181
166.332	15.865
169.706	12.2285
173.081	9.11108
176.456	12.6439
179.831	8.7832
183.206	1.46301
186.581	2.71936
189.955	0.293091
193.33	4.63867
196.705	8.17456
200.08	8.32666
203.455	6.04785
206.829	10.4778
210.204	13.4946
213.579	15.9734
216.954	23.8221
220.329	20.4318
223.703	26.5996
227.078	28.3033
230.453	28.0028
233.828	33.5758
237.203	44.3683
240.578	63.73
243.952	47.6438
247.327	24.0591
250.702	20.4441
254.077	16.9325
257.452	17.0523
260.827	21.1266
264.201	22.9156
267.576	20.4542
270.951	22.6016
274.326	18.5649
277.701	22.009
281.075	20.8641
284.45	15.2322
287.825	12.6976
291.2	15.1333
294.575	7.24793
297.95	5.76502
301.324	5.39197
304.699	5.01856
308.074	2.26623
311.449	3.18213
314.824	2.39685
318.198	3.60535
321.573	1.74145
324.948	3.6051
328.323	1.13245
331.698	1.38428
335.072	7.28357
338.447	10.416
341.822	19.0587
345.197	47.6973
348.572	116.315
351.947	64.124
355.321	30.3215
358.696	10.2059
362.071	11.4669
365.446	5.60144
368.821	14.2103
372.195	10.6307
375.57	2.40417
378.945	2.45813
382.32	0.551514
385.695	5.79346
389.07	4.36169
392.444	6.12256
395.819	19.345
399.194	4.77429
402.569	5.01184
405.944	2.7594
409.318	1.20703
412.693	1.0271
416.068	2.27612
419.443	9.66943
422.818	7.9154
426.192	4.96143
429.567	1.21314
432.942	5.46509
436.317	8.89795
439.692	14.2396
443.067	24.8442
446.441	42.1046
449.816	11.8423
453.191	8.42566
456.566	10.2873
459.941	22.2557
463.315	7.63471
466.69	9.55756
470.065	23.2574
473.44	47.4593
476.815	123.704
480.19	76.9694
483.564	24.5911
486.939	10.5433
490.314	7.84943
493.689	7.08606
497.064	11.4456
500.438	26.2024
503.813	28.7897
507.188	3.3595
510.563	6.90021
513.938	12.0279
517.313	33.3552
520.687	31.6326
524.062	32.1533
527.437	8.29736
530.812	1.27661
534.187	0.520935
537.562	0.885376
540.936	1.82221
544.311	2.96918
547.686	5.13739
551.061	4.78864
554.436	2.66498
557.81	4.17993
561.185	6.92743
564.56	20.6751
567.935	11.017
571.31	1.87463
574.684	1.17322
578.059	0.285278
581.434	1.85065
584.809	1.07605
588.184	0.601868
591.559	3.65558
594.933	3.68304
598.308	11.8683
601.683	1.92749
605.058	4.03937
608.433	5.78113
611.808	6.87207
615.182	1.80664
618.557	2.73486
621.932	2.68603
625.307	3.55701
628.682	1.38281
632.056	3.66473
635.431	6.0918
638.806	16.2669
642.181	9.34692
645.556	7.16467
648.931	7.11212
652.305	12.7668
655.68	16.3076
659.055	12.1761
662.43	4.20148
665.805	6.24176
669.179	11.8137
672.554	18.9099
675.929	34.3472
679.304	23.3049
682.679	8.0741
686.053	3.3092
689.428	1.69928
692.803	2.05158
696.178	0.308228
699.553	0.695496
702.928	6.40826
706.302	20.6793
709.677	56.5293
713.052	44.3359
716.427	9.59576
719.802	3.94592
723.177	0.81781
726.551	1.17102
729.926	2.8338
733.301	0.092407
736.676	3.00208
740.051	3.18048
743.425	7.95728
746.8	4.85938
750.175	3.92194
753.55	1.04504
756.925	4.45953
760.299	3.59503
763.674	8.98297
767.049	12.9597
770.424	28.3128
773.799	53.7446
777.173	78.9156
780.548	72.0546
783.923	37.3578
787.298	18.2645
790.673	6.18018
794.048	1.65289
797.422	3.04822
800.797	0.438599
804.172	1.1907
807.547	4.43561
810.922	6.83142
814.297	13.9701
817.671	20.6899
821.046	12.0406
824.421	8.92545
827.796	6.84491
831.171	2.19607
834.545	2.7879
837.92	3.8031
841.295	3.99554
844.67	0.87207
848.045	5.68561
851.419	1.63394
854.794	0.154114
858.169	0.14267
861.544	0.847687
864.919	0.740387
868.294	0.156128
871.668	1.92581
875.043	0.01355
878.418	1.41965
881.793	0.637421
885.168	2.41397
888.543	0.400726
891.917	5.134
895.292	1.54941
898.667	2.58359
902.042	3.98581
905.417	7.76895
908.791	11.7859
912.166	18.0109
915.541	26.7142
918.916	41.8652
922.291	70.3827
925.665	123.621
929.04	190.798
932.415	216.446
935.79	163.001
939.165	100.268
942.54	61.6367
945.914	38.8076
949.289	27.8005
952.664	18.3284
956.039	13.4039
959.414	8.45032
962.788	6.32126
966.163	3.05273
969.538	2.42731
972.913	2.12704
976.288	1.63916
979.663	0.456604
983.037	0.185455
986.412	0.704193
989.787	0.007294
993.162	0.697845
996.537	0.117096
999.911	0.707367
1003.29	0.385223
1006.66	2.41296
1010.04	5.13525
1013.41	3.72354
1016.79	0.823334
1020.16	1.29932
1023.53	2.1055
1026.91	1.67956
1030.29	2.07794
1033.66	0.91275
1037.03	2.62051
1040.41	1.85721
1043.78	2.0303
1047.16	2.90039
1050.53	2.41983
1053.91	2.65115
1057.28	0.295532
1060.66	0.365936
1064.03	2.96451
1067.41	1.34094
1070.78	1.69336
1074.16	2.51456
1077.53	1.48181
1080.91	1.84451
1084.28	2.216
1087.66	2.79779
1091.03	2.5257
1094.41	0.544312
1097.78	4.58044
1101.16	2.46866
1104.53	0.870453
1107.91	1.81921
1111.28	0.810364
1114.65	1.61377
1118.03	1.20898
1121.4	0.54071
1124.78	0.556702
1128.15	0.869751
1131.53	2.71774
1134.9	2.66565
1138.28	0.345917
1141.65	1.04059
1145.03	0.465454
1148.4	0.220917
1151.78	1.59494
1155.15	1.75659
1158.53	2.82736
1161.9	2.14996
1165.28	2.36453
1168.65	3.15445
1172.03	3.05823
1175.4	4.78433
1178.78	5.05624
1182.15	3.45239
1185.53	3.90076
1188.9	3.1077
1192.28	5.16077
1195.65	2.8122
1199.03	4.35983
1202.4	5.9072
1205.78	3.97693
1209.15	4.68085
1212.53	3.54199
1215.9	0.14801
1219.28	3.93094
1222.65	6.84351
1226.02	12.7579
1229.4	10.1031
1232.77	15.6045
1236.15	13.9436
1239.52	12.131
1242.9	7.77008
1246.27	6.12549
1249.65	3.69214
1253.02	1.78793
1256.4	1.72589
1259.77	0.658264
1263.15	0.807129
1266.52	0.180389
1269.9	2.96912
1273.27	4.35895
1276.65	2.16953
1280.02	1.75549
1283.4	0.234955
