Measurement: Raman, 532 nm, unoriented, Raman Data Processed
Mineral: Churchite-(Y)
Rruff sample: R050421
Ideal chemistry: YPO_4_2H_2_O
Locality: Vesuvius, Virginia, USA
Source: Marcus Origlieri
Description: Colorless acicular radiating groups
Measured chemistry: (Y_0.94_Er_0.01_Gd_0.01_Dy_0.01_Yb_0.01_Ca_0.02_)_Î£=1.00_(PO_4_)_0.97_1.28H_2_O
Raman shift (cm-1)	intensity
99.542	302.148
102.917	5926.69
106.292	8916.84
109.666	8722.76
113.041	6703.44
116.416	5853.35
119.791	6514.98
123.166	7186.99
126.54	8985.59
129.915	7884.06
133.29	8858.69
136.665	9296.37
140.04	10613.4
143.415	11995.3
146.79	11201.4
150.164	7103.31
153.539	4737.88
156.914	2973.66
160.289	2134.33
163.663	2195.59
167.038	2097.16
170.413	2692.73
173.788	3319.28
177.163	3783.77
180.538	4275.36
183.913	4327.38
187.287	6083.27
190.662	7086.71
194.037	5914.02
197.412	4237.31
200.786	4232.99
204.161	5772.68
207.536	7911.7
210.911	9129.88
214.286	6577.39
217.661	2302.34
221.036	684.031
224.41	535.859
227.785	757.883
231.16	472.344
234.535	590.234
237.91	1989.71
241.284	3601.24
244.659	6223.62
248.034	8467.85
251.409	8439.82
254.784	6231.37
258.158	4386.16
261.533	3769.6
264.908	3473.24
268.283	3242.72
271.658	2620.66
275.033	1652.6
278.407	1279.59
281.782	765.148
285.157	469.883
288.532	50.352
291.907	121.109
295.281	77.148
298.656	210.391
302.031	142.281
305.406	158.164
308.781	110.062
312.155	199.445
315.53	291.336
318.905	416.68
322.28	412.531
325.655	447.102
329.03	358.438
332.404	412.016
335.779	767.57
339.154	1027.09
342.529	1416.85
345.904	1822.7
349.279	2385.65
352.653	3973.98
356.028	6713.23
359.403	9710.16
362.778	11634.1
366.153	10538.8
369.527	9350.81
372.902	8095.39
376.277	6316.29
379.652	4686.85
383.027	3273.34
386.402	2325.06
389.776	1377.19
393.151	966.422
396.526	619.211
399.901	307.703
403.276	352.703
406.651	175.094
410.025	191.18
413.4	105.859
416.775	133.312
420.15	85.055
423.525	96.352
426.899	154.258
430.274	167.07
433.649	67.555
437.024	109.039
440.399	100.859
443.773	63.375
447.148	132.672
450.523	263.664
453.898	331.492
457.273	747.508
460.648	823.023
464.022	1216.24
467.397	1822.19
470.772	2096.7
474.147	2741.76
477.522	3539.17
480.897	4444.99
484.271	5615.01
487.646	6766.23
491.021	8047.91
494.396	9124.77
497.771	9326.23
501.145	8783.43
504.52	7652.66
507.895	6072.66
511.27	4563.31
514.645	3296.6
518.019	2143.18
521.394	1687.79
524.769	964.469
528.144	610.719
531.519	395.594
534.894	241.352
538.268	443.258
541.643	339.906
545.018	406.953
548.393	562.156
551.768	880.883
555.143	1670.36
558.517	2975.42
561.892	5135.17
565.267	6311.81
568.642	3120.96
572.016	810.109
575.391	484.57
578.766	129.477
582.141	74.547
585.516	61.891
588.891	123.039
592.266	8.68
595.64	171.375
599.015	148.875
602.39	17.375
605.765	74.352
609.14	42.859
612.514	22.062
615.889	729.289
619.264	44.211
622.639	282.094
626.014	264.828
629.388	572.367
632.763	526.344
636.138	1047.56
639.513	1251.88
642.888	1604.05
646.263	1221.73
649.637	769.984
653.012	310.992
656.387	316.5
659.762	471.891
663.137	559.305
666.511	331.898
669.886	105.469
673.261	124.727
676.636	213.062
680.011	14.586
683.386	423.398
686.76	413.797
690.135	607.398
693.51	632.75
696.885	846.07
700.26	975.977
703.635	1158.7
707.009	1071.5
710.384	706.297
713.759	276.016
717.134	207.156
720.508	258.656
723.883	45.508
727.258	13.18
730.633	43.016
734.008	12.852
737.383	103.516
740.758	179.297
744.132	24.094
747.507	69.305
750.882	20.219
754.257	198.312
757.632	-5.487
761.006	157.844
764.381	193.5
767.756	41.633
771.131	371.656
774.506	334.898
777.88	353.406
781.255	316.305
784.63	564.328
788.005	518.484
791.38	459.328
794.755	386.852
798.129	614.781
801.504	217.781
804.879	699.164
808.254	481.117
811.629	282.164
815.003	326.375
818.378	184.516
821.753	122.164
825.128	241.523
828.503	214.156
831.878	51.742
835.252	181.938
838.627	158.328
842.002	57
845.377	218.836
848.752	73.43
852.127	215.32
855.501	79.398
858.876	355.336
862.251	576.508
865.626	440.07
869.001	498.812
872.375	458.039
875.75	714.266
879.125	769.961
882.5	444.383
885.875	308.094
889.25	257.961
892.624	48.695
895.999	76.516
899.374	43.914
902.749	107.664
906.124	14.727
909.498	49.133
912.873	43.484
916.248	40.789
919.623	206.148
922.998	323.508
926.372	307.781
929.747	339.383
933.122	514.836
936.497	720.547
939.872	591.641
943.247	867.25
946.621	1121.77
949.996	1035.09
953.371	1406.31
956.746	1734.17
960.121	1477.53
963.495	1891.19
966.87	2457.78
970.245	4583.96
973.62	8633.85
976.995	23310.1
980.37	48191.3
983.744	64263.8
987.119	18274.8
990.494	4783.12
993.869	2103.11
997.244	1217.19
1000.62	710.953
1003.99	112.32
1007.37	21.297
1010.74	120.889
1014.12	284.633
1017.49	30.641
1020.87	197.172
1024.24	574.508
1027.62	591.891
1030.99	602.531
1034.37	539.992
1037.74	806.305
1041.12	739.852
1044.49	1204.09
1047.87	1785.7
1051.24	2868.22
1054.62	5100.58
1057.99	9520.19
1061.37	14428.8
1064.74	17847.4
1068.12	15585
1071.49	8542.44
1074.87	4190.59
1078.24	2483.7
1081.61	1452.59
1084.99	1164.98
1088.36	726.453
1091.74	711.641
1095.11	383.383
1098.49	249.891
1101.86	365.445
1105.24	78.203
1108.61	18.578
1111.99	278.711
1115.36	184.203
1118.74	164.852
1122.11	349.266
1125.49	314.383
1128.86	23.891
1132.24	239.617
1135.61	24.195
1138.99	259.438
1142.36	74
1145.74	299.117
1149.11	186.391
1152.48	377.18
1155.86	222.758
1159.23	368.945
1162.61	217.938
1165.98	108.023
1169.36	6.695
1172.73	223.281
1176.11	46.617
1179.48	89.234
1182.86	82.867
1186.23	438.156
1189.61	189.852
1192.98	92.297
1196.36	206.609
1199.73	348.047
1203.11	162.625
1206.48	138.125
1209.86	51.469
1213.23	327.391
1216.61	313.422
1219.98	434.281
1223.36	66.406
1226.73	227.656
1230.11	266.547
1233.48	274.859
1236.86	307.328
1240.23	233.984
1243.61	349.297
1246.98	208.922
1250.36	25.672
1253.73	545.875
1257.11	133.219
1260.48	35.734
1263.85	156.031
1267.23	258.375
