Measurement: Raman, 780 nm, unoriented, Raman Data Processed
Mineral: Churchite-(Y)
Rruff sample: R060424
Ideal chemistry: YPO_4_2H_2_O
Locality: Indian Mountain, Cherokee County, Alabama, USA
Source: Michael Scott
Description: Spray of colorless acicular crystals
Measured chemistry: (Y_0.93_Dy_0.03_Er_0.02_Gd_0.02_Yb_0.01_Ho_0.01_Tm_0.01_Ca_0.01_Fe_0.01_)_Σ=1.05_(P_0.94_Al_0.01_)_Σ=0.95_O_4_·0.57H_2_O
Raman shift (cm-1)	intensity
176.422	0
179.315	1.61945
182.208	4.96867
185.1	16.587
187.993	26.6352
190.886	26.0629
193.778	17.2462
196.671	12.0699
199.564	18.8321
202.457	22.6183
205.349	30.2282
208.242	30.6565
211.135	19.0031
214.027	6.32722
216.92	0.319572
219.813	2.14385
222.705	1.43158
225.598	2.60348
228.491	10.2244
231.383	18.011
234.276	25.2485
237.169	33.0673
240.061	42.9068
242.954	49.7902
245.847	56.3936
248.74	53.9556
251.632	46.2885
254.525	37.1231
257.418	29.5337
260.31	31.2347
263.203	28.8502
266.096	25.3161
268.988	19.6201
271.881	11.5699
274.774	8.00017
277.667	4.83032
280.559	3.91799
283.452	1.35559
286.345	2.13857
289.237	4.96908
292.13	6.62809
295.023	7.5598
297.916	8.50685
300.808	4.93143
303.701	6.5295
306.594	1.94008
309.486	1.35416
312.379	1.2317
315.272	0.965172
318.164	1.50826
321.057	1.11128
323.95	1.03999
326.842	0.298309
329.735	0.405182
332.628	3.17165
335.521	5.15559
338.413	9.72962
341.306	15.1275
344.199	20.7048
347.091	30.4582
349.984	32.6524
352.877	45.4934
355.769	57.4033
358.662	62.2623
361.555	61.4671
364.447	51.8206
367.34	49.6876
370.233	46.7472
373.126	42.3634
376.018	35.1904
378.911	32.7386
381.804	32.2782
384.696	27.7145
387.589	27.4746
390.482	27.8089
393.375	25.5679
396.267	23.6572
399.16	21.2014
402.053	19.0801
404.945	16.5849
407.838	12.0531
410.731	8.93658
413.623	9.72468
416.516	4.46001
419.409	4.02338
422.301	1.31801
425.194	2.35579
428.087	0.521408
430.98	0.47892
433.872	1.25223
436.765	0.134575
439.658	0.348824
442.55	0.761948
445.443	0.398407
448.336	0.292358
451.228	1.5751
454.121	3.49088
457.014	4.7974
459.907	6.24104
462.799	8.76736
465.692	8.65787
468.585	12.8467
471.477	13.6246
474.37	16.4035
477.263	22.5865
480.156	24.3116
483.048	29.5018
485.941	32.9382
488.834	34.5691
491.726	35.9597
494.619	35.1137
497.512	34
500.404	29.5193
503.297	23.5624
506.19	17.6793
509.082	14.205
511.975	8.55885
514.868	6.03202
517.761	5.25405
520.653	0.107468
523.546	2.27083
526.439	2.84545
529.331	1.99654
532.224	2.98072
535.117	5.76329
538.01	5.5512
540.902	6.88675
543.795	8.68223
546.688	12.6162
549.58	17.3236
552.473	18.1291
555.366	19.3148
558.258	21.3016
561.151	23.9922
564.044	24.1187
566.936	12.0899
569.829	4.64009
572.722	2.66359
575.615	2.84789
578.507	1.57558
581.4	0.277302
584.293	0.165287
587.185	1.02452
590.078	2.20875
592.971	1.03824
595.863	0.794018
598.756	0.71965
601.649	0.613594
604.542	0.970135
607.434	1.64699
610.327	2.23225
613.22	0.44994
616.112	1.68818
619.005	2.48149
621.898	3.0144
624.79	4.079
627.683	3.61142
630.576	6.01815
633.468	4.0149
636.361	7.07125
639.254	6.94886
642.146	6.9827
645.039	4.63712
647.932	4.05493
650.825	1.22873
653.717	2.40268
656.61	1.46423
659.503	1.6339
662.395	0.807987
665.288	0.012108
668.181	0.622723
671.073	0.513512
673.966	0.015404
676.859	0.777687
679.752	2.80206
682.644	1.1243
685.537	1.61597
688.43	1.24341
691.322	2.67767
694.215	1.76318
697.108	0.187904
700	2.5601
702.893	1.46242
705.786	1.65144
708.679	1.3824
711.571	1.16439
714.464	3.08087
717.357	0.588261
720.249	0.95126
723.142	1.61639
726.035	0.238228
728.928	0.94474
731.82	2.49539
734.713	1.09489
737.606	0.395683
740.498	0.750988
743.391	1.16073
746.284	2.67807
749.176	0.705692
752.069	0.426014
754.962	2.28536
757.855	1.14948
760.747	1.95137
763.64	1.62758
766.533	1.16626
769.425	3.09169
772.318	1.82116
775.211	1.5987
778.103	3.32172
780.996	2.90705
783.889	2.82048
786.782	1.97608
789.674	2.06206
792.567	2.09961
795.46	2.90313
798.352	3.11176
801.245	3.68922
804.138	2.69979
807.03	4.91584
809.923	4.09163
812.816	1.67607
815.708	2.54586
818.601	1.5208
821.494	3.97735
824.386	1.98208
827.279	2.27308
830.172	2.35997
833.065	2.26226
835.957	3.70227
838.85	2.81893
841.743	3.13804
844.635	4.74537
847.528	4.4733
850.421	3.51422
853.313	3.10756
856.206	4.68579
859.099	0.7696
861.992	1.89946
864.884	2.44009
867.777	3.05282
870.67	3.0447
873.562	2.02089
876.455	1.99877
879.348	2.58882
882.24	3.84656
885.133	2.98235
888.026	3.03338
890.919	0.37747
893.811	0.69927
896.704	1.88109
899.597	0.518394
902.489	1.94064
905.382	2.18545
908.275	1.89976
911.168	0.462513
914.06	1.57601
916.953	1.3676
919.846	0.824867
922.738	0.395617
925.631	1.46369
928.524	0.166632
931.416	0.814869
934.309	2.03481
937.202	0.874147
940.095	2.36406
942.987	1.84743
945.88	2.2687
948.773	3.53517
951.665	5.29985
954.558	7.13955
957.451	9.26752
960.343	6.6868
963.236	10.7234
966.129	16.3198
969.021	36.2801
971.914	82.895
974.807	102.487
977.699	142.02
980.592	210.101
983.485	234.935
986.378	74.188
989.27	22.5994
992.163	8.5607
995.056	3.97122
997.948	4.31454
1000.84	1.24364
1003.73	0.159849
1006.63	0.989698
1009.52	0.902927
1012.41	0.553225
1015.3	0.695677
1018.2	2.05909
1021.09	2.96452
1023.98	2.91929
1026.88	3.1935
1029.77	2.30096
1032.66	0.890785
1035.55	1.29995
1038.45	1.63068
1041.34	4.57874
1044.23	4.55788
1047.12	6.05592
1050.02	9.27719
1052.91	17.2775
1055.8	23.265
1058.69	32.5087
1061.59	40.0037
1064.48	44.7245
1067.37	40.0485
1070.27	25.241
1073.16	13.4372
1076.05	7.98001
1078.94	3.36843
1081.84	3.81757
1084.73	3.33621
1087.62	2.05031
1090.52	0.138906
1093.41	0.418322
1096.3	0.656706
1099.19	2.13762
1102.09	0.494093
1104.98	0.100527
1107.87	1.27246
1110.76	0.685431
1113.66	0.508429
1116.55	0.287212
1119.44	0.849154
1122.33	2.00931
1125.23	0.854446
1128.12	2.33576
1131.01	0.546007
1133.9	0.507217
1136.8	0.658463
1139.69	1.39003
1142.58	0.868282
1145.48	2.93845
1148.37	1.12179
1151.26	1.94505
1154.15	3.3844
1157.05	1.74739
1159.94	3.09135
1162.83	2.04394
1165.72	1.25414
1168.62	2.30099
1171.51	1.9804
1174.4	3.27135
1177.3	4.9394
1180.19	2.60625
1183.08	3.00642
1185.97	5.05236
1188.87	3.96055
1191.76	5.01729
1194.65	4.37233
1197.55	3.01897
1200.44	5.72008
1203.33	3.91036
1206.22	5.53862
1209.12	5.92886
1212.01	3.8955
1214.9	2.88199
1217.79	3.86479
1220.69	3.48749
1223.58	1.51676
1226.47	1.1898
1229.36	0.968403
1232.26	1.03544
1235.15	1.20482
1238.04	1.34256
1240.93	0.813408
1243.83	2.36227
1246.72	0.153271
1249.61	2.04551
1252.51	1.73064
1255.4	1.73526
1258.29	1.5456
1261.18	0.999821
1264.08	0.160259
1266.97	4.22429
1269.86	2.32694
1272.76	2.68203
1275.65	1.77398
1278.54	1.49262
1281.43	0.058136
1284.33	0.487549
