Measurement: Raman, 532 nm, unoriented, Raman Data Processed
Mineral: Churchite-(Y)
Rruff sample: R060424
Ideal chemistry: YPO_4_2H_2_O
Locality: Indian Mountain, Cherokee County, Alabama, USA
Source: Michael Scott
Description: Spray of colorless acicular crystals
Measured chemistry: (Y_0.93_Dy_0.03_Er_0.02_Gd_0.02_Yb_0.01_Ho_0.01_Tm_0.01_Ca_0.01_Fe_0.01_)_Σ=1.05_(P_0.94_Al_0.01_)_Σ=0.95_O_4_·0.57H_2_O
Raman shift (cm-1)	intensity
173.959	0
176.852	4.8033
179.745	14.5891
182.637	14.0711
185.53	36.8889
188.423	70.3483
191.315	86.8595
194.208	67.165
197.101	46.1266
199.994	37.6641
202.886	51.8991
205.779	74.5712
208.672	104.576
211.565	103.865
214.457	51.7987
217.35	18.4541
220.243	2.01944
223.135	2.57106
226.028	2.70998
228.921	2.84332
231.813	1.33575
234.706	9.65041
237.599	21.6612
240.492	33.9659
243.384	54.9996
246.277	75.7235
249.17	92.3132
252.062	89.0938
254.955	70.9385
257.848	58.1554
260.74	60.7495
263.633	67.182
266.526	72.4112
269.418	61.9045
272.311	42.9408
275.204	28.5488
278.097	18.603
280.989	14.7017
283.882	7.76067
286.775	4.97908
289.667	2.39796
292.56	0.270126
295.453	0.038147
298.346	0.383469
301.238	0.371674
304.131	2.75404
307.024	3.12651
309.916	0.649246
312.809	1.746
315.702	2.81299
318.594	1.53862
321.487	4.68053
324.38	5.8689
327.273	4.23839
330.165	4.8045
333.058	7.86768
335.951	6.49712
338.843	10.0597
341.736	15.3478
344.629	22.2436
347.522	34.7276
350.414	45.086
353.307	65.4344
356.2	92.1969
359.092	124.328
361.985	147.094
364.878	125.639
367.77	102.304
370.663	92.1938
373.556	86.6298
376.449	71.5861
379.341	57.1458
382.234	40.0382
385.127	29.1326
388.019	20.9873
390.912	17.7553
393.805	10.7871
396.697	8.70494
399.59	10.0415
402.483	6.41324
405.376	5.82944
408.268	2.57107
411.161	0.160339
414.054	0.714813
416.946	0.630142
419.839	1.22408
422.732	1.86185
425.625	1.0153
428.517	0.14325
431.41	1.36204
434.303	1.08389
437.195	1.30531
440.088	2.04106
442.981	3.80026
445.873	3.4487
448.766	2.89919
451.659	4.75002
454.551	6.95132
457.444	7.50699
460.337	11.226
463.23	12.9871
466.122	18.0934
469.015	22.1998
471.908	24.8235
474.8	30.2208
477.693	37.5356
480.586	44.0568
483.479	54.1344
486.371	65.0171
489.264	73.1212
492.157	81.291
495.049	86.7044
497.942	87.2444
500.835	76.6591
503.728	66.1933
506.62	55.6013
509.513	42.6771
512.406	28.9085
515.298	22.7403
518.191	16.4818
521.084	9.75798
523.976	8.10768
526.869	6.03754
529.762	5.41643
532.654	7.02899
535.547	5.56293
538.44	4.2724
541.333	8.4655
544.225	6.04515
547.118	5.69899
550.011	14.7226
552.903	16.0427
555.796	19.9428
558.689	28.8339
561.582	40.4924
564.474	54.3209
567.367	40.0349
570.26	16.5514
573.152	6.73238
576.045	3.60629
578.938	2.68639
581.83	0.670624
584.723	0.382828
587.616	2.48331
590.509	0.295639
593.401	1.99609
596.294	0.749039
599.187	0.966995
602.079	0.505341
604.972	0.206055
607.865	0.661469
610.758	1.28851
613.65	3.44426
616.543	2.30325
619.436	1.33832
622.328	3.92017
625.221	4.7019
628.114	6.00024
631.006	6.90019
633.899	8.84299
636.792	10.1251
639.684	14.2657
642.577	13.1039
645.47	12.3916
648.363	9.81784
651.255	7.62215
654.148	3.6674
657.041	5.59302
659.933	5.47066
662.826	5.57137
665.719	0.998337
668.612	1.4447
671.504	3.10519
674.397	1.78839
677.29	3.19933
680.182	5.82732
683.075	6.47658
685.968	5.67909
688.861	7.21701
691.753	8.56705
694.646	9.16176
697.539	9.30867
700.431	8.58206
703.324	8.30324
706.217	8.9407
709.109	7.14848
712.002	4.21376
714.895	4.34471
717.788	3.37331
720.68	1.18933
723.573	0.928833
726.466	2.45226
729.358	0.790573
732.251	1.17477
735.144	0.509293
738.036	2.00142
740.929	0.587097
743.822	1.09258
746.715	0.845551
749.607	0.954834
752.5	2.09409
755.393	0.83136
758.285	0.336227
761.178	1.26106
764.071	2.38684
766.963	1.1395
769.856	1.61447
772.749	3.63747
775.642	2.03981
778.534	2.89931
781.427	5.33197
784.32	7.63435
787.212	8.31078
790.105	7.60133
792.998	4.97086
795.89	4.17514
798.783	3.64732
801.676	6.07866
804.569	5.16003
807.461	3.96573
810.354	3.0336
813.247	2.54877
816.139	1.87997
819.032	2.6736
821.925	2.20216
824.818	0.553741
827.71	2.63029
830.603	1.06325
833.496	1.93053
836.388	1.75236
839.281	2.73965
842.174	2.50725
845.067	4.22116
847.959	3.10403
850.852	4.69958
853.745	5.04875
856.637	5.44562
859.53	5.26117
862.423	5.89195
865.315	4.65803
868.208	6.80985
871.101	8.12236
873.994	6.36513
876.886	4.2587
879.779	4.2382
882.672	4.38737
885.564	3.11319
888.457	0.414352
891.35	2.37154
894.242	1.53748
897.135	1.94276
900.028	1.11992
902.92	2.38118
905.813	1.53609
908.706	1.57907
911.599	0.302231
914.491	1.22969
917.384	1.06952
920.277	2.17223
923.169	0.628403
926.062	2.75624
928.955	3.23268
931.847	3.20752
934.74	5.27222
937.633	5.61232
940.526	6.13216
943.418	5.97069
946.311	8.74648
949.204	12.1364
952.096	14.2925
954.989	17.3663
957.882	20.2402
960.775	20.017
963.667	19.1902
966.56	27.674
969.453	38.8028
972.345	80.7171
975.238	189.716
978.131	306.942
981.024	585.532
983.916	943.6
986.809	621.539
989.702	133.981
992.594	47.5808
995.487	24.1879
998.38	13.5382
1001.27	6.70608
1004.16	1.20242
1007.06	1.16629
1009.95	0.276871
1012.84	1.99405
1015.74	0.871902
1018.63	1.06177
1021.52	2.68202
1024.41	6.56401
1027.31	5.33556
1030.2	6.29627
1033.09	3.3468
1035.98	1.77603
1038.88	0.595184
1041.77	2.87784
1044.66	5.99422
1047.56	5.36534
1050.45	13.2991
1053.34	25.2169
1056.23	42.0315
1059.13	70.7973
1062.02	106.043
1064.91	143.218
1067.81	170.709
1070.7	137.617
1073.59	75.4775
1076.48	38.552
1079.38	20.0187
1082.27	15.4478
1085.16	10.0259
1088.05	5.59154
1090.95	4.50647
1093.84	4.38825
1096.73	2.68561
1099.62	4.25972
1102.52	0.736862
1105.41	0.786758
1108.3	1.19745
1111.19	0.992722
1114.09	1.31729
1116.98	1.75351
1119.87	1.7914
1122.77	2.35689
1125.66	1.17792
1128.55	1.40486
1131.44	1.07906
1134.34	0.607086
1137.23	1.02154
1140.12	0.461014
1143.02	1.10103
1145.91	0.076538
1148.8	0.796265
1151.69	2.63774
1154.59	2.18445
1157.48	1.58452
1160.37	0.936432
1163.26	1.64571
1166.16	4.2377
1169.05	4.52081
1171.94	1.54446
1174.84	2.73177
1177.73	0.388809
1180.62	1.38294
1183.51	0.671478
1186.4	1.9164
1189.3	2.84735
1192.19	4.02132
1195.08	1.89107
1197.98	1.47124
1200.87	3.22031
1203.76	1.83141
1206.65	1.96576
1209.55	2.75546
1212.44	0.308228
1215.33	3.29971
1218.22	1.47792
1221.12	2.56703
1224.01	1.59009
1226.9	1.91174
1229.8	1.38408
1232.69	3.01704
1235.58	0.194046
1238.47	1.84972
1241.37	1.21088
1244.26	3.64502
1247.15	0.026886
1250.05	2.58978
1252.94	4.22554
1255.83	2.01704
1258.72	3.89067
1261.62	2.08151
1264.51	1.75913
1267.4	2.7973
1270.29	2.50446
1273.19	4.25665
1276.08	3.59386
1278.97	0.710449
1281.87	0.858444
1284.76	3.293
1287.65	3.00354
1290.54	3.68791
1293.43	2.61978
1296.33	2.11188
1299.22	1.41138
1302.11	0.969925
