Measurement: Raman, 785 nm, unoriented, Raman Data Processed
Mineral: Cinnabar
Rruff sample: R070532
Ideal chemistry: HgS
Locality: Charcas, San Luis Potosi, Mexico
Source: James Shigley
Description: Red prismatic crystals associated with calcite
Measured chemistry: Hg_1.00_S_1.00_
Raman shift (cm-1)	intensity
142.131	0
145.024	55.6854
147.916	95.3002
150.809	120.224
153.702	96.9998
156.594	108.692
159.487	133.447
162.38	146.445
165.272	172.253
168.165	195.565
171.058	184.948
173.951	133.742
176.843	107.473
179.736	68.4216
182.629	35.3595
185.521	17.7592
188.414	12.3899
191.307	21.0731
194.199	24.6549
197.092	43.8893
199.985	25.6954
202.877	14.9508
205.77	32.422
208.663	111.277
211.556	229.841
214.448	359.102
217.341	552.125
220.234	808.995
223.126	1170.96
226.019	1708.65
228.912	2537.12
231.804	3789.05
234.697	6001.05
237.59	9547
240.483	13770.4
243.375	18080
246.268	22872.1
249.161	29436.7
252.053	37245.1
254.946	34918.8
257.839	20825.5
260.731	10138.5
263.624	5585.57
266.517	3498.65
269.41	2539.67
272.302	2085.43
275.195	1976.31
278.088	2156.95
280.98	2356.52
283.873	2379.49
286.766	2260.77
289.659	2122.07
292.551	1449.12
295.444	728.172
298.337	333.461
301.229	140.451
304.122	31.1273
307.015	31.3818
309.907	12.722
312.8	1.05725
315.693	35.374
318.586	100.432
321.478	242.638
324.371	533.794
327.264	972.78
330.156	1588.77
333.049	2314.59
335.942	3283.97
338.834	4540.93
341.727	5819.72
344.62	5718.86
347.512	4353.55
350.405	3678.9
353.298	2789.82
356.191	1583.5
359.083	783.227
361.976	351.517
364.869	133.664
367.761	19.558
370.654	14.0134
373.547	18.7127
376.44	35.6857
379.332	39.0947
382.225	15.5347
385.118	2.07526
388.01	15.4474
390.903	21.0777
393.796	19.5174
396.688	41.8419
399.581	45.5801
402.474	36.8317
405.366	52.0772
408.259	43.6125
411.152	47.4755
414.045	67.8855
416.937	64.6103
419.83	67.3
422.723	72.4567
425.615	85.1857
428.508	80.8863
431.401	92.7486
434.293	81.7668
437.186	63.9119
440.079	70.7214
442.972	61.7742
445.864	39.4037
448.757	47.7138
451.65	46.4629
454.542	38.8851
457.435	45.926
460.328	55.6797
463.221	40.9276
466.113	49.0028
469.006	42.807
471.899	45.7134
474.791	59.1374
477.684	43.0114
480.577	45.0115
483.469	46.7842
486.362	36.4085
489.255	36.4686
492.147	30.7471
495.04	41.4899
497.933	6.45697
500.826	29.0811
503.718	24.528
506.611	18.5229
509.504	12.8628
512.396	10.9799
515.289	9.37567
518.182	7.39813
521.074	14.8373
523.967	1.1275
526.86	0.195374
529.753	10.1017
532.645	12.2573
535.538	12.5696
538.431	10.1611
541.323	19.6656
544.216	13.7707
547.109	5.20728
550.001	12.2812
552.894	18.3577
555.787	5.15796
558.68	18.292
561.572	22.5876
564.465	9.16882
567.358	2.98657
570.25	0.007629
573.143	14.5649
576.036	10.238
578.928	29.5879
581.821	5.60352
584.714	10.6202
587.607	10.6548
590.499	2.99664
593.392	6.05756
596.285	4.94952
599.178	29.2576
602.07	17.6232
604.963	17.5164
607.856	13.0321
610.748	18.035
613.641	23.4047
616.534	40.7492
619.426	45.3194
622.319	35.4581
625.212	48.9725
628.105	36.8206
630.997	53.9589
633.89	40.2206
636.783	30.8805
639.675	36.6967
642.568	40.257
645.461	24.9554
648.353	22.2402
651.246	25.3058
654.139	24.5753
657.032	6.91699
659.924	14.4238
662.817	20.9066
665.71	15.7372
668.602	6.44324
671.495	11.0366
674.388	10.6592
677.28	10.8875
680.173	22.3814
683.066	5.13171
685.958	16.4835
688.851	18.5713
691.744	8.46988
694.637	8.7139
697.529	14.7875
700.422	13.6564
703.315	22.199
706.207	24.4859
709.1	19.3673
711.993	15.0988
714.885	14.2582
717.778	5.74045
720.671	8.23904
723.564	4.45288
726.456	0.941315
729.349	7.08029
732.242	9.56387
735.134	20.8996
738.027	0.71524
740.92	4.29761
743.812	17.5875
746.705	12.8585
749.598	20.4626
752.491	4.50961
755.383	16.9072
758.276	30.8009
761.169	16.6474
764.061	17.5878
766.954	22.5148
769.847	17.5342
772.74	16.3055
775.632	16.6223
778.525	22.3092
781.418	18.5416
784.31	8.39859
787.203	13.0895
790.096	23.692
792.988	16.9506
795.881	15.9825
798.774	0.581665
801.667	12.0482
804.559	0.504669
807.452	15.3183
810.345	15.0761
813.237	12.7406
816.13	16.6859
819.023	2.28656
821.915	10.4196
824.808	12.4973
827.701	1.37555
830.593	14.528
833.486	5.87366
836.379	5.09473
839.272	6.15695
842.164	5.28394
845.057	11.0817
847.95	14.8879
850.842	13.9695
853.735	2.58289
856.628	6.51053
859.52	21.2294
862.413	2.30066
865.306	8.49213
868.199	14.1062
871.091	7.23862
873.984	14.1192
876.877	12.4034
879.769	15.0751
882.662	8.43683
885.555	26.9113
888.447	16.4299
891.34	11.7945
894.233	23.0792
897.126	6.66183
900.018	21.7018
902.911	4.65823
905.804	4.97583
908.696	12.5321
911.589	12.4205
914.482	11.9089
917.375	19.0141
920.267	8.87668
923.16	9.81775
926.053	13.1562
928.945	3.23142
931.838	12.8013
934.731	3.28525
937.624	9.75247
940.516	8.90237
943.409	9.0856
946.302	13.143
949.194	1.08639
952.087	0.602814
954.98	12.1808
957.872	16.6412
960.765	8.75787
963.658	17.9158
966.551	9.14496
969.443	23.2673
972.336	21.6475
975.229	12.854
978.121	11.188
981.014	23.4927
983.907	14.2044
986.799	16.4859
989.692	9.4115
992.585	7.44299
995.477	16.2761
998.37	22.0868
1001.26	1.20117
1004.16	12.4326
1007.05	2.8446
1009.94	7.46576
1012.83	24.6854
1015.73	5.62668
1018.62	8.69739
1021.51	18.0764
1024.4	9.44595
1027.3	11.6268
1030.19	35.3735
1033.08	9.41812
1035.97	14.4761
1038.87	30.0456
1041.76	19.8417
1044.65	6.19321
1047.55	3.78986
1050.44	3.22897
1053.33	14.7599
1056.22	10.8001
1059.12	11.2202
1062.01	0.904266
1064.9	4.99085
1067.8	7.8483
1070.69	11.3337
1073.58	13.3327
1076.47	15.1075
1079.37	27.4865
1082.26	13.0022
1085.15	0.85733
1088.04	4.53925
1090.94	20.3236
1093.83	5.89084
1096.72	10.3677
1099.62	0.659973
1102.51	16.8194
1105.4	17.0564
1108.29	13.7772
1111.19	4.07809
1114.08	10.9457
1116.97	10.8249
1119.86	7.28754
1122.76	18.8161
1125.65	13.9731
1128.54	6.27176
1131.43	10.3602
1134.33	24.3875
1137.22	10.5039
1140.11	12.1879
1143.01	9.15732
1145.9	6.75131
1148.79	8.84622
1151.68	10.2439
1154.58	6.37552
1157.47	24.551
1160.36	10.1392
1163.25	10.6356
1166.15	26.5512
1169.04	11.5047
1171.93	10.2896
1174.83	6.16531
1177.72	17.0915
1180.61	10.708
1183.5	10.253
1186.4	5.13431
1189.29	0.060974
1192.18	13.362
1195.07	25.0752
1197.97	10.2528
1200.86	15.7988
1203.75	12.6374
1206.64	1.89768
1209.54	10.454
1212.43	20.3351
1215.32	17.1934
1218.21	17.514
1221.11	7.23605
1224	14.341
1226.89	17.2313
1229.79	16.2455
1232.68	6.95532
1235.57	23.5488
1238.46	0.098663
