Measurement: Raman, 532 nm, unoriented, Raman Data Processed
Mineral: Cinnabar
Rruff sample: R050072
Ideal chemistry: HgS
Locality: Gui Zhu, Hunan Province, China
Source: Rock Currier
Description: Red single crystal associated with calcite
Measured chemistry: Hg_1.00_S_1.00_
Raman shift (cm-1)	intensity
130.734	0
133.627	3.9989
136.519	79.0444
139.412	96.9625
142.305	134.512
145.197	171.397
148.09	107.383
150.983	90.9951
153.875	50.1791
156.768	89.1551
159.661	88.5079
162.554	59.7659
165.446	95.9838
168.339	24.2094
171.232	39.4776
174.124	22.4117
177.017	11.4953
179.91	2.10962
182.803	13.2336
185.695	15.6633
188.588	9.19995
191.481	1.10712
194.373	10.1811
197.266	8.23798
200.159	11.1423
203.051	5.79291
205.944	22.726
208.837	30.9669
211.729	36.9869
214.622	65.7853
217.515	86.2041
220.407	80.5148
223.3	91.0165
226.193	129.869
229.086	169.531
231.978	253.989
234.871	397.902
237.764	544.604
240.656	776.806
243.549	1106.4
246.442	1458.55
249.334	1964.33
252.227	2549.2
255.12	2613.31
258.013	1866.29
260.905	1154.35
263.798	679.638
266.691	438.855
269.583	376.32
272.476	269.506
275.369	237.524
278.262	237.026
281.154	265.847
284.047	252.213
286.94	288.796
289.832	289.421
292.725	270.412
295.618	164.995
298.51	82.0721
301.403	41.059
304.296	55.1981
307.188	23.4582
310.081	38.1217
312.974	21.6085
315.867	13.8765
318.759	28.5763
321.652	3.99744
324.545	27.9949
327.437	10.8678
330.33	60.9761
333.223	102.705
336.115	81.1632
339.008	120.075
341.901	211.424
344.794	176.446
347.686	153.105
350.579	157.806
353.472	105.313
356.364	39.0374
359.257	74.2916
362.15	40.9141
365.043	10.8475
367.935	26.9654
370.828	24.2314
373.721	25.2091
376.613	5.53845
379.506	5.8551
382.399	22.016
385.291	9.76074
388.184	42.4771
391.077	16.2906
393.969	28.351
396.862	35.2065
399.755	48.1568
402.648	9.55145
405.54	17.4976
408.433	40.6857
411.326	17.4589
414.218	1.04981
417.111	22.9546
420.004	36.8912
422.897	10.433
425.789	3.87585
428.682	19.6715
431.575	41.6585
434.467	5.79394
437.36	22.0591
440.253	25.1232
443.145	61.5797
446.038	24.189
448.931	49.052
451.824	27.9885
454.716	25.4818
457.609	18.714
460.502	29.9279
463.394	43.8843
466.287	66.1273
469.18	73.1987
472.072	70.5703
474.965	35.9308
477.858	41.4059
480.75	36.3938
483.643	20.4316
486.536	56.9594
489.429	79.1446
492.321	12.9086
495.214	43.9512
498.107	41.2889
500.999	45.6653
503.892	50.4934
506.785	12.4741
509.678	9.49878
512.57	41.2797
515.463	46.65
518.356	35.0754
521.248	11.017
524.141	33.5055
527.034	10.9849
529.926	49.579
532.819	34.1002
535.712	45.0143
538.604	14.2752
541.497	8.12549
544.39	5.02808
547.283	40.8358
550.175	27.7939
553.068	22.3807
555.961	33.8347
558.853	14.3828
561.746	18.0558
564.639	15.2717
567.531	41.9308
570.424	54.4611
573.317	4.06165
576.21	24.5778
579.102	13.3877
581.995	30.1594
584.888	7.6394
587.78	48.3065
590.673	34.1791
593.566	38.1484
596.458	41.8241
599.351	28.526
602.244	34.0785
605.136	42.8227
608.029	16.5109
610.922	29.3025
613.815	48.7082
616.707	59.3306
619.6	40.9559
622.493	22.5786
625.385	27.0095
628.278	17.1974
631.171	11.3077
634.063	28.7454
636.956	9.57141
639.849	18.4182
642.742	53.7117
645.634	4.47742
648.527	52.5784
651.42	43.355
654.312	48.434
657.205	56.3623
660.098	28.1151
662.99	11.6104
665.883	18.0773
668.776	7.39636
671.669	17.2588
674.561	16.0565
677.454	24.8633
680.347	35.5902
683.239	40.3035
686.132	34.7336
689.025	14.8473
691.918	0.417847
694.81	24.2296
697.703	31.3018
700.596	50.0662
703.488	21.1445
706.381	21.6626
709.274	7.02905
712.166	40.6603
715.059	27.7384
717.952	3.12695
720.845	63.0701
723.737	36.389
726.63	46.3972
729.523	50.5703
732.415	36.4518
735.308	21.853
738.201	37.6967
741.093	68.676
743.986	26.262
746.879	57.4153
749.771	63.5337
752.664	20.2074
755.557	2.74341
758.45	38.0203
761.342	7.28882
764.235	41.6892
767.128	20.6873
770.02	30.6692
772.913	16.7873
775.806	62.5125
778.698	11.8679
781.591	48.8289
784.484	26.165
787.377	4.28076
790.269	42.0676
793.162	22.5425
796.055	17.2864
798.947	40.6829
801.84	45.6008
804.733	2.01074
807.625	4.60596
810.518	42.489
813.411	13.2561
816.304	17.0496
819.196	7.95947
822.089	6.18286
824.982	52.864
827.874	76.3977
830.767	47.8398
833.66	22.6653
836.552	74.072
839.445	19.7361
842.338	20.9695
845.231	73.0586
848.123	61.886
851.016	71.3677
853.909	24.6067
856.801	50.3852
859.694	51.999
862.587	80.4292
865.479	21.0027
868.372	58.7986
871.265	0.496582
874.158	27.9348
877.05	39.9321
879.943	24.8618
882.836	47.9199
885.728	18.4387
888.621	55.6587
891.514	47.6621
894.406	7.62378
897.299	23.0767
900.192	27.4343
903.085	20.4026
905.977	19.2676
908.87	43.8406
911.763	33.8447
914.655	8.22534
917.548	44.5764
920.441	0.642578
923.333	9.96582
926.226	33.2773
929.119	22.7952
932.011	21.9932
934.904	38.0159
937.797	29.9434
940.69	30.7571
943.582	5.60938
946.475	62.647
949.368	61.2129
952.26	30.6924
955.153	19.3308
958.046	23.9377
960.938	24.072
963.831	9.21655
966.724	22.3762
969.617	51.4031
972.509	54.0637
975.402	9.57422
978.295	66.2693
981.187	7.57129
984.08	64.113
986.973	29.9329
989.865	42.6997
992.758	17.4807
995.651	61.718
998.544	53.832
1001.44	55.8091
1004.33	29.189
1007.22	59.7183
1010.11	3.37988
1013.01	56.2402
1015.9	22.2207
1018.79	29.4761
1021.68	21.3809
1024.58	61.3315
1027.47	23.7227
1030.36	62.3335
1033.26	77.3926
1036.15	41.7012
1039.04	31.8433
1041.93	52.936
1044.83	45.5478
1047.72	27.1714
1050.61	40.7456
1053.51	4.12646
1056.4	56.3848
1059.29	3.24023
1062.18	83.4243
1065.08	11.1514
1067.97	54.8906
1070.86	39.2783
1073.75	43.5859
1076.65	6.21924
1079.54	65.6675
1082.43	46.6934
1085.33	45.623
1088.22	22.3374
1091.11	40.2529
1094	35.7134
1096.89	36.3569
1099.79	101.32
1102.68	14.6724
1105.57	14.5342
1108.47	55.4233
1111.36	32.6226
1114.25	120.832
1117.14	89.9102
1120.04	59.1011
1122.93	42.8813
1125.82	42.2236
1128.71	66.3652
1131.61	88.8472
1134.5	78.7202
1137.39	72.9805
1140.29	33.6748
1143.18	104.962
1146.07	83.751
1148.96	63.8628
1151.86	28.8198
1154.75	51.021
1157.64	51.3657
1160.54	56.519
1163.43	35.3633
1166.32	52.2827
1169.21	45.1836
1172.11	50.2119
1175	80.4668
1177.89	10.3755
1180.78	21.1006
1183.68	98.9629
1186.57	34.3857
1189.46	94.6655
1192.35	111.517
1195.25	24.4439
1198.14	88.3828
1201.03	54.1152
1203.92	54.231
1206.82	24.2725
1209.71	27.7651
1212.6	54.79
1215.5	47.2925
1218.39	93.3877
1221.28	123.957
1224.17	45.5727
1227.07	66.2041
1229.96	0.896484
1232.85	3.91894
1235.74	2.03027
1238.64	34.6592
1241.53	17.1416
1244.42	73.3975
1247.32	139.118
1250.21	3.68652
1253.1	83.7295
1255.99	42.1377
1258.89	74.1621
