Measurement: Raman, 780 nm, unoriented, Raman Data Processed
Mineral: Cinnabar
Rruff sample: R050072
Ideal chemistry: HgS
Locality: Gui Zhu, Hunan Province, China
Source: Rock Currier
Description: Red single crystal associated with calcite
Measured chemistry: Hg_1.00_S_1.00_
Raman shift (cm-1)	intensity
113.256	0
116.631	64.1237
120.006	57.6276
123.38	41.5335
126.755	21.0595
130.13	25.8225
133.505	141.192
136.88	230.876
140.255	416.964
143.629	741.144
147.004	866.484
150.379	535.715
153.754	343.867
157.129	232.465
160.503	150.795
163.878	115.392
167.253	152.186
170.628	85.0025
174.003	40.7189
177.377	44.7547
180.752	6.94717
184.127	15.5565
187.502	42.6884
190.877	33.9997
194.251	28.6854
197.626	25.568
201.001	16.7241
204.376	52.7466
207.751	117.05
211.126	204.531
214.5	356.344
217.875	569.054
221.25	923.394
224.625	1403.27
228	2143.43
231.375	3246.18
234.749	4953.69
238.124	8266.62
241.499	14130.6
244.874	22037.4
248.249	32284
251.623	48531.8
254.998	58762.7
258.373	36646.1
261.748	16310.6
265.123	7752.4
268.498	4346.68
271.872	2771.85
275.247	2108.16
278.622	2005.46
281.997	2358.5
285.372	2865.98
288.746	3955.35
292.121	4676.97
295.496	2950.42
298.871	1232.53
302.246	541.737
305.62	232.693
308.995	106.546
312.37	7.49609
315.745	14.9858
319.12	30.9296
322.495	38.5874
325.869	135.789
329.244	314.114
332.619	727.024
335.994	1433.03
339.369	2675.33
342.743	4100.63
346.118	5490.17
349.493	7337.03
352.868	7490.91
356.243	4261.44
359.618	1841.1
362.992	713.221
366.367	276.396
369.742	75.1763
373.117	6.37012
376.492	39.4953
379.866	31.2262
383.241	26.6695
386.616	17.6054
389.991	15.0922
393.366	31.4353
396.74	72.5725
400.115	56.9043
403.49	67.6254
406.865	72.5755
410.24	67.9986
413.615	88.5824
416.989	74.1099
420.364	84.774
423.739	106.497
427.114	116.034
430.489	118.028
433.863	130.951
437.238	99.9625
440.613	75.0711
443.988	53.3958
447.363	53.0662
450.738	45.2782
454.112	61.8839
457.487	54.3229
460.862	54.1012
464.237	49.7698
467.612	51.9009
470.986	58.8201
474.361	49.587
477.736	54.3985
481.111	42.5152
484.486	45.4141
487.861	38.1209
491.235	49.9647
494.61	32.3146
497.985	28.87
501.36	20.0368
504.735	18.5787
508.109	10.0804
511.484	0.987484
514.859	8.02474
518.234	5.4541
521.609	11.1018
524.984	5.89085
528.358	6.42786
531.733	4.33354
535.108	5.80994
538.483	7.10065
541.858	9.39227
545.232	6.53229
548.607	13.8318
551.982	3.86819
555.357	20.4995
558.732	19.5219
562.106	13.5518
565.481	5.44321
568.856	3.75741
572.231	2.12972
575.606	13.8544
578.981	4.12954
582.355	12.1918
585.73	0.709305
589.105	1.38499
592.48	11.9224
595.855	11.987
599.23	10.5267
602.604	18.8607
605.979	13.219
609.354	19.9133
612.729	28.9909
616.104	35.8007
619.478	50.023
622.853	57.29
626.228	75.2967
629.603	75.7059
632.978	71.6325
636.352	56.7978
639.727	56.6188
643.102	58.8309
646.477	46.2008
649.852	41.3993
653.227	37.5285
656.601	27.2606
659.976	28.7385
663.351	12.9849
666.726	12.9987
670.101	5.0623
673.476	5.56396
676.85	2.45842
680.225	4.08842
683.6	14.1652
686.975	15.6456
690.35	17.406
693.724	13.921
697.099	15.4194
700.474	11.7683
703.849	8.0878
707.224	5.81768
710.598	18.655
713.973	3.28021
717.348	0.519495
720.723	4.0373
724.098	3.62098
727.472	3.39505
730.847	0.969917
734.222	0.038708
737.597	10.4844
740.972	1.50836
744.347	0.052087
747.721	8.74145
751.096	5.42836
754.471	9.52657
757.846	13.2485
761.221	10.5875
764.596	7.52013
767.97	12.3566
771.345	9.60237
774.72	6.86475
778.095	5.90102
781.47	18.5147
784.844	6.0821
788.219	10.5396
791.594	16.1613
794.969	14.2695
798.344	3.87131
801.718	4.16472
805.093	8.02115
808.468	9.06313
811.843	7.95497
815.218	7.98221
818.593	8.59095
821.967	8.33483
825.342	12.6526
828.717	2.33523
832.092	5.96199
835.467	3.11894
838.841	9.69524
842.216	3.95128
845.591	1.75991
848.966	4.27301
852.341	4.78857
855.716	4.67973
859.09	2.84418
862.465	12.0139
865.84	3.51971
869.215	6.69307
872.59	3.95605
875.964	4.24424
879.339	1.82486
882.714	4.69836
886.089	3.64067
889.464	3.01987
892.838	6.40048
896.213	0.196662
899.588	3.79548
902.963	0.274465
906.338	7.97323
909.713	5.26912
913.087	5.53041
916.462	2.42771
919.837	11.3694
923.212	8.81645
926.587	7.49716
929.962	9.4869
933.336	5.22091
936.711	3.77403
940.086	12.6621
943.461	7.93123
946.836	5.1126
950.21	5.70245
953.585	6.23321
956.96	7.2115
960.335	2.94586
963.71	8.22623
967.085	4.41425
970.459	4.01622
973.834	10.5367
977.209	5.53148
980.584	5.95192
983.959	9.46811
987.333	5.87997
990.708	7.66343
994.083	5.01773
997.458	7.71271
1000.83	3.90877
1004.21	9.10477
1007.58	10.6483
1010.96	3.52762
1014.33	3.53029
1017.71	5.34347
1021.08	6.99467
1024.46	8.23105
1027.83	5.92555
1031.21	5.42386
1034.58	8.03607
1037.96	4.53822
1041.33	8.18451
1044.7	6.81577
1048.08	3.04397
1051.45	4.8064
1054.83	12.0745
1058.2	7.92711
1061.58	0.898591
1064.95	0.935297
1068.33	5.6873
1071.7	0.228216
1075.08	13.0375
1078.45	7.50857
1081.83	5.08153
1085.2	6.50292
1088.58	8.09145
1091.95	10.0046
1095.33	2.29064
1098.7	4.17004
1102.08	7.68428
1105.45	4.65698
1108.83	3.67218
1112.2	7.59028
1115.58	10.7254
1118.95	5.59485
1122.33	4.74419
1125.7	11.5849
1129.08	5.72631
1132.45	13.4517
1135.83	4.42939
1139.2	4.42184
1142.58	5.18698
1145.95	7.10091
1149.33	2.00865
1152.7	6.41009
1156.07	6.69818
1159.45	8.11453
1162.82	11.9374
1166.2	8.36467
1169.57	5.20761
1172.95	9.98611
1176.32	1.62216
1179.7	4.92953
1183.07	4.93561
1186.45	9.0402
1189.82	0.301266
1193.2	9.20646
1196.57	5.80873
1199.95	2.0272
1203.32	7.37194
1206.7	1.66084
1210.07	12.6322
1213.45	5.44451
1216.82	5.52669
1220.2	11.3215
1223.57	6.91873
1226.94	0.02621
1230.32	4.9414
1233.69	3.7682
1237.07	6.57731
1240.44	5.33886
1243.82	2.2119
1247.19	10.1454
1250.57	7.53609
1253.94	2.62352
1257.32	10.7123
1260.69	7.70613
1264.07	9.70127
1267.44	4.79417
1270.82	0.050969
