Measurement: Raman, 514 nm, unoriented, Raman Data Processed
Mineral: Cinnabar
Rruff sample: R050072
Ideal chemistry: HgS
Locality: Gui Zhu, Hunan Province, China
Source: Rock Currier
Description: Red single crystal associated with calcite
Measured chemistry: Hg_1.00_S_1.00_
Raman shift (cm-1)	intensity
172.452	0
176.594	40.358
180.734	171.794
184.872	242.884
189.008	33.826
193.143	89.53
197.275	212.508
201.405	246.261
205.534	426.048
209.66	731.284
213.784	1627.36
217.907	3243.63
222.027	1341.27
226.146	381.447
230.263	130.713
234.377	205.201
238.49	309.54
242.601	635.855
246.709	1131.51
250.816	1332.21
254.921	1462.3
259.024	1149.32
263.125	565.227
267.224	485.371
271.321	349.493
275.416	192.476
279.51	248.816
283.601	617.318
287.69	322.922
291.778	202.321
295.863	134.667
299.947	127.972
304.029	20.208
308.108	167.582
312.186	83.334
316.262	21.812
320.336	83.104
324.408	9.623
328.478	39.705
332.546	272.605
336.612	55.58
340.677	128.362
344.739	278.85
348.799	261.888
352.858	191.431
356.915	20.841
360.969	105.451
365.022	202.673
369.073	86.711
373.122	35.135
377.169	55.663
381.215	85.403
385.258	202.386
389.299	90.871
393.339	275.388
397.376	548.74
401.412	405.468
405.446	739.674
409.478	325.779
413.508	431.424
417.536	861.864
421.562	943.522
425.586	1404.03
429.609	759.431
433.629	677.864
437.648	967.792
441.665	997.209
445.68	1082.42
449.693	1293.52
453.704	1799.91
457.713	2029.05
461.721	2647.49
465.726	3321.94
469.73	4145.29
473.731	4733.55
477.731	3212.16
481.729	2855.23
485.725	2963.43
489.72	3373.02
493.712	3610.26
497.703	2701.18
501.691	1937.35
505.678	1632.62
509.663	1162.59
513.646	754.106
517.627	703.845
521.607	539.881
525.584	406.513
529.56	136.658
533.534	21.362
537.506	271.365
541.476	74.193
545.444	209.483
549.41	105.535
553.375	229.497
557.337	293.891
561.298	125.518
565.257	254.461
569.214	316.641
573.17	340.888
577.123	128.683
581.075	646.175
585.024	200.35
588.972	277.301
592.918	334.95
596.863	218.953
600.805	608.443
604.746	457.37
608.685	281.01
612.621	337.241
616.557	238.238
620.49	142.628
624.421	185.17
628.351	272.469
632.279	240.867
636.205	81.817
640.129	121.352
644.051	80.039
647.972	115.521
651.89	95.984
655.807	304.449
659.722	398.957
663.636	518.026
667.547	146.181
671.457	116.608
675.365	105.815
679.271	52.661
683.175	196.224
687.077	212.747
690.978	68.745
694.877	175.353
698.774	152.066
702.669	230.42
706.562	216.799
710.454	155.423
714.344	82.934
718.232	44.009
722.118	84.789
726.002	23.725
729.885	2.775
733.766	36.575
737.645	58.888
741.522	12.496
745.397	276.204
749.271	428.748
753.143	84.947
757.013	72.032
760.881	89.996
764.748	462.797
768.613	138.959
772.476	45.478
776.337	166.571
780.196	162.959
784.054	37.558
787.91	86.772
791.764	9.359
795.616	67.029
799.467	58.516
803.316	59.584
807.163	78.668
811.008	180.236
814.851	288.436
818.693	176.082
822.533	156.6
826.371	297.809
830.208	216.566
834.042	396.197
837.875	285.256
841.706	396.438
845.536	422.854
849.363	86.049
853.189	211.047
857.013	257.789
860.836	281.504
864.656	350.248
868.475	299.771
872.292	166.842
876.108	113.883
879.922	214.088
883.733	139.549
887.544	81.264
891.352	70.281
895.159	158.219
898.964	13.828
902.767	275.219
906.568	421.531
910.368	245.002
914.166	306.176
917.962	81.348
921.757	282.209
925.55	320.303
929.341	289.709
933.13	243.371
936.918	209.439
940.703	312.779
944.488	517.42
948.27	472.352
952.051	474.018
955.83	415.059
959.607	276.641
963.383	397.695
967.156	472.934
970.928	308.867
974.699	445.568
978.468	273.545
982.234	294.238
986	546.912
989.763	516.834
993.525	429.566
997.285	380.797
1001.04	626.637
1004.8	471.516
1008.55	525.695
1012.31	431.473
1016.06	317.094
1019.81	309.676
1023.56	365.887
1027.31	597.469
1031.05	593.037
1034.79	729.268
1038.53	312.666
1042.27	537.199
1046.01	556.381
1049.75	833.596
1053.48	661.875
1057.22	922.699
1060.95	517.238
1064.68	702.242
1068.4	772.648
1072.13	745.006
1075.86	626.707
1079.58	523.621
1083.3	531.771
1087.02	520.814
1090.74	499.246
1094.45	327.254
1098.17	462.994
1101.88	481.453
1105.59	398.613
1109.3	268.484
1113.01	29.047
1116.71	147.133
1120.42	126.383
1124.12	290.436
1127.82	238.1
1131.52	386.367
1135.22	281.271
1138.91	273.471
1142.61	82.502
1146.3	310.994
1149.99	282.969
1153.68	247.611
1157.37	278.928
1161.06	263.688
1164.74	68.543
1168.42	341.322
1172.1	22.521
1175.78	65.332
1179.46	167.545
1183.14	47.178
1186.81	19.643
1190.48	74.717
1194.15	267.781
1197.83	25.518
1201.49	224.564
1205.16	51.533
1208.82	109.959
1212.49	5.568
1216.15	20.611
1219.81	85.812
1223.46	9.68
1227.12	210.699
1230.78	304.324
1234.43	513.717
1238.08	998.916
1241.73	1457.29
1245.38	1851.4
1249.03	2367.41
1252.67	2663.31
1256.31	2596.34
1259.95	2580.04
1263.6	2104.33
1267.23	1974.43
1270.87	1300.62
1274.51	782.592
1278.14	552.014
1281.77	585.83
1285.4	492.291
1289.03	287.057
1292.66	210.791
1296.28	64.828
1299.91	263.693
1303.53	67.918
1307.15	9.279
1310.77	219.506
1314.38	161.867
1318	50.197
1321.61	290.338
1325.23	39.982
1328.84	0.934
1332.45	181.412
1336.06	126.656
1339.66	247.055
1343.27	194.836
1346.87	307.32
1350.47	451.371
1354.07	648.99
1357.67	759.938
1361.26	886.994
1364.86	935.135
1368.45	998.082
1372.04	1124.61
1375.63	1610.95
1379.22	1305.04
1382.81	1463.33
1386.39	1743.68
1389.98	2162.23
1393.56	2334.06
1397.14	2643.39
1400.72	3196.22
1404.3	3578.69
1407.87	4211.9
1411.45	5040.17
1415.02	6204.07
1418.59	6850.28
1422.16	8223.87
1425.73	9358.46
1429.29	10395.6
1432.86	11408.1
1436.42	13097.3
1439.98	13679.8
1443.54	13921.3
1447.1	13659.8
1450.66	12778.8
1454.21	11266.1
1457.77	10558.5
1461.32	9321.57
1464.87	8748.86
1468.42	7309.91
1471.96	7138.66
1475.51	6756.47
1479.06	6068.88
1482.6	5463.94
1486.14	4497.05
1489.68	4143.5
1493.22	3269.66
1496.75	2520.16
1500.29	1319.96
1503.82	666.625
1507.35	298.512
1510.88	143.555
1514.41	176.742
1517.94	17.418
1521.46	110.207
