Measurement: Raman, 532 nm, unoriented, Raman Data Processed
Mineral: Cinnabar
Rruff sample: R070532
Ideal chemistry: HgS
Locality: Charcas, San Luis Potosi, Mexico
Source: James Shigley
Description: Red prismatic crystals associated with calcite
Measured chemistry: Hg_1.00_S_1.00_
Raman shift (cm-1)	intensity
151.12	0
154.012	26.3588
156.905	70.2595
159.798	61.7315
162.69	75.7438
165.583	60.5094
168.476	65.9027
171.369	84.444
174.261	66.825
177.154	27.8441
180.047	8.7926
182.939	69.7968
185.832	5.85559
188.725	20.2527
191.617	3.48413
194.51	15.1136
197.403	5.35864
200.296	9.80676
203.188	8.48682
206.081	15.5812
208.974	2.56226
211.866	2.11597
214.759	13.7127
217.652	76.5764
220.544	95.9852
223.437	136.666
226.33	228.427
229.222	326.311
232.115	534.084
235.008	805.393
237.901	1317.54
240.793	1882.66
243.686	2572.21
246.579	3461.3
249.471	4433.72
252.364	4911.51
255.257	3975.61
258.149	2315.55
261.042	1307.66
263.935	801.963
266.828	590.034
269.72	448.661
272.613	379.076
275.506	404.996
278.398	429.769
281.291	515.179
284.184	608.083
287.077	780.647
289.969	669.245
292.862	460.471
295.755	261.917
298.647	131.723
301.54	112.589
304.433	50.8373
307.325	33.8236
310.218	33.661
313.111	12.8931
316.004	6.44092
318.896	22.28
321.789	5.86108
324.682	38.7978
327.574	80.1151
330.467	89.5287
333.36	132.046
336.252	185.519
339.145	233.325
342.038	245.373
344.931	241.489
347.823	224.527
350.716	235.549
353.609	138.566
356.501	99.1816
359.394	24.6271
362.287	16.2617
365.18	20.5494
368.072	9.01123
370.965	1.65442
373.858	4.97852
376.75	1.88
379.643	25.4635
382.536	16.8218
385.428	35.6984
388.321	45.3269
391.214	23.3513
394.106	5.5708
396.999	19.4436
399.892	29.9716
402.785	15.8479
405.677	39.1279
408.57	39.1973
411.463	18.7115
414.355	8.88123
417.248	6.89832
420.141	29.7057
423.034	32.2334
425.926	26.2413
428.819	30.1252
431.712	41.1936
434.604	38.4597
437.497	20.0182
440.39	15.4956
443.282	53.1113
446.175	22.9851
449.068	60.9972
451.961	18.7284
454.853	35.1174
457.746	43.302
460.639	10.1736
463.531	9.29956
466.424	3.50085
469.317	18.9731
472.209	14.1053
475.102	16.0727
477.995	8.65137
480.887	5.27759
483.78	60.7251
486.673	75.3575
489.566	66.1928
492.458	41.3744
495.351	32.7423
498.244	54.9265
501.136	25.522
504.029	16.7413
506.922	2.89075
509.815	49.9769
512.707	50.4932
515.6	15.7056
518.493	41.9676
521.385	31.9281
524.278	49.0489
527.171	17.8773
530.063	25.033
532.956	42.3456
535.849	44.6668
538.742	23.507
541.634	55.1035
544.527	36.1128
547.42	34.4218
550.312	5.49951
553.205	7.12537
556.098	15.9833
558.99	76.0071
561.883	36.8389
564.776	10.7334
567.669	30.1262
570.561	30.5078
573.454	39.8179
576.347	23.2935
579.239	46.8589
582.132	7.16992
585.025	6.35254
587.918	4.85986
590.81	5.26538
593.703	20.9238
596.596	16.3779
599.488	47.7131
602.381	45.2165
605.274	16.9875
608.166	53.0027
611.059	84.8035
613.952	0.17627
616.845	36.8584
619.737	32.3992
622.63	0.365234
625.523	46.2476
628.415	61.6096
631.308	3.22754
634.201	42.135
637.093	27.4675
639.986	35.74
642.879	38.3474
645.771	27.0581
648.664	11.5696
651.557	19.0523
654.45	38.4736
657.342	26.9719
660.235	0.78833
663.128	28.7209
666.02	12.3709
668.913	66.4734
671.806	4.49658
674.698	26.8498
677.591	38.312
680.484	54.1335
683.377	53.8577
686.269	15.7444
689.162	14.0757
692.055	24.2888
694.947	48.7429
697.84	32.2759
700.733	53.9336
703.625	55.0823
706.518	11.7082
709.411	20.9724
712.304	22.3672
715.196	38.3821
718.089	26.9441
720.982	2.4187
723.875	18.6133
726.767	42.8948
729.66	45.832
732.553	17.2981
735.445	10.706
738.338	41.8293
741.231	30.1396
744.123	48.4348
747.016	32.4268
749.909	30.2073
752.802	45.8284
755.694	43.7256
758.587	5.80591
761.48	47.5076
764.372	19.2224
767.265	36.4192
770.158	16.9683
773.05	70.3435
775.943	12.7043
778.836	37.8291
781.729	20.3486
784.621	26.1445
787.514	24.9536
790.407	55.7466
793.299	19.4492
796.192	30.2637
799.085	1.76782
801.977	36.8855
804.87	0.441895
807.763	38.3379
810.655	42.9702
813.548	72.3999
816.441	40.7505
819.334	10.0137
822.226	45.8579
825.119	62.9585
828.012	64.9473
830.904	23.3452
833.797	9.02002
836.69	18.3281
839.582	34.3325
842.475	4.52441
845.368	118.334
848.261	38.2661
851.153	7.28467
854.046	14.2427
856.939	46.3076
859.831	65.4028
862.724	63.7432
865.617	69.6856
868.51	47.0727
871.402	50.6284
874.295	47.4468
877.188	55.4106
880.08	41.0469
882.973	80.3115
885.866	85.8608
888.758	74.4067
891.651	94.7197
894.544	73.4243
897.437	46.2324
900.329	27.9268
903.222	25.8213
906.115	79.2759
909.007	74.9814
911.9	45.8555
914.793	31.3648
917.685	63.9775
920.578	64.9927
923.471	41.8101
926.364	42.9756
929.256	14.5474
932.149	60.3794
935.042	0.492676
937.934	9.39209
940.827	58.1016
943.72	58.3999
946.612	18.4819
949.505	44.0102
952.398	43.2378
955.29	19.523
958.183	7.7085
961.076	23.6558
963.969	71.3062
966.861	25.4648
969.754	5.11865
972.647	87.2637
975.539	112.868
978.432	50.4399
981.325	51.9834
984.217	24.5034
987.11	72.3364
990.003	63.9839
992.896	89.9424
995.788	41.5693
998.681	26.2969
1001.57	42.2158
1004.47	84.5151
1007.36	43.6519
1010.25	142.708
1013.14	179.915
1016.04	99.6943
1018.93	29.2461
1021.82	42.7285
1024.71	11.8398
1027.61	79.9522
1030.5	126.845
1033.39	27.3574
1036.29	55.1152
1039.18	34.7324
1042.07	47.4248
1044.96	82.5098
1047.86	27.8652
1050.75	110.924
1053.64	85.1846
1056.54	35.8301
1059.43	37.7168
1062.32	49.6836
1065.21	115.455
1068.11	145.113
1071	88.0742
1073.89	129.446
1076.78	39.4531
1079.68	20.3086
1082.57	80.2715
1085.46	101.034
1088.36	132.083
1091.25	76.1494
1094.14	47.7148
1097.03	63.4287
1099.93	137.712
1102.82	117.842
1105.71	52.6299
1108.6	59.498
1111.5	104.017
1114.39	166.769
1117.28	138.239
1120.17	118.903
1123.07	46.956
1125.96	73.9473
1128.85	28.1748
1131.74	170.372
1134.64	88.2441
1137.53	170.099
1140.42	125.525
1143.32	45.4873
1146.21	59.9111
1149.1	49.206
1151.99	68.749
1154.89	128.136
1157.78	47.6328
1160.67	81.4209
1163.57	41.2617
1166.46	1.12793
1169.35	5.27246
1172.24	93.7363
1175.14	107.697
1178.03	138.597
1180.92	117.255
1183.81	174.185
1186.71	174.634
1189.6	102.088
1192.49	60.7227
1195.38	79.7139
1198.28	78.3994
1201.17	81.5264
1204.06	54.6143
1206.96	50.7949
1209.85	28.7617
1212.74	48.7715
1215.63	127.654
1218.53	268.346
1221.42	263.424
1224.31	275.07
1227.2	115.197
1230.1	47.4922
1232.99	0.107422
1235.88	63.25
1238.78	1.33789
1241.67	49.1133
1244.56	77.3184
1247.45	93.8848
1250.35	6.75586
1253.24	11.1211
1256.13	34.1758
1259.02	45.5137
1261.92	192.709
1264.81	283.613
1267.7	207.16
1270.6	173.527
1273.49	28.3906
1276.38	39.1387
1279.27	33.1816
1282.17	82.4981
1285.06	5.04492
1287.95	0.427734
