Measurement: Raman, 532 nm, unoriented, Raman Data Processed
Mineral: Claringbullite
Rruff sample: R090016
Ideal chemistry: Cu^2+^_4_Cl(OH)_7_
Locality: Copper Queen Mine, Bisbee, Arizona
Source: William W. Pinch
Description: Blue green crystal plates and cleavages on cuprite with connellite, atacamite, clinoatacamite R090062. Note that this is the same sample used in the Burns et al (1995) structural study.
Raman shift (cm-1)	intensity
148.298	0
151.191	1.4281
154.083	0.020355
156.976	1.54318
159.869	4.2852
162.762	8.16223
165.654	13.2725
168.547	19.5534
171.44	27.6267
174.332	32.6554
177.225	42.0296
180.118	46.0078
183.01	47.0682
185.903	43.2609
188.796	34.8678
191.688	23.7653
194.581	17.0827
197.474	10.6755
200.367	4.85306
203.259	2.46494
206.152	0.16835
209.045	1.07249
211.937	0.521759
214.83	0.228188
217.723	0.905113
220.615	0.469521
223.508	0.548447
226.401	0.451897
229.293	1.58789
232.186	2.33292
235.079	2.451
237.972	4.12965
240.864	3.90923
243.757	6.41835
246.65	6.03452
249.542	7.65924
252.435	8.8131
255.328	9.21593
258.221	9.99214
261.113	9.2037
264.006	9.06228
266.899	9.30104
269.791	9.77926
272.684	9.18221
275.577	8.9453
278.469	8.60542
281.362	9.50633
284.255	9.02563
287.147	8.48732
290.04	7.97333
292.933	7.36398
295.826	5.88882
298.718	4.74993
301.611	3.40211
304.504	2.65218
307.396	1.09583
310.289	1.44243
313.182	0.653023
316.075	0.038567
318.967	0.569519
321.86	0.277351
324.753	1.3904
327.645	1.35812
330.538	1.56052
333.431	2.93967
336.323	3.81999
339.216	4.7136
342.109	5.75193
345.002	6.56217
347.894	7.44198
350.787	9.07642
353.68	9.65755
356.572	9.99982
359.465	10.3882
362.358	10.5582
365.25	10.8252
368.143	10.2108
371.036	11.831
373.928	12.9458
376.821	12.6486
379.714	12.729
382.607	12.0091
385.499	9.57725
388.392	7.68649
391.285	5.28773
394.177	3.84577
397.07	1.55448
399.963	0.490913
402.856	1.60054
405.748	2.40662
408.641	2.27882
411.534	2.31741
414.426	0.044594
417.319	4.0184
420.212	9.18433
423.104	15.343
425.997	23.6939
428.89	33.8654
431.783	45.1495
434.675	57.0034
437.568	66.6566
440.461	71.3321
443.353	69.4964
446.246	58.8107
449.139	45.8898
452.031	35.1683
454.924	27.9222
457.817	21.3139
460.709	17.0724
463.602	14.6574
466.495	13.7545
469.388	13.7883
472.28	15.1649
475.173	15.7428
478.066	16.7282
480.958	16.2822
483.851	14.7655
486.744	13.0636
489.637	13.1989
492.529	13.3869
495.422	16.4782
498.315	22.9028
501.207	31.5432
504.1	44.4715
506.993	62.6915
509.885	81.483
512.778	104.086
515.671	123.157
518.563	134.798
521.456	135.501
524.349	125.849
527.242	109.602
530.134	91.5316
533.027	79.0403
535.92	71.2832
538.812	64.8411
541.705	60.2228
544.598	53.7885
547.49	48.4885
550.383	42.4729
553.276	34.2199
556.169	29.0846
559.061	22.1464
561.954	18.2387
564.847	13.1959
567.739	10.137
570.632	7.54727
573.525	4.2058
576.418	1.5255
579.31	0.716301
582.203	0.707458
585.096	1.72819
587.988	1.05114
590.881	1.24334
593.774	1.09786
596.666	0.765774
599.559	0.306583
602.452	0.167419
605.344	0.460056
608.237	0.762844
611.13	0.97237
614.023	2.18016
616.915	2.75993
619.808	2.61845
622.701	2.05531
625.593	2.72544
628.486	2.79705
631.379	3.05416
634.271	3.94555
637.164	3.98155
640.057	4.4108
642.949	5.35247
645.842	4.67255
648.735	3.9049
651.628	3.93739
654.52	4.33913
657.413	3.52274
660.306	3.2245
663.198	2.95244
666.091	2.7481
668.984	2.46482
671.876	2.5773
674.769	2.33684
677.662	2.20402
680.555	1.6842
683.447	1.62661
686.34	1.91633
689.233	1.38186
692.125	1.64237
695.018	2.45617
697.911	1.96303
700.803	1.6289
703.696	1.25635
706.589	0.667288
709.482	0.90947
712.374	1.84972
715.267	1.2522
718.16	1.01201
721.052	0.918716
723.945	0.720295
726.838	0.669683
729.731	0.786379
732.623	0.590738
735.516	0.32144
738.409	0.536499
741.301	0.245089
744.194	0.559729
747.087	0.375097
749.979	0.37505
752.872	0.336599
755.765	0.175045
758.658	0.452972
761.55	0.254389
764.443	0.345192
767.336	0.216106
770.228	0.967598
773.121	0.599833
776.014	1.04613
778.906	0.520714
781.799	0.965286
784.692	0.748278
787.585	0.6938
790.477	0.7635
793.37	1.18104
796.263	1.39167
799.155	1.7053
802.048	1.52916
804.941	1.90515
807.833	1.96249
810.726	0.897961
813.619	1.66044
816.511	1.65869
819.404	1.30625
822.297	1.58245
825.19	1.67416
828.082	1.97117
830.975	1.84149
833.868	1.46408
836.76	1.53331
839.653	1.13331
842.546	1.18681
845.438	1.39704
848.331	1.26582
851.224	0.589405
854.117	0.776516
857.009	0.42874
859.902	0.36174
862.795	0.86764
865.687	0.33289
868.58	0.262526
871.473	0.03792
874.365	0.073786
877.258	0.363317
880.151	0.015638
883.044	0.232656
885.936	0.096266
888.829	0.3074
891.722	0.326977
894.614	0.434164
897.507	0.101881
900.4	0.054661
903.293	0.31806
906.185	0.610716
909.078	0.245604
911.971	0.268246
914.863	0.650667
917.756	0.352486
920.649	0.029865
923.541	1.1039
926.434	0.127195
929.327	0.521894
932.22	0.358601
935.112	0.367628
938.005	0.254505
940.898	0.474936
943.79	0.08392
946.683	0.288221
949.576	0.1341
952.468	1.09746
955.361	0.288738
958.254	0.003332
961.146	0.256399
964.039	0.456089
966.932	0.818136
969.825	1.43284
972.717	2.90017
975.61	2.54508
978.503	3.91025
981.395	4.0464
984.288	3.67167
987.181	2.97497
990.073	3.23545
992.966	3.39092
995.859	2.89353
998.751	2.90734
1001.64	3.91552
1004.54	3.26557
1007.43	3.46948
1010.32	2.59709
1013.22	2.73548
1016.11	2.64517
1019	2.37819
1021.89	2.03966
1024.79	2.29186
1027.68	2.28404
1030.57	2.04845
1033.46	1.92498
1036.36	1.60911
1039.25	1.64303
1042.14	1.5785
1045.04	0.948204
1047.93	0.629982
1050.82	0.841465
1053.71	0.753534
1056.61	0.210123
1059.5	0.093172
1062.39	0.484657
1065.28	0.657812
1068.18	0.609318
1071.07	1.10648
1073.96	0.967802
1076.85	0.341633
1079.75	1.10839
1082.64	1.25303
1085.53	0.844496
1088.42	1.23835
1091.32	1.18396
1094.21	1.17889
1097.1	1.54008
1100	0.459391
1102.89	0.902662
1105.78	0.832527
1108.67	0.763071
1111.57	0.993341
1114.46	0.246061
1117.35	0.691141
1120.24	0.269075
1123.14	0.083765
1126.03	0.115107
1128.92	0.39049
1131.82	0.032131
1134.71	0.228997
1137.6	0.131411
1140.49	0.147759
1143.39	0.017544
1146.28	0.024179
1149.17	0.082669
1152.07	0.116768
1154.96	0.348856
1157.85	0.078988
1160.74	0.154639
1163.63	0.230937
1166.53	0.342311
1169.42	0.052825
1172.31	0.069714
1175.21	0.288116
1178.1	0.842447
1180.99	0.748541
1183.88	0.476649
1186.78	1.01412
1189.67	1.19947
1192.56	1.07756
1195.45	1.11899
1198.35	0.886108
1201.24	1.26537
1204.13	0.601933
1207.03	0.751339
1209.92	0.755885
1212.81	0.973814
1215.7	0.898177
1218.6	0.905338
1221.49	1.27271
1224.38	0.661279
1227.28	1.25429
1230.17	0.744501
1233.06	0.608514
1235.95	0.384567
1238.85	1.14689
1241.74	0.479617
1244.63	0.772621
1247.52	0.580343
1250.42	0.37344
1253.31	0.647483
1256.2	0.822918
1259.09	0.586502
1261.99	0.51227
1264.88	0.532948
1267.77	0.74474
1270.66	0.727637
1273.56	1.04883
1276.45	0.258785
1279.34	0.694465
1282.24	0.461588
1285.13	0.605759
1288.02	0.00748
1290.91	0.830291
1293.81	0.435102
1296.7	0.144646
1299.59	0.100007
1302.48	0.001807
