Measurement: Raman, 532 nm, unoriented, Raman Data Processed
Mineral: Claraite
Rruff sample: R110020
Ideal chemistry: Cu^2+^_3_CO_3_(OH)_4_4H_2_O
Locality: Sommerau District, Brixlegg - Rattenberg, Brixlegg - Schwaz area, Inn valley, North Tyrol, Tyrol, Austria
Source: Bob Jenkins
Description: Light blue massive coating with scattered isolated crystals, associated with dark blue azurite
Raman shift (cm-1)	intensity
179.202	0
182.094	17.9044
184.987	54.615
187.88	113.632
190.773	169.969
193.665	213.126
196.558	194.891
199.451	143.454
202.343	74.4105
205.236	34.6031
208.129	33.3745
211.021	68.0223
213.914	92.4929
216.807	114.496
219.699	126.223
222.592	120.574
225.485	113.215
228.377	84.2956
231.27	39.8613
234.163	19.7832
237.056	5.65472
239.948	7.11096
242.841	2.62054
245.734	0.037598
248.626	11.379
251.519	40.5009
254.412	50.0826
257.305	65.3087
260.197	85.2139
263.09	88.8811
265.983	88.4236
268.875	87.8903
271.768	100.191
274.661	100.505
277.553	102.993
280.446	97.4069
283.339	92.0178
286.232	83.7174
289.124	78.7306
292.017	70.3775
294.91	57.1398
297.802	48.1779
300.695	44.2116
303.588	36.2908
306.481	39.4133
309.373	47.7653
312.266	75.7036
315.159	100.352
318.051	122.307
320.944	132.872
323.837	121.918
326.729	113.55
329.622	102.763
332.515	93.6431
335.408	85.9678
338.3	68.6981
341.193	52.0155
344.086	40.4559
346.978	34.211
349.871	35.796
352.764	37.5778
355.656	31.481
358.549	15.9987
361.442	5.05335
364.334	7.24512
367.227	11.7115
370.12	16.163
373.012	16.535
375.905	19.611
378.798	10.7508
381.691	1.05829
384.583	7.94299
387.476	18.0804
390.369	33.3952
393.261	46.4567
396.154	56.051
399.047	76.8732
401.94	103.22
404.832	126.936
407.725	157.552
410.618	192.291
413.51	230.108
416.403	259.775
419.296	270.885
422.188	257.727
425.081	244.087
427.974	212.464
430.866	193.026
433.759	168.464
436.652	139.949
439.545	126.33
442.437	122.444
445.33	110.09
448.223	109.799
451.115	124.155
454.008	126.9
456.901	139.19
459.793	170.077
462.686	182.474
465.579	196.841
468.472	215.216
471.364	256.992
474.257	310.641
477.15	364.372
480.042	441.247
482.935	526.918
485.828	612.434
488.721	673.487
491.613	702.764
494.506	695.944
497.399	653.63
500.291	583.319
503.184	489.63
506.077	397.947
508.969	331.012
511.862	275.406
514.755	246.016
517.648	231.177
520.54	217.765
523.433	220.223
526.326	225.52
529.218	216.231
532.111	205.86
535.004	189.489
537.896	164.837
540.789	144.461
543.682	126.341
546.575	102.834
549.467	78.0005
552.36	53.6104
555.253	25.1577
558.145	7.75067
561.038	6.58243
563.931	13.7055
566.823	16.7371
569.716	10.6609
572.609	11.936
575.502	8.9801
578.394	3.62164
581.287	6.19873
584.18	11.5821
587.072	12.3585
589.965	30.6917
592.858	47.5904
595.75	54.8372
598.643	69.705
601.536	80.7981
604.428	94.2115
607.321	103.928
610.214	106.771
613.107	114.109
615.999	118.261
618.892	115.306
621.785	108.049
624.677	99.4322
627.57	84.8888
630.463	74.0468
633.356	62.9059
636.248	56.1498
639.141	52.9547
642.034	47.5299
644.926	46.0899
647.819	48.6864
650.712	40.693
653.604	47.5876
656.497	44.2646
659.39	43.4612
662.283	37.1406
665.175	42.7145
668.068	33.1444
670.961	32.0804
673.853	30.7443
676.746	25.1671
679.639	19.9381
682.531	20.632
685.424	16.4907
688.317	12.1957
691.21	10.1007
694.102	3.75647
696.995	6.65649
699.888	2.53455
702.78	2.87259
705.673	6.13785
708.566	4.88843
711.458	3.43683
714.351	7.03714
717.244	6.4982
720.136	8.25943
723.029	6.84219
725.922	8.09149
728.815	17.0519
731.707	29.1028
734.6	38.7621
737.493	37.6703
740.385	36.7986
743.278	29.2754
746.171	34.9617
749.063	39.0646
751.956	37.5314
754.849	34.8521
757.742	35.8357
760.634	27.0006
763.527	20.1903
766.42	19.0316
769.312	11.835
772.205	10.9253
775.098	22.7634
777.99	32.6192
780.883	65.4454
783.776	99.4325
786.669	142.5
789.561	192.768
792.454	244.268
795.347	294.912
798.239	300.758
801.132	287.284
804.025	235.551
806.918	183.519
809.81	157.416
812.703	137.42
815.596	135.467
818.488	130.686
821.381	137.919
824.274	149.305
827.166	149.96
830.059	152.616
832.952	136.655
835.845	138.435
838.737	116.866
841.63	114.913
844.523	134.095
847.415	155.746
850.308	189.971
853.201	251.593
856.093	343.783
858.986	444.117
861.879	553.085
864.771	647.495
867.664	708.253
870.557	710.085
873.45	639.025
876.342	510.549
879.235	361.317
882.128	244.34
885.02	157.837
887.913	93.3023
890.806	54.0116
893.698	31.3473
896.591	6.88532
899.484	1.03467
902.377	0.852264
905.269	0.468262
908.162	9.17889
911.055	5.16186
913.947	6.24249
916.84	5.21472
919.733	2.03708
922.625	2.22949
925.518	5.72226
928.411	10.4652
931.304	10.1882
934.196	20.6084
937.089	29.689
939.982	28.9274
942.875	35.2144
945.767	40.116
948.66	48.3018
951.553	59.354
954.445	73.3306
957.338	82.6112
960.231	103.889
963.123	123.088
966.016	165.116
968.909	194.387
971.802	251.987
974.694	317.021
977.587	373.241
980.48	374.315
983.372	326.337
986.265	249.38
989.158	181.468
992.05	144.49
994.943	112.635
997.836	82.6099
1000.73	60.6724
1003.62	45.7735
1006.51	32.3985
1009.41	23.3711
1012.3	18.4726
1015.19	11.485
1018.09	11.794
1020.98	11.537
1023.87	10.8114
1026.76	1.85336
1029.66	3.61345
1032.55	4.81909
1035.44	0.923233
1038.33	2.08774
1041.23	1.63463
1044.12	0.118896
1047.01	0.083801
1049.9	3.10411
1052.8	4.1152
1055.69	3.03821
1058.58	8.49953
1061.47	7.79246
1064.37	7.91425
1067.26	16.7934
1070.15	18.1571
1073.05	20.5841
1075.94	28.8282
1078.83	38.5155
1081.72	44.2118
1084.62	55.8336
1087.51	69.0225
1090.4	87.2866
1093.3	106.142
1096.19	147.362
1099.08	185.876
1101.97	222.254
1104.87	253.147
1107.76	250.867
1110.65	220.422
1113.54	156.006
1116.44	111.648
1119.33	71.975
1122.22	47.8676
1125.12	31.0115
1128.01	27.8584
1130.9	18.8112
1133.79	14.3105
1136.68	8.97014
1139.58	11.7453
1142.47	8.01334
1145.36	7.82243
1148.26	12.7173
1151.15	3.121
1154.04	1.89128
1156.93	5.72672
1159.83	5.50688
1162.72	5.32221
1165.61	5.01863
1168.51	0.221405
1171.4	4.59526
1174.29	3.18127
1177.18	0.135147
1180.08	0.477051
1182.97	0.746857
1185.86	0.38208
1188.75	3.98206
1191.65	7.29388
1194.54	4.99358
1197.43	0.19809
1200.33	6.87146
1203.22	5.97594
1206.11	0.531418
1209	1.72551
1211.9	2.98912
1214.79	5.72374
1217.68	7.09828
1220.57	6.36252
1223.47	11.1656
1226.36	7.263
1229.25	9.59197
1232.14	8.03961
1235.04	9.59267
1237.93	6.75378
1240.82	3.83824
1243.71	0.105621
1246.61	3.73793
1249.5	1.42387
1252.39	6.54242
1255.29	5.70975
1258.18	4.55891
1261.07	2.09963
1263.96	10.4466
1266.86	8.18932
1269.75	4.01401
1272.64	4.12216
1275.54	9.39734
1278.43	8.0967
1281.32	0.686813
1284.21	3.94211
1287.11	3.76483
1290	5.35783
1292.89	1.63841
1295.78	0.336334
1298.68	7.63619
1301.57	0.208435
