Measurement: Raman, 780 nm, unoriented, Raman Data Processed
Mineral: Claudetite
Rruff sample: R050313
Ideal chemistry: As^3+^_2_O_3_
Locality: JÃ¡chymov, Erzgebirge Region, Czech Republic
Source: University of Arizona Mineral Museum
Description: Colorless prismatic crystals scattered on the matrix
Measured chemistry: gray phase: As_2.00_O_3_ ; trace amounts of Al
Raman shift (cm-1)	intensity
102.166	0
105.541	27.9273
108.915	72.7926
112.29	94.7437
115.665	55.3504
119.04	30.448
122.415	12.8133
125.79	3.76326
129.164	1.53538
132.539	0.815979
135.914	1.11346
139.289	5.32493
142.664	16.8961
146.038	42.6525
149.413	122.778
152.788	329.453
156.163	523.183
159.538	618.934
162.912	795.199
166.287	979.018
169.662	1141.99
173.037	1222.41
176.412	615.082
179.786	238.516
183.161	154.402
186.536	119.755
189.911	105.964
193.286	59.3669
196.661	22.8773
200.035	8.16753
203.41	5.42337
206.785	13.0909
210.16	25.4854
213.535	37.7276
216.91	52.6267
220.284	18.6855
223.659	26.9182
227.034	64.8667
230.409	116.2
233.784	179.82
237.158	290.627
240.533	421.88
243.908	528.317
247.283	622.856
250.658	650.763
254.032	691.661
257.407	676.253
260.782	457.83
264.157	231.525
267.532	134.655
270.907	93.9463
274.281	85.2412
277.656	92.5802
281.031	97.5886
284.406	94.3117
287.781	35.6893
291.156	12.2153
294.53	1.63092
297.905	3.12211
301.28	6.48725
304.655	2.46969
308.03	2.09713
311.404	1.91243
314.779	4.04031
318.154	7.22788
321.529	10.8171
324.904	11.7295
328.279	15.9101
331.653	12.9554
335.028	12.1941
338.403	14.7542
341.778	17.9658
345.152	22.9139
348.527	29.1988
351.902	27.3882
355.277	28.3398
358.652	17.27
362.027	3.53008
365.401	1.3343
368.776	4.10047
372.151	2.03206
375.526	2.71801
378.901	0.021294
382.276	1.29572
385.65	2.3545
389.025	3.84368
392.4	12.3698
395.775	14.4752
399.15	18.6986
402.524	24.9797
405.899	37.0315
409.274	49.0575
412.649	59.2803
416.024	75.8016
419.399	92.1991
422.773	111.973
426.148	145.507
429.523	181.722
432.898	250.416
436.273	357.026
439.647	563.745
443.022	900.032
446.397	1235.35
449.772	1560.5
453.147	1893.5
456.522	2164.02
459.896	2116.62
463.271	1544.19
466.646	972.62
470.021	633.356
473.396	415.648
476.77	267.375
480.145	176.778
483.52	119.006
486.895	81.9706
490.27	57.9572
493.644	44.7684
497.019	35.0808
500.394	23.5532
503.769	11.2851
507.144	3.45918
510.519	1.00917
513.893	4.97992
517.268	6.83101
520.643	2.75181
524.018	13.1852
527.393	31.6338
530.768	44.1525
534.142	64.3574
537.517	77.7879
540.892	82.3277
544.267	63.7509
547.641	33.7105
551.016	19.6219
554.391	12.8093
557.766	8.2336
561.141	7.34253
564.516	1.81734
567.89	1.52473
571.265	0.005062
574.64	0.236427
578.015	2.04813
581.39	0.896217
584.764	0.872601
588.139	1.8222
591.514	0.885563
594.889	3.64734
598.264	3.90832
601.639	6.5276
605.013	10.6709
608.388	19.4036
611.763	33.632
615.138	56.1584
618.513	78.9608
621.888	105.995
625.262	127.942
628.637	129.07
632.012	103.217
635.387	70.4644
638.761	35.3887
642.136	19.0612
645.511	10.385
648.886	6.94328
652.261	5.28819
655.636	5.03118
659.01	1.24321
662.385	2.66279
665.76	1.48977
669.135	0.657349
672.51	2.25071
675.885	4.31813
679.259	1.1041
682.634	5.38958
686.009	4.72949
689.384	4.77555
692.759	3.7641
696.133	3.0283
699.508	7.22926
702.883	4.81545
706.258	4.22515
709.633	2.75936
713.008	2.34858
716.382	1.0522
719.757	1.96957
723.132	0.753056
726.507	2.25043
729.882	0.543484
733.256	1.18623
736.631	0.568447
740.006	1.25041
743.381	1.2623
746.756	1.3702
750.13	0.901737
753.505	5.59471
756.88	8.84391
760.255	13.6528
763.63	16.948
767.005	18.966
770.379	21.1963
773.754	16.2933
777.129	9.27819
780.504	4.77977
783.879	1.86311
787.254	1.22443
790.628	0.076057
794.003	1.52183
797.378	4.72693
800.753	8.30522
804.128	11.3771
807.502	19.7506
810.877	25.1032
814.252	27.1849
817.627	27.052
821.002	20.337
824.376	16.2043
827.751	11.2202
831.126	5.3932
834.501	5.33981
837.876	3.91523
841.25	5.51874
844.625	2.06889
848	5.16508
851.375	7.03886
854.75	9.75422
858.125	12.029
861.5	13.7489
864.874	13.4996
868.249	10.9646
871.624	8.41331
874.999	5.09551
878.374	3.73821
881.748	2.12579
885.123	1.04415
888.498	0.440945
891.873	2.14113
895.248	0.752682
898.622	1.16286
901.997	0.04903
905.372	2.173
908.747	0.700573
912.122	0.812683
915.496	0.022854
918.871	1.73405
922.246	1.66831
925.621	2.70567
928.996	1.2252
932.37	0.238115
935.745	1.17474
939.12	1.37264
942.495	1.50137
945.87	0.592417
949.245	2.52956
952.619	3.40489
955.994	2.97359
959.369	1.39058
962.744	1.00053
966.119	1.66755
969.494	1.05717
972.868	1.12543
976.243	2.06359
979.618	3.52608
982.993	1.55511
986.368	1.93229
989.742	0.980564
993.117	0.64654
996.492	2.84161
999.867	0.754002
1003.24	1.82285
1006.62	1.60861
1009.99	1.77753
1013.37	2.82074
1016.74	1.15957
1020.12	1.26002
1023.49	2.67314
1026.87	0.580519
1030.24	2.43681
1033.62	4.00682
1036.99	0.624973
1040.37	1.27953
1043.74	2.87266
1047.11	3.38316
1050.49	0.555187
1053.86	1.30064
1057.24	0.295057
1060.61	2.12312
1063.99	2.89576
1067.36	0.980667
1070.74	1.64227
1074.11	1.68847
1077.49	1.01646
1080.86	1.89707
1084.24	5.81722
1087.61	0.784418
1090.99	2.33194
1094.36	3.21883
1097.74	2.42463
1101.11	2.28842
1104.49	0.478785
1107.86	1.55409
1111.24	0.598145
1114.61	3.34396
1117.98	1.12087
1121.36	1.62719
1124.73	1.126
1128.11	1.81651
1131.48	2.87286
1134.86	1.55549
1138.23	0.047449
1141.61	0.130943
1144.98	1.4621
1148.36	0.541397
1151.73	0.791069
1155.11	1.67365
1158.48	0.759069
1161.86	0.825819
1165.23	2.7641
1168.61	1.3869
1171.98	1.13258
1175.36	1.95158
1178.73	1.73492
1182.11	2.3438
1185.48	0.855528
1188.86	2.11772
1192.23	0.203308
1195.61	1.9246
1198.98	1.42868
1202.36	1.23543
1205.73	0.460745
1209.11	3.13446
1212.48	2.21434
1215.86	1.69284
1219.23	1.92367
1222.61	2.16494
1225.98	0.425381
1229.35	0.485859
1232.73	1.25687
1236.1	0.823349
1239.48	2.94461
1242.85	2.01555
1246.23	0.512629
1249.6	4.0103
1252.98	5.0804
1256.35	0.777334
1259.73	4.59365
1263.1	1.73198
1266.48	0.602468
1269.85	3.24412
1273.23	0.646383
1276.6	0.689753
1279.98	1.70295
1283.35	0.973845
