Measurement: Raman, 532 nm, unoriented, Raman Data Processed
Mineral: Claudetite
Rruff sample: R050313
Ideal chemistry: As^3+^_2_O_3_
Locality: JÃ¡chymov, Erzgebirge Region, Czech Republic
Source: University of Arizona Mineral Museum
Description: Colorless prismatic crystals scattered on the matrix
Measured chemistry: gray phase: As_2.00_O_3_ ; trace amounts of Al
Raman shift (cm-1)	intensity
92.3535	0
95.7283	11.9098
99.1031	8.79511
102.478	0.237526
105.853	2.33025
109.228	48.6234
112.602	98.7409
115.977	65.1905
119.352	42.7619
122.727	33.0639
126.102	13.0308
129.476	15.893
132.851	27.545
136.226	34.1873
139.601	50.4468
142.976	67.9124
146.351	112.303
149.725	263.858
153.1	689.077
156.475	1365.21
159.85	1742.8
163.225	2223.88
166.6	3129.61
169.974	5119.56
173.349	7488.56
176.724	3344.76
180.099	1326.84
183.474	892.828
186.848	817.629
190.223	1016.4
193.598	694.542
196.973	166.724
200.348	25.6779
203.722	23.6614
207.097	20.543
210.472	26.4594
213.847	188.655
217.222	347.581
220.596	94.2398
223.971	116.802
227.346	279.846
230.721	555.511
234.096	863.365
237.471	1178.21
240.845	1683.41
244.22	2563
247.595	3206.36
250.97	2910.45
254.345	3772.6
257.719	4698.9
261.094	3326.86
264.469	1590.21
267.844	884.984
271.219	617.977
274.594	539.218
277.968	648.029
281.343	982.547
284.718	1055.54
288.093	364.578
291.468	99.2412
294.842	31.5992
298.217	2.05447
301.592	7.92718
304.967	9.483
308.342	5.0827
311.717	26.3596
315.091	80.1663
318.466	130.537
321.841	194.781
325.216	255.977
328.591	315.826
331.966	279.436
335.34	217.6
338.715	257.74
342.09	341.722
345.465	442.003
348.84	605.567
352.214	872.754
355.589	1039.37
358.964	550.685
362.339	144.415
365.714	7.04633
369.089	42.4659
372.463	51.0651
375.838	54.5723
379.213	31.5449
382.588	8.44525
385.963	54.0021
389.337	115.35
392.712	187.792
396.087	264.438
399.462	382.062
402.837	511.645
406.212	675.019
409.586	887.433
412.961	1141.19
416.336	1414.27
419.711	1718.91
423.086	2055.46
426.46	2444.45
429.835	2944.48
433.21	3801.93
436.585	5261.1
439.96	7888.46
443.334	12427.9
446.709	17972.6
450.084	23895.8
453.459	32279.4
456.834	43381.8
460.209	47108.6
463.583	32027.7
466.958	17233.8
470.333	10356.8
473.708	6792.27
477.083	4600.37
480.457	3155.72
483.832	2125.72
487.207	1402.64
490.582	931.324
493.957	638.892
497.332	444.549
500.706	306.415
504.081	156.097
507.456	45.4528
510.831	18.3013
514.206	61.1677
517.58	71.6615
520.955	35.5554
524.33	49.3328
527.705	211.327
531.08	389.789
534.455	635.01
537.829	987.127
541.204	1270.39
544.579	1032.37
547.954	508.997
551.329	257.07
554.703	157.954
558.078	111.233
561.453	91.0517
564.828	48.2341
568.203	16.0511
571.577	5.56992
574.952	11.739
578.327	15.6043
581.702	0.448578
585.077	8.60437
588.452	12.7096
591.826	21.2873
595.201	24.2139
598.576	29.56
601.951	47.4767
605.326	66.915
608.7	98.5474
612.075	163.865
615.45	253.406
618.825	376.04
622.2	543.296
625.574	739.06
628.949	830.645
632.324	703.756
635.699	487.674
639.074	271.975
642.449	157.147
645.823	104.955
649.198	80.6686
652.573	66.5067
655.948	52.9291
659.323	47.3444
662.697	40.2773
666.072	38.6033
669.447	38.5369
672.822	41.2916
676.197	42.6352
679.572	48.1055
682.946	52.5987
686.321	67.6785
689.696	75.1244
693.071	80.0136
696.446	91.3406
699.821	91.533
703.195	89.5643
706.57	71.6559
709.945	59.5299
713.32	42.0202
716.695	26.843
720.069	18.0039
723.444	11.6218
726.819	1.95493
730.194	0.286087
733.569	5.466
736.943	9.46559
740.318	8.1218
743.693	4.62305
747.068	3.45195
750.443	13.0375
753.818	28.0093
757.192	60.3313
760.567	100.992
763.942	149.749
767.317	211.108
770.692	255.952
774.067	211.798
777.441	118.566
780.816	57.2145
784.191	29.298
787.566	14.7268
790.941	10.7449
794.315	11.6265
797.69	22.3354
801.065	41.3445
804.44	82.1525
807.815	138.404
811.189	205.668
814.564	277.63
817.939	301.563
821.314	248.842
824.689	176.226
828.063	111.369
831.438	69.9723
834.813	48.09
838.188	35.9184
841.563	27.9946
844.938	30.7907
848.312	38.0727
851.687	53.5859
855.062	73.7462
858.437	99.2963
861.812	128.266
865.187	137.188
868.561	121.37
871.936	88.1699
875.311	56.3084
878.686	30.6969
882.061	15.0031
885.435	4.54192
888.81	2.38162
892.185	2.41767
895.56	1.25905
898.935	1.74131
902.309	0.032814
905.684	1.0757
909.059	4.09013
912.434	7.98092
915.809	7.72304
919.184	10.8796
922.558	12.3462
925.933	11.7442
929.308	8.95158
932.683	7.38634
936.058	6.25649
939.433	8.91304
942.807	8.35955
946.182	5.90639
949.557	6.05956
952.932	4.35652
956.307	3.34903
959.681	3.3193
963.056	4.33507
966.431	8.33704
969.806	8.9894
973.181	7.15782
976.556	9.67729
979.93	9.2567
983.305	7.13338
986.68	7.74126
990.055	5.21174
993.43	5.64211
996.804	2.98225
1000.18	0.2994
1003.55	1.13444
1006.93	1.14223
1010.3	1.4149
1013.68	1.17098
1017.05	0.241104
1020.43	0.985123
1023.8	1.16572
1027.18	0.379715
1030.55	1.16342
1033.93	3.75825
1037.3	1.86102
1040.68	4.85696
1044.05	7.22906
1047.43	3.56081
1050.8	2.89085
1054.18	2.19606
1057.55	4.14122
1060.93	5.41281
1064.3	3.63626
1067.68	4.64682
1071.05	3.87921
1074.42	6.16558
1077.8	1.23058
1081.17	2.22918
1084.55	2.77371
1087.92	4.11518
1091.3	9.38471
1094.67	7.1386
1098.05	6.54122
1101.42	4.41739
1104.8	6.57375
1108.17	8.37771
1111.55	7.81569
1114.92	6.13065
1118.3	6.88348
1121.67	6.8307
1125.05	6.25437
1128.42	3.21108
1131.8	1.46021
1135.17	2.80859
1138.55	0.037041
1141.92	2.10016
1145.3	3.53999
1148.67	3.51049
1152.05	0.830566
1155.42	0.270767
1158.8	3.40675
1162.17	1.03565
1165.55	4.8732
1168.92	3.975
1172.3	5.46746
1175.67	2.96792
1179.04	2.3266
1182.42	3.52221
1185.79	1.73364
1189.17	3.54734
1192.54	2.71197
1195.92	0.133469
1199.29	2.32246
1202.67	1.57684
1206.04	0.603699
1209.42	1.8522
1212.79	1.84148
1216.17	0.084427
1219.54	0.56916
1222.92	0.148705
1226.29	1.67492
1229.67	0.091896
1233.04	1.78928
1236.42	1.09471
1239.79	3.44229
1243.17	2.34383
1246.54	1.59712
1249.92	1.51102
1253.29	3.82198
1256.66	6.25427
1260.04	4.85719
1263.41	1.63146
1266.79	5.52907
1270.16	2.29095
1273.54	1.36359
1276.91	4.82328
1280.29	4.40523
1283.66	2.36766
1287.04	1.9345
1290.41	1.82391
1293.79	15.3583
1297.16	1.66579
1300.54	0.476746
1303.91	0.256798
