Measurement: Raman, 532 nm, unoriented, Raman Data Processed
Mineral: Clinobisvanite
Rruff sample: R070401
Ideal chemistry: BiVO_4_
Locality: Linka mine (Garnetite mine), Spencer Hot Springs District, Lander County, Nevada, USA
Source: Michael Scott
Description: Orange platy crust on quartz associated with bismutite
Raman shift (cm-1)	intensity
148.215	0
151.108	8.2666
154.001	312.679
156.894	642.717
159.786	730.52
162.679	978.686
165.572	1150.34
168.464	1428.63
171.357	1877.94
174.25	2294.29
177.143	2786.56
180.035	3422.09
182.928	4047.84
185.821	4872.27
188.713	5781.06
191.606	6880.06
194.499	7884.07
197.391	8955.94
200.284	9877.81
203.177	10531.9
206.07	10370.3
208.962	9772.33
211.855	8619.67
214.748	6991.48
217.64	5425.26
220.533	3980.64
223.426	2863.85
226.318	1900.97
229.211	1312.29
232.104	818.789
234.996	528.028
237.889	298.693
240.782	138.363
243.675	4.65771
246.567	34.0171
249.46	50.1352
252.353	94.1299
255.245	98.6006
258.138	91.165
261.031	43.4399
263.923	22.8135
266.816	26.0664
269.709	43.5884
272.602	92.2964
275.494	154.99
278.387	162.032
281.28	266.611
284.173	315.684
287.065	456.554
289.958	524.007
292.851	663.346
295.743	781.231
298.636	1006.77
301.529	1281.8
304.421	1497.52
307.314	1871.05
310.207	2159.85
313.099	2619.56
315.992	3113.55
318.885	3592.66
321.778	4255.83
324.67	4761.72
327.563	5141.19
330.456	5307.33
333.348	5323.91
336.241	5238.83
339.134	5005.07
342.026	4958.85
344.919	4972.56
347.812	5121.26
350.705	5389.11
353.597	5597.36
356.49	5785.06
359.383	5940.23
362.275	5861.2
365.168	5584.63
368.061	5142.1
370.954	4596.83
373.846	3897.54
376.739	3121.32
379.632	2358.4
382.524	1749.59
385.417	1186.54
388.31	820.828
391.202	620.856
394.095	420.368
396.988	278.673
399.88	205.276
402.773	122.263
405.666	92.8838
408.559	41.416
411.451	34.4448
414.344	17.7324
417.237	71.6187
420.129	26.2314
423.022	35.5044
425.915	7.14502
428.808	4.18945
431.7	13.2998
434.593	21.2993
437.486	24.6567
440.378	25.73
443.271	16.374
446.164	60.5996
449.056	84.9761
451.949	7.68066
454.842	64.8242
457.735	11.3843
460.627	24.1016
463.52	24.4082
466.413	19.7568
469.305	14.6514
472.198	39.2651
475.091	29.2378
477.983	10.4316
480.876	14.8452
483.769	9.46289
486.661	2.45117
489.554	19.4424
492.447	27.4814
495.34	15.0059
498.232	14.5054
501.125	9.83496
504.018	7.15186
506.911	2.74658
509.803	62.0234
512.696	41.2866
515.589	33.8584
518.481	34.1084
521.374	67.6089
524.267	66.2485
527.159	50.4712
530.052	76.0947
532.945	38.9683
535.837	53.0664
538.73	100.987
541.623	89.3525
544.516	130.651
547.408	83.4941
550.301	151.191
553.194	149.702
556.086	193.496
558.979	231.326
561.872	274.2
564.764	217.514
567.657	234.971
570.55	326.24
573.443	332.701
576.335	341.794
579.228	401.136
582.121	396.519
585.013	479.859
587.906	502.509
590.799	523.07
593.692	528.105
596.584	550.566
599.477	587.102
602.37	603.526
605.262	637.07
608.155	616.47
611.048	637.336
613.94	666.006
616.833	672.568
619.726	646.099
622.619	669.73
625.511	666.836
628.404	670.747
631.297	618.434
634.189	614.832
637.082	572.544
639.975	520.712
642.867	460.14
645.76	372.985
648.653	360.264
651.545	297.711
654.438	229.097
657.331	199.343
660.224	169.518
663.116	184.495
666.009	150.252
668.902	201.291
671.794	285.778
674.687	374.424
677.58	375.775
680.472	444.332
683.365	480.072
686.258	506.788
689.151	469.977
692.043	540.809
694.936	579.794
697.829	522.669
700.721	486.787
703.614	478.254
706.507	382.831
709.399	343.812
712.292	127.004
715.185	49.8916
718.078	15.2168
720.97	87.8398
723.863	271.329
726.756	272.31
729.648	296.076
732.541	437.358
735.434	286.976
738.327	214.889
741.219	67.2129
744.112	128.352
747.005	400.947
749.897	877.425
752.79	1295.04
755.683	1858.34
758.576	2533.02
761.468	3453.2
764.361	4445.89
767.254	5581.61
770.146	6851.88
773.039	8435.95
775.932	10238.3
778.824	12210.4
781.717	14486.4
784.61	17028.1
787.503	19942.6
790.395	23142.2
793.288	26877.1
796.181	30714.2
799.073	34822.6
801.966	38867.5
804.859	42861.6
807.751	46417.9
810.644	48960.8
813.537	50747.5
816.429	51265.6
819.322	50275.7
822.215	48218.3
825.108	44751.9
828	40681.3
830.893	36030.4
833.786	31419.9
836.678	26912.5
839.571	22668.8
842.464	19045.5
845.356	15604.5
848.249	12801.7
851.142	10507.9
854.035	8691.62
856.927	7083.97
859.82	5695.37
862.713	4742.77
865.605	3798.85
868.498	3127.86
871.391	2526.47
874.284	2053.81
877.176	1649.88
880.069	1277.82
882.962	911.158
885.854	639.891
888.747	378.075
891.64	233.948
894.533	46.041
897.425	90.3242
900.318	167.347
903.211	145.389
906.103	194.25
908.996	224.268
911.889	218.641
914.781	175.635
917.674	176.197
920.567	76.6777
923.46	87.4365
926.352	4.91455
929.245	87.5151
932.138	180.325
935.03	308.668
937.923	368.348
940.816	497.191
943.708	588.188
946.601	691.659
949.494	769.889
952.386	855.655
955.279	915.68
958.172	1004.48
961.065	1065
963.957	1113.03
966.85	1148.47
969.743	1135.14
972.635	1081.39
975.528	1078.52
978.421	1040.53
981.313	1006.36
984.206	947.83
987.099	889.495
989.992	868.717
992.884	860.934
995.777	822.332
998.67	765.901
1001.56	761.148
1004.46	789.998
1007.35	717.03
1010.24	727.007
1013.13	644.576
1016.03	658.187
1018.92	620.412
1021.81	597.939
1024.7	570.84
1027.6	492.738
1030.49	475.013
1033.38	409.877
1036.28	394.469
1039.17	368.326
1042.06	325.241
1044.95	325.787
1047.85	289.131
1050.74	267.261
1053.63	238.451
1056.52	270.73
1059.42	217.135
1062.31	254.316
1065.2	231.425
1068.09	172.143
1070.99	150.218
1073.88	150.962
1076.77	122.875
1079.66	110.892
1082.56	136.272
1085.45	117.708
1088.34	132.034
1091.24	83.0176
1094.13	82.4541
1097.02	77.8447
1099.91	84.1807
1102.81	42.4531
1105.7	81.9072
1108.59	44.1885
1111.48	15.8789
1114.38	20.271
1117.27	32.123
1120.16	36.064
1123.06	19.5176
1125.95	22.6953
1128.84	5.57715
1131.73	4.82519
1134.63	5.17676
1137.52	13.79
1140.41	16.9868
1143.31	20.3638
1146.2	23.812
1149.09	30.6099
1151.98	17.7612
1154.88	39.2441
1157.77	0.54248
1160.66	14.6987
1163.55	18.0288
1166.45	9.14258
1169.34	60.2427
1172.23	0.599121
1175.12	74.4268
1178.02	65.7344
1180.91	61.9219
1183.8	34.082
1186.69	55.7632
1189.59	78.2271
1192.48	85.1377
1195.37	73.8603
1198.27	52.7446
1201.16	84.8843
1204.05	62.1538
1206.94	79.2612
1209.84	63.9058
1212.73	53.2383
1215.62	64.7158
1218.52	109.4
1221.41	91.896
1224.3	65.8667
1227.19	109.695
1230.09	54.2817
1232.98	64.6846
1235.87	90.9946
1238.76	63.1465
1241.66	35.5757
1244.55	50.0342
1247.44	30.2266
1250.34	42.4453
1253.23	70.6279
1256.12	8.28418
1259.01	6.35303
1261.91	63.0659
1264.8	19.1787
1267.69	33.437
1270.58	35.8833
1273.48	21.146
1276.37	58.5723
1279.26	29.73
1282.15	11.6367
1285.05	60.0303
1287.94	46.148
1290.83	9.86133
1293.72	14.8892
