Measurement: Raman, 532 nm, unoriented, Raman Data Processed
Mineral: Clinobarylite
Rruff sample: R060606
Ideal chemistry: BaBe_2_Si_2_O_7_
Locality: Hackmann Valley, Yukspor Mountain, Khibiny, Kola, Russia
Source: Michael Scott
Description: Radiating group of colorless flattened bladed crystals on white microcline.
Measured chemistry: Ba_1.00_Be_2.00_Si_2.00_O_7_ ; trace amounts of Ti; BeO estimated by difference
Raman shift (cm-1)	intensity
187.713	0
190.606	4.29993
193.499	20.6767
196.392	32.8291
199.284	47.9795
202.177	72.9164
205.07	110.216
207.962	111.27
210.855	126.681
213.748	100.486
216.64	41.3778
219.533	16.8549
222.426	6.8848
225.319	1.90362
228.211	0.727974
231.104	0.052666
233.997	1.568
236.889	0.811569
239.782	0.260429
242.675	0.986313
245.567	0.342842
248.46	0.330009
251.353	2.9874
254.245	7.26145
257.138	10.7183
260.031	11.8423
262.924	13.7725
265.816	17.9369
268.709	26.4066
271.602	35.7122
274.494	16.4379
277.387	7.27092
280.28	6.89781
283.173	10.0927
286.065	10.5965
288.958	7.20654
291.851	3.94467
294.743	2.65421
297.636	3.26129
300.529	4.94276
303.421	6.58688
306.314	2.97423
309.207	2.83611
312.099	4.27502
314.992	7.30108
317.885	10.7338
320.778	16.1708
323.67	27.2818
326.563	37.4083
329.456	29.9502
332.348	11.3893
335.241	3.60527
338.134	1.69893
341.027	0.859024
343.919	0.563881
346.812	0.241837
349.705	0.357216
352.597	3.6851
355.49	13.014
358.383	24.7192
361.276	33.3051
364.168	44.2101
367.061	72.539
369.954	126.065
372.846	179.07
375.739	108.326
378.632	37.9338
381.524	21.644
384.417	18.457
387.31	23.2833
390.202	37.2514
393.095	41.2551
395.988	14.8464
398.881	3.05489
401.773	1.34151
404.666	0.320923
407.559	1.78941
410.451	0.985771
413.344	0.760857
416.237	0.970108
419.13	2.49176
422.022	7.64516
424.915	16.9677
427.808	31.9966
430.7	38.2807
433.593	23.5056
436.486	22.6441
439.378	22.586
442.271	26.4743
445.164	33.272
448.057	30.0533
450.949	20.6797
453.842	20.8406
456.735	28.7399
459.627	39.4755
462.52	16.897
465.413	10.0867
468.305	10.2596
471.198	14.184
474.091	17.014
476.983	15.2741
479.876	8.15395
482.769	4.94904
485.662	4.43701
488.554	3.98654
491.447	7.78845
494.34	13.3258
497.232	12.8699
500.125	14.5259
503.018	18.512
505.911	26.7649
508.803	43.1095
511.696	63.3543
514.589	72.4916
517.481	50.0067
520.374	15.5163
523.267	8.86208
526.159	1.99358
529.052	0.566864
531.945	0.123405
534.837	0.201576
537.73	0.171791
540.623	0.203873
543.516	0.441284
546.408	0.045891
549.301	1.08462
552.194	0.417007
555.086	0.281387
557.979	0.051704
560.872	0.373734
563.764	0.985992
566.657	2.49909
569.55	3.72977
572.443	6.03285
575.335	7.93488
578.228	4.81564
581.121	1.3529
584.013	1.52973
586.906	0.228302
589.799	0.342499
592.692	0.896439
595.584	0.631424
598.477	0.087158
601.37	1.74412
604.262	1.30421
607.155	3.13602
610.048	4.07809
612.94	4.50009
615.833	3.58146
618.726	3.67245
621.619	3.19489
624.511	3.23751
627.404	2.70525
630.297	4.09581
633.189	3.20151
636.082	2.6711
638.975	3.19223
641.867	3.34364
644.76	2.91075
647.653	2.70943
650.545	2.27132
653.438	1.65753
656.331	1.76222
659.224	1.90488
662.116	3.13791
665.009	8.00999
667.902	13.7539
670.794	30.1953
673.687	55.2992
676.58	87.2173
679.472	132.752
682.365	207.114
685.258	281.127
688.151	261.775
691.043	147.36
693.936	78.2172
696.829	45.9332
699.721	28.317
702.614	18.2409
705.507	11.264
708.399	6.80995
711.292	4.1797
714.185	2.19897
717.078	1.69546
719.97	0.810768
722.863	1.71747
725.756	1.174
728.648	2.25269
731.541	1.31813
734.434	1.43813
737.327	0.951904
740.219	1.68029
743.112	2.6027
746.005	3.9868
748.897	3.20337
751.79	1.24416
754.683	0.60099
757.575	0.658188
760.468	0.17099
763.361	0.610611
766.254	0.746002
769.146	0.138062
772.039	1.42258
774.932	0.940445
777.824	1.82086
780.717	1.77109
783.61	0.61174
786.502	0.230957
789.395	0.074409
792.288	1.28073
795.181	2.74849
798.073	3.49794
800.966	2.26773
803.859	3.15237
806.751	2.08215
809.644	2.91388
812.537	3.18809
815.429	1.75639
818.322	1.86543
821.215	1.41512
824.107	0.850517
827	0.848381
829.893	0.430824
832.786	3.26378
835.678	0.828987
838.571	0.264977
841.464	0.669579
844.356	0.931183
847.249	0.254349
850.142	0.945656
853.034	0.091484
855.927	0.094048
858.82	0.225647
861.713	0.188461
864.605	0.202545
867.498	0.334686
870.391	0.124725
873.283	0.446053
876.176	0.175636
879.069	1.21874
881.962	0.251854
884.854	1.01175
887.747	1.68828
890.64	2.36992
893.532	3.2661
896.425	3.38509
899.318	4.08653
902.21	2.94354
905.103	5.3501
907.996	6.25696
910.889	8.21353
913.781	12.8803
916.674	16.3996
919.567	24.2297
922.459	33.9832
925.352	47.0194
928.245	64.416
931.137	78.0486
934.03	72.2956
936.923	52.2949
939.816	48.6826
942.708	65.7778
945.601	99.0711
948.494	144.755
951.386	211.526
954.279	285.438
957.172	258.235
960.064	147.416
962.957	80.9647
965.85	54.356
968.742	39.4206
971.635	30.2422
974.528	23.0402
977.421	18.7231
980.313	11.3229
983.206	8.61778
986.099	6.67664
988.991	7.87619
991.884	5.27138
994.777	3.68629
997.669	2.31243
1000.56	2.11423
1003.46	1.12814
1006.35	1.16133
1009.24	1.1988
1012.13	0.894218
1015.03	0.666809
1017.92	0.10376
1020.81	1.05952
1023.7	0.55014
1026.6	0.608665
1029.49	1.22012
1032.38	0.415657
1035.28	0.856407
1038.17	1.15467
1041.06	1.74944
1043.95	1.15934
1046.85	1.76856
1049.74	2.12704
1052.63	1.46684
1055.52	4.43564
1058.42	2.57192
1061.31	4.0434
1064.2	4.30073
1067.09	6.18492
1069.99	7.26267
1072.88	6.88968
1075.77	7.72832
1078.66	7.5993
1081.56	6.2774
1084.45	6.50178
1087.34	6.56817
1090.24	4.46718
1093.13	3.2579
1096.02	2.12543
1098.91	2.07577
1101.81	1.08177
1104.7	1.10444
1107.59	0.829163
1110.48	1.54436
1113.38	1.76582
1116.27	2.42876
1119.16	3.48699
1122.06	4.73344
1124.95	4.28854
1127.84	3.26241
1130.73	3.35024
1133.63	2.95276
1136.52	3.03506
1139.41	3.33302
1142.3	2.21789
1145.2	1.46767
1148.09	1.43264
1150.98	0.381386
1153.88	0.784195
1156.77	0.395599
1159.66	0.128822
1162.55	0.033379
1165.45	1.06136
1168.34	0.258476
1171.23	0.063271
1174.12	0.922394
1177.02	0.456123
1179.91	0.420509
1182.8	0.646225
1185.69	1.15494
1188.59	0.56073
1191.48	0.568115
1194.37	0.804626
1197.27	0.972374
1200.16	1.85831
1203.05	0.488884
1205.94	1.24263
1208.84	1.4393
1211.73	0.92778
1214.62	1.58033
1217.52	0.887222
1220.41	0.201675
1223.3	0.797371
1226.19	0.120331
1229.09	0.978401
1231.98	0.907509
1234.87	0.179283
1237.76	0.915886
1240.66	1.13044
1243.55	0.11972
1246.44	1.02394
1249.33	1.06523
1252.23	0.371452
1255.12	1.29951
1258.01	1.57045
1260.9	1.3708
1263.8	1.80369
1266.69	1.55644
1269.58	0.948586
1272.48	1.18875
1275.37	0.819237
1278.26	0.226669
1281.15	0.055222
1284.05	1.02871
1286.94	0.164513
1289.83	0.571495
1292.72	1.01203
1295.62	0.472794
1298.51	0.242706
1301.4	0.014786
