Measurement: Raman, 780 nm, unoriented, Raman Data Processed
Mineral: Clinozoisite
Rruff sample: R040085
Ideal chemistry: Ca_2_Al_3_(Si_2_O_7_)(SiO_4_)O(OH)
Locality: Alamos, Sonora, Mexico
Source: University of Arizona Mineral Museum
Description: Divergent aggregate of red thin prismatic crystals
Measured chemistry: Ca_2.03_(Al_0.90_Fe_0.13_)_3_(Si_1.00_O_4_)(Si_2.00_O_7_)O(OH)
Raman shift (cm-1)	intensity
122.898	0
125.791	73.4512
128.684	384.852
131.576	1073.02
134.469	1790.81
137.362	2819.11
140.255	3340.48
143.147	3218.42
146.04	2650.88
148.933	1158.82
151.825	268.207
154.718	790
157.611	9.21484
160.503	124.777
163.396	24.457
166.289	268.625
169.181	381.492
172.074	580.549
174.967	492.215
177.859	164.25
180.752	2.34375
183.645	27.6035
186.538	37.168
189.43	444.662
192.323	491.117
195.216	489.938
198.108	228.85
201.001	73.4863
203.894	38.6895
206.786	16.1875
209.679	57.0625
212.572	284.322
215.465	323.94
218.357	493.068
221.25	570.857
224.143	790.356
227.035	1059.44
229.928	1229.93
232.821	1526.14
235.714	1827.83
238.606	1898.25
241.499	2245.69
244.392	2883.41
247.284	3776.05
250.177	5028.62
253.07	6664.97
255.962	7778.96
258.855	7522.28
261.748	6333.69
264.64	5332.11
267.533	4433.81
270.426	3678.46
273.319	3543.07
276.211	3079.82
279.104	2501.37
281.997	1754.58
284.889	1184.38
287.782	846.557
290.675	631.982
293.567	555.002
296.46	469.432
299.353	408.211
302.246	185.648
305.138	59.9219
308.031	10.5684
310.924	71.0332
313.816	14.7891
316.709	106.391
319.602	212.473
322.495	311.232
325.387	216.924
328.28	401.684
331.173	368.643
334.065	363.69
336.958	570.428
339.851	670.379
342.743	734.592
345.636	628.062
348.529	892.861
351.421	1126.02
354.314	878.979
357.207	697.164
360.1	296.758
362.992	185.174
365.885	26.0234
368.778	55.0723
371.67	157.508
374.563	6.66602
377.456	79.0508
380.349	38.7832
383.241	125.277
386.134	314.781
389.027	504.141
391.919	587.906
394.812	696.107
397.705	570.262
400.597	420.037
403.49	201.852
406.383	63.9023
409.276	34.0273
412.168	15.7832
415.061	93.4844
417.954	159.012
420.846	665.019
423.739	1100.69
426.632	1567
429.524	2128.43
432.417	2049.08
435.31	1862.06
438.202	1979.88
441.095	2535.68
443.988	3363.96
446.881	4649.08
449.773	5491.38
452.666	5805.53
455.559	5553.06
458.451	4012.89
461.344	2840.26
464.237	1650.43
467.13	1101.01
470.022	999.479
472.915	921.053
475.808	849.184
478.7	947.051
481.593	1075.51
484.486	1177.57
487.378	1219.3
490.271	1232.16
493.164	914.549
496.057	776.588
498.949	652.695
501.842	890.879
504.735	938.496
507.627	1188.44
510.52	1534.54
513.413	1648.31
516.305	1779.9
519.198	1760.33
522.091	1547.12
524.984	1044.99
527.876	696.312
530.769	340.863
533.662	62.3418
536.554	25.6504
539.447	169.898
542.34	30.8105
545.232	63.6016
548.125	77.2637
551.018	229.568
553.91	459.08
556.803	758.469
559.696	1314.73
562.589	2061.37
565.481	3178.29
568.374	4447.44
571.267	6129.71
574.159	6064.9
577.052	3620.31
579.945	1867.62
582.837	893.402
585.73	773.01
588.623	593.072
591.516	770.92
594.408	964.426
597.301	1255.49
600.194	1611.09
603.086	2050.55
605.979	2198.39
608.872	2002.34
611.764	1549.1
614.657	1139.61
617.55	778.434
620.443	577.195
623.335	483.31
626.228	226.734
629.121	199.115
632.013	178.182
634.906	54.0664
637.799	114.461
640.692	20.2266
643.584	15.123
646.477	9.21094
649.37	51.2402
652.262	36.1953
655.155	36.6309
658.048	118.309
660.94	150.471
663.833	261.742
666.726	355.662
669.619	305.09
672.511	292.84
675.404	285.527
678.297	349.584
681.189	448.18
684.082	332.598
686.975	498.312
689.867	729.574
692.76	835.398
695.653	820.236
698.545	875.184
701.438	989.143
704.331	889.176
707.224	668.996
710.116	573.785
713.009	294.246
715.902	270.471
718.794	204.481
721.687	20.6719
724.58	39.832
727.472	5.47461
730.365	36.2109
733.258	68.5938
736.151	23.3555
739.043	29.0762
741.936	150.969
744.829	135.969
747.721	66.2852
750.614	136.223
753.507	145.353
756.399	56.9375
759.292	126.022
762.185	123.719
765.078	42.3848
767.97	57.6387
770.863	75.3438
773.756	47.2617
776.648	126.676
779.541	90.0586
782.434	3.86719
785.327	45.6777
788.219	2.64453
791.112	51.7441
794.005	20.5996
796.897	16.752
799.79	30.5195
802.683	27.1719
805.575	33.6504
808.468	24.9707
811.361	7.08789
814.254	75.9746
817.146	107.701
820.039	56.7266
822.932	96.6211
825.824	122.285
828.717	246.174
831.61	286.619
834.502	322.477
837.395	230.486
840.288	113.959
843.181	123.959
846.073	77.3516
848.966	22.7949
851.859	89.3574
854.751	146.322
857.644	285.625
860.537	404.065
863.429	528.293
866.322	621.367
869.215	886.465
872.107	1156.42
875	1410.82
877.893	1965.01
880.786	1725.17
883.678	1531.37
886.571	1307.92
889.464	986.805
892.356	811.107
895.249	759.719
898.142	636.971
901.034	645.344
903.927	709.279
906.82	746.072
909.713	1217.35
912.605	1171.21
915.498	1354.33
918.391	1273.8
921.283	1111.13
924.176	1079.2
927.069	938.178
929.962	692.878
932.854	570.004
935.747	435.422
938.64	309.478
941.532	145.69
944.425	8.43848
947.318	9.90332
950.21	55.4873
953.103	146.632
955.996	158.726
958.889	122.328
961.781	154.443
964.674	133.626
967.567	112.053
970.459	101.217
973.352	242.565
976.245	333.006
979.137	688.699
982.03	933.671
984.923	1106.89
987.816	984.691
990.708	712.9
993.601	408.878
996.494	219.645
999.386	13.8809
1002.28	62.4668
1005.17	42.6152
1008.06	78.4277
1010.96	49.2842
1013.85	14.4219
1016.74	52.7852
1019.63	145.238
1022.53	94.4795
1025.42	199.043
1028.31	168.808
1031.21	224.731
1034.1	214.585
1036.99	252.852
1039.88	298.312
1042.78	346.982
1045.67	426.356
1048.56	304.4
1051.45	368.358
1054.35	531.481
1057.24	563.295
1060.13	584.276
1063.03	702.864
1065.92	752.235
1068.81	879.089
1071.7	946.606
1074.6	1100.81
1077.49	1317.7
1080.38	1410.51
1083.28	1621.93
1086.17	1907.59
1089.06	2365.34
1091.95	2917.89
1094.85	3023.59
1097.74	2394.69
1100.63	1467.62
1103.52	899.577
1106.42	453.185
1109.31	263.36
1112.2	120.263
1115.09	127.735
1117.99	23.834
1120.88	46.8086
1123.77	63.2119
1126.66	8.2627
1129.56	10.7588
1132.45	12.5605
1135.34	121.149
1138.24	129.038
1141.13	138.318
1144.02	27.0293
1146.91	2.49609
1149.81	0.950195
1152.7	53.2715
1155.59	85.0606
1158.48	72.9639
1161.38	81.8857
1164.27	62.3672
1167.16	126.353
1170.06	67.8486
1172.95	49.3506
1175.84	156.532
1178.73	183.405
1181.63	148.94
1184.52	217.473
1187.41	112.275
1190.3	54.3047
1193.2	143.498
1196.09	131.689
1198.98	119.54
1201.88	131.159
1204.77	136.077
1207.66	107.448
1210.55	158.163
1213.45	34.9209
1216.34	46.0449
1219.23	9.55078
1222.12	55.5371
1225.02	113.735
1227.91	67.292
1230.8	45.9277
1233.69	84.9356
1236.59	129.066
1239.48	134.15
1242.37	131.715
1245.27	101.203
1248.16	64.0205
1251.05	33.6553
1253.94	41.0537
1256.84	72.959
1259.73	75.5869
1262.62	75.1455
1265.52	94.2715
