Measurement: Raman, 780 nm, unoriented, Raman Data Processed
Mineral: Clinohedrite
Rruff sample: R120105
Ideal chemistry: CaZnSiO_4_H_2_O
Locality: Christmas mine, Christmas, Gila County, Arizona, USA
Source: Bob Jenkins
Description: Transparent colorless prismatic crystals, associated with blue kinoite and colorless platy junitoite, R120100.
Raman shift (cm-1)	intensity
103.735	0
107.109	32.7957
110.484	2.10318
113.859	68.0554
117.234	88.0069
120.609	15.8306
123.984	29.8899
127.358	56.4065
130.733	136.562
134.108	131.518
137.483	31.3299
140.858	18.6356
144.232	40.1006
147.607	44.2028
150.982	76.5585
154.357	141.521
157.732	40.2948
161.107	7.69321
164.481	8.45465
167.856	2.38977
171.231	20.269
174.606	60.8596
177.981	83.1714
181.355	74.5802
184.73	15.468
188.105	2.15303
191.48	3.33472
194.855	7.56799
198.229	15.2626
201.604	31.8763
204.979	51.301
208.354	80.1299
211.729	132.754
215.103	255.132
218.478	534.558
221.853	478.953
225.228	189.494
228.603	102.518
231.978	74.5609
235.352	53.1722
238.727	45.1721
242.102	55.173
245.477	89.1404
248.852	97.7248
252.226	101.779
255.601	105.094
258.976	91.8297
262.351	66.9028
265.726	55.0451
269.101	30.2942
272.475	21.2321
275.85	23.3704
279.225	22.8811
282.6	29.822
285.975	50.9915
289.349	75.4184
292.724	76.9635
296.099	61.4646
299.474	37.065
302.849	20.8049
306.224	14.2562
309.598	15.7183
312.973	25.8468
316.348	30.4412
319.723	10.4163
323.098	1.17673
326.472	0.183807
329.847	2.20589
333.222	3.26173
336.597	2.96365
339.972	0.918045
343.346	0.112473
346.721	3.05286
350.096	3.24559
353.471	3.47562
356.846	5.36177
360.221	6.91753
363.595	11.0828
366.97	18.5708
370.345	31.1797
373.72	49.6433
377.095	51.82
380.469	44.801
383.844	57.2921
387.219	90.5637
390.594	148.047
393.969	220.887
397.344	246.464
400.718	203.411
404.093	132.156
407.468	69.4435
410.843	35.2843
414.217	19.5739
417.592	9.55722
420.967	6.93748
424.342	3.91522
427.717	1.3214
431.092	1.50327
434.466	1.67366
437.841	1.00719
441.216	0.4673
444.591	0.038361
447.966	0.491455
451.341	0.245865
454.715	0.815384
458.09	0.16954
461.465	1.20935
464.84	1.80054
468.215	7.42264
471.589	9.61772
474.964	13.679
478.339	15.2419
481.714	6.85538
485.089	3.49048
488.463	0.005676
491.838	0.144562
495.213	1.78314
498.588	5.32123
501.963	14.2063
505.337	21.808
508.712	18.9911
512.087	14.0105
515.462	11.6737
518.837	11.8117
522.212	15.4872
525.586	10.085
528.961	5.78052
532.336	3.56114
535.711	2.05978
539.086	6.03838
542.46	8.88344
545.835	19.145
549.21	35.9094
552.585	59.5126
555.96	76.2445
559.335	66.3177
562.709	44.4951
566.084	28.3445
569.459	20.4441
572.834	15.7148
576.209	17.6825
579.583	20.6067
582.958	20.2878
586.333	12.8121
589.708	9.94995
593.083	4.01947
596.457	3.78235
599.832	1.81677
603.207	0.426605
606.582	2.78937
609.957	0.717148
613.332	0.547104
616.706	3.78943
620.081	0.609329
623.456	0.487488
626.831	0.275513
630.206	0.340515
633.58	1.53516
636.955	0.151978
640.33	0.603607
643.705	0.789185
647.08	0.727203
650.455	1.36995
653.829	0.193527
657.204	1.80051
660.579	1.3775
663.954	1.177
667.329	1.07056
670.703	2.77251
674.078	0.689026
677.453	1.47154
680.828	0.45813
684.203	0.976089
687.577	2.56361
690.952	0.212128
694.327	1.82163
697.702	0.873428
701.077	0.292908
704.452	0.827789
707.826	2.12976
711.201	1.18707
714.576	1.05739
717.951	1.76752
721.326	1.29022
724.7	2.24558
728.075	2.11739
731.45	2.88895
734.825	2.46301
738.2	2.81209
741.574	2.8934
744.949	4.49269
748.324	6.29231
751.699	4.76802
755.074	4.38646
758.449	4.37703
761.823	5.56642
765.198	4.78856
768.573	4.2218
771.948	3.29985
775.323	3.78519
778.697	4.78949
782.072	4.39011
785.447	4.37561
788.822	4.80756
792.197	3.17296
795.572	1.42494
798.946	1.68228
802.321	0.944733
805.696	0.287827
809.071	0.899277
812.446	0.483673
815.82	0.214371
819.195	1.59354
822.57	4.95264
825.945	9.1096
829.32	16.0698
832.694	24.2783
836.069	38.3161
839.444	48.5128
842.819	60.8773
846.194	92.6963
849.569	158.004
852.943	216.238
856.318	154.697
859.693	94.0963
863.068	84.3444
866.443	87.213
869.817	71.9559
873.192	47.3422
876.567	30.4708
879.942	20.9087
883.317	15.1093
886.692	15.4969
890.066	16.8104
893.441	17.9635
896.816	16.7848
900.191	12.9806
903.566	7.9283
906.94	4.76146
910.315	5.51849
913.69	3.47154
917.065	3.43749
920.44	3.25906
923.814	4.44231
927.189	4.39163
930.564	2.74664
933.939	0.107071
937.314	2.71141
940.689	0.39238
944.063	3.22934
947.438	6.83582
950.813	9.54507
954.188	14.0464
957.563	19.5031
960.937	35.7649
964.312	45.5671
967.687	32.5737
971.062	15.4215
974.437	8.18001
977.812	6.84355
981.186	11.1348
984.561	17.7045
987.936	29.9241
991.311	41.3156
994.686	43.756
998.06	33.5041
1001.43	26.1796
1004.81	18.3814
1008.18	13.5122
1011.56	8.9836
1014.93	5.50324
1018.31	3.08325
1021.68	2.99028
1025.06	1.99979
1028.43	2.57924
1031.81	2.07986
1035.18	2.21693
1038.56	2.73248
1041.93	0.251434
1045.31	0.743103
1048.68	0.558334
1052.06	0.018021
1055.43	1.67294
1058.81	0.245926
1062.18	2.15239
1065.56	0.497711
1068.93	2.20828
1072.31	1.50841
1075.68	3.43375
1079.06	3.37602
1082.43	3.51489
1085.81	2.79394
1089.18	4.24712
1092.56	3.48431
1095.93	1.57504
1099.31	2.8972
1102.68	1.92238
1106.05	0.278275
1109.43	0.822754
1112.8	1.59299
1116.18	0.251572
1119.55	0.326767
1122.93	0.195282
1126.3	0.450638
1129.68	0.203659
1133.05	0.187363
1136.43	1.08321
1139.8	1.50601
1143.18	2.09912
1146.55	2.32851
1149.93	1.96895
1153.3	3.15639
1156.68	2.82475
1160.05	1.59061
1163.43	0.533035
1166.8	2.92709
1170.18	3.03299
1173.55	4.79889
1176.93	2.24509
1180.3	3.37074
1183.67	2.86739
1187.05	1.22952
1190.42	2.00073
1193.8	2.69041
1197.17	2.97038
1200.55	3.10301
1203.92	2.27046
1207.3	1.80359
1210.67	1.29041
1214.05	2.97862
1217.42	0.205887
1220.8	2.2738
1224.17	1.10385
1227.55	1.47464
1230.92	0.304337
1234.3	1.06113
1237.67	1.60564
1241.05	0.788483
1244.42	0.165665
1247.8	1.00676
1251.17	2.35048
1254.55	1.55222
1257.92	0.594193
1261.3	1.79752
1264.67	1.91641
1268.05	0.723129
1271.42	2.17659
1274.8	1.65298
1278.17	0.866989
1281.55	0.630402
