Measurement: Raman, 532 nm, unoriented, Raman Data Processed
Mineral: Clinochlore
Rruff sample: R061080
Ideal chemistry: Mg_5_Al(AlSi_3_O_10_)(OH)_8_
Locality: Callaghan Creek, Whistler, British Columbia, Canada
Source: Lloyd Twaites
Description: Dark green micaceous crystals with quartz
Measured chemistry: (Mg_2.82_Fe^2+^_1.80_A1_1.24_[box]_0.08_Mn_0.06_)_Σ=6_(Si_2.91_Al_1.09_)_Σ=4_O_10_(OH)_8_
Raman shift (cm-1)	intensity
132.826	0
136.2	61.5101
139.575	75.347
142.95	9.5907
146.325	10.6396
149.7	11.1204
153.074	62.4836
156.449	90.7297
159.824	85.2285
163.199	113.449
166.574	168.195
169.948	219.012
173.323	325.288
176.698	480.777
180.073	732.879
183.448	1172.81
186.822	1829.87
190.197	2613.53
193.572	3572.79
196.947	4633.8
200.322	5173.23
203.697	4723.41
207.071	3451.47
210.446	2188.68
213.821	1437.3
217.196	948.773
220.571	644.063
223.946	441.831
227.32	308.897
230.695	192.895
234.07	146.244
237.445	76.5249
240.82	46.6002
244.195	23.9083
247.569	10.1303
250.944	32.3762
254.319	14.5629
257.694	5.0144
261.068	36.6979
264.443	85.9979
267.818	115.23
271.193	175.331
274.568	209.739
277.943	239.651
281.317	203.527
284.692	220.124
288.067	198.957
291.442	176.399
294.817	167.658
298.192	166.112
301.566	156.093
304.941	157.645
308.316	163.481
311.691	143.744
315.066	170.668
318.44	181.364
321.815	213.096
325.19	235.62
328.565	276.73
331.94	315.214
335.315	308.908
338.689	355.605
342.064	340.196
345.439	374.314
348.814	445.953
352.189	506.42
355.563	537.266
358.938	557.229
362.313	524.283
365.688	414.208
369.063	315.38
372.438	230.921
375.812	162.345
379.187	153.779
382.562	149.665
385.937	104.547
389.312	31.6967
392.687	20.9065
396.061	3.74219
399.436	31.3168
402.811	23.5446
406.186	18.9731
409.56	1.06824
412.935	3.78223
416.31	67.4154
419.685	103.352
423.06	90.7001
426.435	122.537
429.81	99.2009
433.184	91.0656
436.559	79.4089
439.934	49.9012
443.309	40.3931
446.684	31.8937
450.058	54.7908
453.433	73.596
456.808	135.471
460.183	174.411
463.558	220.643
466.933	259.138
470.307	300.41
473.682	249.162
477.057	185.498
480.432	82.0118
483.807	17.7206
487.181	2.64417
490.556	3.50403
493.931	3.29394
497.306	15.6338
500.681	82.9376
504.055	119.317
507.43	229.467
510.805	318.522
514.18	440.858
517.555	522.283
520.93	602.576
524.304	725.937
527.679	885.591
531.054	1261.32
534.429	1984.31
537.804	3115.62
541.178	4453.57
544.553	5695.08
547.928	5877.4
551.303	3780.1
554.678	1884.25
558.053	1051.85
561.427	616.933
564.802	363.887
568.177	214.805
571.552	98.4535
574.927	42.6844
578.302	9.58496
581.676	7.77625
585.051	27.9811
588.426	55.7029
591.801	3.04846
595.176	2.01965
598.55	34.0029
601.925	56.6014
605.3	100.574
608.675	118.424
612.05	193.159
615.424	227.062
618.799	254.345
622.174	341.92
625.549	425.34
628.924	507.729
632.299	599.427
635.673	767.607
639.048	991.15
642.423	1301.35
645.798	1595.96
649.173	2023.15
652.548	2617
655.922	3274.26
659.297	3999.08
662.672	4757.96
666.047	5333.35
669.422	5728.52
672.796	5488.6
676.171	4930.96
679.546	4081.17
682.921	3265.36
686.296	2542.49
689.67	1933.12
693.045	1473.09
696.42	1138.7
699.795	857.97
703.17	667.493
706.545	471.145
709.919	327.35
713.294	211.704
716.669	132.319
720.044	81.1235
723.419	21.9507
726.793	3.16846
730.168	6.23901
733.543	10.6948
736.918	14.6838
740.293	27.4016
743.668	13.1639
747.042	17.8923
750.417	34.8643
753.792	83.7174
757.167	102.679
760.542	109.384
763.917	144.625
767.291	182.839
770.666	192.256
774.041	253.258
777.416	237.761
780.791	245.598
784.165	264.3
787.54	264.248
790.915	250.048
794.29	233.568
797.665	197.531
801.039	186.419
804.414	119.002
807.789	127.748
811.164	99.4202
814.539	76.0825
817.914	73.6556
821.288	57.7468
824.663	36.0743
828.038	33.3269
831.413	8.60681
834.788	12.938
838.163	8.56439
841.537	8.0426
844.912	10.3136
848.287	26.7148
851.662	14.4064
855.037	41.8987
858.411	71.9105
861.786	43.6411
865.161	82.7499
868.536	84.1696
871.911	116.034
875.285	99.2116
878.66	130.96
882.035	135.674
885.41	149.518
888.785	113.456
892.16	119.538
895.534	120.037
898.909	89.5263
902.284	94.8558
905.659	85.0472
909.034	54.5048
912.409	32.6013
915.783	9.13611
919.158	0.150757
922.533	7.52564
925.908	0.174438
929.283	12.9347
932.657	0.767822
936.032	11.9113
939.407	11.1235
942.782	15.8054
946.157	30.179
949.532	26.845
952.906	20.0474
956.281	16.8256
959.656	38.8466
963.031	51.1956
966.406	81.3075
969.78	100.392
973.155	130.002
976.53	220.91
979.905	218.312
983.28	251.815
986.654	314.486
990.029	297.794
993.404	337.819
996.779	346.216
1000.15	362.437
1003.53	325.839
1006.9	310.26
1010.28	371.731
1013.65	470.84
1017.03	578.163
1020.4	750.281
1023.78	931.7
1027.15	1151.3
1030.53	1365.69
1033.9	1424.95
1037.28	1487.57
1040.65	1405.92
1044.03	1253.78
1047.4	1062.77
1050.78	892.98
1054.15	686.249
1057.53	551.066
1060.9	375.181
1064.28	292.234
1067.65	251.255
1071.03	177.666
1074.4	106.773
1077.78	96.0709
1081.15	71.4414
1084.52	43.8714
1087.9	4.38886
1091.27	11.5719
1094.65	34.7826
1098.02	17.4092
1101.4	12.2492
1104.77	0.943604
1108.15	3.38251
1111.52	12.2342
1114.9	22.8929
1118.27	7.58447
1121.65	24.4745
1125.02	50.4716
1128.4	74.529
1131.77	40.4243
1135.15	56.73
1138.52	76.2612
1141.9	52.5447
1145.27	45.1675
1148.65	81.0589
1152.02	76.9216
1155.39	56.8557
1158.77	66.4302
1162.14	49.4357
1165.52	62.7101
1168.89	71.4772
1172.27	44.3079
1175.64	48.5868
1179.02	50.479
1182.39	38.4012
1185.77	24.858
1189.14	44.4598
1192.52	49.1695
1195.89	40.3494
1199.27	39.1376
1202.64	27.455
1206.02	25.2836
1209.39	44.3766
1212.77	15.5837
1216.14	12.1
1219.52	12.6583
1222.89	14.2833
1226.27	32.565
1229.64	18.8677
1233.02	27.8783
1236.39	9.86041
1239.77	27.8701
1243.14	7.17248
1246.52	15.5056
1249.89	19.0243
1253.27	0.713745
1256.64	22.5288
1260.02	3.43713
1263.39	6.53107
1266.76	17.5543
1270.14	16.1683
1273.51	31.3928
1276.89	13.0963
1280.26	3.0213
1283.64	26.5151
1287.01	28.6414
1290.39	0.545837
