Measurement: Raman, 532 nm, unoriented, Raman Data Processed
Mineral: Clinohumite
Rruff sample: R060559
Ideal chemistry: Mg_9_(SiO_4_)_4_F_2_
Locality: Tadjikistan
Source: Gemological Institute of America
Description: Yellowish-brown fragment
Measured chemistry: (Mg_8.51_Ti_0.24_[box]_0.24_Fe_0.01_)_Σ=9_(Si_1.00_O_4_)_4_(F_1.30_(OH)_0.70_)_Σ=2_ ; OH by difference and stoichiometry
Raman shift (cm-1)	intensity
125.379	0
128.753	31.834
132.128	16.271
135.503	2.546
138.878	19.028
142.253	27.304
145.628	50.716
149.002	40.296
152.377	36.12
155.752	84.045
159.127	111.716
162.502	136.965
165.876	229.685
169.251	261.16
172.626	193.647
176.001	203.957
179.376	296.228
182.751	406.704
186.125	449.764
189.5	279.275
192.875	151.188
196.25	189.346
199.625	345.228
202.999	575.016
206.374	676.101
209.749	765.451
213.124	508.606
216.499	95.589
219.874	28.676
223.248	93.38
226.623	67.808
229.998	231.079
233.373	360.547
236.748	438.187
240.122	402.35
243.497	266.053
246.872	282.091
250.247	440.933
253.622	558.289
256.997	584.791
260.371	509.527
263.746	448.051
267.121	327.289
270.496	174.698
273.871	170.476
277.246	212.808
280.62	218.893
283.995	174.581
287.37	136.641
290.745	145.805
294.12	193.99
297.494	226.368
300.869	337.978
304.244	438.279
307.619	306.22
310.994	117.266
314.369	98.32
317.743	323.087
321.118	422.703
324.493	389.689
327.868	271.662
331.243	164.556
334.617	59.809
337.992	9.779
341.367	73.134
344.742	155.208
348.117	274.206
351.491	226.988
354.866	234.393
358.241	221.263
361.616	159.372
364.991	279.375
368.366	334.432
371.741	427.396
375.115	531.479
378.49	523.929
381.865	310.993
385.24	237.902
388.615	271.672
391.989	193.365
395.364	186.513
398.739	77.5
402.114	41.129
405.489	43.211
408.863	11.809
412.238	51.024
415.613	106.296
418.988	163.08
422.363	366.627
425.738	522.655
429.112	676.45
432.487	773.104
435.862	606.718
439.237	522.998
442.612	494.76
445.987	450.13
449.361	355.83
452.736	298.347
456.111	305.471
459.486	319.683
462.861	265.432
466.235	215.924
469.61	221.697
472.985	239.833
476.36	240.857
479.735	275.831
483.109	351.226
486.484	328.271
489.859	213.41
493.234	132.744
496.609	79.947
499.984	26.446
503.358	4.285
506.733	13.226
510.108	53.104
513.483	76.026
516.858	47.612
520.232	41.868
523.607	103.632
526.982	192.262
530.357	315.076
533.732	420.451
537.107	514.782
540.481	600.7
543.856	691.56
547.231	864.373
550.606	856.478
553.981	437.231
557.356	275.593
560.73	265.224
564.105	368.097
567.48	472.187
570.855	708.899
574.23	990.733
577.604	1412.95
580.979	1865.86
584.354	2361.44
587.729	2672.54
591.104	2581.21
594.479	2304.77
597.853	2256.6
601.228	2655.03
604.603	3195.61
607.978	3317.62
611.353	2462.59
614.727	1484.03
618.102	908.852
621.477	625.188
624.852	448.793
628.227	355.583
631.602	294.747
634.976	207.952
638.351	145.552
641.726	141.156
645.101	141.782
648.476	196.321
651.851	260.442
655.225	316.403
658.6	435.926
661.975	461.125
665.35	451.186
668.724	483.314
672.099	446.779
675.474	415.039
678.849	344.296
682.224	346.48
685.599	274.818
688.973	237.943
692.348	217.503
695.723	152.831
699.098	82.952
702.473	30.183
705.847	45.136
709.222	102.492
712.597	162.16
715.972	171.187
719.347	153.64
722.722	134.955
726.096	103.846
729.471	387.893
732.846	948.423
736.221	1936.19
739.596	3050.1
742.971	3589.62
746.345	3315.09
749.72	2549.86
753.095	1785.31
756.47	963.522
759.845	434.861
763.219	22.48
766.594	67.36
769.969	679.93
773.344	2292.66
776.719	5128.11
780.094	9409.65
783.468	12601.3
786.843	10364.4
790.218	4857.28
793.593	1609.49
796.968	753.097
800.343	1453.15
803.717	3012.12
807.092	4130.54
810.467	3930.88
813.842	3552.07
817.217	4266.48
820.591	6806
823.966	11928.8
827.341	19513.7
830.716	23771.9
834.091	18142.3
837.466	13986.9
840.84	15317.2
844.215	18308.9
847.59	16982.9
850.965	13630.7
854.34	14273.3
857.714	19553.6
861.089	26310.3
864.464	19945.4
867.839	11175.2
871.214	7001.29
874.589	5390.36
877.963	4290.67
881.338	2679.53
884.713	1263.82
888.088	393.286
891.463	64.549
894.837	276.761
898.212	276.82
901.587	248.905
904.962	48.769
908.337	465.153
911.711	906.299
915.086	945.607
918.461	642.177
921.836	923.725
925.211	1553.31
928.586	2879.12
931.96	3897.35
935.335	1891.59
938.71	502.007
942.085	206.768
945.46	88.803
948.834	203.518
952.209	309.29
955.584	654.641
958.959	1341.17
962.334	2518.03
965.709	3006.45
969.083	2877.74
972.458	1374.54
975.833	573.729
979.208	287.203
982.583	44.779
985.958	17.646
989.332	9.114
992.707	64.784
996.082	64.138
999.457	60.809
1002.83	27.738
1006.21	46.542
1009.58	28.961
1012.96	33.836
1016.33	57.958
1019.71	58.601
1023.08	34.924
1026.45	140.927
1029.83	201.507
1033.2	161.748
1036.58	136.247
1039.95	166.977
1043.33	151.998
1046.7	132.14
1050.08	100.203
1053.45	124.51
1056.83	99.109
1060.2	94.023
1063.58	29.818
1066.95	38.227
1070.33	4.442
1073.7	51.148
1077.08	32.978
1080.45	81.269
1083.83	2.956
1087.2	32.171
1090.58	54.078
1093.95	1.585
1097.33	102.587
1100.7	70.783
1104.08	127.396
1107.45	60.25
1110.83	143.252
1114.2	90.604
1117.58	71.642
1120.95	2.613
1124.33	25.906
1127.7	72.21
1131.08	157.939
1134.45	108.974
1137.82	90.075
1141.2	124.424
1144.57	127.143
1147.95	90.377
1151.32	71.415
1154.7	65.018
1158.07	108.579
1161.45	83.022
1164.82	74.034
1168.2	53.691
1171.57	36.722
1174.95	86.353
1178.32	54.276
1181.7	116.212
1185.07	105.766
1188.45	67.21
1191.82	64.19
1195.2	35.941
1198.57	5.456
1201.95	33.358
1205.32	37.714
1208.7	32.993
1212.07	74.128
1215.44	130.379
1218.82	3.19
1222.19	43.001
1225.57	154.144
1228.94	15.022
1232.32	31.392
1235.69	65.276
1239.07	140.291
1242.44	124.188
1245.82	163.084
1249.19	189.918
1252.57	104.587
1255.94	164.681
1259.32	88.248
1262.69	156.377
1266.07	28.913
1269.44	8.635
1272.82	64.88
1276.19	84.614
1279.57	0.396
1282.94	12.813
