Measurement: Raman, 514 nm, unoriented, Raman Data Processed
Mineral: Clinohumite
Rruff sample: R050183
Ideal chemistry: Mg_9_(SiO_4_)_4_F_2_
Locality: Pein Pyit, Mogok, Burma
Source: Marcus Origlieri
Description: Yellowish-green blebs in calcite, associated with red spinel, R050184
Measured chemistry: (Mg_8.85_Ti_0.07_[box]_0.07_Fe_0.01_)_Σ=9_(Si_1.00_O_4_)_4_(F_1.00_(OH)_1.00_)_Σ=2_
Raman shift (cm-1)	intensity
125.369	0
129.534	40.673
133.696	74.662
137.857	97.699
142.016	64.032
146.172	22.713
150.327	36.458
154.48	45.417
158.63	107.344
162.779	192.716
166.926	281.321
171.07	238.691
175.213	285.291
179.354	446.803
183.493	514.071
187.63	455.978
191.765	414.432
195.898	680.623
200.029	1095.75
204.158	1267.49
208.285	1266.53
212.41	678.041
216.533	534.887
220.654	529.121
224.773	759.927
228.891	1262.39
233.006	1401.68
237.119	1255.86
241.231	1234.76
245.34	1073.45
249.448	1280.95
253.553	1451.26
257.657	1286.39
261.758	1238.34
265.858	1105.08
269.956	753.601
274.052	778.86
278.146	918.839
282.237	945.505
286.327	750.834
290.416	896.279
294.502	943.314
298.586	793.76
302.668	880.964
306.749	1248.25
310.827	1081.73
314.903	1411.54
318.978	1853.51
323.051	1673.22
327.121	1469.64
331.19	1182.6
335.257	1031.45
339.322	819.656
343.385	543.666
347.446	486.509
351.505	539.163
355.563	504.672
359.618	406.929
363.672	334.936
367.723	230.708
371.773	229.019
375.821	275.838
379.866	78.354
383.91	184.504
387.952	327.164
391.992	214.372
396.031	262.946
400.067	256.877
404.101	375.145
408.134	324.739
412.165	743.645
416.193	480.85
420.22	428.34
424.245	541.105
428.268	668.132
432.289	527.408
436.309	321.921
440.326	306.66
444.342	366.614
448.355	375.771
452.367	201.138
456.377	293.817
460.385	425.807
464.391	360.091
468.395	289.654
472.398	210.507
476.398	149.609
480.397	129.949
484.394	32.511
488.389	129.483
492.382	102.164
496.373	106.551
500.362	49.278
504.349	9.96
508.335	14.587
512.319	150.502
516.3	124.404
520.28	109.003
524.259	187.464
528.235	297.498
532.209	85.779
536.182	285.58
540.152	295.392
544.121	439.653
548.088	532.47
552.053	418.08
556.017	303.105
559.978	356.64
563.938	331.177
567.895	432.553
571.851	612.841
575.805	1083.04
579.758	1580.13
583.708	2192.13
587.657	1895.02
591.603	1879.8
595.548	2503.46
599.491	4024.01
603.432	7232.44
607.372	9714.75
611.309	7395.93
615.245	3894.98
619.179	2014.9
623.111	1273.68
627.041	479.319
630.97	407.817
634.896	477.169
638.821	193.372
642.744	158.424
646.665	84.255
650.584	59.007
654.502	99.141
658.418	1.502
662.331	21.076
666.244	201.13
670.154	20.847
674.062	37.101
677.969	78.333
681.874	118.613
685.777	17.584
689.678	51.886
693.577	284.594
697.475	86.837
701.371	17.164
705.265	15.394
709.157	108.287
713.047	145.753
716.936	200.931
720.823	215.699
724.708	212.543
728.591	268.312
732.472	370.007
736.352	681.643
740.23	1047.22
744.106	1244.75
747.98	1080.24
751.853	1260.69
755.723	1119.14
759.592	993.58
763.459	1127
767.325	1407.42
771.188	1653.84
775.05	2345.28
778.91	4823.75
782.768	7751.24
786.625	7745.75
790.479	4550.28
794.332	2951.84
798.183	2790.44
802.033	3561.87
805.88	4801.4
809.726	5232.73
813.57	5210.68
817.413	6375.81
821.253	9426.85
825.092	18068.5
828.929	33076.6
832.764	33111.4
836.598	23437.6
840.429	25737.4
844.259	32548.1
848.088	26025
851.914	19348.5
855.739	23300.5
859.562	34727.6
863.383	28223.4
867.203	15537.1
871.02	9990.92
874.836	8731.83
878.65	7048.1
882.463	4464.78
886.274	3013.93
890.083	1983.39
893.89	1502.17
897.695	1305.24
901.499	1285.62
905.301	1402.31
909.102	2398.47
912.9	3264.93
916.697	1873.65
920.492	1218.18
924.285	1129.18
928.077	1663.97
931.867	1950.91
935.655	1279.99
939.442	1508.93
943.226	691.957
947.009	686.721
950.791	744.012
954.57	779.502
958.348	2099.57
962.124	3986.47
965.899	9142.81
969.671	10697.5
973.442	5907.05
977.211	3094.1
980.979	1696.35
984.745	835.885
988.509	471.453
992.271	470.186
996.032	436.77
999.791	202.109
1003.55	286.697
1007.3	283.814
1011.06	273.666
1014.81	674.984
1018.56	796.205
1022.31	257.842
1026.06	76.105
1029.8	67.648
1033.55	130.189
1037.29	257.273
1041.03	360.256
1044.77	319.896
1048.5	324.381
1052.24	387.826
1055.97	113.551
1059.7	143.691
1063.43	92.369
1067.16	19.166
1070.89	70.656
1074.61	28.656
1078.34	46.115
1082.06	311.787
1085.78	932.049
1089.5	558.686
1093.21	280.697
1096.93	155.545
1100.64	354.734
1104.35	93.41
1108.06	105.215
1111.77	22.381
1115.48	29.914
1119.18	64.297
1122.89	330.043
1126.59	32.633
1130.29	72.723
1133.99	127.676
1137.68	155.502
1141.38	78.953
1145.07	250.264
1148.76	73.09
1152.45	10.562
1156.14	236.588
1159.83	120.123
1163.51	62.393
1167.19	88.85
1170.88	133.424
1174.56	172.959
1178.23	175.906
1181.91	36.891
1185.59	137.439
1189.26	141.184
1192.93	305.225
1196.6	151.393
1200.27	249.111
1203.94	1.318
1207.6	368.318
1211.27	344.477
1214.93	213.621
1218.59	412.773
1222.25	373.555
1225.9	462.992
1229.56	384.219
1233.21	262.77
1236.86	371.582
1240.51	507.988
1244.16	294.953
1247.81	446.594
1251.45	324.619
1255.1	268.895
1258.74	464.943
1262.38	462.691
1266.02	351.99
1269.66	399.457
1273.29	148.119
1276.93	197.424
1280.56	188.082
1284.19	1.988
1287.82	161.996
1291.45	276.545
1295.07	396.84
1298.7	79.84
1302.32	18.016
1305.94	59.221
1309.56	25.342
1313.18	86.955
1316.8	155.865
1320.41	100.043
1324.02	115.496
1327.63	64.051
1331.24	89.217
1334.85	87.125
1338.46	292.832
1342.06	140.834
1345.67	311.854
1349.27	196.73
1352.87	285.381
1356.47	55.75
1360.07	220.557
1363.66	147.674
1367.25	276.492
1370.85	118.314
1374.44	177.771
1378.03	157.27
1381.61	213.631
1385.2	348.428
1388.78	414.213
1392.37	392.42
1395.95	182.57
1399.53	303.174
1403.1	332.887
1406.68	275.791
1410.26	308.129
1413.83	147.551
1417.4	326.77
1420.97	345.893
1424.54	319.475
1428.1	320.197
1431.67	156.934
1435.23	197.451
1438.8	220.895
1442.36	321.76
1445.91	298.623
1449.47	340.004
1453.03	262.871
1456.58	261.096
1460.13	316.326
1463.68	249.371
1467.23	618.371
1470.78	469.6
1474.33	676.461
1477.87	275.209
1481.42	603.01
1484.96	242.334
1488.5	600.371
1492.04	307.537
1495.57	293.365
1499.11	383.518
1502.64	68.807
1506.17	172.98
1509.71	147.27
1513.23	330.488
1516.76	282.688
1520.29	128.424
