Measurement: Raman, 532 nm, unoriented, Raman Data Processed
Mineral: Clinozoisite
Rruff sample: R040085
Ideal chemistry: Ca_2_Al_3_(Si_2_O_7_)(SiO_4_)O(OH)
Locality: Alamos, Sonora, Mexico
Source: University of Arizona Mineral Museum
Description: Divergent aggregate of red thin prismatic crystals
Measured chemistry: Ca_2.03_(Al_0.90_Fe_0.13_)_3_(Si_1.00_O_4_)(Si_2.00_O_7_)O(OH)
Raman shift (cm-1)	intensity
155.322	0
158.214	127.633
161.107	297.982
164	46.1074
166.893	75.6289
169.785	104.918
172.678	147.088
175.571	189.227
178.463	357.08
181.356	260.334
184.249	34.4277
187.142	147.992
190.034	247.185
192.927	229.299
195.82	213.424
198.712	16.8223
201.605	55.6992
204.498	15.5059
207.39	143.832
210.283	194.621
213.176	187.207
216.069	30.2852
218.961	176.246
221.854	256.084
224.747	306.586
227.639	373.553
230.532	325.106
233.425	652.125
236.317	711.346
239.21	566.119
242.103	501.606
244.995	620.766
247.888	718.082
250.781	853.746
253.674	1113.03
256.566	1249.32
259.459	1128.52
262.352	809.357
265.244	821.106
268.137	813.148
271.03	1023.34
273.923	980.766
276.815	702.795
279.708	624.039
282.601	406.809
285.493	274.881
288.386	288.805
291.279	249.205
294.171	260.486
297.064	195.709
299.957	224.662
302.849	151.248
305.742	262.266
308.635	183.982
311.528	238.853
314.42	189.162
317.313	12.2852
320.206	135.387
323.098	137.684
325.991	258.279
328.884	308.848
331.776	457.957
334.669	562.186
337.562	553.631
340.455	626.959
343.347	503.129
346.24	522.873
349.133	779.666
352.025	997.971
354.918	1010.37
357.811	811.965
360.704	519.793
363.596	193.69
366.489	67.5664
369.382	66.4434
372.274	4.13281
375.167	38.0605
378.06	88.2012
380.952	46.6074
383.845	157.971
386.738	108.066
389.63	28.2012
392.523	294.676
395.416	194.33
398.308	182.92
401.201	86.668
404.094	6.53906
406.987	199.176
409.879	51.0391
412.772	1.26953
415.665	84.3047
418.557	145.379
421.45	176.945
424.343	201.352
427.236	413.594
430.128	507.481
433.021	567.481
435.914	691.227
438.806	459.191
441.699	519.434
444.592	777.324
447.484	1073.39
450.377	1037.82
453.27	1201.96
456.163	1127.91
459.055	721.383
461.948	753.027
464.841	387.512
467.733	205.098
470.626	368.922
473.519	431.699
476.411	346.508
479.304	275.777
482.197	306.121
485.089	507.953
487.982	463.519
490.875	274.707
493.768	99.6133
496.66	73.5977
499.553	131.496
502.446	429.414
505.338	227.09
508.231	277.859
511.124	406.801
514.016	347.051
516.909	265.625
519.802	207.977
522.695	108.715
525.587	41.8789
528.48	142.941
531.373	93.9453
534.265	149.75
537.158	67.8242
540.051	149.098
542.943	18.3438
545.836	7.25781
548.729	78.8984
551.622	52.7891
554.514	201.356
557.407	231.629
560.3	485.824
563.192	775.074
566.085	1060.38
568.978	1626.08
571.87	2069.95
574.763	1944.07
577.656	1021
580.549	708.469
583.441	402.301
586.334	467.637
589.227	563.359
592.119	648.223
595.012	921.117
597.905	1064.87
600.798	1112.76
603.69	1047.48
606.583	939.25
609.476	837.711
612.368	682.945
615.261	599.773
618.154	477.684
621.046	250.312
623.939	351.934
626.832	185.648
629.725	150.269
632.617	224.008
635.51	70.8047
638.403	138.555
641.295	114.289
644.188	24.0156
647.081	117.144
649.973	140.578
652.866	168.996
655.759	241.375
658.651	380.367
661.544	205.266
664.437	276.363
667.33	344.195
670.222	331.644
673.115	262.312
676.008	102.269
678.9	275.266
681.793	355.062
684.686	236.402
687.578	291.305
690.471	147.359
693.364	329.422
696.256	252.898
699.149	294.644
702.042	434.617
704.935	309.801
707.827	507.059
710.72	220.961
713.613	263.731
716.505	336.793
719.398	236.992
722.291	234.34
725.183	326.719
728.076	190.109
730.969	181.738
733.862	79.2422
736.754	24.7656
739.647	46.1484
742.54	44.3359
745.432	12.9141
748.325	181.168
751.218	1.88672
754.111	219.344
757.003	17.8555
759.896	15.6914
762.789	28.8984
765.681	293.465
768.574	205.844
771.467	349.641
774.359	254.293
777.252	217.016
780.145	202.141
783.038	150.383
785.93	241.234
788.823	165.769
791.716	12.4648
794.608	246.992
797.501	75.3086
800.394	269.184
803.286	259.992
806.179	90.8789
809.072	158.832
811.965	239.32
814.857	13.8438
817.75	75.0859
820.643	23.3594
823.535	0.496094
826.428	438.133
829.321	299.148
832.213	81.293
835.106	53
837.999	28.0586
840.891	31.1836
843.784	88.9688
846.677	76.7227
849.57	222.039
852.462	145.609
855.355	105.656
858.248	229.766
861.14	389.703
864.033	188.125
866.926	244.242
869.818	140.055
872.711	101.359
875.604	427.371
878.497	479.18
881.389	610.691
884.282	687.445
887.175	588.039
890.067	376.043
892.96	367.777
895.853	633.981
898.745	747.297
901.638	780.332
904.531	707.926
907.424	1169.55
910.316	1341.94
913.209	1471.5
916.102	1581.58
918.994	1457.71
921.887	1400.76
924.78	1015.1
927.673	753.758
930.565	773.008
933.458	556.719
936.351	451.535
939.243	469.543
942.136	287.914
945.029	132.461
947.921	129.316
950.814	194.418
953.707	214.793
956.6	138.488
959.492	13.7812
962.385	31.8359
965.278	128.547
968.17	142.961
971.063	98.1797
973.956	93.9844
976.848	214.848
979.741	259.441
982.634	509.066
985.527	550.144
988.419	403.832
991.312	81.6875
994.205	100.809
997.097	104.684
999.99	135.465
1002.88	260.394
1005.77	15.918
1008.67	24.4609
1011.56	49.6328
1014.45	87.6719
1017.35	112.332
1020.24	67.8281
1023.13	153.68
1026.02	157.578
1028.92	67.1289
1031.81	246.949
1034.7	107.93
1037.6	183.008
1040.49	223.594
1043.38	275.039
1046.27	191.527
1049.17	186.633
1052.06	83.9297
1054.95	77.7617
1057.84	21.0664
1060.74	66.2148
1063.63	62.2266
1066.52	116.156
1069.41	5.73047
1072.31	112.941
1075.2	129.262
1078.09	204.367
1080.98	396.488
1083.88	264.551
1086.77	405.684
1089.66	613.449
1092.56	833.953
1095.45	693.32
1098.34	616.438
1101.23	467.766
1104.13	225.148
1107.02	228.496
1109.91	410.027
1112.81	296.078
1115.7	366.066
1118.59	174.535
1121.48	91.0312
1124.38	137.594
1127.27	209.059
1130.16	278.301
1133.05	351.281
1135.95	286.164
1138.84	183.969
1141.73	14.5938
1144.62	102.996
1147.52	204.406
1150.41	219.961
1153.3	200.59
1156.2	1.05859
1159.09	296.633
1161.98	86.8125
1164.87	132.223
1167.77	25.9102
1170.66	122.731
1173.55	96.8203
1176.44	201.027
1179.34	79.9453
1182.23	256.129
1185.12	285.828
1188.02	436.027
1190.91	450.93
1193.8	79.6875
1196.69	223.418
1199.59	250.273
1202.48	135.887
1205.37	273.332
1208.26	466.352
1211.16	285.098
1214.05	477.547
1216.94	147.793
1219.84	338.394
1222.73	210.734
1225.62	278.754
1228.51	23.4648
1231.41	209.582
1234.3	248.16
1237.19	42.1875
1240.08	382.09
1242.98	299.922
1245.87	163.906
1248.76	261.5
1251.65	252.062
1254.55	252.344
1257.44	281.184
1260.33	148.856
1263.23	262.547
1266.12	210.375
1269.01	89.0898
1271.9	71.4453
1274.8	111.207
