Measurement: Raman, 532 nm, unoriented, Raman Data Processed
Mineral: Clinoferroholmquistite
Rruff sample: R110165
Ideal chemistry: [box]Li_2_[Fe^2+^_3_Al_2_]Si_8_O_22_(OH)_2_
Locality: Quebec Lithium Corporation mine, La Corne, Abitibi RCM, Abitibi-Témiscamingue, Québec, Canada
Source: Donald V Doell
Description: Parallel aggregates of fine acicular dark purple crystals
Raman shift (cm-1)	intensity
172.452	0
175.345	18.0656
178.237	88.8035
181.13	148.012
184.023	220.089
186.916	296.15
189.808	328.001
192.701	305.1
195.594	203.537
198.486	116.991
201.379	77.403
204.272	54.1885
207.164	40.4809
210.057	44.7824
212.95	36.2317
215.843	32.3798
218.735	7.77151
221.628	7.62701
224.521	1.44174
227.413	1.00015
230.306	2.59232
233.199	2.02734
236.091	7.15042
238.984	10.3799
241.877	6.452
244.769	21.3568
247.662	21.9315
250.555	25.6625
253.448	19.2811
256.34	21.3678
259.233	11.6199
262.126	6.11417
265.018	2.48321
267.911	0.832916
270.804	1.19791
273.697	2.79565
276.589	2.45111
279.482	0.080444
282.375	5.46069
285.267	3.34781
288.16	4.81003
291.053	4.44238
293.945	13.2724
296.838	15.5216
299.731	8.90955
302.623	15.9786
305.516	14.3868
308.409	10.3881
311.302	5.10318
314.194	8.41177
317.087	0.166199
319.98	4.70779
322.872	5.6113
325.765	5.77011
328.658	9.11087
331.55	14.4951
334.443	15.5302
337.336	10.5267
340.229	16.2844
343.121	20.7348
346.014	20.5202
348.907	7.7439
351.799	13.3813
354.692	10.9624
357.585	3.06046
360.478	9.38452
363.37	17.5241
366.263	14.8958
369.156	23.041
372.048	40.6284
374.941	57.5925
377.834	77.2356
380.726	99.3152
383.619	117.698
386.512	127.241
389.404	114.692
392.297	80.6976
395.19	56.2982
398.083	54.5374
400.975	45.2045
403.868	35.736
406.761	42.9601
409.653	41.3572
412.546	48.3008
415.439	46.3565
418.332	42.4372
421.224	33.1359
424.117	30.5124
427.01	12.7125
429.902	5.5636
432.795	1.11966
435.688	2.81085
438.58	0.391937
441.473	3.3726
444.366	9.81335
447.259	10.6221
450.151	12.3136
453.044	17.5617
455.937	9.22092
458.829	10.7136
461.722	6.78784
464.615	4.49014
467.507	3.511
470.4	2.02338
473.293	0.66156
476.185	7.54839
479.078	1.351
481.971	2.37248
484.864	7.64327
487.756	9.87032
490.649	14.4526
493.542	9.92313
496.434	11.6441
499.327	11.0276
502.22	8.27905
505.113	14.7731
508.005	8.35472
510.898	14.546
513.791	18.6255
516.683	20.7104
519.576	31.8748
522.469	36.4528
525.361	48.8126
528.254	53.0767
531.147	60.2923
534.04	62.835
536.932	67.2087
539.825	69.1282
542.718	67.7168
545.61	71.2467
548.503	70.7674
551.396	77.8844
554.288	65.1826
557.181	63.2265
560.074	60.7176
562.967	49.9436
565.859	46.9427
568.752	46.4345
571.645	45.9267
574.537	48.4388
577.43	45.6713
580.323	47.0306
583.216	35.9622
586.108	42.7191
589.001	40.5391
591.894	43.5233
594.786	42.6935
597.679	47.2393
600.572	45.4101
603.464	44.4363
606.357	46.2685
609.25	43.4099
612.142	36.7377
615.035	21.6351
617.928	14.6
620.821	5.4725
623.713	1.04662
626.606	2.13179
629.499	0.605713
632.391	2.32257
635.284	1.91484
638.177	7.12936
641.069	8.47565
643.962	11.43
646.855	21.7865
649.747	24.772
652.64	28.79
655.533	47.3621
658.426	68.5841
661.318	95.1399
664.211	139.53
667.104	197.897
669.996	267.817
672.889	338.462
675.782	392.993
678.674	374.423
681.567	275.672
684.46	192.343
687.353	139.593
690.245	99.3129
693.138	74.1481
696.031	57.1685
698.923	43.1864
701.816	34.1389
704.709	29.1051
707.601	21.7573
710.494	18.5547
713.387	7.33702
716.28	3.00975
719.172	0.608185
722.065	1.23704
724.958	2.01164
727.85	3.07808
730.743	7.88174
733.636	8.88768
736.529	7.83394
739.421	5.21767
742.314	13.4101
745.207	20.3122
748.099	20.448
750.992	21.7883
753.885	13.1761
756.777	7.32774
759.67	2.65636
762.563	1.57478
765.456	5.54666
768.348	1.12312
771.241	1.76601
774.134	3.31792
777.026	10.016
779.919	22.822
782.812	24.8906
785.704	35.5187
788.597	33.9006
791.49	22.4848
794.383	17.835
797.275	7.68547
800.168	4.69652
803.061	8.24252
805.953	4.94556
808.846	5.61694
811.739	6.06915
814.631	0.410187
817.524	6.31792
820.417	1.78085
823.309	5.12106
826.202	7.23866
829.095	2.77718
831.988	13.4809
834.88	12.0588
837.773	13.7219
840.666	15.1116
843.558	16.4256
846.451	13.6705
849.344	15.0838
852.236	22.1464
855.129	21.1283
858.022	26.3936
860.915	26.5771
863.807	23.5543
866.7	32.446
869.593	27.0064
872.485	35.7735
875.378	40.2071
878.271	45.351
881.163	48.9022
884.056	43.449
886.949	45.0608
889.842	46.4958
892.734	30.9171
895.627	24.6619
898.52	20.1641
901.412	17.9999
904.305	11.5754
907.198	5.53803
910.091	5.68037
912.983	5.18759
915.876	1.7478
918.769	4.74919
921.661	0.94603
924.554	0.596786
927.447	1.73642
930.339	1.29927
933.232	1.94467
936.125	0.652954
939.018	0.30423
941.91	5.25345
944.803	1.82378
947.696	0.267593
950.588	1.01254
953.481	6.1293
956.374	6.33453
959.266	10.6729
962.159	11.7647
965.052	14.0015
967.944	15.5253
970.837	13.0358
973.73	16.7202
976.623	29.2689
979.515	38.1211
982.408	58.2913
985.301	70.1367
988.193	87.7884
991.086	94.66
993.979	89.6569
996.871	77.3179
999.764	49.0281
1002.66	26.8129
1005.55	18.9104
1008.44	15.5733
1011.34	18.8522
1014.23	20.1831
1017.12	27.5637
1020.01	30.3729
1022.91	32.174
1025.8	31.7096
1028.69	32.2994
1031.58	30.5891
1034.48	38.5515
1037.37	41.0445
1040.26	51.435
1043.15	49.8059
1046.05	50.3754
1048.94	55.7733
1051.83	59.304
1054.73	58.01
1057.62	59.0743
1060.51	51.4161
1063.4	42.9051
1066.3	24.0342
1069.19	17.2141
1072.08	9.75743
1074.97	6.25534
1077.87	0.709488
1080.76	5.98822
1083.65	3.11363
1086.55	2.13034
1089.44	2.88936
1092.33	4.01735
1095.22	0.481262
1098.12	4.08798
1101.01	1.23256
1103.9	8.10826
1106.79	0.523163
1109.69	8.46855
1112.58	12.5581
1115.47	8.87961
1118.37	12.3401
1121.26	17.501
1124.15	17.1236
1127.04	16.7614
1129.94	20.5966
1132.83	10.321
1135.72	15.7783
1138.61	11.2713
1141.51	12.0164
1144.4	12.1909
1147.29	9.45636
1150.18	12.2152
1153.08	13.8255
1155.97	9.61661
1158.86	6.769
1161.76	11.4081
1164.65	6.50676
1167.54	2.67752
1170.43	1.60733
1173.33	3.24506
1176.22	1.62723
1179.11	0.890152
1182	0.684723
1184.9	7.51799
1187.79	5.31418
1190.68	2.74602
1193.58	2.26396
1196.47	0.520981
1199.36	7.68881
1202.25	4.66185
1205.15	4.49437
1208.04	6.3475
1210.93	3.88045
1213.82	7.48759
1216.72	7.44807
1219.61	7.85863
1222.5	10.7321
1225.39	10.2104
1228.29	8.00587
1231.18	7.48233
1234.07	9.99191
1236.97	6.42134
1239.86	3.23688
1242.75	6.18156
1245.64	9.78397
1248.54	1.04298
1251.43	7.48799
1254.32	7.05684
1257.21	4.52312
1260.11	8.72255
1263	5.91746
1265.89	3.39368
1268.79	6.97286
1271.68	7.91977
1274.57	7.03558
1277.46	4.27441
1280.36	2.53561
1283.25	4.70836
1286.14	10.8703
1289.03	6.83963
1291.93	6.42123
1294.82	6.20445
1297.71	2.23315
1300.61	3.06442
