Measurement: Raman, 785 nm, unoriented, Raman Data Processed
Mineral: Clinoptilolite-Na
Rruff sample: R061099
Ideal chemistry: Na_6_(Si_30_Al_6_)O_72_20H_2_O
Locality: Richardson Ranch, Madras, Jefferson County, Oregon, USA
Source: Michael Scott
Description: Red-brown to salmon, somewhat coffin shaped tabular crystals in a fragmented geode
Measured chemistry: (Na_2.70_Ca_1.46_K_0.89_Fe_0.08_Mg_0.02_)_Σ=5.15_(Si_29.29_Al_6.71_)O_72_·18.51H_2_O
Raman shift (cm-1)	intensity
173.216	0
176.108	87.1172
179.001	24.0645
181.894	20.6314
184.787	77.5911
187.679	162.088
190.572	219.238
193.465	142.227
196.357	188.665
199.25	195.689
202.143	145.381
205.036	136.763
207.928	98.4907
210.821	1.10303
213.714	7.04272
216.606	11.7114
219.499	42.1921
222.392	20.8223
225.284	6.74634
228.177	58.5349
231.07	85.8919
233.963	198.127
236.855	281.859
239.748	449.265
242.641	595.58
245.533	704.163
248.426	830.086
251.319	864.739
254.211	815.963
257.104	828.16
259.997	806.838
262.889	729.979
265.782	637.091
268.675	541.359
271.568	487.766
274.46	392.725
277.353	289.499
280.246	209.456
283.138	151.839
286.031	83.5051
288.924	54.7336
291.817	28.6687
294.709	20.9314
297.602	7.27905
300.495	22.8833
303.387	2.98486
306.28	58.0239
309.173	40.7004
312.065	7.9231
314.958	23.2156
317.851	19.6846
320.743	45.4231
323.636	14.4773
326.529	30.5701
329.422	8.14624
332.314	8.70703
335.207	7.59253
338.1	53.1668
340.992	50.8774
343.885	53.877
346.778	97.1916
349.671	125.251
352.563	178.869
355.456	231.438
358.349	358.498
361.241	568.774
364.134	651.546
367.027	795.838
369.919	981.896
372.812	1210.75
375.705	1357.27
378.598	1552.22
381.49	1772.9
384.383	2139.11
387.276	2583.85
390.168	3162.19
393.061	3839.25
395.954	4769.56
398.846	5563.23
401.739	6150.38
404.632	6304.18
407.524	6016.32
410.417	5345.29
413.31	4576.87
416.202	3779.43
419.095	3004.15
421.988	2335.8
424.881	1727.48
427.773	1213.42
430.666	776.307
433.559	492.504
436.451	261.516
439.344	106.838
442.237	11.8772
445.13	6.69824
448.022	9.09741
450.915	99.8965
453.808	310.681
456.7	531.759
459.593	923.217
462.486	1262.97
465.378	1544.4
468.271	1746.55
471.164	2006.85
474.057	2496.44
476.949	3100.22
479.842	3593.79
482.735	3737.76
485.627	3399.38
488.52	2687.74
491.413	1918.93
494.305	1209.91
497.198	714.544
500.091	400.104
502.983	258.188
505.876	113.63
508.769	44.2566
511.662	9.38916
514.554	5.01953
517.447	0.980835
520.34	19.0076
523.232	20.621
526.125	1.49414
529.018	7.81873
531.91	19.4322
534.803	12.4984
537.696	0.837891
540.589	37.486
543.481	18.6897
546.374	59.1149
549.267	84.4076
552.159	66.2202
555.052	77.2864
557.945	115.445
560.837	116.539
563.73	141.089
566.623	135.805
569.516	165.924
572.408	180.721
575.301	213.776
578.194	232.725
581.086	260.957
583.979	271.749
586.872	258.33
589.764	319.601
592.657	343.108
595.55	374.009
598.443	436.708
601.335	480.333
604.228	602.398
607.121	812.829
610.013	929.68
612.906	996.073
615.799	1102.72
618.692	1049.45
621.584	961.648
624.477	819.653
627.37	683.612
630.262	507.07
633.155	402.422
636.048	306.004
638.94	240.704
641.833	200.452
644.726	172.575
647.619	155.329
650.511	105.138
653.404	95.8605
656.297	69.046
659.189	35.3413
662.082	18.7642
664.975	43.9528
667.867	60.6132
670.76	14.1951
673.653	19.4539
676.545	49.5378
679.438	11.5748
682.331	1.51355
685.224	14.1303
688.116	3.08887
691.009	2.93408
693.902	19.9933
696.794	3.13879
699.687	26.444
702.58	2.48291
705.472	11.0548
708.365	15.8588
711.258	32.5958
714.151	1.18323
717.043	18.0599
719.936	0.505493
722.829	18.3839
725.721	15.3777
728.614	6.40234
731.507	26.6979
734.399	25.7543
737.292	20.4705
740.185	19.824
743.077	37.5992
745.97	30.7915
748.863	50.9535
751.756	22.4898
754.648	54.0421
757.541	78.8121
760.434	118.763
763.326	122.428
766.219	96.166
769.112	170.196
772.005	184.667
774.897	229.993
777.79	254.689
780.683	307.598
783.575	356.211
786.468	371.908
789.361	401.283
792.253	363.13
795.146	382.531
798.039	328.735
800.932	291.604
803.824	292.907
806.717	247.703
809.61	261.435
812.502	272.674
815.395	307.271
818.288	348.577
821.18	326.408
824.073	238.5
826.966	190.591
829.859	89.1075
832.751	89.4753
835.644	36.3212
838.537	8.69782
841.429	13.6956
844.322	2.94727
847.215	4.38245
850.107	6.2713
853	4.70929
855.893	12.5217
858.785	1.24121
861.678	13.7867
864.571	24.0904
867.464	44.1527
870.356	55.9553
873.249	77.9425
876.142	65.7384
879.034	74.1622
881.927	62.7051
884.82	61.2129
887.712	53.4879
890.605	48.7562
893.498	36.3925
896.391	33.2097
899.283	54.5649
902.176	43.4047
905.069	36.1625
907.961	4.36908
910.854	32.8317
913.747	1.11597
916.639	44.3458
919.532	7.14191
922.425	21.2509
925.318	56.5272
928.21	41.3638
931.103	44.0358
933.996	53.2919
936.888	52.7874
939.781	44.927
942.674	78.4188
945.567	76.0435
948.459	91.0212
951.352	55.0279
954.245	56.8867
957.137	66.8083
960.03	89.9432
962.923	56.503
965.815	91.116
968.708	56.4642
971.601	75.75
974.494	65.3753
977.386	63.3047
980.279	55.6339
983.172	21.7039
986.064	25.4166
988.957	25.4856
991.85	4.36053
994.742	24.6201
997.635	15.6757
1000.53	39.5696
1003.42	6.38269
1006.31	27.8138
1009.21	26.7991
1012.1	21.2709
1014.99	35.3923
1017.88	41.8199
1020.78	23.3055
1023.67	34.7869
1026.56	23.9882
1029.45	36.8552
1032.35	30.1792
1035.24	61.3153
1038.13	75.3186
1041.03	46.9849
1043.92	81.9515
1046.81	103.778
1049.7	78.1272
1052.6	63.5704
1055.49	12.473
1058.38	44.5609
1061.27	11.3151
1064.17	33.023
1067.06	46.7452
1069.95	0.084595
1072.85	8.59082
1075.74	14.5151
1078.63	4.02295
1081.52	8.40405
1084.42	71.6879
1087.31	40.7676
1090.2	65.4523
1093.09	90.4381
1095.99	115.234
1098.88	132.138
1101.77	159.318
1104.66	176.255
1107.56	217.108
1110.45	202.922
1113.34	189.429
1116.24	190.033
1119.13	242.437
1122.02	215.969
1124.91	253.701
1127.81	209.069
1130.7	224.429
1133.59	204.781
1136.48	260.398
1139.38	274.956
1142.27	274.352
1145.16	293.123
1148.06	263.549
1150.95	248.518
1153.84	261.348
1156.73	295.618
1159.63	278.577
1162.52	275.817
1165.41	254.487
1168.3	250.708
1171.2	211.73
1174.09	252.26
1176.98	243.529
1179.88	207.771
1182.77	202.515
1185.66	184.015
1188.55	174.926
1191.45	166.774
1194.34	104.268
1197.23	98.7322
1200.12	92.3326
1203.02	70.0642
1205.91	26.6502
1208.8	39.2317
1211.69	0.976196
1214.59	44.1853
1217.48	29.6747
1220.37	8.05908
1223.27	38.6194
1226.16	32.2972
1229.05	76.7211
1231.94	33.8096
1234.84	20.1829
1237.73	4.91248
1240.62	16.9421
