Measurement: Raman, 780 nm, unoriented, Raman Data Processed
Mineral: Clinoferroholmquistite
Rruff sample: R110165
Ideal chemistry: [box]Li_2_[Fe^2+^_3_Al_2_]Si_8_O_22_(OH)_2_
Locality: Quebec Lithium Corporation mine, La Corne, Abitibi RCM, Abitibi-Témiscamingue, Québec, Canada
Source: Donald V Doell
Description: Parallel aggregates of fine acicular dark purple crystals
Raman shift (cm-1)	intensity
157.654	0
160.546	0.234009
163.439	1.79193
166.332	8.11809
169.224	22.8119
172.117	41.2836
175.01	60.9229
177.902	86.0042
180.795	114.712
183.688	152.374
186.581	198.985
189.473	217.255
192.366	184.382
195.259	111.628
198.151	55.3607
201.044	28.4239
203.937	17.5578
206.829	15.3301
209.722	20.0028
212.615	25.5176
215.507	25.2845
218.4	20.347
221.293	12.0595
224.186	8.7684
227.078	6.35825
229.971	6.43338
232.864	5.20196
235.756	7.79596
238.649	11.6608
241.542	12.5399
244.435	11.9487
247.327	12.629
250.22	11.2555
253.113	10.1442
256.005	7.92652
258.898	7.37506
261.791	3.35216
264.683	2.99893
267.576	0.304283
270.469	2.35224
273.361	3.52904
276.254	0.224197
279.147	1.25877
282.04	0.977554
284.932	1.67333
287.825	5.34425
290.718	7.94876
293.61	11.3936
296.503	12.4947
299.396	13.6777
302.288	14.5201
305.181	12.1057
308.074	10.4057
310.967	8.16309
313.859	6.96262
316.752	5.39363
319.645	3.61436
322.537	4.1776
325.43	1.22021
328.323	0.76339
331.216	1.97982
334.108	0.499237
337.001	4.40275
339.894	4.58507
342.786	5.357
345.679	3.51922
348.572	3.31285
351.464	4.12039
354.357	3.58523
357.25	3.18985
360.142	4.12333
363.035	4.02352
365.928	4.46242
368.821	6.41549
371.713	11.2995
374.606	16.2885
377.499	22.6273
380.391	31.5971
383.284	39.7033
386.177	45.6146
389.07	39.1638
391.962	26.5178
394.855	18.5718
397.748	15.5727
400.64	14.4126
403.533	14.2503
406.426	16.6739
409.318	17.6687
412.211	20.4207
415.104	23.5588
417.997	26.5063
420.889	25.9464
423.782	18.1078
426.675	9.65884
429.567	4.37275
432.46	1.04689
435.353	0.777374
438.245	0.209808
441.138	0.510193
444.031	3.37482
446.923	4.31145
449.816	6.15455
452.709	6.23831
455.602	4.35823
458.494	3.06335
461.387	0.608467
464.28	0.524506
467.172	0.012047
470.065	0.357323
472.958	0.696922
475.851	1.98201
478.743	1.37135
481.636	0.96595
484.529	0.486519
487.421	1.38077
490.314	3.21356
493.207	3.49105
496.099	5.70692
498.992	5.063
501.885	5.477
504.777	7.16732
507.67	4.95277
510.563	6.8243
513.456	8.30677
516.348	9.9532
519.241	12.7454
522.134	16.7857
525.026	19.4646
527.919	23.0419
530.812	24.7466
533.705	26.0404
536.597	29.3117
539.49	31.7569
542.383	31.2731
545.275	34.3476
548.168	35.6054
551.061	35.2113
553.953	32.2463
556.846	28.5706
559.739	25.0196
562.631	21.8077
565.524	18.0135
568.417	16.9141
571.31	15.62
574.202	14.8337
577.095	12.7423
579.988	11.2743
582.88	9.50712
585.773	10.3173
588.666	8.8549
591.558	7.20508
594.451	8.70595
597.344	8.59502
600.237	7.14865
603.129	7.33958
606.022	7.84908
608.915	8.21545
611.807	6.52142
614.7	4.7266
617.593	1.2289
620.486	1.6348
623.378	1.66174
626.271	1.87763
629.164	1.99123
632.056	1.25565
634.949	1.07884
637.842	1.98587
640.734	4.8573
643.627	2.99381
646.52	4.6117
649.413	6.32
652.305	8.18539
655.198	10.1016
658.091	16.289
660.983	24.2233
663.876	35.0316
666.769	49.3321
669.661	72.7597
672.554	103.737
675.447	130.723
678.34	119.951
681.232	84.9137
684.125	55.6486
687.018	36.5941
689.91	27.4744
692.803	20.4875
695.696	14.8838
698.588	11.284
701.481	11.5065
704.374	7.50185
707.266	7.79598
710.159	7.15324
713.052	2.6169
715.945	1.10126
718.837	1.4621
721.73	0.687912
724.623	0.87178
727.515	2.67198
730.408	2.11987
733.301	1.19884
736.193	0.935013
739.086	1.88287
741.979	4.13248
744.872	1.72483
747.764	4.74292
750.657	4.61821
753.55	2.64748
756.442	0.887749
759.335	0.951744
762.228	0.796867
765.12	0.222191
768.013	0.006493
770.906	0.417267
773.799	1.6487
776.691	4.81021
779.584	5.77409
782.477	4.13482
785.369	8.11419
788.262	5.39029
791.155	5.27906
794.048	3.4422
796.94	3.12399
799.833	2.58476
802.726	1.03658
805.618	1.76844
808.511	1.00853
811.404	2.0384
814.296	0.65638
817.189	1.19676
820.082	0.545357
822.975	1.58933
825.867	1.52428
828.76	2.47566
831.653	1.85077
834.545	2.19404
837.438	2.57231
840.331	2.55557
843.223	3.16384
846.116	4.37009
849.009	3.41364
851.902	4.30726
854.794	4.05157
857.687	2.78311
860.58	5.33165
863.472	3.94638
866.365	5.43659
869.258	4.6855
872.15	5.72123
875.043	7.6014
877.936	6.12192
880.829	6.58276
883.721	8.56345
886.614	7.28107
889.507	5.70997
892.399	5.47286
895.292	4.33045
898.185	3.05068
901.077	1.40046
903.97	0.670238
906.863	2.04422
909.756	0.917061
912.648	0.349724
915.541	0.52359
918.434	0.546532
921.326	1.60625
924.219	0.136856
927.112	0.391903
930.005	0.417934
932.897	0.033001
935.79	1.11329
938.683	0.367527
941.575	0.182995
944.468	0.189564
947.361	0.084766
950.253	0.558907
953.146	1.31096
956.039	1.58121
958.932	0.414879
961.824	0.928593
964.717	0.864693
967.61	3.35357
970.502	3.14183
973.395	4.19083
976.288	3.63593
979.18	6.39931
982.073	9.00468
984.966	11.3558
987.859	14.3219
990.751	16.5331
993.644	16.6869
996.537	13.9598
999.429	8.83352
1002.32	5.14968
1005.22	2.66233
1008.11	2.4595
1011	3.39653
1013.89	2.59197
1016.78	4.97317
1019.68	5.5848
1022.57	6.09311
1025.46	6.54852
1028.36	5.8433
1031.25	8.19967
1034.14	5.19544
1037.03	9.5304
1039.93	11.8521
1042.82	11.8659
1045.71	11.5459
1048.61	13.1809
1051.5	12.2679
1054.39	13.7773
1057.28	15.8299
1060.18	14.3249
1063.07	13.2921
1065.96	8.80619
1068.85	8.34884
1071.75	4.45716
1074.64	2.73259
1077.53	1.80606
1080.42	1.84277
1083.32	0.185722
1086.21	1.09976
1089.1	0.126991
1092	2.07589
1094.89	0.520454
1097.78	0.514359
1100.67	0.946316
1103.57	0.006145
1106.46	0.573246
1109.35	2.07499
1112.24	1.06014
1115.14	0.64822
1118.03	0.980145
1120.92	0.738293
1123.82	2.74337
1126.71	1.69688
1129.6	2.44396
1132.49	1.24636
1135.39	1.43614
1138.28	2.30772
1141.17	4.3719
1144.06	3.54881
1146.96	3.06159
1149.85	2.14204
1152.74	3.04942
1155.63	2.67399
1158.53	2.50565
1161.42	0.282196
1164.31	0.935558
1167.21	0.092983
1170.1	0.23444
1172.99	0.460438
1175.88	0.705711
1178.78	0.521954
1181.67	0.706902
1184.56	0.103344
1187.45	0.882767
1190.35	0.343922
1193.24	0.630066
1196.13	1.47294
1199.03	1.20876
1201.92	1.13456
1204.81	1.59426
1207.7	1.89516
1210.6	2.33961
1213.49	2.13277
1216.38	2.09074
1219.27	1.80693
1222.17	2.7222
1225.06	2.18751
1227.95	2.11389
1230.85	1.91962
1233.74	0.931194
1236.63	1.28858
1239.52	0.844719
1242.42	1.20248
1245.31	0.62458
1248.2	0.996662
1251.09	1.91393
1253.99	1.04872
1256.88	0.11018
1259.77	1.45575
1262.66	1.87262
1265.56	3.03323
1268.45	2.47108
1271.34	0.689484
1274.24	1.74609
1277.13	1.0938
1280.02	0.303802
1282.91	0.58881
