Measurement: Raman, 532 nm, unoriented, Raman Data Processed
Mineral: Clintonite
Rruff sample: R070229
Ideal chemistry: CaAlMg_2_(SiAl_3_)O_10_(OH)_2_
Locality: Amity, Warwick Township, Orange County, New York, USA
Source: Michael Scott
Description: Brown micaceous plates in dolomite. Polytype 1M, variety called seybertite
Measured chemistry: (Ca_0.98_Na_0.02_)_Σ=1_(Al_0.68_Mg_0.20_Fe^3+^_0.11_Ti_0.01_)_Σ=1_Mg_2.00_(Si_1.34_Al_2.66_)_Σ=4_O_10_((OH)_1.87_O_0.13_)_Σ=2_; OH estimated by charge balance
Raman shift (cm-1)	intensity
150.626	0
153.519	57.9274
156.411	85.3158
159.304	97.6339
162.197	108.828
165.09	123.778
167.982	160.935
170.875	236.006
173.768	299.799
176.66	280.148
179.553	290.79
182.446	345.669
185.339	371.458
188.231	409.701
191.124	400.286
194.017	360.664
196.909	346.488
199.802	295.25
202.695	298.443
205.587	292.303
208.48	376.762
211.373	356.531
214.266	407.896
217.158	498.052
220.051	574.87
222.944	790.562
225.836	1095.7
228.729	1425.55
231.622	1747.69
234.514	1502.16
237.407	893.441
240.3	410.381
243.192	220.145
246.085	153.285
248.978	98.2387
251.871	46.5884
254.763	4.34595
257.656	12.6948
260.549	19.0708
263.441	3.85889
266.334	20.0165
269.227	10.7407
272.12	14.0615
275.012	9.16333
277.905	33.5718
280.798	34.1648
283.69	23.0794
286.583	17.0642
289.476	40.2351
292.368	43.804
295.261	78.7737
298.154	68.1721
301.046	182.471
303.939	228.468
306.832	305.42
309.725	325.537
312.617	400.931
315.51	487.004
318.403	575.39
321.295	682.617
324.188	774.127
327.081	841.461
329.974	994.432
332.866	1061.77
335.759	1151.31
338.652	1254.34
341.544	1344.28
344.437	1379.22
347.33	1300.39
350.223	1214.18
353.115	1161.16
356.008	1051.64
358.901	901.628
361.793	825.695
364.686	685.498
367.579	589.607
370.471	524.679
373.364	545.496
376.257	533.62
379.149	574.937
382.042	614.668
384.935	604.239
387.828	670.122
390.72	725.758
393.613	816.805
396.506	878.689
399.398	856.707
402.291	843.624
405.184	745.962
408.077	636.467
410.969	570.899
413.862	484.478
416.755	340.281
419.647	280.438
422.54	298.743
425.433	285.412
428.325	253.337
431.218	311.4
434.111	283.558
437.003	263.809
439.896	212.597
442.789	106.095
445.682	105.668
448.574	51.9973
451.467	45.9768
454.36	59.7468
457.252	33.3425
460.145	30.7541
463.038	32.2224
465.93	58.1397
468.823	38.0923
471.716	8.73047
474.609	0.832031
477.501	52.5576
480.394	52.6331
483.287	7.44067
486.179	12.5369
489.072	5.67603
491.965	83.9875
494.858	84.5784
497.75	140.088
500.643	158.924
503.536	213.973
506.428	227.053
509.321	276.615
512.214	268.655
515.106	237.291
517.999	304.84
520.892	353.523
523.784	372.587
526.677	357.751
529.57	410.551
532.463	412.785
535.355	479.443
538.248	515.242
541.141	603.092
544.033	609.773
546.926	651.343
549.819	619.43
552.712	573.051
555.604	514.997
558.497	515.948
561.39	465.532
564.282	385.098
567.175	311.574
570.068	244.008
572.96	222.701
575.853	179.218
578.746	131.97
581.639	105.617
584.531	48.0859
587.424	15.5444
590.317	6.37231
593.209	22.0234
596.102	30.9573
598.995	60.2808
601.888	67.3499
604.78	6.9646
607.673	29.3723
610.566	11.0977
613.458	54.1736
616.351	84.0723
619.244	100.889
622.136	104.443
625.029	147.614
627.922	271.18
630.814	364.121
633.707	578.07
636.6	840.736
639.493	1170.83
642.385	1666.9
645.278	2273.63
648.171	3158.9
651.063	4186.17
653.956	5102.3
656.849	5420.27
659.741	4390.24
662.634	3046.53
665.527	2119.27
668.42	1431.38
671.312	1042.22
674.205	827.709
677.098	659.281
679.99	534.431
682.883	450.607
685.776	395.87
688.668	340.173
691.561	342.347
694.454	307.776
697.347	220.038
700.239	207.025
703.132	181.292
706.025	123.125
708.917	132.484
711.81	112.564
714.703	35.0122
717.596	9.53784
720.488	4.7439
723.381	37.4858
726.274	14.9087
729.166	1.24951
732.059	9.33643
734.952	10.0283
737.844	24.2319
740.737	5.53491
743.63	42.6255
746.523	64.3298
749.415	81.2266
752.308	10.5801
755.201	20.3906
758.093	2.54956
760.986	50.4429
763.879	63.1775
766.771	66.8718
769.664	89.5169
772.557	139.184
775.45	208.557
778.342	290.948
781.235	325.507
784.128	414.773
787.02	433.002
789.913	458.547
792.806	466.748
795.698	535.999
798.591	479.329
801.484	523.51
804.377	538.811
807.269	496.145
810.162	528.38
813.055	554.132
815.947	519.984
818.84	584.109
821.733	608.542
824.625	594.499
827.518	614.605
830.411	601.236
833.304	632.598
836.196	598.46
839.089	597.819
841.982	564.751
844.874	461.236
847.767	307.161
850.66	275.196
853.553	164.765
856.445	98.8423
859.338	9.2998
862.231	55.9412
865.123	48.5559
868.016	13.7402
870.909	102.073
873.801	243.805
876.694	628.784
879.587	954.224
882.48	1267.19
885.372	1718.3
888.265	2047.76
891.158	2226.16
894.05	2269.35
896.943	2090.25
899.836	1693.68
902.729	1411.08
905.621	1107.02
908.514	912.418
911.407	755.747
914.299	591.176
917.192	523.659
920.085	436.98
922.977	381.464
925.87	346.872
928.763	337.908
931.655	346.719
934.548	262.023
937.441	240.36
940.334	173.45
943.226	167.204
946.119	152.335
949.012	153.637
951.904	139.838
954.797	59.7978
957.69	54.7505
960.582	53.4019
963.475	108.312
966.368	108.917
969.261	47.2273
972.153	127.805
975.046	105.561
977.939	153.657
980.831	175.115
983.724	158.657
986.617	230.347
989.51	200.71
992.402	193.622
995.295	160.839
998.188	99.8499
1001.08	128.801
1003.97	82.2828
1006.87	20.8752
1009.76	34.5826
1012.65	45.8158
1015.54	10.1011
1018.44	13.5765
1021.33	1.39062
1024.22	5.53101
1027.12	6.52649
1030.01	28.4506
1032.9	69.7261
1035.79	26.1513
1038.68	32.5724
1041.58	42.2516
1044.47	65.8311
1047.36	66.1272
1050.26	39.4957
1053.15	54.2799
1056.04	57.6622
1058.93	76.6437
1061.83	64.4156
1064.72	63.9359
1067.61	85.796
1070.51	52.3636
1073.4	41.7345
1076.29	31.2127
1079.18	65.5292
1082.08	36.0219
1084.97	85.0435
1087.86	43.6047
1090.75	67.1758
1093.65	82.1352
1096.54	71.6307
1099.43	12.8101
1102.33	53.1103
1105.22	31.3368
1108.11	11.2139
1111	3.79627
1113.9	47.8838
1116.79	21.0873
1119.68	23.222
1122.57	16.7267
1125.47	28.9235
1128.36	10.3957
1131.25	17.83
1134.14	59.0855
1137.04	71.6768
1139.93	38.3186
1142.82	42.452
1145.71	44.079
1148.61	22.5304
1151.5	31.6191
1154.39	9.60608
1157.29	5.62793
1160.18	4.44849
1163.07	14.1905
1165.96	19.7036
1168.86	6.68433
1171.75	0.160034
1174.64	52.4407
1177.54	25.2596
1180.43	16.8518
1183.32	2.23132
1186.21	20.3414
1189.11	25.567
1192	22.3317
1194.89	8.12048
1197.78	3.40625
1200.68	8.16565
1203.57	15.5414
1206.46	8.8645
1209.36	15.766
1212.25	20.8256
1215.14	26.6289
1218.03	27.3999
1220.93	23.2532
1223.82	52.5592
1226.71	16.8189
1229.6	24.005
1232.5	6.98181
1235.39	12.2758
1238.28	17.4756
1241.17	26.1883
1244.07	53.9022
1246.96	51.2892
1249.85	34.1094
1252.74	23.6934
1255.64	15.4719
1258.53	9.46472
1261.42	44.6417
1264.32	47.8312
1267.21	27.0244
1270.1	20.1803
1272.99	44.1445
1275.89	36.6106
1278.78	13.5812
1281.67	65.6157
1284.57	46.2253
1287.46	45.2999
1290.35	16.0764
1293.24	33.2562
1296.14	14.3632
