Measurement: Raman, 532 nm, unoriented, Raman Data Processed
Mineral: Clinohumite
Rruff sample: R070561
Ideal chemistry: Mg_9_(SiO_4_)_4_F_2_
Locality: Unknown
Source: www.multicolour.com
Description: Brownish orange transparent fragments
Measured chemistry: (Mg_8.47_Fe_0.23_Ti_0.15_[box]_0.14_Mn_0.01_)_Σ=9_((Si_3.98_Al_0.02_)_Σ=1_O_4_)_4_(F_1.01_(OH)_0.99_)_Σ=2_ ; OH estimated by difference and charge balance
Raman shift (cm-1)	intensity
148.173	0
151.548	156.733
154.922	166.959
158.297	170.434
161.672	186.47
165.047	85.3621
168.422	0.708496
171.796	2.89062
175.171	5.84277
178.546	166.556
181.921	359.816
185.296	601.932
188.671	671.958
192.045	343.95
195.42	281.832
198.795	304.736
202.17	363.03
205.544	442.588
208.919	279.965
212.294	300.046
215.669	239.413
219.044	48.6848
222.419	27.9929
225.793	5.95947
229.168	77.688
232.543	68.5999
235.918	220.219
239.293	196.186
242.667	236.526
246.042	93.0772
249.417	28.6204
252.792	34.0088
256.167	172.46
259.542	141.194
262.916	196.642
266.291	264.838
269.666	200.544
273.041	329.096
276.416	224.434
279.791	352.175
283.165	201.145
286.54	143.044
289.915	95.7512
293.29	24.7876
296.665	43.7542
300.039	92.5942
303.414	232.657
306.789	408.291
310.164	485.823
313.539	625.74
316.913	708.387
320.288	1010.92
323.663	968.879
327.038	863.179
330.413	644.838
333.788	527.627
337.162	561.064
340.537	547.942
343.912	556.04
347.287	703.766
350.662	788.103
354.036	837.074
357.411	757.836
360.786	585.542
364.161	461.688
367.536	401.526
370.911	427.524
374.286	404.687
377.66	375.62
381.035	398.054
384.41	354.414
387.785	331.115
391.159	269.924
394.534	174.933
397.909	199.736
401.284	26.408
404.659	37.1379
408.034	127.204
411.408	65.2998
414.783	27.5073
418.158	97.7669
421.533	262.262
424.908	505.039
428.283	736.386
431.657	779.386
435.032	842.894
438.407	564.569
441.782	416.157
445.157	457.798
448.531	501.614
451.906	318.511
455.281	172.612
458.656	154.131
462.031	108.485
465.406	160.193
468.78	76.2485
472.155	46.794
475.53	58.0879
478.905	70.5376
482.28	172.832
485.654	462.012
489.029	555.883
492.404	622.167
495.779	503.213
499.154	568.854
502.529	428.058
505.903	485.706
509.278	282.83
512.653	165.7
516.028	114.266
519.403	261.658
522.778	554.743
526.152	745.841
529.527	1156.92
532.902	1399.39
536.277	1748.66
539.652	1736.03
543.026	1353.58
546.401	1328.4
549.776	1264.37
553.151	1012.46
556.526	264.4
559.9	6.11621
563.275	24.1709
566.65	88.4238
570.025	51.395
573.4	24.084
576.774	35.3643
580.149	121.672
583.524	347.028
586.899	695.337
590.274	772.312
593.649	825.203
597.023	1194.51
600.398	1704.95
603.773	2362.86
607.148	3091.92
610.523	2861.43
613.898	1929.31
617.272	1078.1
620.647	676.941
624.022	434.415
627.397	386.409
630.772	243.256
634.146	313.215
637.521	131.218
640.896	176.016
644.271	146.947
647.646	98.0347
651.02	104.56
654.395	161.827
657.77	157.419
661.145	105.243
664.52	96.7324
667.895	94.1206
671.269	131.526
674.644	82.7207
678.019	21.0928
681.394	31.1782
684.769	23.6714
688.144	17.3745
691.518	20.2231
694.893	35.4004
698.268	13.1675
701.643	113.384
705.018	7.26367
708.393	38.398
711.767	25.4131
715.142	154.519
718.517	319.42
721.892	494.875
725.266	749.562
728.641	1403.57
732.016	2276.7
735.391	3226.3
738.766	4340.13
742.141	5427.56
745.515	6666.42
748.89	7768.57
752.265	9078.14
755.64	9684.73
759.015	9029.77
762.389	7241.38
765.764	5015.08
769.139	3146.72
772.514	2480.75
775.889	2691.58
779.264	3946.8
782.638	5701.86
786.013	6631.45
789.388	4871.27
792.763	1906.43
796.138	420.735
799.513	191.718
802.887	73.9873
806.262	393.755
809.637	886.86
813.012	1265.02
816.387	2273.87
819.761	4680.44
823.136	9188.81
826.511	15671.6
829.886	23199.7
833.261	26580.7
836.636	21659
840.01	17631.6
843.385	18527.3
846.76	19049.2
850.135	15329.4
853.51	12216.7
856.885	12256
860.259	14463.9
863.634	15031
867.009	10479.8
870.384	6074.8
873.759	3930.34
877.133	2559.64
880.508	1631.67
883.883	860.004
887.258	453.736
890.633	108.441
894.007	71.5391
897.382	222.3
900.757	228.331
904.132	56.5635
907.507	106.947
910.881	320.821
914.256	581.638
917.631	500.445
921.006	412.354
924.381	658.48
927.756	923.758
931.13	1335.59
934.505	1327.5
937.88	550.928
941.255	253.679
944.63	285.83
948.005	383.209
951.379	510.878
954.754	721.624
958.129	1365.37
961.504	2587.65
964.879	4003.31
968.253	5509.53
971.628	4740.37
975.003	2499.38
978.378	1404.81
981.753	650.143
985.128	372.569
988.502	229.296
991.877	111.79
995.252	229.279
998.627	125.068
1002	20.3232
1005.38	134.531
1008.75	115.584
1012.13	144.096
1015.5	119.574
1018.88	43.0156
1022.25	16.3047
1025.62	2.63769
1029	102.302
1032.38	40.7744
1035.75	59.0498
1039.12	77.8184
1042.5	7.06152
1045.87	26.6895
1049.25	68.3369
1052.62	49.2119
1056	100.709
1059.37	21.0811
1062.75	24.5664
1066.12	1.00195
1069.5	63.4209
1072.87	39.6143
1076.25	63.0772
1079.62	76.6514
1083	53.2861
1086.37	21.2744
1089.75	110.461
1093.12	143.86
1096.5	172.227
1099.87	135.833
1103.25	141.542
1106.62	94.9707
1110	80.0527
1113.37	122.94
1116.74	144.799
1120.12	200.224
1123.49	115.469
1126.87	145.072
1130.24	138.912
1133.62	1.35254
1136.99	83.6562
1140.37	69.5938
1143.74	99.4551
1147.12	172.314
1150.49	137.956
1153.87	83.1572
1157.24	2.45898
1160.62	128.041
1163.99	195.202
1167.37	86.4121
1170.74	15.3779
1174.12	136.81
1177.49	22.8506
1180.87	35.917
1184.24	119.784
1187.62	119.974
1190.99	84.3975
1194.37	38.1367
1197.74	86.541
1201.12	32.2432
1204.49	55.459
1207.87	15.9102
1211.24	72.4902
1214.62	60.498
1217.99	40.082
1221.37	185.293
1224.74	48.5352
1228.11	110.195
1231.49	163.022
1234.86	191.148
1238.24	129.416
1241.61	191.481
1244.99	118.883
1248.36	131.746
1251.74	142.721
1255.11	103.902
1258.49	49.2637
1261.86	52.7539
1265.24	68.8672
1268.61	157.785
1271.99	55.3262
1275.36	53.6914
1278.74	107.648
1282.11	159.393
1285.49	129.461
1288.86	238.518
1292.24	53.8379
1295.61	105.162
1298.99	74.6309
1302.36	74.7188
1305.73	0
