Measurement: Raman, 532 nm, unoriented, Raman Data Processed
Mineral: Clinoclase
Rruff sample: R070092
Ideal chemistry: Cu^2+^_3_As^5+^O_4_(OH)_3_
Locality: Majuba Hill, Antelope District, Pershing County, Nevada, USA
Source: James Shigley
Description: Rich area of dark blue-green prismatic crystals
Measured chemistry: (Cu_2.97_Al_0.02_[box]_0.01_)_Σ=3_(As_0.99_P_0.01_)_Σ=1_O_4_(OH)_3_ ; trace amounts of Fe and Zn; OH estimated by difference and charge balance
Raman shift (cm-1)	intensity
142.949	0
146.324	1.72314
149.698	14.0623
153.073	49.9862
156.448	252.959
159.823	571.028
163.198	1024.96
166.573	619.703
169.947	581.576
173.322	919.646
176.697	1419.29
180.072	1799.54
183.447	2212.88
186.821	2820.79
190.196	2414.21
193.571	1331.39
196.946	333.32
200.321	21.6036
203.696	40.0453
207.07	19.1503
210.445	16.4902
213.82	178.383
217.195	357.635
220.57	481.656
223.945	521.565
227.319	723.847
230.694	1025.5
234.069	1287
237.444	1426.9
240.819	1489.56
244.193	1956.45
247.568	2710.26
250.943	2853.99
254.318	1783.06
257.693	1454.01
261.067	1434.67
264.442	798.926
267.817	280.617
271.192	82.9003
274.567	25.0597
277.942	25.7849
281.316	101.556
284.691	269.015
288.066	528.093
291.441	835.361
294.816	1262.92
298.19	1702.91
301.565	2330.63
304.94	2974.57
308.315	2858.94
311.69	1933.72
315.065	889.871
318.439	366.78
321.814	90.9109
325.189	26.2277
328.564	10.3938
331.939	15.2788
335.313	147.332
338.688	288.323
342.063	476.697
345.438	609.431
348.813	643.273
352.188	614.17
355.562	493.948
358.937	390.136
362.312	258.914
365.687	152.541
369.062	100.718
372.437	70.147
375.811	150.23
379.186	277.874
382.561	390.939
385.936	501.738
389.31	494.412
392.685	355.146
396.06	247.053
399.435	89.479
402.81	27.2987
406.185	81.9781
409.559	99.993
412.934	87.1461
416.309	42.3923
419.684	144.211
423.059	350.005
426.433	704.929
429.808	1141.83
433.183	1663.33
436.558	2328.01
439.933	2755.99
443.308	2936.72
446.682	3183.81
450.057	3593.95
453.432	4486.36
456.807	5418.06
460.182	5656.92
463.557	4863.99
466.931	3676.45
470.306	2959.85
473.681	2741.33
477.056	2875.82
480.431	3095.63
483.805	3226.68
487.18	2745.68
490.555	1835.73
493.93	1288.75
497.305	1200.36
500.68	1251.25
504.054	1372.89
507.429	1462.84
510.804	1623.26
514.179	1592.3
517.554	1280.14
520.928	1014.41
524.303	681.786
527.678	506.743
531.053	395.499
534.428	283.288
537.803	301.072
541.177	407.752
544.552	513.585
547.927	599.749
551.302	559.353
554.677	384.637
558.051	122.751
561.426	24.6028
564.801	34.8611
568.176	42.4224
571.551	73.8265
574.926	63.8313
578.3	26.2767
581.675	12.9753
585.05	56.6482
588.425	92.6667
591.8	204.831
595.174	364.139
598.549	626.167
601.924	981.594
605.299	1315.56
608.674	1657.63
612.048	1708.07
615.423	1440.04
618.798	1109.69
622.173	797.231
625.548	569.188
628.923	411.266
632.297	249.851
635.672	164.438
639.047	113.226
642.422	79.8344
645.797	74.6946
649.172	34.1233
652.546	64.6812
655.921	30.8799
659.296	31.3142
662.671	39.8159
666.046	27.8344
669.42	52.689
672.795	73.9696
676.17	140.299
679.545	155.763
682.92	193.593
686.294	240.908
689.669	309.712
693.044	363.538
696.419	423.133
699.794	453.54
703.169	442.302
706.543	424.202
709.918	343.989
713.293	281.214
716.668	177.028
720.043	95.97
723.418	68.816
726.792	11.1868
730.167	16.2815
733.542	18.9965
736.917	43.6819
740.292	27.4813
743.666	49.4139
747.041	42.072
750.416	27.7075
753.791	2.96912
757.166	63.9646
760.54	152.986
763.915	396.467
767.29	742.216
770.665	1374.55
774.04	2295.27
777.415	3524.86
780.789	4671.04
784.164	5161.56
787.539	4303.94
790.914	2930.18
794.289	1925.41
797.663	1321.98
801.038	1104.44
804.413	1034.54
807.788	1235.37
811.163	1853.64
814.538	3012.81
817.912	4948.06
821.287	7989.89
824.662	12280.4
828.037	16391
831.412	19782.2
834.786	20619.3
838.161	17693.8
841.536	13546.9
844.911	9809.66
848.286	6798.15
851.66	4932.28
855.035	3922.24
858.41	3191.39
861.785	2366.42
865.16	1791.95
868.535	1326.4
871.909	1151.72
875.284	1075.38
878.659	1014.4
882.034	766.037
885.409	451.224
888.784	237.723
892.158	86.1246
895.533	21.9978
898.908	68.0754
902.283	52.8973
905.658	43.4633
909.032	39.5131
912.407	44.5365
915.782	14.1209
919.157	14.3588
922.532	30.0283
925.907	41.1422
929.281	39.4877
932.656	38.6868
936.031	27.1006
939.406	68.2917
942.781	86.7147
946.155	124.519
949.53	138.647
952.905	136.638
956.28	134.735
959.655	139.37
963.029	186.412
966.404	198.163
969.779	260.474
973.154	375.329
976.529	572.913
979.904	742.71
983.278	906.072
986.653	848.048
990.028	686.501
993.403	419.495
996.778	254.356
1000.15	131.835
1003.53	121.396
1006.9	74.373
1010.28	35.8262
1013.65	40.1147
1017.03	26.7035
1020.4	4.92981
1023.78	19.9263
1027.15	4.87561
1030.53	12.0236
1033.9	5.15515
1037.28	17.2866
1040.65	14.041
1044.03	45.0913
1047.4	56.7145
1050.78	75.1171
1054.15	94.6107
1057.52	72.4763
1060.9	87.2601
1064.27	83.4532
1067.65	95.0743
1071.02	108.33
1074.4	87.7946
1077.77	90.0194
1081.15	79.3699
1084.52	90.8892
1087.9	76.1743
1091.27	77.3503
1094.65	82.4103
1098.02	123.208
1101.4	98.6531
1104.77	101.359
1108.15	99.0919
1111.52	98.6048
1114.9	114.145
1118.27	111.471
1121.65	102.829
1125.02	132.69
1128.4	151.803
1131.77	185.605
1135.14	175.017
1138.52	108.224
1141.89	53.4278
1145.27	16.0314
1148.64	27.2647
1152.02	18.4091
1155.39	2.1095
1158.77	10.2281
1162.14	19.6633
1165.52	0.063721
1168.89	16.0679
1172.27	1.57214
1175.64	13.931
1179.02	21.5684
1182.39	24.0295
1185.77	23.9946
1189.14	11.6959
1192.52	33.8767
1195.89	26.6242
1199.27	45.4902
1202.64	38.9929
1206.02	65.2127
1209.39	74.6289
1212.77	107.727
1216.14	136.029
1219.52	128.582
1222.89	162.834
1226.27	150.657
1229.64	142.27
1233.02	146.222
1236.39	131.45
1239.77	141.924
1243.14	104.289
1246.51	95.542
1249.89	90.2248
1253.26	81.6848
1256.64	60.923
1260.01	52.8938
1263.39	18.3323
1266.76	12.318
1270.14	15.4701
1273.51	20.0375
1276.89	18.8457
1280.26	0.7164
1283.64	14.579
1287.01	2.56329
1290.39	12.1665
1293.76	21.3331
1297.14	4.21332
1300.51	1.43356
1303.89	9.54752
1307.26	61.2356
1310.64	3.92926
