Measurement: Raman, 785 nm, unoriented, Raman Data Processed
Mineral: Clinozoisite
Rruff sample: R060284
Ideal chemistry: Ca_2_Al_3_(Si_2_O_7_)(SiO_4_)O(OH)
Locality: near Zagi Mountain, Khaffor Dehri, North-West Frontier Province, Pakistan
Source: Herb Obodda
Description: Greenish-brown fragment of a prismatic crystal
Measured chemistry: Ca_2.00_(Al_0.90_Fe^3+^_0.10_)_3_(Si_1.00_O_4_)(Si_2.00_O_7_)O(OH)
Raman shift (cm-1)	intensity
126.815	0
129.707	8.63123
132.6	1.70129
135.493	50.88
138.385	116.096
141.278	174.144
144.171	264.793
147.064	398.922
149.956	528.408
152.849	656.587
155.742	685.334
158.634	647.689
161.527	659.629
164.42	771.353
167.312	869.35
170.205	941.414
173.098	916.017
175.99	776.308
178.883	527.856
181.776	306.627
184.669	163.478
187.561	63.4537
190.454	27.6636
193.347	16.2715
196.239	29.2418
199.132	33.0065
202.025	14.9088
204.917	11.2842
207.81	58.1163
210.703	118.028
213.596	128.007
216.488	176.341
219.381	228.174
222.274	273.477
225.166	304.491
228.059	414.268
230.952	631.134
233.845	968.209
236.737	1257.99
239.63	1272.19
242.523	1207.9
245.415	1110.68
248.308	1345.94
251.201	1662.56
254.093	1978.39
256.986	1923.54
259.879	1521.34
262.772	1192.18
265.664	1068.89
268.557	1128.68
271.45	1316.62
274.342	1532.64
277.235	1557.59
280.128	1174.06
283.02	764.398
285.913	467.053
288.806	279.151
291.699	125.463
294.591	77.1597
297.484	10.9341
300.377	15.5432
303.269	20.8486
306.162	51.5286
309.055	37.8867
311.947	172.221
314.84	323.8
317.733	327.716
320.625	310.43
323.518	413.496
326.411	593.077
329.304	765.042
332.196	1081.14
335.089	1444.37
337.982	1902.08
340.874	2349.16
343.767	2781.67
346.66	3156.29
349.553	3607.42
352.445	4191.23
355.338	3891.6
358.231	2700.7
361.123	1594.38
364.016	919.665
366.909	572.511
369.801	441.712
372.694	330.206
375.587	265.219
378.479	274.342
381.372	252.148
384.265	346.908
387.158	532.536
390.05	616.688
392.943	560.836
395.836	402.589
398.728	269.854
401.621	184.115
404.514	21.5054
407.406	88.3706
410.299	137.409
413.192	96.5765
416.085	8.16406
418.977	162.403
421.87	411.457
424.763	697.341
427.655	1036.65
430.548	1165.32
433.441	1026.59
436.334	1019.57
439.226	1191.05
442.119	1475.17
445.012	2050.8
447.904	2777.66
450.797	3617.22
453.69	4170.27
456.582	3922.73
459.475	3109.94
462.368	2388.99
465.26	1989.87
468.153	1751.77
471.046	1711.56
473.939	1697.7
476.831	1663.93
479.724	1617.84
482.617	1614.3
485.509	1517.78
488.402	1255.86
491.295	926.734
494.188	658.418
497.08	553.131
499.973	547.88
502.866	648.245
505.758	870.168
508.651	1015.46
511.544	1004.62
514.436	826.053
517.329	757.947
520.222	733.918
523.115	666.575
526.007	582.609
528.9	498.505
531.793	410.353
534.685	219.95
537.578	23.2617
540.471	52.5236
543.363	72.1379
546.256	70.2533
549.149	24.124
552.041	69.1379
554.934	236.455
557.827	543.917
560.72	1016.27
563.612	1650.01
566.505	2502.49
569.398	3894.49
572.29	5582.51
575.183	4877.96
578.076	2462.63
580.968	1272.63
583.861	863.076
586.754	821.582
589.646	946.413
592.539	1170.1
595.432	1371.01
598.325	1544.1
601.217	1726.62
604.11	1950.46
607.003	2016.95
609.895	1730.09
612.788	1283.84
615.681	837.996
618.573	567.745
621.466	395.167
624.359	195.854
627.252	62.09
630.144	5.88825
633.037	14.5518
635.93	25.2976
638.822	30.4294
641.715	20.304
644.608	61.0301
647.5	134.244
650.393	245.58
653.286	376.837
656.179	511.803
659.071	520.776
661.964	405.852
664.857	329.905
667.75	297.924
670.642	224.991
673.535	211.937
676.428	231.219
679.32	253.493
682.213	334.911
685.106	376.984
687.998	417.088
690.891	435.672
693.784	457.482
696.677	507.718
699.569	511.33
702.462	495.219
705.355	417.189
708.247	320.085
711.14	205.876
714.033	117.512
716.925	73.1662
719.818	51.767
722.711	21.1565
725.604	4.97937
728.496	18.2747
731.389	21.0112
734.282	8.60803
737.174	27.2654
740.067	27.3982
742.96	21.9672
745.852	6.15427
748.745	31.6314
751.638	35.9402
754.53	41.9684
757.423	35.6068
760.316	51.1038
763.209	30.6688
766.101	50.7999
768.994	36.0393
771.887	28.5901
774.779	30.6249
777.672	38.9155
780.565	16.1408
783.457	2.1788
786.35	6.4285
789.243	11.1572
792.136	2.23346
795.028	15.7195
797.921	1.34668
800.814	2.01092
803.706	13.9916
806.599	27.2531
809.492	11.7058
812.385	20.6863
815.277	33.3614
818.17	1.21869
821.063	23.198
823.955	25.218
826.848	38.2216
829.741	64.8176
832.633	58.5128
835.526	54.9612
838.419	71.5612
841.312	65.2781
844.204	98.8454
847.097	119.74
849.99	184.465
852.882	279.169
855.775	372.04
858.668	498.535
861.56	739.132
864.453	981.591
867.346	1304.72
870.239	1686.23
873.131	2008.27
876.024	2094.44
878.917	2268.57
881.809	2412.68
884.702	2382.69
887.595	2366.86
890.487	2458.48
893.38	2559.17
896.273	2745.69
899.165	2773.07
902.058	2766.2
904.951	2862.22
907.844	3192.69
910.736	3593.89
913.629	3838.86
916.522	3691.64
919.414	3216.98
922.307	2647.24
925.2	2272.36
928.092	1906.49
930.985	1649.32
933.878	1293.97
936.771	968.702
939.663	633.734
942.556	316.784
945.449	156.27
948.341	21.3674
951.234	2.05029
954.127	42.3916
957.019	2.66968
959.912	25.692
962.805	80.2338
965.698	92.0963
968.59	146.238
971.483	231.128
974.376	382.841
977.268	644.212
980.161	957.326
983.054	1302.16
985.947	1482.49
988.839	1209.99
991.732	776.376
994.625	444.567
997.517	229.766
1000.41	107.888
1003.3	35.6931
1006.2	17.7054
1009.09	31.8438
1011.98	36.2988
1014.87	15.1796
1017.77	21.9163
1020.66	57.1971
1023.55	190.093
1026.44	280.827
1029.34	383.417
1032.23	398.896
1035.12	323.454
1038.02	267.173
1040.91	268.709
1043.8	250.359
1046.69	226.255
1049.59	231.71
1052.48	226.814
1055.37	171.862
1058.26	181.722
1061.16	132.529
1064.05	134.768
1066.94	128.986
1069.84	139.937
1072.73	160.986
1075.62	226.533
1078.51	313.514
1081.41	436.013
1084.3	613.987
1087.19	804.1
1090.08	1072.85
1092.98	1333.07
1095.87	1296.41
1098.76	905.536
1101.65	561.031
1104.55	341.999
1107.44	267.927
1110.33	191.771
1113.22	139.065
1116.12	90.33
1119.01	75.126
1121.9	54.3628
1124.8	27.7334
1127.69	29.9946
1130.58	2.16333
1133.47	19.9072
1136.37	3.74499
1139.26	15.8574
1142.15	8.72369
1145.05	18.4219
1147.94	5.22266
1150.83	22.3985
1153.72	13.9393
1156.62	11.1733
1159.51	8.396
1162.4	14.9769
1165.29	9.18201
1168.19	34.7064
1171.08	64.2231
1173.97	92.4053
1176.87	103.2
1179.76	137.565
1182.65	168.415
1185.54	192.334
1188.43	196.327
1191.33	209.448
1194.22	237.784
1197.11	227.895
1200.01	236.19
1202.9	227.933
1205.79	195.989
1208.68	177.775
1211.58	172.264
1214.47	159.524
1217.36	173.092
1220.26	166.898
1223.15	132.605
1226.04	130.228
1228.93	101.285
1231.83	78.3357
1234.72	66.6523
1237.61	2.64264
1240.5	14.9959
