Measurement: Raman, 532 nm, unoriented, Raman Data Processed
Mineral: Clintonite
Rruff sample: R070197
Ideal chemistry: CaAlMg_2_(SiAl_3_)O_10_(OH)_2_
Locality: Crestmore Quarry, Riverside County, California, USA
Source: California Institute of Technology
Description: Transparent green micaceous
Measured chemistry: Ca_1.00_(Mg_2.19_Al_0.66_Fe^3+^_0.15_)_Σ=3_(Al_2.81_Si_1.19_)_Σ=4_O_10_(OH)_2_
Raman shift (cm-1)	intensity
146.807	0
149.7	43.4287
152.592	205.254
155.485	295.036
158.378	303.978
161.27	321.241
164.163	366.861
167.056	400.587
169.948	485.97
172.841	473.239
175.734	449.701
178.626	462.25
181.519	442.704
184.412	457.967
187.305	410.67
190.197	362.885
193.09	334.849
195.983	257.518
198.875	212.291
201.768	233.996
204.661	283.258
207.554	309.467
210.446	390.501
213.339	556.383
216.232	773.527
219.124	1063.86
222.017	1360.82
224.91	1810.48
227.802	2307.84
230.695	2693.22
233.588	2540.19
236.481	1701.88
239.373	963.994
242.266	477.45
245.159	243.777
248.051	158.344
250.944	34.9045
253.837	9.00806
256.729	27.7988
259.622	14.1675
262.515	25.3787
265.408	27.365
268.3	62.5898
271.193	35.6589
274.086	29.5281
276.978	44.0576
279.871	2.42529
282.764	3.04858
285.656	67.0977
288.549	105.045
291.442	141.83
294.335	102.378
297.227	94.7783
300.12	19.6152
303.013	28.9829
305.905	46.2451
308.798	93.5112
311.691	163.765
314.584	178.374
317.476	253.963
320.369	368.467
323.262	548.602
326.154	746.882
329.047	1030.85
331.94	1283.09
334.832	1479.7
337.725	1610.99
340.618	1647.45
343.51	1651.9
346.403	1534.09
349.296	1344.25
352.189	1189.62
355.081	1046.37
357.974	837.736
360.867	681.336
363.759	495.911
366.652	367.877
369.545	273.897
372.438	212.751
375.33	292.969
378.223	455.759
381.116	758.97
384.008	1202.08
386.901	1677.1
389.794	2343.74
392.686	2920.91
395.579	3356.84
398.472	3454.71
401.365	3325.8
404.257	2907.28
407.15	2498.42
410.043	2031.23
412.935	1603.54
415.828	1284.12
418.721	989.174
421.613	852.549
424.506	745.655
427.399	698.71
430.291	641.79
433.184	599.349
436.077	474.884
438.97	426.686
441.862	340.966
444.755	278.467
447.648	167.685
450.54	228.528
453.433	155.763
456.326	226.609
459.219	150.101
462.111	215.906
465.004	142.468
467.897	120.672
470.789	76.3296
473.682	30.7393
476.575	62.8272
479.467	83.2022
482.36	89.5317
485.253	47.9355
488.146	63.3779
491.038	109.061
493.931	177.211
496.824	228.121
499.716	254.131
502.609	274.666
505.502	220.11
508.394	185.024
511.287	202.406
514.18	163.462
517.072	214.786
519.965	302.941
522.858	352.627
525.751	400.571
528.643	450.108
531.536	526.901
534.429	570.736
537.321	628.729
540.214	645.556
543.107	642.369
546	614.65
548.892	563.707
551.785	466.38
554.678	381.779
557.57	265.135
560.463	190.297
563.356	54.9907
566.248	3.01172
569.141	44.8608
572.034	8.65185
574.927	56.3442
577.819	34.5264
580.712	11.7539
583.605	19.7598
586.497	16.6655
589.39	115.565
592.283	87.6055
595.175	131.653
598.068	99.2563
600.961	127.29
603.854	118.637
606.746	105.221
609.639	130.071
612.532	133.096
615.424	137.705
618.317	182.221
621.21	294.206
624.102	344.145
626.995	490.818
629.888	697.992
632.78	1040.1
635.673	1535.4
638.566	2269.22
641.459	3272.6
644.351	4684.9
647.244	6284.4
650.137	7967.12
653.029	9122.18
655.922	8385.87
658.815	5978.44
661.707	4043.71
664.6	2800.7
667.493	2164.22
670.386	1786.38
673.278	1521.89
676.171	1306.96
679.064	1221.69
681.956	1065.59
684.849	1015.84
687.742	926.783
690.635	834.107
693.527	706.064
696.42	677.818
699.313	562.639
702.205	509.162
705.098	482.087
707.991	395.907
710.883	294.717
713.776	253.806
716.669	155.818
719.562	154.203
722.454	132.934
725.347	133.022
728.24	58.0757
731.132	64.0625
734.025	15.3648
736.918	38.3569
739.81	6.58594
742.703	38.8862
745.596	9.29102
748.489	26.8003
751.381	9.26074
754.274	36.96
757.167	35.6597
760.059	2.25
762.952	11.1084
765.845	61.2681
768.737	130.887
771.63	235.726
774.523	326.019
777.415	374.764
780.308	546.11
783.201	657.846
786.094	726.106
788.986	812.379
791.879	878.832
794.772	859.669
797.664	799.955
800.557	809.72
803.45	761.424
806.342	787.799
809.235	793.687
812.128	756.656
815.021	803.479
817.913	716.386
820.806	738.28
823.699	702.748
826.591	701.028
829.484	669.302
832.377	577.558
835.269	594.664
838.162	508.093
841.055	452.296
843.948	422.59
846.84	289.58
849.733	213.083
852.626	110.889
855.519	12.7681
858.411	5.04443
861.304	33.4692
864.197	58.9766
867.089	48.4922
869.982	230.791
872.875	518.606
875.767	968.985
878.66	1510.9
881.553	2127.79
884.446	2664.74
887.338	3077.39
890.231	3326.93
893.124	3279.39
896.016	2944.01
898.909	2382.57
901.802	1881.48
904.694	1487.06
907.587	1246.76
910.48	1028.2
913.372	855.906
916.265	802.861
919.158	666.212
922.051	614.707
924.943	544.037
927.836	570.287
930.729	440.282
933.621	417.791
936.514	347.966
939.407	321.686
942.299	218.786
945.192	204.447
948.085	141.486
950.978	131.306
953.87	136.606
956.763	122.657
959.656	179.11
962.548	128.767
965.441	198.935
968.334	249.178
971.226	265.514
974.119	307.616
977.012	374.666
979.905	395.315
982.797	415.256
985.69	399.634
988.583	301.475
991.475	177.665
994.368	90.8015
997.261	96.8025
1000.15	1.02905
1003.05	4.23413
1005.94	2.16797
1008.83	8.00586
1011.72	52.4382
1014.62	40.8767
1017.51	15.1277
1020.4	2.35059
1023.29	8.57104
1026.19	32.9815
1029.08	25.8899
1031.97	33.1047
1034.87	28.2275
1037.76	84.0044
1040.65	44.458
1043.54	54.2703
1046.44	76.2488
1049.33	97.5979
1052.22	62.541
1055.12	101.629
1058.01	100.587
1060.9	116.053
1063.79	94.77
1066.69	113.702
1069.58	77.0408
1072.47	105.788
1075.36	81.1704
1078.26	81.6746
1081.15	74.2566
1084.04	95.2068
1086.93	71.8621
1089.83	44.3154
1092.72	88.1218
1095.61	60.6418
1098.51	41.5276
1101.4	25.8879
1104.29	41.9299
1107.18	83.0767
1110.08	49.3569
1112.97	59.03
1115.86	84.5481
1118.75	58.8352
1121.65	71.9624
1124.54	5.22192
1127.43	20.3328
1130.33	39.4441
1133.22	81.6148
1136.11	39.3328
1139	1.34204
1141.9	47.6677
1144.79	54.9185
1147.68	24.4458
1150.57	11.488
1153.47	7.9126
1156.36	35.5159
1159.25	34.6448
1162.14	7.56323
1165.04	25.6531
1167.93	11.3301
1170.82	32.2866
1173.72	29.5195
1176.61	38.8984
1179.5	24.8816
1182.39	9.76782
1185.29	12.4199
1188.18	73.029
1191.07	47.5137
1193.96	38.8096
1196.86	11.1543
1199.75	46.4373
1202.64	35.1628
1205.54	33.9614
1208.43	30.1536
1211.32	8.12891
1214.21	20.7102
1217.11	59.7778
1220	12.3618
1222.89	52.979
1225.78	38.5386
1228.68	51.7097
1231.57	43.4924
1234.46	39.8603
1237.36	17.2412
1240.25	45.3862
1243.14	33.8062
1246.03	85.1145
1248.93	46.6411
1251.82	91.3123
1254.71	22.5159
1257.6	1.75708
1260.5	19.9309
1263.39	77.7459
1266.28	58.7625
1269.17	61.1445
1272.07	1.12842
1274.96	50.5857
1277.85	37.9915
1280.74	23.8733
1283.64	15.9065
1286.53	8.71777
1289.42	21.8018
1292.32	5.04443
1295.21	29.1611
1298.1	42.3164
