Measurement: Raman, 532 nm, unoriented, Raman Data Processed
Mineral: Clinochlore
Rruff sample: R060725
Ideal chemistry: Mg_5_Al(AlSi_3_O_10_)(OH)_8_
Locality: Crestmore Quarry, Riverside, California, USA
Source: Bob Jenkins
Description: Green transparent books of mica
Measured chemistry: (Mg_4.65_Al_1.12_Fe^2+^_0.17_[box]_0.06_)_Σ=6_(Si_3.00_Al_1.00_)_Σ=4_O_10_(OH)_8_
Raman shift (cm-1)	intensity
141.772	0
144.665	66.3709
147.557	117.992
150.45	3.53223
153.343	40.2707
156.235	54.7472
159.128	47.2812
162.021	46.7427
164.913	103.196
167.806	62.8046
170.699	69.0587
173.592	40.4813
176.484	39.7028
179.377	56.1782
182.27	3.87378
185.162	6.58496
188.055	13.6106
190.948	54.6022
193.84	143.435
196.733	266.575
199.626	570.497
202.519	1135.1
205.411	1768.1
208.304	1386.84
211.197	750.514
214.089	429.16
216.982	293.915
219.875	189.564
222.767	165.388
225.66	130.098
228.553	125.336
231.445	85.4889
234.338	78.605
237.231	28.3583
240.124	36.6085
243.016	12.1591
245.909	17.4678
248.802	4.36804
251.694	0.202881
254.587	23.1849
257.48	24.4153
260.372	24.821
263.265	63.6228
266.158	109.197
269.051	216.83
271.943	366.593
274.836	535.595
277.729	787.388
280.621	817.309
283.514	662.58
286.407	400.981
289.299	234.092
292.192	152.672
295.085	113.901
297.978	88.2992
300.87	127.884
303.763	108.995
306.656	131.387
309.548	96.2888
312.441	35.3041
315.334	80.3551
318.226	135.579
321.119	239.727
324.012	306.465
326.905	394.083
329.797	428.264
332.69	411.796
335.583	417.33
338.475	479.753
341.368	634.36
344.261	932.529
347.153	1422.99
350.046	2204.73
352.939	3172.42
355.832	3864.11
358.724	3665.49
361.617	2686.72
364.51	1678.49
367.402	1024.43
370.295	662.508
373.188	473.503
376.08	345.319
378.973	234.862
381.866	209.794
384.759	258.611
387.651	363.334
390.544	551.67
393.437	478.456
396.329	166.542
399.222	47.2293
402.115	15.6973
405.007	34.7559
407.9	47.1379
410.793	20.5037
413.685	57.6672
416.578	142.133
419.471	214.825
422.364	353.283
425.256	434.16
428.149	497.384
431.042	518.613
433.934	461.911
436.827	367.915
439.72	345.942
442.612	270.058
445.505	206.503
448.398	167.925
451.29	96.8341
454.183	116.914
457.076	157.292
459.969	210.24
462.861	271.675
465.754	198.058
468.647	134.005
471.539	34.9482
474.432	5.68945
477.325	39.9156
480.217	27.0617
483.11	3.82935
486.003	67.3069
488.896	73.6228
491.788	121.036
494.681	168.29
497.574	215.447
500.466	298.744
503.359	377.82
506.252	407.905
509.145	464.034
512.037	571.237
514.93	647.959
517.823	739.387
520.715	847.235
523.608	975.667
526.501	1145.91
529.393	1298.56
532.286	1394.75
535.179	1528.47
538.071	1651.8
540.964	1930.52
543.857	2407.63
546.75	3399.76
549.642	4976.97
552.535	5833.17
555.428	3910.96
558.32	2239.11
561.213	1453.53
564.106	1082.25
566.998	817.725
569.891	620.979
572.784	480.017
575.677	418.851
578.569	284.671
581.462	204.265
584.355	163.664
587.247	74.2926
590.14	43.4874
593.033	31.3008
595.925	3.91455
598.818	5.59912
601.711	17.6819
604.604	22.2889
607.496	18.1416
610.389	2.86023
613.282	16.4236
616.174	16.9587
619.067	11.7898
621.96	2.64783
624.852	16.3519
627.745	10.5747
630.638	2.62024
633.531	0.807861
636.423	9.90747
639.316	26.1519
642.209	40.0035
645.101	134.591
647.994	179.705
650.887	334.492
653.779	498.033
656.672	725.386
659.565	969.467
662.458	1292.02
665.35	1603.45
668.243	2092.32
671.135	2540.13
674.028	3076.49
676.921	3525.17
679.814	3769.49
682.706	3815.84
685.599	3570.63
688.492	3173.83
691.384	2762.29
694.277	2295.98
697.17	1864.88
700.062	1506.54
702.955	1232.01
705.848	1016.06
708.741	833.592
711.633	640.216
714.526	526.445
717.419	369.495
720.311	290.647
723.204	182.989
726.097	143.811
728.99	75.0311
731.882	35.1024
734.775	25.043
737.667	15.1299
740.56	5.59143
743.453	44.4358
746.346	35.6941
749.238	50.9795
752.131	57.457
755.024	56.5497
757.916	100.241
760.809	90.0344
763.702	74.7102
766.594	91.3234
769.487	43.833
772.38	34.9513
775.273	3.96912
778.165	9.95129
781.058	9.71179
783.951	51.4944
786.843	71.4648
789.736	57.859
792.629	79.661
795.521	62.6659
798.414	54.1561
801.307	10.4988
804.2	17.5702
807.092	18.7026
809.985	13.8787
812.878	30.9268
815.77	7.42236
818.663	35.1715
821.556	19.5167
824.448	39.6215
827.341	25.7483
830.234	27.0526
833.127	2.16882
836.019	6.11157
838.912	1.94214
841.805	8.77246
844.697	0.182251
847.59	2.87744
850.483	10.8008
853.375	15.769
856.268	22.6252
859.161	22.9042
862.054	20.7583
864.946	49.22
867.839	53.0259
870.732	36.433
873.624	68.7686
876.517	67.3959
879.41	40.9303
882.302	50.858
885.195	81.7842
888.088	76.4259
890.981	80.5487
893.873	93.2638
896.766	52.5087
899.659	59.7046
902.551	59.4273
905.444	85.282
908.337	38.1597
911.229	55.4594
914.122	51.6435
917.015	51.0267
919.907	62.7748
922.8	75.8234
925.693	67.6803
928.586	86.5758
931.478	118.987
934.371	111.329
937.264	116.296
940.156	118.493
943.049	144.943
945.942	131.321
948.834	154.486
951.727	172.118
954.62	146.853
957.513	138.028
960.405	139.528
963.298	139.02
966.191	156.875
969.083	155.074
971.976	185.537
974.869	167.158
977.761	215.732
980.654	206.861
983.547	172.137
986.44	203.089
989.332	201.545
992.225	184.349
995.118	165.65
998.01	105.06
1000.9	174.636
1003.8	139.502
1006.69	122.06
1009.58	33.7144
1012.47	33.6226
1015.37	7.21155
1018.26	3.948
1021.15	16.2698
1024.05	34.1785
1026.94	9.08508
1029.83	5.23389
1032.72	56.4279
1035.62	76.1661
1038.51	147.494
1041.4	162.945
1044.29	233.439
1047.19	243.532
1050.08	246.972
1052.97	269.262
1055.86	269.431
1058.76	245.612
1061.65	263.896
1064.54	252.655
1067.43	279.633
1070.33	282.057
1073.22	306.295
1076.11	407.269
1079.01	477.108
1081.9	639.87
1084.79	814.576
1087.68	880.534
1090.58	480.978
1093.47	329.043
1096.36	228.825
1099.26	127.741
1102.15	64.2969
1105.04	40.2344
1107.93	45.7704
1110.83	21.5271
1113.72	13.6704
1116.61	8.86914
1119.5	6.35962
1122.4	1.81384
1125.29	10.6325
1128.18	19.6708
1131.07	38.9353
1133.97	39.2938
1136.86	20.0118
1139.75	53.0775
1142.64	49.6561
1145.54	55.8226
1148.43	65.2327
1151.32	109.754
1154.22	69.4279
1157.11	75.743
1160	57.1515
1162.89	60.4427
1165.79	86.1718
1168.68	102.553
1171.57	95.2931
1174.46	84.0786
1177.36	94.0276
1180.25	94.4569
1183.14	89.6724
1186.04	86.7877
1188.93	95.8102
1191.82	64.5182
1194.71	74.4058
1197.61	68.5841
1200.5	74.4714
1203.39	59.2679
1206.29	58.5352
1209.18	45.9473
1212.07	100.29
1214.96	61.7262
1217.86	68.6456
1220.75	52.1692
1223.64	29.1742
1226.53	52.4596
1229.43	0.616211
1232.32	5.75781
1235.21	28.8416
1238.1	12.8948
1241	25.2082
1243.89	16.6118
1246.78	32.0747
1249.67	22.6371
1252.57	21.4419
1255.46	31.8912
1258.35	28.8248
1261.25	15.9922
1264.14	7.55872
1267.03	4.64502
1269.92	14.9778
1272.82	5.16211
1275.71	24.2687
1278.6	15.9657
1281.49	9.29968
1284.39	30.5502
1287.28	2.10352
1290.17	0.041382
