Measurement: Raman, 514 nm, unoriented, Raman Data Processed
Mineral: Clinozoisite
Rruff sample: R060284
Ideal chemistry: Ca_2_Al_3_(Si_2_O_7_)(SiO_4_)O(OH)
Locality: near Zagi Mountain, Khaffor Dehri, North-West Frontier Province, Pakistan
Source: Herb Obodda
Description: Greenish-brown fragment of a prismatic crystal
Measured chemistry: Ca_2.00_(Al_0.90_Fe^3+^_0.10_)_3_(Si_1.00_O_4_)(Si_2.00_O_7_)O(OH)
Raman shift (cm-1)	intensity
56.365	0
60.563	95.344
64.758	125.293
68.952	189.825
73.144	48.162
77.333	43.072
81.521	29.599
85.706	556.956
89.89	2087.07
94.071	3824.37
98.251	3251.67
102.428	2419.41
106.604	2327.5
110.777	2517.26
114.949	2292.01
119.119	1935.12
123.286	1622.17
127.452	1517.86
131.615	1445.94
135.777	1236.24
139.937	1220.16
144.094	1217.54
148.25	1451.42
152.403	1920.32
156.555	2384.12
160.705	2806.29
164.853	3084.44
168.998	3437.7
173.142	4242.19
177.284	4520.99
181.424	3559.14
185.562	2486.7
189.698	1949.68
193.831	1852.13
197.963	1942.04
202.093	2248.44
206.221	2780.32
210.347	3616.71
214.472	3994.59
218.594	4274.97
222.714	4554.08
226.832	4875.73
230.948	5547.26
235.063	7563.39
239.175	8973.65
243.286	7905.81
247.394	5910.23
251.501	5532.66
255.605	5819.72
259.708	4979.27
263.808	3421.85
267.907	2851.03
272.004	3589.74
276.099	4901.91
280.192	4898.48
284.283	3126.41
288.372	2299.68
292.459	2207.23
296.544	2189.06
300.627	2072.12
304.709	2074.4
308.788	2136.84
312.865	2771.41
316.941	2997.13
321.015	2481.99
325.086	2004.96
329.156	1944.01
333.224	2660.16
337.29	4028.38
341.354	5967.69
345.416	7972.05
349.476	10829.5
353.534	15317
357.591	15344.5
361.645	9655.98
365.698	4817.53
369.748	2407.07
373.797	1148.6
377.844	400.098
381.889	180.451
385.932	378.646
389.973	302.995
394.012	30.897
398.049	646.832
402.084	1075.01
406.118	657.447
410.15	117.839
414.179	475.492
418.207	192.409
422.233	882.291
426.257	3076.27
430.279	5733.47
434.299	5703.94
438.318	4715.85
442.334	5039.33
446.349	6822.4
450.361	10642
454.372	13846.3
458.381	14221.1
462.388	11185.3
466.394	8720.92
470.397	7647.77
474.398	7554.81
478.398	6792.94
482.396	6283.1
486.391	5519.18
490.385	4168.12
494.377	2950.88
498.368	2435.42
502.356	2488.72
506.342	3481.78
510.327	4034.55
514.31	3890.04
518.291	3472.22
522.27	3372.07
526.247	2753.57
530.222	1634.71
534.196	792.475
538.167	274.835
542.137	172.787
546.105	312.721
550.071	317.199
554.035	717.428
557.998	1481.65
561.958	2851.41
565.917	5832.69
569.874	13587.9
573.829	27287.5
577.782	25247.8
581.733	10482.5
585.683	5451.53
589.63	5171.7
593.576	6743.03
597.52	9336.36
601.462	12170.2
605.402	16262.2
609.341	18566.9
613.277	14665.4
617.212	9073.98
621.145	6047.49
625.076	3665.07
629.006	2335.58
632.933	1467.63
636.859	1137.56
640.783	970.366
644.705	768.833
648.625	899.474
652.543	1265.83
656.46	2365.87
660.375	2968.71
664.288	2575.35
668.199	1962.75
672.108	1510.9
676.016	1162.79
679.921	1124.4
683.825	1212.72
687.727	1403.73
691.628	1540.22
695.526	1618.62
699.423	1897.8
703.318	2376.95
707.211	2349.39
711.102	1795.76
714.992	1020.75
718.879	464.324
722.765	214.464
726.649	43.169
730.532	19.246
734.412	10.82
738.291	14.807
742.168	16.034
746.043	18.386
749.916	104.572
753.788	162.126
757.658	113.384
761.526	130.32
765.392	179.981
769.257	149.447
773.119	117.619
776.98	57.348
780.839	18.42
784.697	30.668
788.552	33.97
792.406	40.68
796.258	98.552
800.108	189.751
803.957	238.36
807.804	322.429
811.649	386.983
815.492	491.029
819.333	634.573
823.173	815.62
827.011	1118.18
830.847	1476.25
834.681	1901.85
838.514	2220.98
842.345	2373.64
846.174	2490.85
850.001	2594.61
853.827	2756.92
857.651	3110.8
861.473	3636.25
865.293	4169.26
869.112	4899.85
872.928	5865.05
876.744	7086.86
880.557	8637.02
884.369	10578.5
888.178	10966.7
891.987	11262.8
895.793	12008.3
899.598	13490.6
903.401	15875.3
907.202	19863.5
911.001	26579.6
914.799	33362.5
918.595	36074.8
922.389	31985.4
926.182	26907.1
929.972	23044.8
933.761	19401.9
937.549	15631.4
941.334	11674.4
945.118	8191.27
948.9	5753.44
952.681	4423.98
956.459	3843.45
960.236	3622.96
964.012	3560.66
967.785	3632.55
971.557	3505.64
975.327	3649.91
979.095	4443.35
982.862	6483.96
986.627	9597.73
990.39	9985.67
994.152	6754.78
997.912	3933.07
1001.67	2379.55
1005.43	1424.23
1009.18	934.179
1012.93	629.329
1016.68	544.857
1020.43	545.077
1024.18	782.746
1027.93	1227.39
1031.67	1670.04
1035.42	1976.1
1039.16	2262.11
1042.9	2612.12
1046.63	3111.23
1050.37	3372.31
1054.11	3188.82
1057.84	2593.81
1061.57	1919.68
1065.3	1221.96
1069.03	744.448
1072.75	600.961
1076.47	652.824
1080.2	895.838
1083.92	1308.36
1087.64	2235.04
1091.36	4107.23
1095.07	7139.61
1098.79	9012.37
1102.5	5844.26
1106.21	2783.91
1109.92	1400.52
1113.62	870.074
1117.33	616.841
1121.04	441.673
1124.74	386.485
1128.44	275.933
1132.14	191.628
1135.83	114.887
1139.53	100.709
1143.22	49.635
1146.92	40.927
1150.61	30.762
1154.3	2.009
1157.98	5.032
1161.67	14.663
1165.35	21.262
1169.04	43.688
1172.72	24.75
1176.4	16.038
1180.07	61.105
1183.75	41.482
1187.42	18.491
1191.1	12.632
1194.77	26.558
1198.44	10.693
1202.1	15.775
1205.77	2.374
1209.43	22.26
1213.1	5.929
1216.76	17.815
1220.42	30.084
1224.07	23.369
1227.73	17.968
1231.38	11.293
1235.04	12.165
1238.69	21.637
1242.34	18.388
1245.99	7.365
1249.63	27.862
1253.28	6.796
1256.92	11.987
1260.56	4.54
1264.2	8.482
1267.84	37.241
1271.48	51.089
1275.11	61.83
1278.74	72.685
1282.38	93.283
1286.01	104.54
1289.63	106.647
1293.26	90.356
1296.89	76.809
1300.51	82.937
1304.13	83.745
1307.75	92.27
1311.37	101.069
1314.99	91.845
1318.6	97.103
1322.22	96.062
1325.83	85.419
1329.44	103.492
1333.05	118.846
1336.66	130.875
1340.26	101.361
1343.87	134.956
1347.47	124.291
1351.07	138.346
1354.67	159.217
1358.27	146.736
1361.86	165.508
1365.46	146.572
1369.05	143.947
1372.64	147.6
1376.23	180.17
1379.82	140.604
1383.41	149.376
1386.99	127.916
1390.57	102.673
1394.16	110.5
1397.74	81.025
1401.32	72.105
1404.89	71.137
1408.47	87.443
1412.04	81.672
1415.61	100.651
1419.18	89.5
1422.75	90.718
1426.32	87.714
1429.89	71.73
1433.45	84.551
1437.01	64.795
1440.58	74.394
1444.13	76.662
1447.69	77.046
1451.25	67.015
1454.81	65.334
1458.36	83.151
1461.91	71.161
1465.46	61.488
1469.01	69.784
1472.56	63.913
1476.1	65.324
1479.64	48.74
1483.19	39.031
1486.73	50.636
1490.27	57.422
1493.81	41.315
1497.34	52.385
1500.88	44.949
1504.41	45.13
1507.94	48.95
1511.47	23.171
1515	15.919
1518.53	42.419
1522.05	23.057
1525.57	2.569
1529.1	0
