Measurement: Raman, 785 nm, unoriented, Raman Data Processed
Mineral: Clinochlore
Rruff sample: R060725
Ideal chemistry: Mg_5_Al(AlSi_3_O_10_)(OH)_8_
Locality: Crestmore Quarry, Riverside, California, USA
Source: Bob Jenkins
Description: Green transparent books of mica
Measured chemistry: (Mg_4.65_Al_1.12_Fe^2+^_0.17_[box]_0.06_)_Σ=6_(Si_3.00_Al_1.00_)_Σ=4_O_10_(OH)_8_
Raman shift (cm-1)	intensity
167.329	0
170.222	60.6528
173.115	62.96
176.007	28.467
178.9	189.232
181.793	147.075
184.685	79.3518
187.578	13.6697
190.471	69.7048
193.363	189.387
196.256	393.457
199.149	601.945
202.042	1045.55
204.934	1412.08
207.827	1159.74
210.72	678.773
213.612	367.634
216.505	228.516
219.398	141.391
222.29	37.5727
225.183	25.2235
228.076	19.1063
230.969	4.25696
233.861	3.89648
236.754	58.655
239.647	73.6681
242.539	132.828
245.432	107.578
248.325	88.1195
251.217	64.0409
254.11	62.2081
257.003	47.9032
259.896	65.2462
262.788	65.4911
265.681	105.109
268.574	174.976
271.466	207.43
274.359	328.94
277.252	455.255
280.144	507.923
283.037	388.228
285.93	291.168
288.823	131.87
291.715	33.3077
294.608	12.1429
297.501	15.5597
300.393	6.53186
303.286	35.2767
306.179	50.8591
309.071	41.6526
311.964	40.4006
314.857	62.598
317.75	57.9678
320.642	106.175
323.535	135.157
326.428	174.433
329.32	150.769
332.213	136.955
335.106	115.759
337.998	232.493
340.891	320.34
343.784	565.867
346.677	1010.05
349.569	1665.37
352.462	2424.23
355.355	2926.53
358.247	2769.64
361.14	2003.94
364.033	1251.79
366.925	750.415
369.818	426.437
372.711	301.461
375.603	195.235
378.496	181.043
381.389	120.888
384.282	125.305
387.174	185.423
390.067	320.763
392.96	312.38
395.852	117.42
398.745	45.1003
401.638	18.7766
404.53	5.36694
407.423	39.0968
410.316	5.4375
413.209	42.8057
416.101	46.2935
418.994	127.343
421.887	169.336
424.779	228.568
427.672	305.991
430.565	290.417
433.457	249.925
436.35	230.286
439.243	187.194
442.136	208.513
445.028	122.776
447.921	89.8491
450.814	48.1096
453.706	82.3143
456.599	160.277
459.492	236.56
462.384	258.811
465.277	208.076
468.17	109.577
471.063	27.3925
473.955	7.11133
476.848	3.90393
479.741	5.45984
482.633	7.07886
485.526	29.2568
488.419	72.2626
491.311	129.621
494.204	177.322
497.097	239.86
499.99	314.867
502.882	414.098
505.775	450.215
508.668	516.036
511.56	594.172
514.453	684.905
517.346	773.187
520.239	831.3
523.131	924.315
526.024	1031.62
528.917	1068.04
531.809	1093.69
534.702	1112.47
537.595	1188.43
540.487	1422.59
543.38	1945.02
546.273	2624.17
549.166	3618.43
552.058	4075.1
554.951	2796.78
557.844	1608.26
560.736	1057.42
563.629	745.525
566.522	527.744
569.414	403.902
572.307	295.072
575.2	208.179
578.093	146.256
580.985	94.1813
583.878	52.415
586.771	13.5111
589.663	10.2637
592.556	2.41199
595.449	20.6244
598.341	6.00647
601.234	18.4487
604.127	34.4585
607.019	12.1843
609.912	19.1012
612.805	2.85583
615.698	2.73315
618.59	22.1766
621.483	22.0734
624.376	46.7434
627.268	31.3353
630.161	45.8264
633.054	65.1323
635.946	66.8748
638.839	88.1049
641.732	132.391
644.625	200.924
647.517	211.822
650.41	301.648
653.303	436.019
656.195	595.886
659.088	782.739
661.981	1012.95
664.873	1296.87
667.766	1656.23
670.659	2032.93
673.552	2424.85
676.444	2803.68
679.337	2965.69
682.23	3006.84
685.122	2756.93
688.015	2452.49
690.908	2134.54
693.8	1776.86
696.693	1485.26
699.586	1219.21
702.479	1006.47
705.371	789.66
708.264	672.241
711.157	547.543
714.049	443.949
716.942	324.335
719.835	279.206
722.727	230.519
725.62	154.173
728.513	93.3726
731.406	57.1949
734.298	60.2986
737.191	2.67078
740.084	17.4062
742.976	10.453
745.869	20.911
748.762	28.8497
751.654	27.54
754.547	8.47131
757.44	28.2567
760.333	38.602
763.225	68.451
766.118	36.2894
769.011	24.5725
771.903	56.2084
774.796	31.5553
777.689	52.2178
780.581	81.545
783.474	109.846
786.367	142.715
789.26	150.082
792.152	157.009
795.045	112.08
797.938	77.37
800.83	42.3536
803.723	31.4412
806.616	41.0574
809.508	15.7305
812.401	6.06958
815.294	18.3824
818.187	11.3043
821.079	8.9137
823.972	9.74939
826.865	18.0571
829.757	18.4606
832.65	23.8494
835.543	21.7612
838.435	12.5165
841.328	8.22021
844.221	5.39514
847.114	2.75745
850.006	1.3938
852.899	14.839
855.792	13.8087
858.684	20.8588
861.577	10.1206
864.47	40.3922
867.362	46.9045
870.255	49.203
873.148	34.4763
876.041	53.364
878.933	33.7671
881.826	69.7814
884.719	47.467
887.611	49.3461
890.504	30.7662
893.397	25.5629
896.289	20.3298
899.182	1.08142
902.075	26.3319
904.968	43.8915
907.86	52.6539
910.753	39.7466
913.646	20.7266
916.538	15.5373
919.431	7.28027
922.324	20.4911
925.216	3.75049
928.109	10.8544
931.002	2.55872
933.894	31.785
936.787	14.7394
939.68	1.26611
942.573	14.3949
945.465	13.7277
948.358	23.4497
951.251	2.20728
954.143	45.3332
957.036	36.0586
959.929	21.061
962.821	28.8467
965.714	26.9854
968.607	19.5283
971.5	2.88562
974.392	49.3596
977.285	38.3678
980.178	42.941
983.07	27.91
985.963	48.6227
988.856	29.1307
991.748	53.3005
994.641	39.3463
997.534	73.8409
1000.43	66.3062
1003.32	70.0222
1006.21	72.2417
1009.11	24.3158
1012	11.0933
1014.89	11.1691
1017.78	1.58179
1020.68	4.39233
1023.57	8.79456
1026.46	5.68689
1029.35	11.8691
1032.25	47.0361
1035.14	57.8494
1038.03	115.143
1040.92	136.267
1043.82	198.15
1046.71	177.005
1049.6	185.634
1052.49	169.266
1055.39	181.385
1058.28	198.289
1061.17	178.125
1064.07	208.231
1066.96	191.78
1069.85	199.853
1072.74	233.329
1075.64	273.009
1078.53	303.625
1081.42	349.848
1084.32	388.254
1087.21	415.422
1090.1	326.904
1092.99	226.666
1095.89	149.382
1098.78	115.997
1101.67	61.7698
1104.56	33.5243
1107.46	13.5185
1110.35	31.1128
1113.24	7.22968
1116.13	25.9614
1119.03	3.742
1121.92	9.32483
1124.81	13.3236
1127.7	2.49121
1130.6	6.12299
1133.49	14.6122
1136.38	24.2753
1139.28	21.6289
1142.17	4.3811
1145.06	5.37939
1147.95	27.7075
1150.85	27.9789
1153.74	5.90643
1156.63	36.7608
1159.53	27.2865
1162.42	28.4149
1165.31	19.9052
1168.2	29.0821
1171.1	32.3192
1173.99	26.478
1176.88	17.8589
1179.77	37.759
1182.67	34.0585
1185.56	26.2594
1188.45	41.3585
1191.35	22.7604
1194.24	17.5209
1197.13	43.2256
1200.02	40.7864
1202.92	33.2698
1205.81	20.0757
1208.7	10.2765
1211.59	25.7138
1214.49	29.3975
1217.38	30.8519
1220.27	39.0019
1223.16	25.4525
1226.06	18.2966
1228.95	23.1324
1231.84	43.0613
1234.73	24.6166
1237.63	8.9314
1240.52	29.3774
1243.41	23.4075
1246.31	33.2993
1249.2	29.0713
1252.09	23.9848
1254.98	33.0219
1257.88	27.3717
1260.77	32.6035
1263.66	47.5867
1266.56	17.0874
1269.45	14.6128
1272.34	3.26514
