Measurement: Raman, 780 nm, unoriented, Raman Data Processed
Mineral: Clinohumite
Rruff sample: R050183
Ideal chemistry: Mg_9_(SiO_4_)_4_F_2_
Locality: Pein Pyit, Mogok, Burma
Source: Marcus Origlieri
Description: Yellowish-green blebs in calcite, associated with red spinel, R050184
Measured chemistry: (Mg_8.85_Ti_0.07_[box]_0.07_Fe_0.01_)_Σ=9_(Si_1.00_O_4_)_4_(F_1.00_(OH)_1.00_)_Σ=2_
Raman shift (cm-1)	intensity
130.571	0
133.464	0.236267
136.356	2.33052
139.249	2.73042
142.142	2.19739
145.034	1.3548
147.927	2.19322
150.82	0.635025
153.713	0.714325
156.605	0.061523
159.498	0.428879
162.391	0.523972
165.283	1.15253
168.176	1.08931
171.069	1.78134
173.961	0.954529
176.854	3.26222
179.747	4.87012
182.639	8.18297
185.532	12.7242
188.425	9.28
191.318	3.74442
194.21	7.74667
197.103	12.043
199.996	19.7176
202.888	22.9681
205.781	19.8755
208.674	17.266
211.566	11.6861
214.459	3.77061
217.352	2.83626
220.245	7.02959
223.137	10.8986
226.03	16.0376
228.923	21.9417
231.815	26.9362
234.708	26.1034
237.601	23.1116
240.494	20.5222
243.386	16.3982
246.279	14.7592
249.172	15.4156
252.064	16.6635
254.957	19.469
257.85	15.7598
260.742	11.5477
263.635	9.17789
266.528	6.64981
269.42	3.25497
272.313	2.20338
275.206	0.031494
278.099	1.42029
280.991	2.89204
283.884	4.54782
286.777	3.18956
289.669	3.62158
292.562	4.70432
295.455	4.05376
298.347	7.73256
301.24	10.8375
304.133	18.781
307.026	28.2263
309.918	29.3326
312.811	33.3461
315.704	40.0387
318.596	53.1636
321.489	52.2948
324.382	44.4247
327.274	32.6726
330.167	25.931
333.06	20.8158
335.952	17.8924
338.845	13.0952
341.738	10.6033
344.631	8.61346
347.523	6.81218
350.416	5.78487
353.309	4.31314
356.201	2.86827
359.094	1.0538
361.987	0.405319
364.88	0.028152
367.772	1.46165
370.665	0.557526
373.558	0.918274
376.45	0.829681
379.343	1.63019
382.236	2.32129
385.128	3.77252
388.021	5.75888
390.914	6.55722
393.807	6.51714
396.699	4.27481
399.592	4.91275
402.485	4.09247
405.377	5.56865
408.27	8.62312
411.163	9.34509
414.055	14.0545
416.948	14.3784
419.841	15.9501
422.733	18.4063
425.626	20.1432
428.519	23.6101
431.412	24.753
434.304	21.3238
437.197	16.393
440.09	15.5375
442.982	13.2365
445.875	15.0139
448.768	11.2969
451.661	9.16835
454.553	8.23183
457.446	5.13191
460.339	4.1772
463.231	4.36894
466.124	2.26434
469.017	2.72563
471.909	4.08073
474.802	2.41144
477.695	2.91647
480.587	1.53203
483.48	2.31482
486.373	0.638077
489.266	0.312775
492.158	0.163879
495.051	0.00737
497.944	1.3764
500.836	0.729172
503.729	0.355301
506.622	0.523483
509.514	0.3311
512.407	0.189377
515.3	0.729294
518.193	0.172104
521.085	0.763657
523.978	0.894119
526.871	1.015
529.763	0.78862
532.656	2.0376
535.549	1.95505
538.441	2.92479
541.334	4.26164
544.227	7.62184
547.12	9.75887
550.012	11.8513
552.905	8.35226
555.798	5.85297
558.69	6.0946
561.583	7.15408
564.476	8.86327
567.368	9.19998
570.261	12.4018
573.154	16.0371
576.047	18.1666
578.939	25.875
581.832	33.0879
584.725	39.9465
587.617	49.4976
590.51	66.1327
593.403	85.4126
596.295	108.03
599.188	137.667
602.081	178.781
604.973	226.968
607.866	250.075
610.759	206.263
613.652	130.28
616.544	76.0128
619.437	46.0304
622.33	29.1194
625.222	19.0456
628.115	13.6042
631.008	8.92339
633.9	7.20934
636.793	4.22994
639.686	2.51109
642.579	0.202454
645.471	1.38983
648.364	0.754333
651.257	1.08034
654.149	1.23312
657.042	0.220215
659.935	1.79471
662.827	3.18452
665.72	2.86374
668.613	3.22986
671.506	4.52068
674.398	3.30962
677.291	2.23199
680.184	3.12914
683.076	3.08403
685.969	1.95152
688.862	2.71271
691.755	2.1639
694.647	0.844971
697.54	1.45451
700.433	1.31346
703.325	0.23967
706.218	1.47804
709.111	1.20648
712.003	1.22697
714.896	0.428787
717.789	1.78531
720.682	1.44046
723.574	1.75447
726.467	0.69017
729.36	1.11896
732.252	2.80533
735.145	4.64313
738.038	8.30075
740.93	11.7906
743.823	14.7095
746.716	14.5343
749.609	10.7348
752.501	6.41132
755.394	2.43231
758.287	0.020477
761.179	3.03812
764.072	3.00116
766.965	0.176575
769.857	7.66486
772.75	16.712
775.643	30.4668
778.535	47.1896
781.428	69.7003
784.321	83.9504
787.213	67.622
790.106	35.2258
792.999	16.2291
795.892	10.5309
798.784	13.7744
801.677	25.7569
804.57	42.116
807.462	62.2095
810.355	78.3133
813.248	105.387
816.14	159.088
819.033	227.879
821.926	309.796
824.819	441.645
827.711	630.248
830.604	783.502
833.497	703.969
836.389	555.277
839.282	534.942
842.175	607.419
845.067	658.61
847.96	566.91
850.853	452.479
853.746	429.278
856.638	491.159
859.531	597.548
862.424	540.521
865.316	336.83
868.209	186.878
871.102	110.305
873.995	71.2722
876.887	43.2799
879.78	26.7589
882.673	14.7911
885.565	7.57095
888.458	1.19675
891.351	1.245
894.243	2.40213
897.136	0.502136
900.029	0.952148
902.921	4.69516
905.814	9.6832
908.707	17.4412
911.6	28.9698
914.492	22.006
917.385	7.86517
920.278	1.41461
923.17	1.58795
926.063	1.13474
928.956	1.63184
931.848	1.66989
934.741	1.77878
937.634	2.34271
940.527	0.683044
943.419	3.13635
946.312	6.92096
949.205	12.4593
952.097	24.2958
954.99	38.8984
957.883	56.1352
960.775	82.4905
963.668	118.228
966.561	163.343
969.454	175.977
972.346	114.245
975.239	68.3382
978.132	45.0022
981.024	31.3962
983.917	19.2474
986.81	12.533
989.702	9.60968
992.595	7.84296
995.488	5.65665
998.381	3.72684
1001.27	4.22006
1004.17	2.57477
1007.06	2.26355
1009.95	1.3682
1012.84	1.41849
1015.74	1.66837
1018.63	1.65775
1021.52	2.08359
1024.41	0.208008
1027.31	1.25543
1030.2	2.63535
1033.09	0.904053
1035.99	1.74927
1038.88	1.58698
1041.77	4.39545
1044.66	3.13565
1047.56	2.21936
1050.45	1.46024
1053.34	1.08212
1056.23	1.1304
1059.13	1.80176
1062.02	0.091309
1064.91	0.436188
1067.81	1.52667
1070.7	1.34286
1073.59	0.958405
1076.48	0.061035
1079.38	1.21594
1082.27	0.088409
1085.16	0.342651
1088.05	1.09018
1090.95	1.72324
1093.84	2.04089
1096.73	0.193298
1099.62	0.25592
1102.52	0.067841
1105.41	1.53097
1108.3	0.186493
1111.2	0.662903
1114.09	1.42462
1116.98	1.94476
1119.87	0.318207
1122.77	1.8735
1125.66	2.46997
1128.55	0.829498
1131.44	1.78189
1134.34	1.25931
1137.23	0.76593
1140.12	1.91669
1143.02	2.66525
1145.91	0.875397
1148.8	0.479736
1151.69	1.30191
1154.59	0.897888
1157.48	1.1507
1160.37	0.375977
1163.26	1.56265
1166.16	2.4624
1169.05	1.88641
1171.94	1.69266
1174.84	2.25787
1177.73	0.939026
1180.62	1.67316
1183.51	1.75861
1186.41	2.13046
1189.3	2.46417
1192.19	1.01062
1195.08	0.506317
1197.98	1.73712
1200.87	1.1962
1203.76	0.616516
1206.65	1.62784
1209.55	0.700897
1212.44	1.51657
1215.33	1.54025
1218.23	1.32565
1221.12	1.36221
1224.01	2.65918
1226.9	0.822601
1229.8	0.521667
1232.69	2.74069
1235.58	1.04593
1238.47	1.65427
1241.37	2.11185
1244.26	0.095734
1247.15	4.09302
1250.05	0.896912
1252.94	1.45676
1255.83	0.48053
1258.72	1.78937
1261.62	2.08334
1264.51	1.18152
1267.4	0.659088
