Measurement: Raman, 532 nm, unoriented, Raman Data Processed
Mineral: Clinotyrolite
Rruff sample: R060264
Ideal chemistry: Ca_2_Cu_9_(AsO_4_,SO_4_)_4_(OH,O)_10_10H_2_O
Locality: Lovelock mine, Bolivia, Cottonwood Canyon, Churchill County, Nevada, USA
Source: Michael Scott
Description: Greenish-blue flat bladed crystals in radial aggregates
Raman shift (cm-1)	intensity
90.4922	0
93.867	1.94856
97.2418	4.75145
100.617	9.05788
103.992	9.11041
107.366	10.848
110.741	16.1475
114.116	24.1274
117.491	14.3673
120.865	9.74882
124.24	2.60013
127.615	1.49668
130.99	3.52607
134.365	1.2517
137.74	1.13527
141.114	15.2345
144.489	24.468
147.864	40.1381
151.239	56.3519
154.614	71.6147
157.988	85.1545
161.363	94.5652
164.738	109.564
168.113	114.327
171.488	110.702
174.863	94.2589
178.237	85.8807
181.612	76.7418
184.987	77.3046
188.362	72.7977
191.737	61.6191
195.112	53.6742
198.486	48.8592
201.861	44.9257
205.236	34.4214
208.611	29.7458
211.986	24.7304
215.36	18.7353
218.735	13.997
222.11	12.8377
225.485	9.21654
228.86	6.44545
232.234	5.70517
235.609	6.46928
238.984	6.84347
242.359	7.91203
245.734	5.44078
249.109	3.66695
252.483	10.3627
255.858	10.3348
259.233	12.862
262.608	17.7565
265.983	19.9339
269.358	17.0332
272.732	16.5394
276.107	13.7934
279.482	7.73567
282.857	7.91623
286.232	6.18037
289.606	1.02226
292.981	4.67259
296.356	5.04358
299.731	5.0905
303.106	4.30093
306.481	3.46211
309.855	4.52101
313.23	5.12512
316.605	2.37547
319.98	5.0583
323.355	4.33697
326.729	6.3649
330.104	9.59306
333.479	7.8072
336.854	3.22124
340.229	1.53053
343.603	1.49513
346.978	4.58549
350.353	4.94284
353.728	0.248199
357.103	1.61017
360.478	5.99237
363.852	4.89485
367.227	2.30734
370.602	0.792542
373.977	0.473679
377.352	0.489075
380.726	6.70358
384.101	7.04257
387.476	9.49931
390.851	10.4065
394.226	12.4607
397.601	17.456
400.975	19.6155
404.35	26.1974
407.725	30.9073
411.1	35.1915
414.475	46.2277
417.849	54.1305
421.224	49.2546
424.599	33.6967
427.974	18.6144
431.349	10.6851
434.724	7.74127
438.098	11.948
441.473	14.4487
444.848	18.0793
448.223	23.9025
451.598	37.0092
454.972	44.772
458.347	54.3707
461.722	53.4622
465.097	50.3315
468.472	39.4232
471.846	34.7537
475.221	27.3438
478.596	20.6198
481.971	16.1297
485.346	14.9373
488.721	16.0914
492.095	18.8913
495.47	23.682
498.845	30.3848
502.22	42.6119
505.595	48.4603
508.969	55.1922
512.344	54.533
515.719	55.85
519.094	50.8268
522.469	36.9444
525.844	29.9623
529.218	20.7821
532.593	14.6146
535.968	10.1553
539.343	7.43825
542.718	4.83449
546.092	3.54226
549.467	2.40472
552.842	0.953224
556.217	2.17599
559.592	1.31731
562.967	0.627167
566.341	0.106567
569.716	0.710541
573.091	0.554588
576.466	0.969475
579.841	0.487823
583.216	1.35493
586.59	2.5078
589.965	4.09709
593.34	3.7975
596.715	6.46125
600.09	5.64365
603.464	6.91203
606.839	5.09016
610.214	6.61064
613.589	7.05883
616.964	5.57484
620.338	9.35133
623.713	8.53212
627.088	4.26737
630.463	7.57423
633.838	7.24046
637.212	5.56644
640.587	7.07545
643.962	6.00879
647.337	7.28982
650.712	6.15902
654.087	8.93328
657.461	7.25528
660.836	5.07673
664.211	6.33411
667.586	5.36241
670.961	6.80968
674.335	5.38342
677.71	5.1868
681.085	6.412
684.46	7.58147
687.835	2.63796
691.21	2.95753
694.584	2.96648
697.959	4.64835
701.334	1.24541
704.709	2.64045
708.084	2.92281
711.458	0.552551
714.833	3.99045
718.208	3.03548
721.583	2.295
724.958	1.04282
728.332	2.41774
731.707	2.00511
735.082	4.04343
738.457	0.877678
741.832	0.00135
745.207	0.208847
748.581	0.128372
751.956	2.81982
755.331	1.86012
758.706	1.97252
762.081	0.505508
765.456	4.77675
768.83	14.3046
772.205	22.5734
775.58	34.4892
778.955	57.1595
782.33	91.2459
785.704	135.167
789.079	176.556
792.454	205.272
795.829	213.405
799.204	199.216
802.578	179.474
805.953	148.957
809.328	124.309
812.703	111.255
816.078	113.221
819.453	120.635
822.827	136.227
826.202	165.588
829.577	207.688
832.952	267.064
836.327	316.277
839.702	324.454
843.076	313.193
846.451	322.18
849.826	304.325
853.201	260.658
856.576	213.859
859.95	167.422
863.325	116.945
866.7	75.1539
870.075	47.1071
873.45	32.0234
876.824	21.424
880.199	13.8097
883.574	6.89669
886.949	4.2785
890.324	2.54484
893.698	1.28906
897.073	1.56567
900.448	2.64532
903.823	2.86695
907.198	0.53476
910.573	1.56034
913.947	2.479
917.322	0.632164
920.697	1.332
924.072	5.00531
927.447	7.74186
930.822	7.04283
934.196	6.93717
937.571	7.21092
940.946	6.75656
944.321	7.68375
947.696	9.15374
951.07	8.25058
954.445	8.61976
957.82	7.8585
961.195	6.59635
964.57	4.34432
967.944	4.10915
971.319	4.37383
974.694	1.68544
978.069	1.12253
981.444	0.016754
984.819	0.812378
988.193	2.50333
991.568	1.75916
994.943	1.86573
998.318	2.14231
1001.69	3.272
1005.07	2.08353
1008.44	3.8764
1011.82	1.25837
1015.19	4.57473
1018.57	7.2788
1021.94	7.76839
1025.32	9.90265
1028.69	11.1705
1032.07	11.2964
1035.44	8.50954
1038.82	6.28922
1042.19	7.60499
1045.57	5.58889
1048.94	2.55852
1052.32	2.82436
1055.69	5.46323
1059.07	4.37914
1062.44	2.22087
1065.81	1.19858
1069.19	0.686653
1072.56	1.03866
1075.94	2.41779
1079.31	3.53228
1082.69	3.17434
1086.06	3.13882
1089.44	0.589485
1092.81	3.24565
1096.19	3.51963
1099.56	2.94888
1102.94	0.918907
1106.31	1.37708
1109.69	1.7577
1113.06	0.410202
1116.44	1.9309
1119.81	1.01368
1123.19	0.758423
1126.56	2.2963
1129.94	0.395943
1133.31	3.12761
1136.68	0.990143
1140.06	1.18661
1143.43	0.69751
1146.81	1.93329
1150.18	1.33379
1153.56	0.98037
1156.93	0.075188
1160.31	0.578423
1163.68	2.74696
1167.06	2.49158
1170.43	1.37582
1173.81	2.15497
1177.18	1.99149
1180.56	4.0306
1183.93	1.44741
1187.31	3.00729
1190.68	2.46075
1194.06	1.15546
1197.43	0.532211
1200.81	2.76375
1204.18	1.8979
1207.56	3.07427
1210.93	2.73408
1214.31	1.54651
1217.68	3.6804
1221.06	1.16603
1224.43	1.51939
1227.81	2.00098
1231.18	0.713844
1234.56	2.45879
1237.93	2.37663
1241.31	1.77881
1244.68	2.10431
1248.05	2.71718
1251.43	2.18604
1254.8	1.86265
1258.18	3.34431
1261.55	1.57346
1264.93	1.60059
1268.3	1.57538
1271.68	2.28474
1275.05	1.20961
1278.43	4.03519
1281.8	3.26012
1285.18	0.814789
1288.55	1.80434
1291.93	2.39889
1295.3	1.75803
1298.68	4.07148
1302.05	0.393959
