Measurement: Raman, 532 nm, unoriented, Raman Data Processed
Mineral: Clinochalcomenite
Rruff sample: R110125
Ideal chemistry: CuSe^4+^O_3_2H_2_O
Locality: El Dragon mine, Potosi, Bolivia
Source: Royal Ontario Museum
Description: Aggregates of pale greenish-blue crystals associated with darker blue chalcomenite
Measured chemistry: (Cu_0.99_Ni_0.02_Co_0.01_Fe_0.01_)_Σ=1.03_Se^+4^_1.11_O_3_·1.77H_2_O ; Note: water content determined by difference
Raman shift (cm-1)	intensity
176.309	0
179.202	8.97186
182.094	26.0598
184.987	40.7248
187.88	59.4448
190.773	87.0339
193.665	96.0005
196.558	65.8513
199.451	29.1425
202.343	10.5127
205.236	3.6644
208.129	0.790222
211.021	1.97494
213.914	1.76187
216.807	3.5126
219.699	7.94543
222.592	12.6774
225.485	11.285
228.377	3.50415
231.27	0.596039
234.163	3.15421
237.056	1.73321
239.948	4.06857
242.841	9.75885
245.734	22.2401
248.626	35.2587
251.519	49.8332
254.412	63.9008
257.305	82.2032
260.197	92.0139
263.09	88.9811
265.983	78.7757
268.875	70.2424
271.768	63.9394
274.661	58.6737
277.553	48.2565
280.446	37.1773
283.339	23.891
286.232	13.0945
289.124	7.34161
292.017	7.03998
294.91	4.52873
297.802	6.39255
300.695	8.27702
303.588	12.0579
306.481	15.1512
309.373	17.5815
312.266	21.1046
315.159	21.9836
318.051	17.3755
320.944	11.6892
323.837	4.57541
326.729	0.901077
329.622	0.340439
332.515	3.12711
335.408	0.093369
338.3	2.43869
341.193	4.24551
344.086	7.11929
346.978	12.0839
349.871	19.4607
352.764	35.7679
355.656	53.0527
358.549	71.5049
361.442	89.2369
364.334	115.987
367.227	146.235
370.12	159.23
373.012	140.553
375.905	97.5711
378.798	61.8551
381.691	39.2713
384.583	28.1292
387.476	21.8565
390.369	14.7704
393.261	9.29497
396.154	6.38966
399.047	5.69163
401.94	4.1302
404.832	3.01891
407.725	3.52779
410.618	2.30846
413.51	0.895081
416.403	1.20921
419.296	0.569855
422.188	0.623245
425.081	0.295578
427.974	0.480637
430.866	0.772232
433.759	0.48201
436.652	0.406372
439.545	2.33347
442.437	4.93144
445.33	7.68639
448.223	7.73242
451.115	7.53017
454.008	5.46771
456.901	5.78395
459.793	5.31261
462.686	6.63901
465.579	9.58739
468.472	14.6212
471.364	20.6099
474.257	29.6866
477.15	38.5409
480.042	47.4941
482.935	61.9621
485.828	69.815
488.721	62.8063
491.613	49.2302
494.506	36.3566
497.399	31.4676
500.291	32.3846
503.184	37.4708
506.077	47.0228
508.969	58.6747
511.862	77.2528
514.755	92.0012
517.648	101.433
520.54	95.9413
523.433	70.6482
526.326	45.6939
529.218	29.1207
532.111	17.469
535.004	8.3385
537.896	4.52182
540.789	3.51193
543.682	0.552979
546.575	0.036102
549.467	0.794434
552.36	1.43247
555.253	0.51535
558.145	0.372192
561.038	1.88187
563.931	4.89618
566.823	5.0311
569.716	6.91498
572.609	7.39069
575.502	11.5496
578.394	12.1751
581.287	10.5187
584.18	9.33011
587.072	9.07886
589.965	6.8122
592.858	6.97304
595.75	5.15253
598.643	2.64586
601.536	2.41238
604.428	1.45329
607.321	1.49739
610.214	2.18222
613.107	2.50308
615.999	1.98425
618.892	2.24805
621.785	2.18173
624.677	0.151398
627.57	0.071625
630.463	0.212219
633.356	0.116821
636.248	0.157776
639.141	1.51679
642.034	0.728577
644.926	1.01388
647.819	0.329254
650.712	0.77652
653.604	0.666504
656.497	0.661804
659.39	0.097473
662.283	0.859924
665.175	2.0311
668.068	3.10986
670.961	3.45361
673.853	5.52139
676.746	7.42667
679.639	11.7852
682.531	15.9177
685.424	22.178
688.317	27.0379
691.21	37.4086
694.102	50.326
696.995	64.5145
699.888	80.0312
702.78	95.6093
705.673	111.453
708.566	122.964
711.458	125.194
714.351	120.395
717.244	113.266
720.136	112.812
723.029	118.247
725.922	130.069
728.815	142.237
731.707	152.659
734.6	156.825
737.493	140.546
740.385	109.712
743.278	73.9834
746.171	45.1606
749.063	26.8714
751.956	14.9879
754.849	8.44025
757.742	1.55362
760.634	0.582306
763.527	2.69046
766.42	0.173889
769.312	2.67371
772.205	4.92468
775.098	10.6056
777.99	19.8618
780.883	31.0545
783.776	42.233
786.669	58.194
789.561	76.5662
792.454	101.563
795.347	131.129
798.239	178.212
801.132	243.71
804.025	350.522
806.918	481.59
809.81	634.351
812.703	807.555
815.596	956.43
818.488	955.414
821.381	747.814
824.274	497.733
827.166	325.282
830.059	218.894
832.952	146.702
835.845	99.2276
838.737	69.4577
841.63	48.9109
844.523	35.7317
847.415	25.6011
850.308	16.8455
853.201	10.5335
856.093	8.88901
858.986	5.72006
861.879	2.76218
864.771	1.48083
867.664	0.705078
870.557	1.00583
873.45	0.088043
876.342	0.451752
879.235	0.570129
882.128	1.26526
885.02	0.64267
887.913	1.74179
890.806	2.05878
893.698	3.21573
896.591	2.59827
899.484	3.78058
902.377	5.68634
905.269	7.21457
908.162	7.53345
911.055	6.75382
913.947	8.07788
916.84	6.99243
919.733	6.01306
922.625	5.75082
925.518	6.09293
928.411	5.55679
931.304	3.34885
934.196	1.77585
937.089	0.91629
939.982	1.92584
942.875	0.838226
945.767	0.953583
948.66	0.570892
951.553	1.69519
954.445	0.713745
957.338	2.41516
960.231	1.45248
963.123	1.63278
966.016	1.76468
968.909	4.37878
971.802	1.17239
974.694	1.49194
977.587	2.54688
980.48	2.83832
983.372	2.6738
986.265	1.57462
989.158	2.64917
992.05	2.20908
994.943	4.14471
997.836	2.9584
1000.73	2.06152
1003.62	2.31451
1006.51	2.41611
1009.41	0.477203
1012.3	1.74567
1015.19	0.169098
1018.09	1.36523
1020.98	1.51443
1023.87	1.37463
1026.76	0.296448
1029.66	1.55704
1032.55	2.00977
1035.44	2.31882
1038.33	0.930145
1041.23	0.75528
1044.12	1.01788
1047.01	0.351746
1049.9	0.273468
1052.8	0.101074
1055.69	1.79568
1058.58	3.37924
1061.47	1.83646
1064.37	1.36807
1067.26	0.88089
1070.15	0.364319
1073.05	0.234131
1075.94	1.33502
1078.83	1.13757
1081.72	2.89859
1084.62	0.488007
1087.51	1.28726
1090.4	1.54678
1093.3	0.796051
1096.19	1.85165
1099.08	3.04074
1101.97	1.89768
1104.87	1.38275
1107.76	1.80051
1110.65	1.61771
1113.54	1.724
1116.44	0.335785
1119.33	1.85199
1122.22	1.70929
1125.12	1.77032
1128.01	0.460175
1130.9	0.734497
1133.79	0.195953
1136.68	1.33231
1139.58	3.92065
1142.47	2.18601
1145.36	0.942261
1148.26	0.536377
1151.15	1.9353
1154.04	2.71475
1156.93	1.06491
1159.83	3.08285
1162.72	0.570892
1165.61	2.09994
1168.51	1.57971
1171.4	1.36987
1174.29	2.1073
1177.18	2.34695
1180.08	0.680511
1182.97	1.47162
1185.86	2.69135
1188.75	3.4274
1191.65	1.00577
1194.54	2.92313
1197.43	2.02295
1200.33	1.46393
1203.22	2.06775
1206.11	1.30875
1209	3.20606
1211.9	4.78189
1214.79	2.7215
1217.68	2.00903
1220.57	0.173615
1223.47	1.72122
1226.36	2.72693
1229.25	2.13687
1232.14	0.853699
1235.04	1.6012
1237.93	0.709473
1240.82	1.25781
1243.71	1.88159
1246.61	2.56122
1249.5	1.24384
1252.39	2.04962
1255.29	2.17361
1258.18	2.25977
1261.07	2.43662
1263.96	2.98581
1266.86	2.965
1269.75	2.16275
1272.64	1.71612
1275.54	2.23999
1278.43	2.75479
1281.32	1.15006
1284.21	1.41949
1287.11	3.33005
1290	2.39044
1292.89	2.7496
1295.78	1.67752
1298.68	1.65036
1301.57	0.714783
