Measurement: Raman, 785 nm, unoriented, Raman Data Processed
Mineral: Clinoptilolite-Ca
Rruff sample: R061098
Ideal chemistry: Ca_3_(Si_30_Al_6_)O_72_20H_2_O
Locality: Fish Creek Quarry, Clackamas River, Estacada, Clackamas County, Oregon, USA
Source: Michael Scott
Description: Druse of colorless, clear tabular somewhat pseudohexagonal crystals in vug
Measured chemistry: (Ca_1.90_K_1.85_Na_0.23_Mg_0.11_)_Σ=4.09_(Si_29.90_Al_6.10_)_Σ=36_O_72_·21.90H_2_O; H_2_O estimated by difference
Raman shift (cm-1)	intensity
128.861	0
131.754	455.256
134.647	308.867
137.539	31.832
140.432	198.72
143.325	913.909
146.217	1758.66
149.11	1698.37
152.003	1410.37
154.895	1250.11
157.788	1116.07
160.681	1047.71
163.573	1011.24
166.466	806.568
169.359	682.174
172.252	582.907
175.144	533.603
178.037	485.042
180.93	488.679
183.822	429.364
186.715	393.928
189.608	332.232
192.5	278.845
195.393	299.883
198.286	288.587
201.179	208.561
204.071	175.826
206.964	149.21
209.857	77.9807
212.749	69.6112
215.642	90.4921
218.535	25.2886
221.428	3.05884
224.32	5.28198
227.213	9.65857
230.106	27.9812
232.998	17.5454
235.891	8.31775
238.784	54.4733
241.676	39.953
244.569	69.8826
247.462	98.3877
250.355	132.68
253.247	150.867
256.14	161.057
259.033	226.391
261.925	244.221
264.818	188.267
267.711	165.088
270.603	138.248
273.496	127.512
276.389	115.917
279.281	111.397
282.174	110.846
285.067	81.7922
287.96	79.6276
290.852	66.1726
293.745	41.3321
296.638	37.3364
299.53	0.812256
302.423	24.6619
305.316	4.95984
308.209	15.1235
311.101	20.7678
313.994	18.6157
316.887	9.06445
319.779	21.1104
322.672	60.845
325.565	5.70581
328.457	1.76758
331.35	28.6372
334.243	13.4785
337.135	27.9495
340.028	43.6467
342.921	79.3384
345.813	19.5906
348.706	23.8667
351.599	65.8044
354.492	87.8423
357.384	121.043
360.277	177.146
363.17	207.745
366.062	231.904
368.955	322.931
371.848	345.088
374.74	445.983
377.633	546.489
380.526	623.096
383.419	752.289
386.311	856.942
389.204	1067.16
392.097	1301.68
394.989	1525.98
397.882	1828.35
400.775	2077.98
403.668	2234.99
406.56	2293.49
409.453	2173.65
412.346	1890.72
415.238	1585.44
418.131	1291.75
421.024	973.813
423.916	718.538
426.809	454.904
429.702	312.051
432.594	191.029
435.487	109.87
438.38	35.1207
441.273	3.22022
444.165	13.0471
447.058	23.2405
449.951	15.9042
452.843	102.6
455.736	202.189
458.629	311.47
461.522	471.039
464.414	627.789
467.307	743.754
470.2	905.381
473.092	1071.37
475.985	1243.72
478.878	1406.22
481.77	1382.78
484.663	1210.21
487.556	890.093
490.449	673.226
493.341	367.173
496.234	223.036
499.127	157.42
502.019	100.772
504.912	73.0603
507.805	4.71179
510.697	8.29602
513.59	26.7763
516.483	23.8929
519.375	2.72461
522.268	21.3628
525.161	23.2809
528.054	20.0275
530.946	15.8999
533.839	6.78918
536.732	47.4772
539.624	12.0942
542.517	10.0046
545.41	47.5344
548.303	37.1831
551.195	44.5344
554.088	84.9154
556.981	65.4976
559.873	38.137
562.766	77.1257
565.659	11.8651
568.551	12.4136
571.444	64.3583
574.337	63.8471
577.23	23.7758
580.122	41.4446
583.015	39.5975
585.908	55.5118
588.8	60.4944
591.693	75.014
594.586	52.7493
597.478	85.9737
600.371	90.189
603.264	104.043
606.156	140.042
609.049	161.782
611.942	213.57
614.835	242.679
617.727	252.964
620.62	279.57
623.513	250.245
626.405	198.425
629.298	188.347
632.191	152.468
635.083	110.38
637.976	58.8728
640.869	30.4617
643.761	54.6792
646.654	27.7841
649.547	32.7726
652.44	30.4636
655.332	13.634
658.225	10.7794
661.118	33.4962
664.01	11.5132
666.903	14.0985
669.796	25.4728
672.688	8.0199
675.581	18.8269
678.474	18.6627
681.367	8.0813
684.259	2.84619
687.152	23.2119
690.045	1.0791
692.937	10.954
695.83	0.720337
698.723	43.9114
701.615	30.9147
704.508	24.3567
707.401	25.9816
710.294	20.7843
713.186	14.4239
716.079	50.5601
718.972	33.8854
721.864	34.9741
724.757	39.1304
727.65	5.40979
730.543	5.06726
733.435	45.8131
736.328	55.4501
739.221	35.1897
742.113	90.9095
745.006	28.7451
747.899	23.7916
750.791	23.2715
753.684	68.2872
756.577	3.50366
759.47	48.665
762.362	44.9355
765.255	33.959
768.148	43.8169
771.04	67.7914
773.933	106.189
776.826	73.0873
779.718	90.3137
782.611	95.321
785.504	97.2602
788.396	107.184
791.289	77.7126
794.182	103.63
797.075	73.1146
799.967	68.7417
802.86	112.493
805.753	54.1686
808.645	74.8326
811.538	44.5301
814.431	41.4755
817.323	62.9387
820.216	19.2671
823.109	40.8086
826.002	28.7402
828.894	28.1948
831.787	40.957
834.68	12.7496
837.572	6.17932
840.465	25.037
843.358	38.9535
846.25	10.0658
849.143	62.9032
852.036	0.982178
854.929	19.856
857.821	33.1232
860.714	33.6981
863.607	1.44763
866.499	38.7784
869.392	12.9405
872.285	50.135
875.177	41.3035
878.07	33.5841
880.963	25.0297
883.856	34.4665
886.748	60.307
889.641	24.2176
892.534	44.557
895.426	8.52637
898.319	52.6882
901.212	25.7312
904.104	27.9435
906.997	60.8113
909.89	34.7427
912.783	11.9492
915.675	68.2206
918.568	44.3295
921.461	18.189
924.353	22.9628
927.246	13.947
930.139	68.9204
933.031	11.0543
935.924	21.1283
938.817	37.1232
941.71	34.5117
944.602	40.5268
947.495	38.8366
950.388	22.0934
953.28	81.9204
956.173	60.762
959.066	37.5556
961.958	3.2497
964.851	55.0904
967.744	46.1528
970.636	4.51697
973.529	52.4701
976.422	5.59418
979.315	25.98
982.207	30.4326
985.1	56.7828
987.993	37.7888
990.885	1.57019
993.778	25.9768
996.671	3.89105
999.563	31.0409
1002.46	45.1029
1005.35	24.4921
1008.24	50.1625
1011.13	66.22
1014.03	57.7448
1016.92	47.6587
1019.81	28.2488
1022.71	11.1935
1025.6	41.7352
1028.49	23.1134
1031.38	62.2623
1034.28	70.9214
1037.17	37.5008
1040.06	32.0931
1042.95	82.2852
1045.85	15.5873
1048.74	27.0673
1051.63	17.3241
1054.53	49.1342
1057.42	10.0336
1060.31	26.3357
1063.2	30.6027
1066.1	6.03686
1068.99	51.7683
1071.88	6.31653
1074.77	43.4967
1077.67	2.17859
1080.56	4.46191
1083.45	1.45752
1086.34	18.2743
1089.24	3.70532
1092.13	18.0817
1095.02	30.6584
1097.91	39.718
1100.81	58.8047
1103.7	61.8353
1106.59	56.4707
1109.49	56.2762
1112.38	64.0762
1115.27	82.5335
1118.16	73.5588
1121.06	79.2289
1123.95	91.7819
1126.84	107.028
1129.73	84.6213
1132.63	92.0023
1135.52	48.5723
1138.41	56.4492
1141.31	85.4305
1144.2	96.1735
1147.09	89.8369
1149.98	102.883
1152.88	61.3093
1155.77	115.771
1158.66	118.408
1161.56	139.047
1164.45	77.9149
1167.34	92.3033
1170.23	68.3464
1173.12	71.0402
1176.02	109.47
1178.91	78.8584
1181.8	101.767
1184.7	91.3788
1187.59	89.3917
1190.48	99.0083
1193.37	36.0457
1196.27	83.4188
1199.16	62.2357
1202.05	42.0346
1204.94	21.6362
1207.84	23.3613
1210.73	32.4325
1213.62	16.4751
1216.52	1.07855
1219.41	2.60315
1222.3	8.9577
1225.19	1.07007
1228.09	12.7199
1230.98	28.6193
1233.87	15.555
1236.77	7.28033
1239.66	29.6951
1242.55	44.7945
1245.44	15.9027
1248.34	34.0329
1251.23	19.829
1254.12	5.29443
1257.01	26.8775
1259.91	6.15228
