Measurement: Raman, 532 nm, unoriented, Raman Data Processed
Mineral: Clinoenstatite
Rruff sample: R070276
Ideal chemistry: MgSiO_3_
Locality: Synthetic, at 15 GPa and 1600 C by Juergen Konzett
Source: Juergen Konzett
Description: Colorless grains associated with stishovite
Measured chemistry: Mg_1.00_Si_1.00_O_3_ ; trace to minor amounts of Na
Raman shift (cm-1)	intensity
140.502	0
143.876	442.755
147.251	12.0288
150.626	249.635
154.001	965.82
157.376	1853.29
160.75	726.785
164.125	554.858
167.5	587.507
170.875	744.444
174.25	668.054
177.625	689.165
180.999	786.839
184.374	1011.73
187.749	1424.16
191.124	1918.18
194.499	2710.95
197.874	1741.42
201.248	1298.46
204.623	1380.55
207.998	936.443
211.373	460.329
214.748	360.985
218.122	333.61
221.497	411.623
224.872	500.577
228.247	895.492
231.622	1490.39
234.996	2139.89
238.371	2845.45
241.746	4816.87
245.121	5482.41
248.496	2192.3
251.871	653.122
255.245	216.412
258.62	158.508
261.995	63.8721
265.37	29.9863
268.745	7.19531
272.12	62.7178
275.494	113.061
278.869	100.237
282.244	15.21
285.619	29.585
288.994	35.1065
292.368	42.294
295.743	23.126
299.118	303.827
302.493	290.305
305.868	34.4355
309.243	62.8643
312.617	24.8428
315.992	44.2656
319.367	376.208
322.742	787.258
326.117	1173.36
329.491	1859.35
332.866	3558.91
336.241	6279.84
339.616	9679.26
342.991	10138.4
346.365	7325.11
349.74	4169.95
353.115	2084.4
356.49	1319.89
359.865	1047.24
363.24	1288.17
366.614	1945.58
369.989	2657.46
373.364	1531.5
376.739	550.346
380.114	279.7
383.488	421.265
386.863	791.687
390.238	453.925
393.613	447.973
396.988	737.816
400.363	986.275
403.737	1466.23
407.112	1155.96
410.487	941.121
413.862	1293.23
417.237	1413.12
420.611	921.544
423.986	746.636
427.361	1138.33
430.736	1600.2
434.111	1103.18
437.486	160.767
440.86	39.3213
444.235	5.71484
447.61	209.512
450.985	575.617
454.36	587.351
457.735	40.3584
461.109	55.9639
464.484	56.7432
467.859	8.74219
471.234	62.667
474.609	136.512
477.983	213.215
481.358	274.924
484.733	169.092
488.108	110.71
491.483	140.428
494.858	156.848
498.232	106.358
501.607	116.441
504.982	131.322
508.357	236.376
511.732	459.279
515.106	717.745
518.481	835.268
521.856	903.206
525.231	745.952
528.606	525.031
531.981	338.496
535.355	189.47
538.73	148.133
542.105	263.856
545.48	245.92
548.855	93.8584
552.229	126.588
555.604	167.379
558.979	2.52344
562.354	19.1289
565.729	78.3652
569.104	9.81543
572.478	147.469
575.853	285.872
579.228	564.108
582.603	693.399
585.978	563.274
589.352	361.634
592.727	382.866
596.102	404.415
599.477	354.62
602.852	228.732
606.227	231.922
609.601	211.548
612.976	167.834
616.351	189.536
619.726	111.343
623.101	138.446
626.476	79.9766
629.85	120.153
633.225	293.242
636.6	383.024
639.975	544.975
643.35	580.211
646.724	920.671
650.099	1547.53
653.474	2562.12
656.849	4005.97
660.224	6114.99
663.598	8139.44
666.973	7729.95
670.348	5688.89
673.723	4725
677.098	5003.35
680.472	6669.48
683.847	8851.5
687.222	10706.1
690.597	9193.7
693.972	5490.38
697.347	2791.25
700.721	1542.3
704.096	835.454
707.471	546.585
710.846	317.235
714.221	155.286
717.596	32.4404
720.97	65.9189
724.345	23.9268
727.72	45.9717
731.095	36.2793
734.47	67.4873
737.844	68.3144
741.219	8.39453
744.594	121.565
747.969	273.124
751.344	389.625
754.719	556.335
758.093	287.592
761.468	229.608
764.843	46.3643
768.218	80.1846
771.593	126.582
774.967	12.5283
778.342	0.240234
781.717	5.6416
785.092	148.112
788.467	74.0234
791.842	136.971
795.216	89.2695
798.591	221.315
801.966	258.293
805.341	282.291
808.716	417.947
812.091	391.539
815.465	403.059
818.84	305.232
822.215	269.16
825.59	187.023
828.965	354.121
832.339	231.658
835.714	346.551
839.089	523.262
842.464	912.152
845.839	1270.8
849.213	1380.53
852.588	1016.86
855.963	948.16
859.338	771.033
862.713	529.977
866.087	271.221
869.462	162.332
872.837	81
876.212	4.24219
879.587	24.4902
882.962	17.0195
886.337	11.832
889.711	88.9844
893.086	120.356
896.461	43.5586
899.836	74.3769
903.211	117.264
906.585	63.6836
909.96	78.9922
913.335	185.168
916.71	351.787
920.085	415.871
923.46	719.479
926.834	960.213
930.209	884.158
933.584	779.758
936.959	713.338
940.334	505.371
943.708	275.883
947.083	95.3809
950.458	53.9297
953.833	29.2188
957.208	4.43164
960.582	29.8984
963.957	2.03125
967.332	64.5859
970.707	42.875
974.082	45.7188
977.457	161.348
980.831	236.965
984.206	171.961
987.581	356.35
990.956	606.406
994.331	977.201
997.705	1642.75
1001.08	2752.86
1004.46	4930.15
1007.83	8097.25
1011.21	10984.6
1014.58	10230.6
1017.95	6954.57
1021.33	5752.67
1024.7	6542.79
1028.08	8358.48
1031.45	9728.11
1034.83	9081
1038.2	7520.05
1041.58	5200.86
1044.95	3246.02
1048.33	1912.66
1051.7	1169.81
1055.08	1141.82
1058.45	1151.7
1061.83	764.648
1065.2	377.315
1068.58	71.4492
1071.95	96.4883
1075.33	89.1172
1078.7	59.2832
1082.08	11.1641
1085.45	12.0879
1088.83	33.373
1092.2	54.4082
1095.58	114.594
1098.95	158.685
1102.33	275.207
1105.7	334.775
1109.07	494.123
1112.45	458.594
1115.82	363.721
1119.2	255.586
1122.57	130.975
1125.95	146.482
1129.32	107.654
1132.7	31.9746
1136.07	43.3535
1139.45	46.8691
1142.82	118.217
1146.2	80.3438
1149.57	274.256
1152.95	125.816
1156.32	306.365
1159.7	196.697
1163.07	202.918
1166.45	67.6504
1169.82	126.144
1173.2	160.992
1176.57	198.478
1179.95	194.754
1183.32	279.857
1186.69	202.846
1190.07	185.004
1193.44	75.8633
1196.82	1.91406
1200.19	103.221
1203.57	82.3027
1206.94	47.3672
1210.32	77.1387
1213.69	66.5
1217.07	52.9688
1220.44	157.934
1223.82	141.34
1227.19	121.432
1230.57	308.266
1233.94	258.965
1237.32	62.6895
1240.69	119.398
1244.07	119.797
1247.44	105.211
1250.82	132.688
1254.19	146.418
1257.57	165.484
1260.94	180.533
1264.32	132.598
1267.69	137.242
1271.07	123.629
1274.44	172.871
1277.82	100.59
1281.19	146.924
1284.57	61.0898
1287.94	63.916
1291.32	171.283
1294.69	96.1289
1298.06	163.984
1301.44	145.57
1304.81	51.9785
1308.19	0.023438
