Measurement: Raman, 780 nm, unoriented, Raman Data Processed
Mineral: Clinoptilolite-K
Rruff sample: R110201
Ideal chemistry: K_6_(Si_30_Al_6_)O_72_20H_2_O
Locality: Conejo Volcanics, Agoura, Santa Monica Mountains, Los Angeles Co., California, USA
Source: Donald Doell
Description: Colorless tabular crystals associated with ferrierite-K R110200
Raman shift (cm-1)	intensity
229.489	0
232.382	0.058258
235.274	3.75946
238.167	10.3677
241.06	11.6944
243.952	19.6244
246.845	27.28
249.738	30.6483
252.631	33.6686
255.523	35.981
258.416	37.9376
261.309	37.6922
264.201	36.3707
267.094	38.2103
269.987	36.7388
272.879	36.8932
275.772	34.2328
278.665	35.1077
281.558	32.099
284.45	24.0687
287.343	15.0382
290.236	14.7361
293.128	8.15738
296.021	5.78894
298.914	1.53284
301.806	0.287842
304.699	2.10318
307.592	2.40808
310.485	2.66705
313.377	2.11356
316.27	0.72522
319.163	1.62164
322.055	4.69373
324.948	5.95737
327.841	3.30048
330.733	2.67355
333.626	3.34998
336.519	4.46304
339.411	3.15646
342.304	8.37726
345.197	3.38687
348.09	0.202667
350.982	1.68613
353.875	0.6315
356.768	5.75116
359.66	9.78052
362.553	15.2096
365.446	21.3454
368.339	28.5038
371.231	38.6454
374.124	49.1194
377.017	61.7758
379.909	77.539
382.802	94.2353
385.695	119.526
388.587	152.105
391.48	187.779
394.373	232.711
397.265	279.117
400.158	326.56
403.051	358.226
405.944	372.738
408.836	355.49
411.729	319.753
414.622	269.747
417.514	217.771
420.407	166.394
423.3	123.319
426.192	84.0061
429.085	55.2594
431.978	33.7482
434.871	16.7092
437.763	8.65314
440.656	3.95526
443.549	3.52609
446.441	0.377533
449.334	5.13934
452.227	13.6166
455.12	26.2762
458.012	43.946
460.905	68.7853
463.798	91.7992
466.69	111.697
469.583	132.146
472.476	156.789
475.368	191.191
478.261	214.237
481.154	221.61
484.046	196.619
486.939	152.174
489.832	109.517
492.725	69.8196
495.617	41.9637
498.51	23.3759
501.403	13.778
504.295	4.48355
507.188	2.46545
510.081	0.442322
512.973	0.403656
515.866	0.716522
518.759	1.45004
521.652	3.29965
524.544	2.29642
527.437	1.01111
530.33	1.42279
533.222	0.302429
536.115	1.49915
539.008	2.35449
541.9	3.52759
544.793	3.71225
547.686	3.42737
550.579	6.98224
553.471	9.69263
556.364	8.68716
559.257	9.68945
562.149	9.99991
565.042	11.4723
567.935	13.536
570.827	13.092
573.72	11.4026
576.613	15.8117
579.506	14.4736
582.398	16.8716
585.291	15.6991
588.184	16.6474
591.077	18.2166
593.969	17.9769
596.862	20.3398
599.755	19.5656
602.647	24.9252
605.54	30.367
608.433	32.9742
611.325	41.9938
614.218	50.7672
617.111	55.3726
620.004	60.1717
622.896	59.8007
625.789	54.7502
628.682	46.28
631.574	38.1408
634.467	30.4886
637.36	24.6618
640.252	20.2896
643.145	15.5267
646.038	12.0234
648.931	11.007
651.823	9.32849
654.716	4.89639
657.609	4.23206
660.501	4.46915
663.394	0.177582
666.287	1.90509
669.179	0.124023
672.072	1.85501
674.965	0.261719
677.857	0.14267
680.75	0.233307
683.643	1.52151
686.536	1.23067
689.428	1.10284
692.321	1.08434
695.214	0.941422
698.106	0.2267
700.999	0.354752
703.892	0.935791
706.784	1.04623
709.677	4.10741
712.57	5.35915
715.463	5.18683
718.355	2.87083
721.248	4.18402
724.141	3.97003
727.033	2.06873
729.926	1.21291
732.819	0.757751
735.712	0.7146
738.604	0.382721
741.497	1.70636
744.39	1.62042
747.282	0.896454
750.175	0.114731
753.068	1.22844
755.96	4.36966
758.853	4.21997
761.746	5.02475
764.639	5.88957
767.531	8.67488
770.424	11.1607
773.317	14.9541
776.209	14.9143
779.102	21.2295
781.995	23.7865
784.887	27.7373
787.78	28.3537
790.673	31.4326
793.566	31.8168
796.458	32.5215
799.351	29.2889
802.244	25.0882
805.136	21.3386
808.029	19.6433
810.922	17.5046
813.814	15.316
816.707	15.4008
819.6	18.7288
822.492	15.4648
825.385	11.0181
828.278	5.20778
831.171	3.88101
834.063	1.59703
836.956	0.613419
839.849	1.7897
842.741	1.2813
845.634	0.756821
848.527	0.50943
851.419	0.342773
854.312	2.22675
857.205	4.04367
860.098	2.75279
862.99	2.47623
865.883	4.90634
868.776	2.12071
871.668	1.03744
874.561	0.128448
877.454	1.37854
880.346	2.07425
883.239	0.740829
886.132	2.41092
889.025	0.774063
891.917	1.76591
894.81	1.37766
897.703	1.34178
900.595	0.738632
903.488	1.41875
906.381	0.753113
909.274	1.29279
912.166	0.594559
915.059	0.37236
917.952	2.15904
920.844	2.68283
923.737	1.95093
926.63	1.10332
929.522	1.79439
932.415	2.20924
935.308	1.7751
938.201	2.57425
941.093	1.71896
943.986	0.937256
946.879	2.37599
949.771	0.637619
952.664	2.36566
955.557	2.31239
958.449	4.37195
961.342	2.6158
964.235	1.82866
967.128	2.22536
970.02	1.59523
972.913	0.490891
975.806	0.785385
978.698	0.475647
981.591	0.331085
984.484	0.161438
987.376	3.2581
990.269	1.74815
993.162	0.265015
996.054	0.099289
998.947	1.37436
1001.84	1.20505
1004.73	2.88915
1007.62	2.2444
1010.52	1.91272
1013.41	3.09018
1016.3	1.39308
1019.2	3.00282
1022.09	3.23651
1024.98	2.59425
1027.87	0.745087
1030.77	5.4259
1033.66	1.80481
1036.55	3.69521
1039.44	2.09914
1042.34	1.32777
1045.23	2.93053
1048.12	2.6171
1051.02	2.64372
1053.91	4.33669
1056.8	2.2802
1059.69	1.15819
1062.59	2.18288
1065.48	0.563995
1068.37	1.49791
1071.27	0.430756
1074.16	0.731537
1077.05	0.832504
1079.94	0.567093
1082.84	8.43382
1085.73	27.7431
1088.62	31.7016
1091.51	24.73
1094.41	26.6227
1097.3	17.3863
1100.19	11.642
1103.08	6.09929
1105.98	3.257
1108.87	4.2563
1111.76	5.36029
1114.65	5.32187
1117.55	4.96661
1120.44	6.02263
1123.33	7.90039
1126.23	7.89688
1129.12	7.91028
1132.01	8.67494
1134.9	10.8568
1137.8	11.187
1140.69	9.03642
1143.58	12.1796
1146.47	13.822
1149.37	14.3671
1152.26	16.7129
1155.15	13.9359
1158.05	16.4422
1160.94	15.3864
1163.83	16.3444
1166.72	15.2069
1169.62	14.6986
1172.51	15.4965
1175.4	15.0175
1178.3	14.0365
1181.19	14.8938
1184.08	14.4588
1186.97	11.5812
1189.87	12.1209
1192.76	9.23718
1195.65	8.95651
1198.54	7.74522
1201.44	5.34091
1204.33	5.60701
1207.22	2.35046
1210.11	1.66824
1213.01	2.48886
1215.9	1.21851
1218.79	0.533524
1221.68	1.11488
1224.58	0.356491
1227.47	0.773209
1230.36	1.37093
1233.26	1.9832
1236.15	3.02019
1239.04	0.80777
1241.93	0.126465
1244.83	2.5927
1247.72	2.57355
1250.61	0.917908
1253.51	2.67029
1256.4	2.48264
1259.29	5.05959
1262.18	2.67116
1265.08	1.70091
1267.97	3.04688
1270.86	0.994186
1273.75	1.65913
1276.65	1.62784
1279.54	3.38649
1282.43	1.21767
1285.33	0.640335
