Measurement: Raman, 785 nm, unoriented, Raman Data Processed
Mineral: Clintonite
Rruff sample: R070229
Ideal chemistry: CaAlMg_2_(SiAl_3_)O_10_(OH)_2_
Locality: Amity, Warwick Township, Orange County, New York, USA
Source: Michael Scott
Description: Brown micaceous plates in dolomite. Polytype 1M, variety called seybertite
Measured chemistry: (Ca_0.98_Na_0.02_)_Σ=1_(Al_0.68_Mg_0.20_Fe^3+^_0.11_Ti_0.01_)_Σ=1_Mg_2.00_(Si_1.34_Al_2.66_)_Σ=4_O_10_((OH)_1.87_O_0.13_)_Σ=2_; OH estimated by charge balance
Raman shift (cm-1)	intensity
195.748	0
198.64	44.6891
201.533	109.623
204.426	212.15
207.318	200.368
210.211	100.955
213.104	10.0629
215.996	5.96106
218.889	65.8242
221.782	137.303
224.674	255.047
227.567	475.161
230.46	618.588
233.353	643.511
236.245	507.172
239.138	356.871
242.031	217.016
244.923	162.449
247.816	56.0524
250.709	11.8728
253.601	4.30339
256.494	5.30526
259.387	9.83145
262.28	17.9594
265.172	50.3859
268.065	84.3925
270.958	137.892
273.85	185.859
276.743	203.477
279.636	151.302
282.529	122.108
285.421	73.1306
288.314	51.2811
291.207	42.0685
294.099	5.70032
296.992	42.1741
299.885	97.0488
302.777	190.621
305.67	225.195
308.563	311.649
311.455	338.408
314.348	304.729
317.241	293.236
320.134	266.644
323.026	311.192
325.919	338.331
328.812	348.261
331.704	356.229
334.597	434.289
337.49	487.926
340.382	567.679
343.275	580.473
346.168	632.994
349.061	594.078
351.953	540.723
354.846	469.443
357.739	419.156
360.631	369.864
363.524	283.08
366.417	226.33
369.31	179.29
372.202	154.896
375.095	206.467
377.988	217.677
380.88	270.32
383.773	304.347
386.666	300.932
389.558	300.217
392.451	334.298
395.344	362.359
398.236	333.499
401.129	334.346
404.022	325.352
406.915	264.412
409.807	201.248
412.7	157.309
415.593	176.679
418.485	170.357
421.378	183.012
424.271	108.568
427.163	79.7841
430.056	84.6532
432.949	93.2802
435.842	60.7616
438.734	26.6786
441.627	8.62451
444.52	7.52441
447.412	29.8245
450.305	27.0563
453.198	6.51416
456.091	6.91382
458.983	36.6968
461.876	7.84485
464.769	9.21741
467.661	28.0518
470.554	13.8185
473.447	40.5877
476.339	6.39581
479.232	12.8379
482.125	2.30188
485.017	13.7018
487.91	14.1282
490.803	25.0216
493.696	69.5534
496.588	68.9706
499.481	104.914
502.374	111.74
505.266	91.6899
508.159	81.6213
511.052	98.5321
513.944	101.281
516.837	108.115
519.73	86.4642
522.623	70.9454
525.515	93.7083
528.408	104.465
531.301	122.329
534.193	128.277
537.086	157.57
539.979	149.936
542.871	165.43
545.764	156.097
548.657	164.52
551.55	151.606
554.442	142.869
557.335	143.162
560.228	80.8024
563.12	74.887
566.013	51.4824
568.906	40.7137
571.798	50.856
574.691	18.2744
577.584	10.0433
580.477	30.2945
583.369	6.54742
586.262	1.67737
589.155	1.46094
592.047	1.95721
594.94	7.46698
597.833	3.9389
600.726	1.37
603.618	27.9595
606.511	25.1492
609.404	31.2063
612.296	33.0306
615.189	42.9267
618.082	47.8155
620.974	57.4581
623.867	101.506
626.76	133.213
629.653	161.734
632.545	197.109
635.438	283.615
638.331	391.168
641.223	559.718
644.116	800.149
647.009	1092.05
649.901	1451.8
652.794	1899.98
655.687	2153.1
658.58	2099.34
661.472	1669.54
664.365	1124.08
667.258	762.73
670.15	495.569
673.043	379.232
675.936	287.413
678.828	236.633
681.721	203.826
684.614	155.643
687.506	133.715
690.399	96.0588
693.292	80.1505
696.185	73.5306
699.077	72.619
701.97	60.457
704.863	48.4542
707.755	65.8071
710.648	43.2784
713.541	33.6362
716.433	10.291
719.326	26.4979
722.219	36.3987
725.112	3.42041
728.004	3.99957
730.897	3.25555
733.79	0.841431
736.682	5.38794
739.575	13.9129
742.468	5.96783
745.361	5.82019
748.253	4.13763
751.146	0.130432
754.039	0.961243
756.931	11.339
759.824	0.472839
762.717	20.1878
765.609	8.80725
768.502	14.4604
771.395	11.775
774.288	37.3875
777.18	41.3745
780.073	22.1577
782.966	43.8508
785.858	67.8448
788.751	63.3086
791.644	76.5047
794.536	90.5829
797.429	83.9297
800.322	104.987
803.215	99.6494
806.107	78.7996
809	112.376
811.893	85.7774
814.785	118.741
817.678	130.732
820.571	113.788
823.463	82.1145
826.356	109.919
829.249	113.557
832.141	136.461
835.034	109.743
837.927	94.4849
840.82	94.2869
843.712	58.5254
846.605	73.4315
849.498	53.6191
852.39	18.3286
855.283	24.8323
858.176	16.2601
861.068	24.5494
863.961	11.8434
866.854	4.41907
869.747	58.8222
872.639	87.6065
875.532	171.684
878.425	283.03
881.317	386.192
884.21	509.501
887.103	642.194
889.995	760.096
892.888	809.036
895.781	754.608
898.674	656.354
901.566	535.806
904.459	415.866
907.352	333.646
910.244	262.642
913.137	229.915
916.03	158.758
918.923	131.646
921.815	110.105
924.708	94.1844
927.601	76.0509
930.493	68.2065
933.386	52.7696
936.279	38.9691
939.171	44.045
942.064	24.6004
944.957	16.6372
947.85	12.0359
950.742	23.6504
953.635	8.58716
956.528	5.96118
959.42	1.63196
962.313	2.26031
965.206	9.05579
968.098	11.5808
970.991	3.9704
973.884	19.8264
976.777	33.4866
979.669	38.4205
982.562	44.6473
985.455	54.1498
988.347	63.3232
991.24	56.5542
994.133	43.057
997.025	57.0966
999.918	29.9207
1002.81	37.5862
1005.7	31.1349
1008.6	3.09705
1011.49	4.88428
1014.38	6.94049
1017.27	12.9144
1020.17	5.37653
1023.06	9.55713
1025.95	14.6356
1028.85	6.57648
1031.74	9.36639
1034.63	2.27161
1037.52	29.912
1040.42	5.41681
1043.31	11.2331
1046.2	4.49322
1049.09	13.1094
1051.99	13.4031
1054.88	21.2626
1057.77	16.0169
1060.66	37.5359
1063.56	18.5393
1066.45	31.575
1069.34	12.8643
1072.24	11.7342
1075.13	12.051
1078.02	33.0077
1080.91	20.0302
1083.81	28.8135
1086.7	20.5499
1089.59	17.9957
1092.48	3.75238
1095.38	3.07809
1098.27	24.0474
1101.16	1.89856
1104.06	1.20688
1106.95	8.88629
1109.84	13.5646
1112.73	25.0279
1115.63	32.8144
1118.52	36.1623
1121.41	20.7812
1124.3	13.3193
1127.2	12.9469
1130.09	24.2491
1132.98	18.7655
1135.88	17.7205
1138.77	16.5534
1141.66	19.5575
1144.55	7.31674
1147.45	17.4211
1150.34	6.50409
1153.23	22.6679
1156.12	15.4955
1159.02	24.6538
1161.91	12.2658
1164.8	2.32468
1167.69	20.507
1170.59	27.693
1173.48	26.785
1176.37	6.7775
1179.27	1.90982
1182.16	4.75748
1185.05	6.89358
1187.94	0.978638
1190.84	27.7369
1193.73	9.90469
1196.62	12.4596
1199.51	14.2427
1202.41	26.6186
1205.3	17.2613
1208.19	30.9699
1211.09	9.88794
1213.98	14.2916
1216.87	17.2149
1219.76	0.791962
1222.66	21.6971
1225.55	39.6267
1228.44	24.7327
1231.33	24.5283
1234.23	9.77768
1237.12	5.83191
1240.01	4.28113
1242.9	0.843201
