Measurement: Raman, 532 nm, unoriented, Raman Data Processed
Mineral: Clinocervantite
Rruff sample: R070385
Ideal chemistry: Sb^3+^Sb^5+^O_4_
Locality: Le Cetine di Cotorniano Mine (Le Cetine Mine; Cetine Mine; Rosia), Chiusdino, Siena Province, Tuscany, Italy
Source: Michael Scott
Description: White acicular crystals in vug associated with valentinite, tripuhyite, R070383, and rosiaite, R070384. Co-type specimen
Measured chemistry: Sb^3+^_1.00_(Sb^5+^_0.99_As^5+^_0.01_)_Î£=1_O_4_; Sb^5+^ and Sb^3+^ splitted by charge balance
Raman shift (cm-1)	intensity
111.353	0
114.728	53.1455
118.103	86.3093
121.478	12.8636
124.853	25.568
128.228	18.4288
131.602	315.943
134.977	772.327
138.352	1281.93
141.727	2128.23
145.102	3520.75
148.476	4220.03
151.851	2363.26
155.226	941.145
158.601	543.002
161.976	400.111
165.351	439.581
168.725	592.229
172.1	979.086
175.475	2077.62
178.85	4400.95
182.225	6599.39
185.6	10176.9
188.974	17334.5
192.349	28534.8
195.724	24813.6
199.099	23726.6
202.474	34518.5
205.848	52729.8
209.223	63303
212.598	26687.9
215.973	9318.59
219.348	4515.54
222.722	2605.68
226.097	1600.18
229.472	999.141
232.847	650.777
236.222	469.544
239.597	389.263
242.971	408.672
246.346	489.529
249.721	628.466
253.096	587.341
256.471	593.379
259.846	31.317
263.22	82.1121
266.595	0.003906
269.97	87.1636
273.345	285.728
276.719	428.837
280.094	367.358
283.469	37.4893
286.844	71.8191
290.219	16.3674
293.594	3.50189
296.969	42.2861
300.343	24.0189
303.718	66.9614
307.093	116.584
310.468	197.258
313.843	326.021
317.217	319.435
320.592	277.6
323.967	104.109
327.342	18.869
330.717	23.6188
334.091	0.696655
337.466	11.9478
340.841	3.83697
344.216	10.2315
347.591	34.002
350.966	30.8273
354.34	17.8131
357.715	18.182
361.09	33.5734
364.465	109.083
367.84	185.023
371.214	297.023
374.589	431.323
377.964	682.268
381.339	1216.06
384.714	2568.92
388.089	5414.6
391.463	9447.98
394.838	15335.7
398.213	21153.9
401.588	23311.2
404.963	12228.1
408.337	5228.32
411.712	2820.38
415.087	1809.44
418.462	1340.18
421.837	1202.18
425.212	1172.89
428.586	1322.05
431.961	1619.15
435.336	1841.08
438.711	1806.23
442.086	1447.79
445.461	1429.92
448.835	1899.86
452.21	2650.57
455.585	3598.94
458.96	4578.12
462.335	5276.57
465.709	4475.58
469.084	2619.55
472.459	1380.53
475.834	834.202
479.209	567.719
482.584	439.048
485.958	259.115
489.333	109.45
492.708	38.7547
496.083	6.22021
499.458	4.18506
502.832	8.0434
506.207	12.1699
509.582	230.494
512.957	46.4581
516.332	56.3532
519.707	60.9219
523.081	2.51215
526.456	6.43304
529.831	27.5527
533.206	43.5128
536.581	47.9481
539.955	7.14618
543.33	5.28803
546.705	40.2609
550.08	74.5756
553.455	81.4898
556.83	111.041
560.204	119.911
563.579	128.602
566.954	103.071
570.329	67.7252
573.704	79.1189
577.078	46.0891
580.453	56.8328
583.828	48.7954
587.203	56.3338
590.578	124.292
593.952	166.603
597.327	239.409
600.702	295.216
604.077	373.452
607.452	368.393
610.827	388.532
614.201	552.794
617.576	807.837
620.951	1101.72
624.326	1430.32
627.701	1720.06
631.076	1694.22
634.45	1298.55
637.825	948.988
641.2	749.533
644.575	875.237
647.95	1335.61
651.324	1778.05
654.699	2386.6
658.074	2509.43
661.449	1313.02
664.824	648.2
668.198	321.809
671.573	139.346
674.948	102.136
678.323	23.5679
681.698	4.32233
685.073	12.9813
688.447	3.87329
691.822	9.68909
695.197	6.20142
698.572	8.55597
701.947	32.6899
705.322	43.0654
708.696	41.8507
712.071	77.7029
715.446	88.5023
718.821	123.143
722.196	154.217
725.57	215.426
728.945	327.293
732.32	356.27
735.695	412.889
739.07	367.155
742.444	293.197
745.819	187.977
749.194	113.215
752.569	67.173
755.944	53.4658
759.319	23.5624
762.693	2.1037
766.068	8.21582
769.443	4.29535
772.818	4.83319
776.193	2.1535
779.567	30.9631
782.942	20.1775
786.317	60.494
789.692	94.2849
793.067	114.339
796.442	180.147
799.816	293.164
803.191	431.786
806.566	641.259
809.941	828.632
813.316	932.823
816.691	778.73
820.065	516.108
823.44	316.203
826.815	192.439
830.19	125.04
833.565	85.9623
836.939	44.6304
840.314	45.1462
843.689	45.9286
847.064	0.918579
850.439	30.0445
853.813	18.2536
857.188	34.6638
860.563	31.4532
863.938	38.7303
867.313	30.2054
870.688	48.5601
874.062	16.4592
877.437	31.7438
880.812	22.2235
884.187	1.72601
887.562	37.9313
890.937	12.6082
894.311	4.29565
897.686	12.5899
901.061	2.58765
904.436	43.1401
907.811	7.24322
911.185	21.744
914.56	16.4221
917.935	27.2268
921.31	54.7222
924.685	32.4389
928.059	20.069
931.434	35.2608
934.809	31.0383
938.184	1.3753
941.559	53.361
944.934	18.271
948.308	39.5123
951.683	39.3896
955.058	16.4281
958.433	22.9255
961.808	20.5642
965.183	16.6459
968.557	42.9103
971.932	29.0699
975.307	28.8643
978.682	21.7451
982.057	25.4489
985.431	2.84979
988.806	17.9802
992.181	30.2479
995.556	10.4765
998.931	24.818
1002.3	30.4506
1005.68	31.6201
1009.05	37.1392
1012.43	67.996
1015.8	68.2228
1019.18	76.2111
1022.55	64.2618
1025.93	58.7782
1029.3	33.9986
1032.68	61.3408
1036.05	60.7585
1039.43	51.9419
1042.8	49.2785
1046.18	43.2994
1049.55	57.6863
1052.93	38.9857
1056.3	69.9825
1059.68	60.4788
1063.05	31.2807
1066.43	30.7385
1069.8	36.4921
1073.18	26.7186
1076.55	5.86114
1079.93	25.558
1083.3	7.16504
1086.68	52.8475
1090.05	16.0596
1093.43	10.9186
1096.8	10.0878
1100.17	5.89807
1103.55	7.7124
1106.92	31.4561
1110.3	12.6563
1113.67	21.6005
1117.05	17.3502
1120.42	7.83661
1123.8	25.7252
1127.17	28.3019
1130.55	31.927
1133.92	21.9459
1137.3	34.8725
1140.67	15.0508
1144.05	3.33441
1147.42	34.5641
1150.8	21.6222
1154.17	3.95264
1157.55	5.23389
1160.92	16.7702
1164.3	4.08179
1167.67	31.1235
1171.05	18.941
1174.42	14.3301
1177.8	19.8684
1181.17	25.9131
1184.55	41.6036
1187.92	18.795
1191.3	12.8243
1194.67	50.0787
1198.05	26.4736
1201.42	21.6702
1204.8	26.6791
1208.17	25.0871
1211.54	9.69446
1214.92	15.7858
1218.29	29.9354
1221.67	41.8924
1225.04	16.8444
1228.42	24.6708
1231.79	42.9542
1235.17	31.6423
1238.54	15.8332
1241.92	22.4395
1245.29	21.6671
1248.67	19.819
1252.04	23.7004
1255.42	33.7266
1258.79	22.647
1262.17	27.1233
1265.54	8.75708
1268.92	41.6389
1272.29	18.5453
1275.67	30.54
1279.04	31.6967
1282.41	43.087
1285.79	12.5595
1289.16	12.4972
1292.54	30.0572
1295.91	23.7495
1299.29	5.3537
1302.66	37.23
1306.04	38.9534
1309.41	18.8747
