Measurement: Raman, 532 nm, unoriented, Raman Data Processed
Mineral: Clinoptilolite-Na
Rruff sample: R061099
Ideal chemistry: Na_6_(Si_30_Al_6_)O_72_20H_2_O
Locality: Richardson Ranch, Madras, Jefferson County, Oregon, USA
Source: Michael Scott
Description: Red-brown to salmon, somewhat coffin shaped tabular crystals in a fragmented geode
Measured chemistry: (Na_2.70_Ca_1.46_K_0.89_Fe_0.08_Mg_0.02_)_Σ=5.15_(Si_29.29_Al_6.71_)O_72_·18.51H_2_O
Raman shift (cm-1)	intensity
166.402	0
169.294	55.6387
172.187	88.8862
175.08	67.8643
177.972	39.3027
180.865	49.0603
183.758	35.3611
186.65	77.012
189.543	118.441
192.436	96.249
195.329	114.022
198.221	39.8926
201.114	22.8313
204.007	38.8494
206.899	30.187
209.792	1.01367
212.685	11.709
215.577	55.114
218.47	10.1228
221.363	36.3457
224.256	132.746
227.148	171.181
230.041	168.352
232.934	296.596
235.826	377.907
238.719	545.484
241.612	658.755
244.505	784.167
247.397	872.819
250.29	944.964
253.183	978.48
256.075	943.459
258.968	890.144
261.861	773.555
264.753	672.313
267.646	574.7
270.539	481.138
273.431	386.824
276.324	337.612
279.217	251.773
282.11	155.564
285.002	119.533
287.895	55.074
290.788	38.1575
293.68	17.7927
296.573	13.4678
299.466	54.5049
302.358	19.8061
305.251	17.8459
308.144	41.8782
311.036	14.4221
313.929	34.9578
316.822	25.781
319.715	19.4468
322.607	20.519
325.5	50.8054
328.393	29.5994
331.285	7.83545
334.178	10.7107
337.071	58.9534
339.964	136.363
342.856	93.9111
345.749	202.293
348.642	273.191
351.534	335.707
354.427	470.236
357.32	569.339
360.212	784.659
363.105	941.811
365.998	1099.18
368.89	1318.42
371.783	1521.07
374.676	1755.82
377.569	2038.89
380.461	2360.82
383.354	2855.23
386.247	3482.91
389.139	4212.59
392.032	5092.53
394.925	6041.96
397.817	6885.79
400.71	7515.77
403.603	7692.04
406.495	7445.36
409.388	6708.22
412.281	5706.82
415.174	4716.98
418.066	3770.44
420.959	2848.9
423.852	2095.41
426.744	1363.69
429.637	842.722
432.53	514.882
435.423	262.967
438.315	76.9563
441.208	12.4065
444.101	27.3962
446.993	13.7893
449.886	141.727
452.779	391.283
455.671	738.078
458.564	1110.69
461.457	1540.91
464.349	1920.31
467.242	2200.44
470.135	2489.16
473.028	2904.7
475.92	3517.06
478.813	3979.32
481.706	4165.11
484.598	3799.06
487.491	3037.21
490.384	2214.19
493.276	1460.84
496.169	873.461
499.062	489.825
501.955	339.949
504.847	163.846
507.74	44.7805
510.633	5.82104
513.525	32.885
516.418	56.2097
519.311	33.4209
522.203	26.0967
525.096	28.5259
527.989	15.3271
530.882	21.8044
533.774	16.6489
536.667	25.0102
539.56	20.8113
542.452	61.4751
545.345	57.78
548.238	99.9548
551.13	138.651
554.023	145.694
556.916	168.356
559.808	167.582
562.701	199.027
565.594	231.698
568.487	229.765
571.379	242.541
574.272	297.331
577.165	269.791
580.057	319.288
582.95	368.904
585.843	380.849
588.736	387.992
591.628	425.248
594.521	498.933
597.414	627.813
600.306	719.771
603.199	870.467
606.092	1033.23
608.984	1168.5
611.877	1320.81
614.77	1370.54
617.663	1313.27
620.555	1239.96
623.448	1049.38
626.341	915.763
629.233	731.252
632.126	607.14
635.019	447.085
637.911	305.386
640.804	256.887
643.697	181.65
646.59	113.308
649.482	126.585
652.375	119.969
655.268	71.5885
658.16	43.3756
661.053	28.1976
663.946	5.19751
666.838	31.7612
669.731	1.00574
672.624	18.6716
675.516	13.0554
678.409	23.8051
681.302	21.2299
684.195	1.51758
687.087	0.748779
689.98	1.01074
692.873	7.90552
695.765	8.78918
698.658	39.848
701.551	8.54907
704.443	15.4476
707.336	39.8683
710.229	5.25232
713.121	40.8946
716.014	26.5719
718.907	26.1251
721.8	7.61353
724.692	3.84827
727.585	34.4294
730.478	15.0543
733.37	15.2407
736.263	16.3915
739.156	5.8009
742.048	30.2926
744.941	41.1072
747.834	109.939
750.727	103.059
753.619	88.5646
756.512	133.679
759.405	173.38
762.297	241.342
765.19	260.399
768.083	340.938
770.976	379.981
773.868	407.135
776.761	493.269
779.654	534.797
782.546	567.942
785.439	572.056
788.332	593.384
791.224	559.615
794.117	566.35
797.01	498.636
799.903	427.891
802.795	425.947
805.688	359.979
808.581	359.711
811.473	401.781
814.366	478.44
817.259	474.972
820.151	549.58
823.044	475.925
825.937	350.628
828.83	246.546
831.722	143.098
834.615	72.6874
837.508	46.0061
840.4	21.3852
843.293	43.2859
846.186	13.0059
849.078	6.6189
851.971	5.59534
854.864	18.6422
857.756	24.6898
860.649	35.4512
863.542	12.1002
866.434	38.6664
869.327	27.1017
872.22	32.1307
875.113	21.3169
878.005	25.1012
880.898	1.24475
883.791	14.4397
886.683	27.416
889.576	85.135
892.469	33.1097
895.361	20.9551
898.254	5.56775
901.147	30.3328
904.04	11.9048
906.932	4.12598
909.825	11.2167
912.718	38.8794
915.61	31.7788
918.503	27.1991
921.396	8.54895
924.288	35.1073
927.181	9.65845
930.074	38.8029
932.967	34.5631
935.859	55.2429
938.752	44.0764
941.645	84.8232
944.537	106.004
947.43	42.885
950.323	109.352
953.216	115.771
956.108	61.1199
959.001	90.072
961.894	106.11
964.786	80.5647
967.679	85.4528
970.572	109.494
973.464	102.24
976.357	74.4661
979.25	52.0212
982.143	92.2236
985.035	37.4373
987.928	46.7424
990.821	34.5278
993.713	49.5662
996.606	33.0566
999.499	17.7734
1002.39	3.74146
1005.28	12.8616
1008.18	9.7478
1011.07	27.676
1013.96	14.7866
1016.86	24.4226
1019.75	24.2607
1022.64	47.7573
1025.53	78.7402
1028.43	85.864
1031.32	98.0938
1034.21	133.611
1037.1	92.0679
1040	141.033
1042.89	154.765
1045.78	143.64
1048.67	154.726
1051.57	102.729
1054.46	107.159
1057.35	97.3281
1060.24	60.7046
1063.14	57.5532
1066.03	83.6946
1068.92	0.454346
1071.82	5.41479
1074.71	7.42627
1077.6	13.0493
1080.49	21.8635
1083.39	28.7541
1086.28	56.6538
1089.17	126.151
1092.07	105.377
1094.96	171.453
1097.85	192.819
1100.74	222.744
1103.64	258.869
1106.53	259.509
1109.42	306.299
1112.31	342.322
1115.21	349.743
1118.1	365.262
1120.99	372.961
1123.88	410.599
1126.78	420.248
1129.67	426.18
1132.56	445.921
1135.45	435.474
1138.35	466.328
1141.24	497.982
1144.13	509.82
1147.03	515.168
1149.92	491.852
1152.81	523.359
1155.7	481.574
1158.6	490.257
1161.49	468.678
1164.38	478.833
1167.28	466.812
1170.17	425.956
1173.06	387.958
1175.95	381.473
1178.85	360.202
1181.74	319.176
1184.63	254.792
1187.52	269.252
1190.42	218.648
1193.31	186.974
1196.2	113.469
1199.1	143.99
1201.99	92.7578
1204.88	66.6728
1207.77	44.4951
1210.67	43.6462
1213.56	39.4605
1216.45	5.85669
1219.34	14.6096
1222.24	2.76709
1225.13	3.48755
1228.02	6.75098
1230.91	26.0561
1233.81	14.0185
1236.7	15.8506
1239.59	2.2489
1242.48	3.06909
1245.38	62.818
1248.27	75.4133
1251.16	89.1493
1254.06	77.593
1256.95	67.8919
1259.84	81.6118
1262.73	93.2797
1265.63	42.6184
1268.52	70.4651
1271.41	28.1094
1274.31	12.7742
1277.2	28.9912
1280.09	24.1877
1282.98	36.5305
