Measurement: Raman, 532 nm, unoriented, Raman Data Processed
Mineral: Clinoatacamite
Rruff sample: R100198
Ideal chemistry: Cu^2+^_2_Cl(OH)_3_
Locality: La Vendida mine, Caracoles, Sierra Gorda District, Tocopilla Province, Antofagasta Region, Chile
Source: Bob Jenkins
Description: Lighter green thin tabular crystals forming v-twins perched on darker green blocky atacamite, associated with black paratacamite. Twinned by 120 deg rotation around [2 0 1]
Measured chemistry: (Cu_1.95_Ni_0.02_Co_0.01_)Cl_1.04_(OH)_3_
Raman shift (cm-1)	intensity
180.709	0
183.602	2.12358
186.494	0.975922
189.387	1.50674
192.28	1.76106
195.173	2.91017
198.065	2.86465
200.958	5.65967
203.851	3.21347
206.743	3.96903
209.636	4.10377
212.529	2.43544
215.421	2.68377
218.314	2.70908
221.207	2.08633
224.1	1.80837
226.992	0.569298
229.885	2.24609
232.778	0.221291
235.67	0.162418
238.563	4.51027
241.456	0.486824
244.348	0.990372
247.241	1.93458
250.134	0.267071
253.026	1.64606
255.919	3.89196
258.812	2.95903
261.705	3.82898
264.597	3.77966
267.49	4.71851
270.383	4.54002
273.276	3.90036
276.168	4.92077
279.061	3.5429
281.954	4.49812
284.846	3.76979
287.739	1.99192
290.632	1.93632
293.524	0.401241
296.417	0.027805
299.31	0.561604
302.202	0.663929
305.095	0.696709
307.988	0.587719
310.881	1.78177
313.773	1.27283
316.666	0.760906
319.559	2.89297
322.451	3.16439
325.344	3.68686
328.237	3.93185
331.13	5.33147
334.022	7.21241
336.915	7.63931
339.808	11.9789
342.7	14.1889
345.593	18.3562
348.486	24.2878
351.378	26.0767
354.271	36.744
357.164	45.9273
360.057	55.009
362.949	62.1001
365.842	62.5366
368.735	57.5525
371.627	46.1374
374.52	31.613
377.413	20.8694
380.305	9.98647
383.198	12.5118
386.091	1.74331
388.984	0.351677
391.876	2.89741
394.769	1.22459
397.662	0.596638
400.554	2.23616
403.447	4.19157
406.34	6.97267
409.233	8.45153
412.125	12.0325
415.018	14.4338
417.911	16.9562
420.803	16.3157
423.696	17.6625
426.589	14.6007
429.481	14.494
432.374	14.9891
435.267	15.5322
438.159	17.2486
441.052	20.7456
443.945	22.2881
446.838	21.4474
449.73	18.4936
452.623	13.9428
455.516	8.82513
458.409	4.75523
461.301	1.76917
464.194	0.541798
467.087	0.567234
469.979	0.949871
472.872	0.951561
475.765	1.81838
478.657	4.59832
481.55	8.30687
484.443	11.7152
487.336	18.8321
490.228	25.373
493.121	38.3839
496.014	50.8988
498.906	69.3162
501.799	83.7233
504.692	101.638
507.584	118.081
510.477	128.344
513.37	128.455
516.263	108.005
519.155	83.9478
522.048	59.2072
524.941	39.0181
527.833	26.5795
530.726	16.4286
533.619	10.681
536.511	7.86194
539.404	4.57553
542.297	1.57695
545.19	0.844456
548.082	0.42416
550.975	1.3919
553.868	1.22133
556.76	0.992374
559.653	1.33835
562.546	2.67751
565.438	3.44814
568.331	5.0113
571.224	6.07953
574.117	7.51882
577.009	7.89554
579.902	5.93129
582.795	6.17064
585.687	6.09664
588.58	4.92882
591.473	3.64099
594.365	1.88539
597.258	1.83754
600.151	1.33934
603.044	1.5763
605.936	0.18758
608.829	0.799217
611.722	1.30095
614.614	0.1357
617.507	0.556938
620.4	0.359261
623.293	0.573078
626.185	0.317711
629.078	0.104568
631.971	1.66412
634.863	1.84108
637.756	2.17998
640.649	0.37759
643.542	2.47092
646.434	2.55401
649.327	1.90874
652.22	2.28927
655.112	0.056622
658.005	2.18362
660.898	2.17112
663.79	2.63501
666.683	3.36794
669.576	2.92796
672.468	2.76232
675.361	0.884373
678.254	1.32195
681.147	1.96353
684.039	1.2415
686.932	1.26958
689.825	1.83165
692.717	0.846977
695.61	1.09773
698.503	0.341602
701.396	0.98621
704.288	1.03727
707.181	0.26454
710.074	1.1275
712.966	1.58114
715.859	0.423717
718.752	0.800045
721.644	0.436247
724.537	0.437748
727.43	0.455198
730.323	1.09762
733.215	1.64006
736.108	0.367765
739.001	2.6729
741.893	0.156622
744.786	1.42445
747.679	1.47454
750.572	1.03629
753.464	1.39822
756.357	0.127836
759.25	0.752289
762.142	1.51347
765.035	1.33991
767.928	1.70762
770.82	1.64395
773.713	0.415661
776.606	1.32715
779.499	1.20687
782.391	2.9894
785.284	3.64497
788.177	2.4762
791.069	4.57081
793.962	3.94697
796.855	4.64721
799.747	5.19171
802.64	4.19927
805.533	4.38229
808.426	3.71381
811.318	3.19338
814.211	2.07058
817.104	1.38024
819.996	0.800308
822.889	0.687215
825.782	0.28783
828.674	1.12871
831.567	0.157845
834.46	1.54554
837.353	0.289177
840.245	0.249077
843.138	0.284348
846.031	0.519245
848.923	0.166386
851.816	0.772629
854.709	2.24134
857.601	2.59304
860.494	3.79782
863.387	5.77991
866.28	9.18935
869.172	9.27344
872.065	11.5723
874.958	10.041
877.851	10.0899
880.743	12.3082
883.636	16.8291
886.529	20.8583
889.421	29.3358
892.314	33.8726
895.207	32.4669
898.099	26.9608
900.992	18.7966
903.885	14.7398
906.778	11.619
909.67	10.0009
912.563	11.4001
915.456	13.6199
918.348	19.3815
921.241	24.3014
924.134	31.9015
927.026	38.9577
929.919	40.2291
932.812	36.2309
935.705	30.2601
938.597	23.8898
941.49	20.256
944.383	18.6738
947.275	18.8664
950.168	17.6336
953.061	17.1754
955.953	18.9086
958.846	20.4182
961.739	26.1196
964.631	32.6627
967.524	40.9406
970.417	43.094
973.31	38.923
976.202	34.6499
979.095	26.6141
981.988	19.262
984.88	12.7456
987.773	7.6443
990.666	5.16758
993.559	1.51237
996.451	0.633587
999.344	1.37954
1002.24	0.113503
1005.13	1.20338
1008.02	0.288853
1010.91	0.815685
1013.81	0.125217
1016.7	0.132177
1019.59	0.2831
1022.49	0.612726
1025.38	0.302401
1028.27	0.439379
1031.16	0.094028
1034.06	0.477184
1036.95	0.625519
1039.84	1.63996
1042.73	0.868319
1045.63	0.457359
1048.52	1.26036
1051.41	1.43192
1054.31	1.81761
1057.2	1.45173
1060.09	1.58849
1062.98	1.00725
1065.88	1.99785
1068.77	0.96044
1071.66	1.41785
1074.55	0.557667
1077.45	2.26793
1080.34	2.15922
1083.23	2.33928
1086.12	2.93128
1089.02	1.64519
1091.91	1.40078
1094.8	1.11657
1097.7	0.489056
1100.59	0.884996
1103.48	1.42287
1106.37	1.74222
1109.27	0.539022
1112.16	1.31246
1115.05	1.0228
1117.94	0.977055
1120.84	0.748137
1123.73	0.884911
1126.62	0.679762
1129.52	1.43157
1132.41	0.372877
1135.3	0.686211
1138.19	0.210499
1141.09	0.530994
1143.98	0.11228
1146.87	1.20589
1149.77	0.927214
1152.66	1.24492
1155.55	1.5509
1158.44	0.147125
1161.34	2.14186
1164.23	0.938581
1167.12	0.031191
1170.01	0.264963
1172.91	0.62525
1175.8	1.14535
1178.69	0.473528
1181.58	0.013666
1184.48	0.647858
1187.37	1.11679
1190.26	0.234926
1193.15	0.66029
1196.05	0.750206
1198.94	0.817175
1201.83	1.22241
1204.73	0.16762
1207.62	0.336689
1210.51	0.317766
1213.4	0.515076
1216.3	2.28674
1219.19	1.1118
1222.08	0.215649
1224.97	0.954857
1227.87	0.892061
1230.76	1.12582
1233.65	1.17647
1236.55	1.05938
1239.44	0.42786
1242.33	0.243067
1245.22	1.54729
1248.12	0.529148
1251.01	1.44701
1253.9	1.52068
1256.8	1.65713
1259.69	2.11026
1262.58	0.587547
1265.47	1.28029
1268.37	2.22223
1271.26	1.53531
1274.15	1.16989
1277.04	1.56188
1279.94	1.24959
1282.83	1.80142
1285.72	1.09838
1288.61	0.724855
1291.51	2.94956
1294.4	1.59131
1297.29	0.076834
1300.18	1.15157
