Measurement: Raman, 532 nm, unoriented, Raman Data Processed
Mineral: Clinoptilolite-Ca
Rruff sample: R060662
Ideal chemistry: Ca_3_(Si_30_Al_6_)O_72_20H_2_O
Locality: Succor Creek, Malheur County, Oregon, USA
Source: Michael Scott
Description: Group of colorless platy prismatic crystals
Measured chemistry: (Ca_1.02_Na_0.97_K_0.59_)_Σ=2.58_(Si_14.40_Al_3.60_)_Σ=18_O_36_·10.96H_2_O
Raman shift (cm-1)	intensity
141.29	0
144.182	96.917
147.075	523.452
149.968	401.135
152.861	321.632
155.753	348.335
158.646	354.601
161.539	555.477
164.431	817.469
167.324	789.705
170.217	698.162
173.109	595.543
176.002	445.53
178.895	212.481
181.788	71.1008
184.68	18.4745
187.573	71.3157
190.466	50.1281
193.358	12.8931
196.251	67.229
199.144	156.894
202.036	162.161
204.929	281.084
207.822	442.812
210.715	581.583
213.607	593.713
216.5	720.362
219.393	849.858
222.285	1036.78
225.178	1133.19
228.071	1331.91
230.964	1506.89
233.856	1710.66
236.749	1919.91
239.642	2069.18
242.534	2248.97
245.427	2502.34
248.32	2469.45
251.212	2562.98
254.105	2459.49
256.998	2281.3
259.891	2208.02
262.783	2117.67
265.676	2027.65
268.569	1800.58
271.461	1474.16
274.354	1216.65
277.247	1007.65
280.139	848.743
283.032	765.857
285.925	650.734
288.818	591.359
291.71	641.502
294.603	657.023
297.496	627.362
300.388	596.409
303.281	418.021
306.174	280.452
309.066	144.133
311.959	8.07556
314.852	47.3638
317.744	40.9263
320.637	8.93285
323.53	109.136
326.422	22.2883
329.315	18.7746
332.208	34.4062
335.101	36.1259
337.993	24.6767
340.886	123.351
343.779	231.787
346.671	335.778
349.564	582.921
352.457	955.72
355.349	1280.91
358.242	1744.22
361.135	2172.88
364.028	2511.44
366.92	2872.14
369.813	3207.7
372.706	3574.91
375.598	3908.38
378.491	4307.12
381.384	4674.35
384.276	5394.64
387.169	6355.79
390.062	7646.69
392.955	9031.74
395.847	10772.8
398.74	12470.5
401.633	13920.1
404.525	14539.5
407.418	14354
410.311	13193.3
413.203	11494.5
416.096	9695.47
418.989	7780.91
421.882	5949.92
424.774	4481.51
427.667	3026.39
430.56	1942.37
433.452	1253.45
436.345	607.435
439.238	172.871
442.13	51.2326
445.023	68.2783
447.916	48.163
450.809	80.6456
453.701	81.9552
456.594	566.025
459.487	1225.97
462.379	2050.87
465.272	2916.79
468.165	3673.45
471.057	4641.77
473.95	5984.1
476.843	8030.67
479.736	9893.92
482.628	11581.2
485.521	11527.9
488.414	9701.52
491.306	7038.44
494.199	4674.06
497.092	3056.86
499.984	1920.13
502.877	1270.76
505.77	757.44
508.663	360.157
511.555	192.568
514.448	25.3745
517.341	4.05941
520.233	20.8985
523.126	21.0236
526.019	0.11668
528.911	31.7283
531.804	1.61445
534.697	1.6091
537.589	53.4532
540.482	2.39146
543.375	135.132
546.268	239.11
549.16	386.38
552.053	525.794
554.946	619.359
557.838	646.105
560.731	593.468
563.624	590.997
566.516	637.464
569.409	673.324
572.302	721.27
575.195	882.644
578.087	961.648
580.98	1185.5
583.873	1489.86
586.765	1852.96
589.658	2400.4
592.551	2986.01
595.443	3693.41
598.336	4478.61
601.229	4997.57
604.122	4830.28
607.014	4267.76
609.907	3892.68
612.8	3543.33
615.692	3192.06
618.585	2797.13
621.478	2463.14
624.37	2121.56
627.263	1767.53
630.156	1381.95
633.049	1041.7
635.941	829.265
638.834	629.702
641.727	539.444
644.619	436.826
647.512	385.144
650.405	347.707
653.297	280.586
656.19	199.233
659.083	137.815
661.976	49.7693
664.868	53.2363
667.761	3.21649
670.654	9.55142
673.546	23.7611
676.439	23.5203
679.332	26.7648
682.224	4.6006
685.117	4.38424
688.01	0.334208
690.903	13.493
693.795	12.8509
696.688	3.22759
699.581	7.59496
702.473	22.2229
705.366	12.5347
708.259	29.1505
711.151	14.7759
714.044	22.7342
716.937	24.2523
719.83	62.6154
722.722	119.769
725.615	144.153
728.508	262.164
731.4	453.678
734.293	430.147
737.186	285.295
740.078	180.56
742.971	104.997
745.864	39.2163
748.757	73.0881
751.649	123.891
754.542	158.504
757.435	242.331
760.327	347.519
763.22	453.586
766.113	667.333
769.005	771.13
771.898	912.271
774.791	1120.67
777.683	1356.88
780.576	1480.09
783.469	1714.38
786.362	1888.09
789.254	2082.62
792.147	2332.16
795.04	2570.66
797.932	2892.29
800.825	3502.47
803.718	4570.98
806.61	6552.05
809.503	10518.9
812.396	15591.7
815.289	12538.3
818.181	5600.65
821.074	3035.72
823.967	2137.56
826.859	1426.35
829.752	905.849
832.645	518.196
835.537	429.548
838.43	492.234
841.323	511.256
844.216	408.991
847.108	250.209
850.001	151.555
852.894	50.492
855.786	14.1732
858.679	28.572
861.572	20.9254
864.464	11.8928
867.357	14.5771
870.25	22.2063
873.143	18.1544
876.035	18.6815
878.928	0.355675
881.821	1.28519
884.713	19.9684
887.606	7.36401
890.499	23.5486
893.391	29.0475
896.284	47.3712
899.177	145.826
902.07	150.156
904.962	211.395
907.855	311.94
910.748	342.709
913.64	377.104
916.533	343.413
919.426	220.4
922.318	201.189
925.211	188.078
928.104	188.063
930.997	227.155
933.889	222.807
936.782	266.616
939.675	333.559
942.567	379.974
945.46	466.167
948.353	592.747
951.245	660.242
954.138	942.867
957.031	1216.15
959.924	1609.01
962.816	2013.03
965.709	2297.37
968.602	2393.8
971.494	2312.43
974.387	2191.03
977.28	2352.19
980.172	2603.55
983.065	2846.77
985.958	2920.07
988.851	2985.32
991.743	2913.57
994.636	2829.19
997.529	2585.13
1000.42	2141.83
1003.31	1407.97
1006.21	708.059
1009.1	294.557
1011.99	39.5236
1014.88	34.1098
1017.78	10.8483
1020.67	9.36195
1023.56	1.53087
1026.46	19.6261
1029.35	51.0152
1032.24	23.9218
1035.13	51.715
1038.03	81.8464
1040.92	76.2205
1043.81	72.3734
1046.7	71.3114
1049.6	107.091
1052.49	96.4965
1055.38	236.461
1058.28	233.616
1061.17	300.987
1064.06	207.538
1066.95	192.35
1069.85	122.888
1072.74	45.1183
1075.63	41.8624
1078.52	18.236
1081.42	61.9271
1084.31	36.2876
1087.2	29.9481
1090.1	121.857
1092.99	218.037
1095.88	318.682
1098.77	461.499
1101.67	588.857
1104.56	721.653
1107.45	830.594
1110.34	988.307
1113.24	1031.62
1116.13	1150.91
1119.02	1228.22
1121.91	1371.69
1124.81	1351.38
1127.7	1227.32
1130.59	1106.29
1133.48	986.665
1136.38	842.096
1139.27	825.847
1142.16	784.544
1145.06	809.235
1147.95	842.06
1150.84	846.6
1153.73	917.35
1156.63	931.927
1159.52	934.645
1162.41	944.78
1165.31	819.04
1168.2	834.255
1171.09	858.846
1173.98	923.072
1176.88	1033.68
1179.77	1144.5
1182.66	1218.58
1185.55	1082.19
1188.45	876.719
1191.34	762.467
1194.23	622.021
1197.12	666.792
1200.02	810.563
1202.91	518.441
1205.8	209.764
1208.7	160.67
1211.59	6.83409
1214.48	29.522
1217.37	6.07168
1220.27	13.786
1223.16	18.9992
1226.05	6.60505
1228.94	59.0473
1231.84	167.136
1234.73	289.921
1237.62	369.142
1240.52	430.642
1243.41	476.316
1246.3	386.254
1249.19	289.091
1252.09	163.682
1254.98	67.8591
1257.87	79.5109
1260.76	11.6742
1263.66	40.5979
1266.55	0.698149
1269.44	67.1798
1272.34	23.621
