Measurement: Raman, 785 nm, unoriented, Raman Data Processed
Mineral: Clinochlore
Rruff sample: R061080
Ideal chemistry: Mg_5_Al(AlSi_3_O_10_)(OH)_8_
Locality: Callaghan Creek, Whistler, British Columbia, Canada
Source: Lloyd Twaites
Description: Dark green micaceous crystals with quartz
Measured chemistry: (Mg_2.82_Fe^2+^_1.80_A1_1.24_[box]_0.08_Mn_0.06_)_Σ=6_(Si_2.91_Al_1.09_)_Σ=4_O_10_(OH)_8_
Raman shift (cm-1)	intensity
135.291	0
138.184	22.7604
141.077	2.20448
143.97	0.989059
146.862	16.7116
149.755	59.9645
152.648	83.8626
155.54	79.5954
158.433	79.9465
161.326	65.1973
164.218	84.4988
167.111	107.307
170.004	163.397
172.897	226.577
175.789	267.745
178.682	383.974
181.575	547.025
184.467	807.958
187.36	1132.92
190.253	1563.4
193.145	2076
196.038	2634.46
198.931	3229.95
201.823	3608.93
204.716	3402.21
207.609	2708.7
210.502	1921.41
213.394	1311.55
216.287	906.082
219.18	673.835
222.072	453.07
224.965	334.24
227.858	264.623
230.75	195.147
233.643	146.662
236.536	101.969
239.429	63.2469
242.321	38.3259
245.214	23.468
248.107	19.7105
250.999	20.9955
253.892	1.61542
256.785	8.30481
259.678	8.51947
262.57	16.5611
265.463	39.9689
268.356	32.5803
271.248	83.6101
274.141	79.5386
277.034	91.7588
279.926	100.396
282.819	87.6759
285.712	85.2142
288.604	84.5178
291.497	71.7755
294.39	68.0253
297.283	52.7853
300.175	63.1299
303.068	67.1233
305.961	58.0446
308.853	55.0176
311.746	56.9658
314.639	70.9187
317.531	84.6073
320.424	84.4193
323.317	97.3863
326.21	106.743
329.102	118.852
331.995	159.669
334.888	133.464
337.78	135.85
340.673	140.343
343.566	164.994
346.459	190.034
349.351	190.725
352.244	206.748
355.137	240.034
358.029	228.902
360.922	237.061
363.815	226.621
366.707	201.931
369.6	143.208
372.493	93.1096
375.385	103.627
378.278	80.3852
381.171	72.5362
384.064	78.6157
386.956	78.9618
389.849	47.2168
392.742	23.74
395.634	4.89044
398.527	3.54974
401.42	9.5899
404.312	16.3557
407.205	0.772644
410.098	3.37616
412.99	12.069
415.883	3.22241
418.776	26.9999
421.669	74.2423
424.561	35.7531
427.454	17.9226
430.347	56.6234
433.239	37.1005
436.132	10.9238
439.025	41.9882
441.918	44.8847
444.81	12.0771
447.703	41.4105
450.596	47.6107
453.488	71.1212
456.381	97.8671
459.274	117.542
462.166	155.595
465.059	182.017
467.952	213.65
470.844	233.406
473.737	216.733
476.63	173.644
479.523	106.815
482.415	68.0551
485.308	35.9648
488.201	27.0751
491.093	14.3869
493.986	13.1963
496.879	24.1573
499.772	6.38873
502.664	17.5376
505.557	7.08234
508.45	43.3401
511.342	28.0211
514.235	68.5707
517.128	76.6312
520.02	142.095
522.913	173.494
525.806	201.89
528.698	313.224
531.591	454.019
534.484	691.087
537.377	1094.93
540.269	1576.88
543.162	2178.64
546.055	2793.35
548.947	2890.61
551.84	2042.79
554.733	1110.91
557.625	604.761
560.518	375.733
563.411	231.005
566.304	127.725
569.196	74.0649
572.089	46.1913
574.982	21.0664
577.874	4.30151
580.767	0.781067
583.66	8.36249
586.553	6.83789
589.445	18.4664
592.338	8.18607
595.231	11.4624
598.123	21.6291
601.016	26.3579
603.909	51.5834
606.801	55.9691
609.694	82.2175
612.587	94.1026
615.48	109.366
618.372	130.921
621.265	166.377
624.158	201.051
627.05	227.282
629.943	250.872
632.836	294.594
635.728	338.262
638.621	427.307
641.514	535.684
644.407	652.953
647.299	810.683
650.192	962.719
653.085	1220.83
655.977	1445.84
658.87	1733.61
661.763	2037.17
664.655	2314.56
667.548	2535.38
670.441	2679
673.333	2540.19
676.226	2411.98
679.119	2064.07
682.012	1698.33
684.904	1367.59
687.797	1089.83
690.69	858.777
693.582	692.949
696.475	540.616
699.368	416.788
702.26	306.685
705.153	221.76
708.046	169.692
710.939	123.863
713.831	75.7353
716.724	63.2035
719.617	45.9873
722.509	2.59958
725.402	12.1101
728.295	1.93729
731.188	6.65622
734.08	14.0568
736.973	15.3124
739.866	7.42981
742.758	4.31033
745.651	3.89392
748.544	3.34061
751.436	41.1988
754.329	29.4492
757.222	44.3479
760.114	47.0264
763.007	60.85
765.9	67.0743
768.793	92.1368
771.685	69.8238
774.578	84.2898
777.471	79.0411
780.363	85.1703
783.256	78.98
786.149	96.8355
789.041	88.11
791.934	74.022
794.827	67.9332
797.72	67.5335
800.612	62.1546
803.505	43.4215
806.398	44.3283
809.29	37.3852
812.183	33.5715
815.076	19.2018
817.968	44.4603
820.861	37.7242
823.754	17.5463
826.646	13.4489
829.539	0.742401
832.432	10.5195
835.325	7.15942
838.217	2.67831
841.11	4.50977
844.003	3.98056
846.895	0.765503
849.788	1.10272
852.681	9.96259
855.573	11.4483
858.466	12.4869
861.359	43.8336
864.252	28.3296
867.144	46.6785
870.037	39.4063
872.93	62.2469
875.822	53.0533
878.715	49.0494
881.608	44.1952
884.5	69.9988
887.393	63.2604
890.286	72.3709
893.179	52.8207
896.071	50.8953
898.964	53.2005
901.857	45.7599
904.75	48.9414
907.642	49.8927
910.535	30.2143
913.428	32.1434
916.32	18.0214
919.213	10.7255
922.106	19.5713
924.998	21.7427
927.891	8.25363
930.784	8.93271
933.677	11.6656
936.569	12.9289
939.462	14.9621
942.355	15.1048
945.247	19.1358
948.14	7.06781
951.033	15.6745
953.925	16.7902
956.818	2.69775
959.711	4.19177
962.603	8.29382
965.496	3.04962
968.389	32.7866
971.282	43.6866
974.174	72.5619
977.067	48.6748
979.96	92.7421
982.852	98.7328
985.745	96.1463
988.638	121.241
991.53	119.102
994.423	134.128
997.316	122.724
1000.21	124.027
1003.1	121.576
1005.99	106.734
1008.89	135.896
1011.78	130.483
1014.67	169.24
1017.57	222.128
1020.46	254.839
1023.35	291.625
1026.24	366.408
1029.13	459.954
1032.03	483.797
1034.92	566.019
1037.81	563.364
1040.71	524.777
1043.6	466.18
1046.49	433.265
1049.38	335.885
1052.28	274.142
1055.17	211.112
1058.06	180.418
1060.95	105.008
1063.85	90.1315
1066.74	81.9692
1069.63	49.9277
1072.53	26.731
1075.42	13.0848
1078.31	8.34671
1081.2	8.58551
1084.1	4.38132
1086.99	2.00217
1089.88	15.3563
1092.78	6.17425
1095.67	3.9212
1098.56	10.2183
1101.45	5.0708
1104.35	1.34122
1107.24	2.74875
1110.13	7.59036
1113.02	5.73843
1115.92	21.83
1118.81	23.0922
1121.7	16.6053
1124.6	23.1328
1127.49	22.9046
1130.38	30.075
1133.27	19.5811
1136.16	14.9746
1139.06	15.6372
1141.95	28.5473
1144.84	18.7405
1147.74	27.7621
1150.63	23.5424
1153.52	25.5248
1156.41	28.2142
1159.31	14.2619
1162.2	25.2555
1165.09	25.5072
1167.98	26.9331
1170.88	23.8479
1173.77	28.9433
1176.66	19.9296
1179.56	16.1863
1182.45	23.8114
1185.34	25.8819
1188.23	17.9328
1191.13	21.8742
1194.02	31.5146
1196.91	20.3465
1199.81	13.39
1202.7	8.35709
1205.59	9.87753
1208.48	15.2459
1211.38	19.1674
1214.27	17.6319
1217.16	13.4178
1220.05	9.51001
1222.95	0.98349
1225.84	13.6601
1228.73	2.25659
1231.62	0.831909
1234.52	7.98163
1237.41	16.1641
1240.3	0.255402
1243.19	2.67209
