Measurement: Raman, 785 nm, unoriented, Raman Data Processed
Mineral: Clinobisvanite
Rruff sample: R070401
Ideal chemistry: BiVO_4_
Locality: Linka mine (Garnetite mine), Spencer Hot Springs District, Lander County, Nevada, USA
Source: Michael Scott
Description: Orange platy crust on quartz associated with bismutite
Raman shift (cm-1)	intensity
160.553	0
163.446	0.414063
166.338	791.521
169.231	1338.86
172.124	1527.87
175.017	1797.54
177.909	2244.96
180.802	2798.74
183.695	3793.7
186.587	5090.1
189.48	6529.93
192.373	8626.41
195.265	11042.9
198.158	13721.3
201.051	16683.5
203.944	19660.9
206.836	22176.5
209.729	23250.8
212.622	21611.5
215.514	18013.5
218.407	13254.4
221.3	9112.14
224.192	5810.99
227.085	3634.94
229.978	2212.27
232.87	1360.33
235.763	857.387
238.656	507.227
241.549	254.894
244.441	69.0606
247.334	316.397
250.227	461.69
253.119	376.535
256.012	351.947
258.905	36.2441
261.798	146.748
264.69	384.406
267.583	549.633
270.476	797.273
273.368	842.775
276.261	837.43
279.154	741.332
282.046	736.518
284.939	682.064
287.832	925.391
290.724	1146.67
293.617	1394.39
296.51	2048.18
299.403	2788.74
302.295	4106.34
305.188	5637.88
308.081	7646.5
310.973	10206.7
313.866	13935.7
316.759	18102.9
319.651	22692.8
322.544	27223.8
325.437	30283.4
328.33	29918.7
331.222	26230.8
334.115	21009.5
337.008	16493.4
339.9	13544.8
342.793	12095.1
345.686	12154.2
348.579	13302.2
351.471	15301.6
354.364	18135.5
357.257	21211.4
360.149	24616.5
363.042	27337.8
365.935	28263.2
368.827	25744.3
371.72	20746.8
374.613	15122.5
377.505	11113.3
380.398	8270.58
383.291	6154.81
386.184	4472.8
389.076	3379.79
391.969	2548.69
394.862	2120.89
397.754	1738.03
400.647	1335.28
403.54	984.797
406.433	479.143
409.325	262.736
412.218	33.0117
415.111	88.4121
418.003	95.3184
420.896	187.106
423.789	172.412
426.681	241.131
429.574	233.603
432.467	57.499
435.36	28.9678
438.252	53.2832
441.145	91.8564
444.038	198.859
446.93	238.862
449.823	285.14
452.716	302.369
455.608	336.327
458.501	248.435
461.394	264.887
464.286	283.685
467.179	245.705
470.072	279.255
472.965	252.03
475.857	158.606
478.75	215.305
481.643	121.334
484.535	83.332
487.428	83.5898
490.321	9.91699
493.214	13.0127
496.106	1.11426
498.999	1.50098
501.892	38.8242
504.784	40.3955
507.677	69.0879
510.57	130.223
513.462	153.857
516.355	229.506
519.248	203.151
522.14	238.56
525.033	260.971
527.926	297.575
530.819	336.163
533.711	338.375
536.604	338.138
539.497	352.41
542.389	220.828
545.282	331.823
548.175	254.068
551.067	238.019
553.96	247.738
556.853	201.404
559.745	243.102
562.638	204.001
565.531	194.355
568.424	272.248
571.316	258.726
574.209	198.334
577.102	265.214
579.994	250.184
582.887	254.552
585.78	256.185
588.673	236.71
591.565	211.4
594.458	208.23
597.351	257.778
600.243	185.253
603.136	262.081
606.029	268.132
608.921	369.151
611.814	607.447
614.707	677.038
617.6	880.49
620.492	1038.43
623.385	1185.55
626.278	1371.23
629.17	1635.36
632.063	1863.32
634.956	2011.45
637.848	2080.09
640.741	2054.65
643.634	1853.6
646.527	1562.4
649.419	1425.47
652.312	890.839
655.205	529.865
658.097	300.905
660.99	136.551
663.883	31.9951
666.775	51.5332
669.668	39.8018
672.561	5.66211
675.454	114.09
678.346	371.906
681.239	498.754
684.132	942.613
687.024	1307.11
689.917	1839.17
692.81	2302.15
695.702	2926.25
698.595	3312.03
701.488	3809.8
704.381	3882.1
707.273	3939.54
710.166	3929.35
713.059	3726.72
715.951	3328.6
718.844	2990.2
721.737	2652.21
724.63	2092.47
727.522	1582.85
730.415	1187.5
733.308	789.104
736.2	549.284
739.093	213.282
741.986	15.7432
744.878	232.326
747.771	306.633
750.664	391.263
753.557	351.713
756.449	302.403
759.342	131.871
762.235	86.5938
765.127	434.258
768.02	813.039
770.913	1489.22
773.805	2230.7
776.698	3185.32
779.591	4161.89
782.484	5623.18
785.376	7321.94
788.269	9297.86
791.162	11407.2
794.054	14124.2
796.947	17450.7
799.84	21048.2
802.732	25402.9
805.625	30235.4
808.518	35911.4
811.41	41639.4
814.303	47597.9
817.196	53306.4
820.089	58045.9
822.981	61417.6
825.874	62232.2
828.767	61066.9
831.659	57013.2
834.552	51589.3
837.445	45134
840.337	38570.3
843.23	32522.1
846.123	26930.2
849.016	22312.3
851.908	18220
854.801	14697
857.694	11897.1
860.586	9803.15
863.479	7784.99
866.372	6414.02
869.264	5307.09
872.157	4378.84
875.05	3586.09
877.943	2920.69
880.835	2381.2
883.728	1823.29
886.621	1413.35
889.513	1187.15
892.406	859.477
895.299	646.644
898.192	519.402
901.084	426.867
903.977	443.066
906.87	361.044
909.762	398.786
912.655	129.486
915.548	74.2529
918.44	259.634
921.333	313.057
924.226	315.442
927.119	285.432
930.011	206.642
932.904	186.12
935.797	79.231
938.689	30.0195
941.582	136.902
944.475	136.093
947.367	387.874
950.26	444.127
953.153	519.27
956.045	630.136
958.938	672.303
961.831	759.598
964.724	868.132
967.616	994.26
970.509	1003.58
973.402	1019.21
976.294	1068.35
979.187	1104.08
982.08	1082
984.972	1013.99
987.865	922.273
990.758	825.785
993.651	773.38
996.543	749.658
999.436	727.03
1002.33	676.634
1005.22	683.667
1008.11	620.785
1011.01	609.151
1013.9	561.864
1016.79	537.004
1019.68	590.603
1022.58	518.501
1025.47	513.079
1028.36	435.3
1031.26	376.745
1034.15	375.993
1037.04	356.039
1039.93	321.074
1042.83	321.304
1045.72	253.305
1048.61	233.898
1051.51	253.408
1054.4	197.58
1057.29	214.97
1060.18	202.621
1063.08	175.255
1065.97	161.719
1068.86	174.883
1071.75	158.32
1074.65	128.15
1077.54	139.113
1080.43	135.22
1083.32	79.5244
1086.22	97.5269
1089.11	118.43
1092	38.4473
1094.89	83.7046
1097.79	105.161
1100.68	20.3232
1103.57	104.626
1106.47	48.3701
1109.36	57.1631
1112.25	28.0454
1115.14	27.2266
1118.04	44.5147
1120.93	82.749
1123.82	4.0625
1126.71	15.1909
1129.61	47.1821
1132.5	24.9131
1135.39	26.8057
1138.29	1.42334
1141.18	16.6758
1144.07	44.8862
1146.96	7.45264
1149.86	6.56982
1152.75	45.2685
1155.64	56.1382
1158.53	53.416
1161.43	25.6787
1164.32	52.7935
1167.21	43.2773
1170.11	38.915
1173	32.3989
1175.89	25.4619
1178.78	50.9355
1181.68	46.7446
1184.57	51.7563
1187.46	25.5566
1190.35	44.8008
1193.25	115.05
1196.14	11.0176
