Measurement: Raman, 780 nm, unoriented, Raman Data Processed
Mineral: Clinohedrite
Rruff sample: R050416
Ideal chemistry: CaZnSiO_4_H_2_O
Locality: Franklin, Sussex County, New Jersey, USA
Source: Marcus Origlieri
Description: Colorless prismatic single crystals
Measured chemistry: (Ca_0.99_Mn_0.01_)_Σ=1_Zn_1.00_Si_1.00_O_4_·H_2_O
Raman shift (cm-1)	intensity
112.29	0
115.665	40.2228
119.04	61.3957
122.415	0.40535
125.79	8.50655
129.164	47.6872
132.539	164.248
135.914	180.918
139.289	31.4526
142.664	40.5254
146.038	98.781
149.413	220.676
152.788	88.1156
156.163	128.304
159.538	51.0694
162.912	3.6676
166.287	3.25806
169.662	2.04608
173.037	2.62192
176.412	17.6721
179.786	40.3168
183.161	15.487
186.536	0.43561
189.911	0.010597
193.286	1.12012
196.661	4.99674
200.035	10.5274
203.41	20.4514
206.785	29.958
210.16	50.6171
213.535	82.5123
216.91	88.0176
220.284	140.31
223.659	179.189
227.034	104.081
230.409	79.6389
233.784	99.0392
237.158	89.5386
240.533	76.2273
243.908	120.08
247.283	211.028
250.658	162.608
254.032	109.879
257.407	103.121
260.782	75.5762
264.157	65.9404
267.532	81.5204
270.907	45.0795
274.281	13.0151
277.656	4.53431
281.031	2.14056
284.406	4.61636
287.781	12.0628
291.156	23.2058
294.53	16.2537
297.905	3.01175
301.28	2.25477
304.655	2.59338
308.03	1.21145
311.404	3.79977
314.779	12.2304
318.154	19.4454
321.529	15.6538
324.904	12.2262
328.279	5.76892
331.653	3.22786
335.028	4.14379
338.403	7.9019
341.778	15.4168
345.152	29.0529
348.527	40.9858
351.902	42.6817
355.277	34.5981
358.652	33.1187
362.027	33.4294
365.401	24.4279
368.776	13.5264
372.151	9.20471
375.526	10.511
378.901	16.5466
382.276	26.1756
385.65	39.9808
389.025	63.1638
392.4	100.658
395.775	150.869
399.15	168.085
402.524	109.628
405.899	56.6049
409.274	30.1137
412.649	15.6695
416.024	8.85545
419.399	4.81639
422.773	2.41554
426.148	1.02923
429.523	0.227779
432.898	0.437668
436.273	1.19237
439.647	0.656621
443.022	0.302638
446.397	0.26939
449.772	0.017323
453.147	0.491326
456.522	1.52938
459.896	1.93853
463.271	3.73857
466.646	6.93971
470.021	10.4018
473.396	14.9356
476.77	18.8522
480.145	19.0708
483.52	12.8948
486.895	7.55103
490.27	4.48342
493.644	3.81105
497.019	3.99953
500.394	6.29424
503.769	11.9684
507.144	22.4019
510.519	31.2201
513.893	20.3105
517.268	8.15561
520.643	3.38549
524.018	1.75963
527.393	0.636449
530.768	0.308803
534.142	0.57582
537.517	1.97286
540.892	3.80164
544.267	5.92413
547.641	10.1247
551.016	16.6837
554.391	27.2288
557.766	37.2332
561.141	38.3352
564.516	25.5798
567.89	15.9102
571.265	13.3071
574.64	15.6814
578.015	21.9273
581.39	26.5242
584.764	24.9179
588.139	16.5852
591.514	9.34743
594.889	5.27231
598.264	3.04622
601.639	1.80545
605.013	1.29869
608.388	0.276156
611.763	0.651126
615.138	0.50958
618.513	0.102806
621.888	0.154153
625.262	0.151756
628.637	0.072141
632.012	0.020452
635.387	0.065363
638.761	0.1128
642.136	0.153399
645.511	0.091763
648.886	0.255809
652.261	0.463932
655.636	0.273915
659.01	0.470135
662.385	0.612063
665.76	0.393885
669.135	0.221627
672.51	0.400983
675.885	0.272476
679.259	0.475091
682.634	0.714726
686.009	0.130467
689.384	0.519108
692.759	0.297752
696.133	0.420555
699.508	0.274241
702.883	0.289571
706.258	0.183775
709.633	0.190889
713.008	0.252675
716.382	0.55035
719.757	0.461135
723.132	1.20566
726.507	1.68672
729.882	2.66037
733.256	4.44669
736.631	5.06173
740.006	7.75667
743.381	10.5579
746.756	13.3294
750.13	14.84
753.505	14.3561
756.88	12.3995
760.255	11.7153
763.63	11.3519
767.005	10.3143
770.379	8.76789
773.754	8.32988
777.129	8.23463
780.504	9.28187
783.879	9.82014
787.254	9.25157
790.628	6.98367
794.003	4.49208
797.378	1.88149
800.753	0.685714
804.128	0.321094
807.502	0.489378
810.877	0.426847
814.252	0.452568
817.627	0.055866
821.002	0.889484
824.376	2.47887
827.751	4.7227
831.126	8.25248
834.501	14.0135
837.876	22.0076
841.25	30.6986
844.625	40.0954
848	55.5724
851.375	86.6957
854.75	133.536
858.125	155.547
861.5	119.626
864.874	104.443
868.249	120.649
871.624	135.018
874.999	139.539
878.374	114.37
881.748	61.5762
885.123	29.675
888.498	14.819
891.873	7.27532
895.248	4.5789
898.622	2.72567
901.997	2.56584
905.372	2.51517
908.747	2.56908
912.122	1.87654
915.496	1.20768
918.871	1.37305
922.246	0.302488
925.621	0.128777
928.996	0.143976
932.37	1.75342
935.745	2.96269
939.12	3.42056
942.495	3.48753
945.87	6.45097
949.245	13.1963
952.619	19.7295
955.994	19.2473
959.369	12.0091
962.744	7.50762
966.119	5.67608
969.494	3.91454
972.868	2.45613
976.243	0.964601
979.618	0.068931
982.993	0.031468
986.368	0.396708
989.742	0.077919
993.117	0.282222
996.492	0.4859
999.867	1.48924
1003.24	2.50393
1006.62	3.75931
1009.99	5.05749
1013.37	5.9051
1016.74	4.4758
1020.12	4.02344
1023.49	3.53517
1026.87	3.39852
1030.24	2.96887
1033.62	2.53402
1036.99	2.53079
1040.37	1.93133
1043.74	1.48211
1047.11	0.5832
1050.49	0.084008
1053.86	0.160834
1057.24	0.065652
1060.61	0.266669
1063.99	0.295807
1067.36	0.340349
1070.74	0.679828
1074.11	0.572957
1077.49	0.882911
1080.86	0.750154
1084.24	0.667603
1087.61	0.876916
1090.99	1.0082
1094.36	1.01339
1097.74	0.80104
1101.11	0.599989
1104.49	0.166757
1107.86	0.452264
1111.24	0.010775
1114.61	0.146544
1117.98	0.084728
1121.36	0.091077
1124.73	0.05678
1128.11	0.208433
1131.48	0.24684
1134.86	0.691965
1138.23	0.381579
1141.61	0.281405
1144.98	0.411887
1148.36	0.466152
1151.73	0.761131
1155.11	0.450604
1158.48	0.651098
1161.86	0.732243
1165.23	0.19437
1168.61	0.508207
1171.98	0.708646
1175.36	0.53924
1178.73	0.117294
1182.11	0.549794
1185.48	0.242901
1188.86	0.285153
1192.23	0.18139
1195.61	0.304605
1198.98	0.133064
1202.36	0.602077
1205.73	1.1872
1209.11	0.1178
1212.48	0.18877
1215.86	0.066645
1219.23	0.098105
1222.61	0.208692
1225.98	0.028167
1229.35	0.075528
1232.73	0.216938
1236.1	0.210226
1239.48	0.270149
1242.85	0.12232
1246.23	0.174897
1249.6	0.278797
1252.98	0.176247
1256.35	0.321984
1259.73	0.16019
1263.1	0.476017
1266.48	0.151266
1269.85	0.064407
1273.23	0.252038
1276.6	0.182937
1279.98	0.184167
1283.35	0.330511
