Measurement: Raman, 785 nm, unoriented, Raman Data Processed
Mineral: Clinoptilolite-Ca
Rruff sample: R060662
Ideal chemistry: Ca_3_(Si_30_Al_6_)O_72_20H_2_O
Locality: Succor Creek, Malheur County, Oregon, USA
Source: Michael Scott
Description: Group of colorless platy prismatic crystals
Measured chemistry: (Ca_1.02_Na_0.97_K_0.59_)_Σ=2.58_(Si_14.40_Al_3.60_)_Σ=18_O_36_·10.96H_2_O
Raman shift (cm-1)	intensity
142.259	1.89746
145.152	3375.11
148.044	8416.06
150.937	8899.92
153.83	4384.13
156.723	1899.3
159.615	1536.69
162.508	3268.85
165.401	4339.3
168.293	3135.61
171.186	2302.99
174.079	1726.07
176.971	1492.21
179.864	1021.98
182.757	467.035
185.65	101.646
188.542	93.8748
191.435	159.436
194.328	73.458
197.22	319.748
200.113	737.726
203.006	1068.79
205.898	1039.61
208.791	747.656
211.684	523.88
214.577	413.273
217.469	392.911
220.362	401.338
223.255	373.26
226.147	476.173
229.04	612.347
231.933	819.75
234.825	1016.7
237.718	1237.4
240.611	1423.44
243.503	1363.04
246.396	1211.16
249.289	955.192
252.182	823.968
255.074	726.405
257.967	704.511
260.86	744.243
263.752	859.884
266.645	878.217
269.538	967.769
272.431	956.699
275.323	872.618
278.216	761.192
281.109	602.917
284.001	390.696
286.894	222.872
289.787	19.6746
292.679	51.7256
295.572	16.1592
298.465	131.708
301.358	277.309
304.25	423.769
307.143	481.401
310.036	470.96
312.928	398.974
315.821	293.594
318.714	165.052
321.606	56.3357
324.499	60.4539
327.392	77.9419
330.284	64.2524
333.177	7.28882
336.07	54.7302
338.963	193.004
341.855	302.416
344.748	382.065
347.641	407.228
350.533	407.156
353.426	402.392
356.319	409.65
359.211	418.325
362.104	418.489
364.997	425.494
367.89	596.143
370.782	775.47
373.675	941.689
376.568	1236.58
379.46	1450.03
382.353	1666.9
385.246	1815.78
388.138	2129.74
391.031	2536.14
393.924	3018.09
396.817	3563.02
399.709	4086.7
402.602	4409.43
405.495	4489.46
408.387	4345.38
411.28	3899.64
414.173	3499.02
417.065	2946.63
419.958	2442.75
422.851	1864.7
425.744	1326.56
428.636	971.403
431.529	594.425
434.422	353.574
437.314	125.808
440.207	13.125
443.1	52.7377
445.992	49.0355
448.885	34.144
451.778	153.558
454.671	308.699
457.563	586.801
460.456	847.112
463.349	1111.76
466.241	1368.9
469.134	1571.1
472.027	1792.18
474.919	2198.06
477.812	2829.15
480.705	3387.7
483.598	3580.18
486.49	3334.12
489.383	2697.07
492.276	1954.97
495.168	1301.98
498.061	807.126
500.954	521.403
503.846	335.228
506.739	197.363
509.632	99.8108
512.525	39.4459
515.417	12.4864
518.31	15.5016
521.203	15.4893
524.095	14.6129
526.988	19.3398
529.881	7.125
532.773	22.6616
535.666	24.7289
538.559	49.9401
541.452	50.29
544.344	54.0774
547.237	68.6185
550.13	73.4988
553.022	76.3824
555.915	104.29
558.808	106.251
561.701	89.0437
564.593	154.862
567.486	146.271
570.379	138.707
573.271	180.028
576.164	158.181
579.057	203.341
581.949	241.204
584.842	217.918
587.735	265.728
590.628	321.703
593.52	403.951
596.413	495.41
599.306	614.331
602.198	662.574
605.091	751.234
607.984	752.214
610.876	798.955
613.769	849.624
616.662	795.35
619.555	719.094
622.447	621.365
625.34	508.136
628.233	396.218
631.125	314.926
634.018	247.525
636.911	210.799
639.803	150.06
642.696	120.066
645.589	117.81
648.482	73.3816
651.374	46.3686
654.267	26.8633
657.16	0.531006
660.052	22.6208
662.945	10.9172
665.838	18.4624
668.73	18.8562
671.623	18.3613
674.516	0.438599
677.409	27.2639
680.301	22.1048
683.194	32.8867
686.087	16.5092
688.979	10.5254
691.872	14.0224
694.765	18.5211
697.657	1.40009
700.55	0.743347
703.443	8.86859
706.336	46.9612
709.228	14.7603
712.121	38.7601
715.014	44.7259
717.906	39.5048
720.799	61.1493
723.692	53.8729
726.584	51.0042
729.477	48.484
732.37	65.3763
735.263	41.9227
738.155	2.91986
741.048	7.12366
743.941	12.4566
746.833	25.2032
749.726	30.1235
752.619	42.93
755.511	56.9221
758.404	51.1722
761.297	61.6226
764.19	66.2797
767.082	60.6534
769.975	81.7325
772.868	87.9244
775.76	87.2463
778.653	99.6493
781.546	160.704
784.438	199.31
787.331	242.317
790.224	262.044
793.117	285.466
796.009	302.967
798.902	322.613
801.795	342.186
804.687	423.423
807.58	552.935
810.473	814.492
813.365	925.645
816.258	546.823
819.151	264.935
822.044	163.56
824.936	124.57
827.829	54.928
830.722	31.8686
833.614	54.0981
836.507	43.5189
839.4	24.0962
842.292	32.0533
845.185	23.095
848.078	15.431
850.971	9.92798
853.863	1.02264
856.756	2.29889
859.649	1.53796
862.541	1.57294
865.434	19.3697
868.327	5.94037
871.219	11.5941
874.112	36.5663
877.005	23.02
879.898	32.0923
882.79	16.8684
885.683	9.72058
888.576	20.281
891.468	5.5351
894.361	10.8605
897.254	28.3072
900.146	17.6378
903.039	21.918
905.932	11.7863
908.825	11.8109
911.717	30.7145
914.61	25.2935
917.503	13.7758
920.395	28.9948
923.288	1.15045
926.181	11.909
929.073	9.72583
931.966	35.3251
934.859	47.183
937.752	27.3002
940.644	21.4492
943.537	52.2946
946.43	41.6172
949.322	41.5455
952.215	77.5543
955.108	89.975
958	87.4567
960.893	97.8602
963.786	133.479
966.679	143.452
969.571	147.594
972.464	140.035
975.357	139.561
978.249	132.962
981.142	183.452
984.035	191.669
986.927	179.786
989.82	185.46
992.713	199.16
995.606	132.963
998.498	150.905
1001.39	91.4379
1004.28	59.365
1007.18	22.4382
1010.07	21.0232
1012.96	18.0631
1015.85	0.872009
1018.75	4.53772
1021.64	10.9661
1024.53	40.2048
1027.42	1.07446
1030.32	12.6975
1033.21	27.0281
1036.1	57.8599
1039	18.7916
1041.89	40.8742
1044.78	45.6218
1047.67	47.4486
1050.57	28.3616
1053.46	22.2322
1056.35	21.7364
1059.24	33.5292
1062.14	42.0925
1065.03	27.6262
1067.92	20.7648
1070.82	22.5317
1073.71	2.96112
1076.6	17.4171
1079.49	0.817444
1082.39	31.0631
1085.28	3.7688
1088.17	58.7884
1091.07	61.0384
1093.96	95.0018
1096.85	146.57
1099.74	154.055
1102.63	157.18
1105.53	197.773
1108.42	216.5
1111.31	234.294
1114.21	234.338
1117.1	242.27
1119.99	257.55
1122.88	250.107
1125.78	230.819
1128.67	236.298
1131.56	222.511
1134.45	213.484
1137.35	197.603
1140.24	212.567
1143.13	224.214
1146.03	245.867
1148.92	258.574
1151.81	253.165
1154.7	271.495
1157.6	256.039
1160.49	233.805
1163.38	215.388
1166.28	207.803
1169.17	214.398
1172.06	184.276
1174.95	204.397
1177.85	209.964
1180.74	171.562
1183.63	192.791
1186.52	133.417
1189.42	146.737
1192.31	103.272
1195.2	97.5389
1198.09	94.892
1200.99	59.0129
1203.88	33.2852
1206.77	15.6517
1209.66	3.84753
1212.56	1.68768
1215.45	10.4362
1218.34	2.1897
1221.24	5.28949
1224.13	8.55359
1227.02	3.61896
1229.91	2.96326
1232.81	21.8573
1235.7	37.2245
1238.59	36.9432
1241.48	37.6722
1244.38	45.0575
1247.27	57.2396
1250.16	18.5991
1253.06	0.593384
1255.95	19.9196
1258.84	0.129333
