Measurement: Raman, 780 nm, unoriented, Raman Data Processed
Mineral: Clinohumite
Rruff sample: R060559
Ideal chemistry: Mg_9_(SiO_4_)_4_F_2_
Locality: Tadjikistan
Source: Gemological Institute of America
Description: Yellowish-brown fragment
Measured chemistry: (Mg_8.51_Ti_0.24_[box]_0.24_Fe_0.01_)_Σ=9_(Si_1.00_O_4_)_4_(F_1.30_(OH)_0.70_)_Σ=2_ ; OH by difference and stoichiometry
Raman shift (cm-1)	intensity
93.9705	0
97.3453	7.36755
100.72	3.46728
104.095	0.158264
107.47	13.4225
110.845	14.4322
114.219	7.34607
117.594	14.8895
120.969	19.5752
124.344	38.2077
127.719	24.9625
131.094	28.2499
134.468	19.4275
137.843	15.5792
141.218	17.1279
144.593	5.30533
147.968	3.81662
151.342	8.87213
154.717	3.16229
158.092	15.4905
161.467	20.0111
164.842	25.0322
168.216	31.5843
171.591	39.9766
174.966	34.8728
178.341	36.7913
181.716	37.8516
185.09	37.034
188.465	39.6114
191.84	26.9827
195.215	22.2794
198.59	26.893
201.965	33.6773
205.339	46.3792
208.714	48.0389
212.089	63.7886
215.464	51.445
218.839	13.8232
222.214	1.1124
225.588	2.16153
228.963	10.4783
232.338	25.1925
235.713	35.5105
239.088	45.8999
242.462	44.6266
245.837	38.6231
249.212	42.7643
252.587	56.8141
255.962	75.0801
259.336	83.8342
262.711	81.9045
266.086	63.7106
269.461	40.1879
272.836	18.4454
276.211	9.63638
279.585	11.9003
282.96	13.0504
286.335	21.3539
289.71	25.1843
293.085	36.8313
296.459	42.125
299.834	42.7665
303.209	49.9614
306.584	55.5638
309.959	38.135
313.334	22.8317
316.708	20.3429
320.083	28.9168
323.458	31.4364
326.833	22.602
330.207	10.4393
333.582	0.547943
336.957	0.308624
340.332	4.15149
343.707	2.26285
347.082	2.41968
350.456	3.47049
353.831	4.74609
357.206	8.1116
360.581	7.13437
363.956	11.0054
367.33	15.7981
370.705	19.0755
374.08	24.7928
377.455	29.4066
380.83	28.6564
384.205	13.769
387.579	8.10617
390.954	6.19873
394.329	5.6655
397.704	1.51138
401.079	0.54184
404.453	0.636078
407.828	1.89288
411.203	3.1767
414.578	7.14151
417.953	8.62482
421.327	13.427
424.702	19.0022
428.077	27.307
431.452	42.6491
434.827	47.989
438.202	38.1009
441.576	33.4076
444.951	33.1679
448.326	33.3353
451.701	27.5652
455.076	24.4638
458.45	22.2461
461.825	19.4998
465.2	17.267
468.575	14.9499
471.95	15.3825
475.325	15.9511
478.699	14.7073
482.074	17.3093
485.449	17.4762
488.824	14.4337
492.199	8.84564
495.573	5.41763
498.948	2.22507
502.323	0.419891
505.698	0.337341
509.073	0.215607
512.447	3.28299
515.822	2.26242
519.197	1.93738
522.572	0.0047
525.947	4.70932
529.322	7.09354
532.696	13.2569
536.071	17.8584
539.446	23.5731
542.821	31.3982
546.196	36.9216
549.57	49.7393
552.945	46.3761
556.32	24.5775
559.695	15.8021
563.07	18.2617
566.444	24.8024
569.819	31.7439
573.194	41.2525
576.569	61.7377
579.944	84.2397
583.319	109.147
586.693	135.875
590.068	147.92
593.443	142.981
596.818	127.192
600.193	127.36
603.567	148.43
606.942	178.722
610.317	176.996
613.692	123.833
617.067	70.128
620.442	44.7869
623.816	28.5479
627.191	18.7056
630.566	14.5702
633.941	12.1263
637.316	9.92911
640.69	7.51178
644.065	6.96533
647.44	6.74603
650.815	6.50696
654.19	9.62848
657.564	10.5998
660.939	14.3149
664.314	17.9993
667.689	22.0494
671.064	18.8491
674.439	19.1382
677.813	17.8047
681.188	16.184
684.563	15.3405
687.938	12.4038
691.313	11.062
694.688	7.53409
698.062	4.80136
701.437	3.78558
704.812	2.18378
708.187	0.697357
711.562	3.84766
714.936	4.22272
718.311	6.4932
721.686	7.55063
725.061	7.38965
728.436	6.2247
731.81	6.02322
735.185	23.1079
738.56	51.1813
741.935	87.3639
745.31	106.403
748.684	94.5451
752.059	73.9865
755.434	46.959
758.809	20.4223
762.184	4.1196
765.559	0.49115
768.933	10.3449
772.308	51.9734
775.683	129.17
779.058	257.282
782.433	437.33
785.808	540.235
789.182	398.411
792.557	179.206
795.932	77.7745
799.307	65.1932
802.682	115.661
806.056	201.754
809.431	256.747
812.806	248.914
816.181	252.948
819.556	318.804
822.93	460.675
826.305	746.295
829.68	1124.89
833.055	1239.25
836.43	900.593
839.804	734.933
843.179	835.892
846.554	970.611
849.929	847.952
853.304	692.703
856.679	743.044
860.053	1050.61
863.428	1273.83
866.803	843.069
870.178	456.621
873.553	284.292
876.927	219.124
880.302	166.286
883.677	93.6657
887.052	40.6293
890.427	9.82025
893.802	6.37405
897.176	14.5816
900.551	16.0413
903.926	7.46735
907.301	5.02161
910.676	26.0471
914.05	53.0293
917.425	46.2357
920.8	33.8765
924.175	34.758
927.55	54.3604
930.924	102.962
934.299	137.426
937.674	56.7624
941.049	15.8379
944.424	7.34732
947.799	9.91067
951.173	19.6094
954.548	30.1549
957.923	56.9254
961.298	101.174
964.673	164.974
968.047	216.035
971.422	187.89
974.797	88.3307
978.172	40.8924
981.547	22.5715
984.922	8.93564
988.296	0.995514
991.671	0.394684
995.046	0.923553
998.421	0.246216
1001.8	0.789215
1005.17	1.98968
1008.54	2.29477
1011.92	1.38156
1015.29	2.53671
1018.67	2.30917
1022.04	1.41821
1025.42	2.18088
1028.79	3.42874
1032.17	5.86529
1035.54	7.48675
1038.92	8.61572
1042.29	11.6485
1045.67	9.35638
1049.04	7.57578
1052.42	6.86585
1055.79	4.68811
1059.17	4.73486
1062.54	0.762024
1065.92	2.67114
1069.29	2.35107
1072.67	0.172668
1076.04	1.14996
1079.42	1.26761
1082.79	1.06259
1086.17	1.07587
1089.54	2.08139
1092.92	1.29205
1096.29	1.00385
1099.66	0.349091
1103.04	1.86859
1106.41	1.24652
1109.79	1.81583
1113.16	1.93674
1116.54	0.085693
1119.91	1.53766
1123.29	2.58188
1126.66	0.050629
1130.04	0.608032
1133.41	1.95209
1136.79	1.94504
1140.16	3.89185
1143.54	3.02957
1146.91	4.19369
1150.29	3.39865
1153.66	4.05887
1157.04	2.54517
1160.41	1.94394
1163.79	4.56299
1167.16	2.09665
1170.54	2.80023
1173.91	3.87445
1177.29	2.15344
1180.66	2.90244
1184.04	2.7775
1187.41	0.136444
1190.79	0.178101
1194.16	1.20346
1197.54	1.90622
1200.91	0.862
1204.28	0.613831
1207.66	1.92657
1211.03	6.58926
1214.41	0.177094
1217.78	1.26621
1221.16	0.447998
1224.53	0.21225
1227.91	3.04712
1231.28	1.90002
1234.66	1.15918
1238.03	2.63052
1241.41	1.76617
1244.78	0.186279
1248.16	0.005463
1251.53	0.652405
1254.91	1.76978
1258.28	1.48636
1261.66	2.93744
1265.03	1.50613
1268.41	1.61939
1271.78	2.07208
1275.16	1.85111
1278.53	1.93259
1281.9	1.43292
