Measurement: Raman, 532 nm, unoriented, Raman Data Processed
Mineral: Clinozoisite
Rruff sample: R060284
Ideal chemistry: Ca_2_Al_3_(Si_2_O_7_)(SiO_4_)O(OH)
Locality: near Zagi Mountain, Khaffor Dehri, North-West Frontier Province, Pakistan
Source: Herb Obodda
Description: Greenish-brown fragment of a prismatic crystal
Measured chemistry: Ca_2.00_(Al_0.90_Fe^3+^_0.10_)_3_(Si_1.00_O_4_)(Si_2.00_O_7_)O(OH)
Raman shift (cm-1)	intensity
105.568	0
108.943	19.1998
112.318	19.7937
115.692	26.223
119.067	20.4481
122.442	11.3738
125.817	1.06853
129.192	36.0521
132.567	113.867
135.941	257.828
139.316	418.906
142.691	573.912
146.066	610.203
149.441	603.804
152.815	598.558
156.19	666.603
159.565	712.658
162.94	820.62
166.315	855.165
169.69	841.318
173.064	715.841
176.439	542.982
179.814	340.116
183.189	172.307
186.564	87.1064
189.939	52.9483
193.313	14.8826
196.688	16.8856
200.063	22.4337
203.438	19.014
206.813	8.42444
210.187	21.4591
213.562	3.73175
216.937	16.2582
220.312	31.5068
223.687	36.3893
227.061	102.881
230.436	205.472
233.811	412.869
237.186	588.504
240.561	663.524
243.936	769.18
247.31	1011.53
250.685	1405.74
254.06	1742.18
257.435	1699.24
260.81	1283.56
264.185	1018.34
267.559	1028.71
270.934	1138.77
274.309	1257.72
277.684	1166.57
281.059	842.246
284.433	548.921
287.808	313.085
291.183	209.58
294.558	137.031
297.933	82.9613
301.308	23.682
304.682	44.8767
308.057	33.3611
311.432	41.8583
314.807	134.602
318.182	219.581
321.556	352.061
324.931	491.798
328.306	620.887
331.681	759.585
335.056	1095.16
338.43	1402.76
341.805	1759.61
345.18	2010.28
348.555	2200.22
351.93	2493.39
355.305	2165.47
358.679	1293.26
362.054	708.917
365.429	407.897
368.804	315.018
372.179	252.719
375.553	244.207
378.928	220.668
382.303	284.023
385.678	411.994
389.053	539.575
392.428	497.602
395.802	316.623
399.177	200.298
402.552	64.6288
405.927	45.5093
409.302	70.0028
412.676	61.3851
416.051	6.94843
419.426	163.501
422.801	395.934
426.176	660.193
429.551	813.943
432.925	716.423
436.3	722.797
439.675	902.993
443.05	1344.21
446.425	1998.99
449.8	2853.45
453.174	3482.24
456.549	3167.11
459.924	2258.19
463.299	1679.03
466.674	1326.64
470.048	1210.08
473.423	1225.44
476.798	1210.03
480.173	1242.03
483.548	1229.94
486.923	1109.96
490.297	801.633
493.672	575.444
497.047	397.893
500.422	379.099
503.797	489.481
507.171	614.146
510.546	698.177
513.921	643.048
517.296	643.414
520.671	642.994
524.045	661.441
527.42	618.849
530.795	559.84
534.17	323.992
537.545	77.676
540.92	28.3518
544.294	49.4348
547.669	36.0694
551.044	23.0969
554.419	115.15
557.794	334.955
561.168	671.435
564.543	1206.2
567.918	1945.41
571.293	2841.46
574.668	2762.04
578.043	1223.28
581.417	605.5
584.792	504.817
588.167	554.599
591.542	709.073
594.917	891.318
598.292	1067.28
601.666	1224.6
605.041	1402.42
608.416	1333.02
611.791	991.307
615.166	730.549
618.54	554.335
621.915	359.111
625.29	136.916
628.665	45.5626
632.04	8.67755
635.415	20.9614
638.789	19.6068
642.164	2.85901
645.539	28.5541
648.914	100.046
652.289	190.403
655.663	279.114
659.038	294.904
662.413	232.482
665.788	172.692
669.163	143.882
672.538	125.969
675.912	166.353
679.287	174.131
682.662	244.456
686.037	279.754
689.412	303.248
692.786	289.834
696.161	304.697
699.536	321.235
702.911	307.934
706.286	269.171
709.66	173.153
713.035	99.0092
716.41	56.9524
719.785	40.083
723.16	35.2132
726.535	17.1355
729.909	21.0229
733.284	17.7635
736.659	38.5986
740.034	42.4938
743.409	41.2856
746.784	43.5562
750.158	35.8281
753.533	36.8265
756.908	36.7786
760.283	33.024
763.658	28.0742
767.033	25.6996
770.407	19.8469
773.782	45.4778
777.157	10.4153
780.532	24.501
783.907	1.56036
787.281	3.08795
790.656	6.74902
794.031	13.8654
797.406	9.26181
800.781	19.8621
804.155	36.1628
807.53	18.0382
810.905	0.390045
814.28	22.8163
817.655	37.4042
821.029	49.4153
824.404	78.3813
827.779	68.7354
831.154	73.6909
834.529	97.4322
837.904	144.325
841.278	183.831
844.653	246.879
848.028	293.445
851.403	397.484
854.778	547.99
858.153	708.274
861.527	1002.66
864.902	1378.33
868.277	1886.59
871.652	2306.65
875.027	2394.13
878.401	2504.8
881.776	2674.12
885.151	2794.43
888.526	2966.09
891.901	3319.16
895.276	3590.2
898.65	3524.15
902.025	2986.49
905.4	2610.38
908.775	2508.73
912.15	2576.62
915.524	2408.75
918.899	1998.46
922.274	1643.02
925.649	1307.77
929.024	1085.21
932.399	854.118
935.773	606.837
939.148	388.695
942.523	202.251
945.898	51.8381
949.273	16.3967
952.648	44.3915
956.022	23.365
959.397	1.5874
962.772	21.1883
966.147	52.5641
969.521	103.538
972.896	182.244
976.271	358.248
979.646	610.395
983.021	879.804
986.396	997.907
989.77	757.946
993.145	430.395
996.52	223.143
999.895	126.836
1003.27	29.6281
1006.64	6.99573
1010.02	22.5433
1013.39	27.7057
1016.77	32.0548
1020.14	92.4383
1023.52	222.346
1026.89	403.051
1030.27	483.892
1033.64	433.543
1037.02	336.106
1040.39	288.06
1043.77	280.161
1047.14	269.73
1050.52	260.139
1053.89	179.407
1057.27	145.567
1060.64	103.416
1064.02	75.9438
1067.39	67.9547
1070.77	73.8792
1074.14	81.3022
1077.52	164.95
1080.89	297.195
1084.27	483.942
1087.64	768.718
1091.02	1092.65
1094.39	1247.43
1097.77	948.355
1101.14	469.589
1104.51	259.355
1107.89	172.616
1111.26	127.118
1114.64	83.6512
1118.01	47.5241
1121.39	25.377
1124.76	14.0365
1128.14	16.6585
1131.51	15.7718
1134.89	21.3893
1138.26	20.8015
1141.64	9.13342
1145.01	2.25458
1148.39	7.78803
1151.76	5.84464
1155.14	9.49741
1158.51	0.991241
1161.89	11.5416
1165.26	14.4069
1168.64	13.7587
1172.01	11.432
1175.38	18.2556
1178.76	10.1284
1182.13	17.5065
1185.51	5.51337
1188.88	17.0895
1192.26	29.1702
1195.63	19.5049
1199.01	21.0345
1202.38	27.8754
1205.76	28.4916
1209.13	9.21022
1212.51	24.208
1215.88	29.8739
1219.26	3.26834
1222.63	17.1407
1226.01	0.853867
1229.38	12.2479
1232.76	13.9512
1236.13	1.00273
1239.51	4.84811
1242.88	4.40012
1246.26	12.8051
1249.63	12.9459
1253.01	9.75702
1256.38	14.7695
1259.76	6.26048
1263.13	11.0724
1266.51	5.26149
1269.88	14.0521
1273.26	18.241
1276.63	3.87241
1280.01	19.0746
1283.38	10.0943
1286.76	26.9209
1290.13	31.2188
1293.5	23.7553
1296.88	13.8238
1300.25	13.9537
1303.63	28.0228
1307	1.51918
1310.38	0.822037
1313.75	20.9927
1317.13	9.51947
