Measurement: Raman, 532 nm, unoriented, Raman Data Processed
Mineral: Clinohedrite
Rruff sample: R120105
Ideal chemistry: CaZnSiO_4_H_2_O
Locality: Christmas mine, Christmas, Gila County, Arizona, USA
Source: Bob Jenkins
Description: Transparent colorless prismatic crystals, associated with blue kinoite and colorless platy junitoite, R120100.
Raman shift (cm-1)	intensity
193.981	0
196.874	0.030884
199.766	5.01038
202.659	12.3866
205.552	23.8425
208.445	46.4985
211.337	89.2116
214.23	158.31
217.123	271.237
220.015	415.273
222.908	290.728
225.801	195.199
228.693	208.86
231.586	183.114
234.479	142.349
237.371	131.015
240.264	117.628
243.157	115.033
246.05	153.835
248.942	180.899
251.835	202.223
254.728	242.677
257.62	286.826
260.513	248.613
263.406	213.662
266.298	179.6
269.191	73.7841
272.084	20.345
274.977	2.75818
277.869	4.39905
280.762	11.0132
283.655	32.8362
286.547	73.4368
289.44	104.734
292.333	86.3007
295.226	46.8424
298.118	18.6782
301.011	5.77551
303.904	3.50684
306.796	1.00977
309.689	13.9789
312.582	33.5051
315.474	62.1821
318.367	35.781
321.26	4.13867
324.152	5.78406
327.045	2.69299
329.938	1.92322
332.831	3.68042
335.723	1.81897
338.616	8.09082
341.509	13.4642
344.401	21.4578
347.294	22.4917
350.187	29.7551
353.079	24.1943
355.972	29.6599
358.865	34.1182
361.758	48.6698
364.65	69.4766
367.543	96.6483
370.436	144.044
373.328	191.441
376.221	206.589
379.114	168.645
382.007	148.286
384.899	173.017
387.792	232.992
390.685	335.999
393.577	453.321
396.47	521.373
399.363	462.752
402.255	342.223
405.148	223.227
408.041	129.875
410.933	81.5248
413.826	53.2742
416.719	29.7684
419.612	19.1758
422.504	15.3384
425.397	6.74023
428.29	9.04724
431.182	2.49451
434.075	3.07471
436.968	0.265381
439.861	1.37415
442.753	7.14734
445.646	2.58813
448.539	0.567871
451.431	1.38586
454.324	0.38147
457.217	4.08252
460.109	2.70276
463.002	7.62341
465.895	17.4397
468.788	24.4627
471.68	45.6172
474.573	62.3315
477.466	71.6127
480.358	57.0763
483.251	25.8396
486.144	7.21521
489.036	3.82239
491.929	1.67542
494.822	5.72498
497.714	14.6045
500.607	40.7004
503.5	67.6838
506.393	94.4956
509.285	73.0759
512.178	54.2598
515.071	43.0696
517.963	37.6687
520.856	43.571
523.749	43.8423
526.641	40.4976
529.534	28.0513
532.427	18.1672
535.32	17.1907
538.212	15.2175
541.105	22.4412
543.998	29.2131
546.89	55.7498
549.783	100.367
552.676	142.003
555.568	187.836
558.461	195.833
561.354	153.299
564.247	106.864
567.139	81.4182
570.032	76.3479
572.925	76.0989
575.817	79.7322
578.71	96.9399
581.603	109.802
584.495	91.5547
587.388	70.1592
590.281	45.2957
593.174	24.5139
596.066	19.3318
598.959	13.9878
601.852	16.7324
604.744	9.58398
607.637	8.88379
610.53	3.71509
613.423	6.05786
616.315	1.53516
619.208	6.14966
622.101	9.11133
624.993	10.8445
627.886	0.713867
630.779	1.27124
633.671	6.2605
636.564	3.75415
639.457	0.548584
642.35	3.47119
645.242	1.18189
648.135	4.07642
651.028	0.143799
653.92	9.86352
656.813	1.95483
659.706	10.7293
662.598	7.85498
665.491	4.08545
668.384	8.6499
671.277	3.80957
674.169	9.33545
677.062	9.375
679.955	7.85742
682.847	8.27661
685.74	9.89966
688.633	16.2942
691.525	17.9009
694.418	8.09009
697.311	13.7107
700.203	2.18677
703.096	4.50513
705.989	7.48315
708.882	5.5083
711.774	1.5332
714.667	3.92529
717.56	4.52002
720.452	5.78931
723.345	4.03052
726.238	6.30347
729.13	7.93652
732.023	5.94434
734.916	9.9917
737.809	9.76245
740.701	12.3425
743.594	18.1099
746.487	21.2883
749.379	17.9458
752.272	17.0252
755.165	8.21021
758.058	2.24243
760.95	11.7322
763.843	8.302
766.736	17.3879
769.628	10.042
772.521	16.0623
775.414	17.9854
778.306	16.2925
781.199	20.4104
784.092	17.8301
786.985	15.1799
789.877	19.5666
792.77	18.5945
795.663	14.8867
798.555	7.60889
801.448	1.53125
804.341	3.22266
807.233	2.49121
810.126	2.9353
813.019	1.81201
815.912	2.29639
818.804	5.46021
821.697	22.2578
824.59	23.8738
827.482	27.9756
830.375	33.9106
833.268	54.3672
836.16	83.8415
839.053	120.498
841.946	166.293
844.838	234.588
847.731	342.903
850.624	483.077
853.517	590.218
856.409	447.813
859.302	298.379
862.195	263.963
865.087	288.546
867.98	299.794
870.873	243.896
873.765	160.619
876.658	110.424
879.551	81.0984
882.444	56.4756
885.336	46.2654
888.229	49.8579
891.122	46.926
894.014	50.7888
896.907	53.4216
899.8	48.7424
902.692	40.9475
905.585	33.1755
908.478	31.7564
911.371	27.978
914.263	17.9634
917.156	21.2712
920.049	24.5515
922.941	24.0737
925.834	16.6921
928.727	13.8923
931.62	2.10376
934.512	3.12622
937.405	0.789795
940.298	1.89648
943.19	9.11865
946.083	3.74853
948.976	5.71558
951.868	6.64917
954.761	7.05078
957.654	24.8892
960.547	52.2656
963.439	73.4414
966.332	77.7693
969.225	57.3115
972.117	32.7251
975.01	22.123
977.903	16.3899
980.795	21.1611
983.688	28.5156
986.581	50.9851
989.473	74.8713
992.366	79.7234
995.259	70.2075
998.152	55.6531
1001.04	41.394
1003.94	28.7986
1006.83	21.2727
1009.72	24.9292
1012.62	20.3945
1015.51	15.5054
1018.4	9.03906
1021.29	12.5315
1024.19	11.1589
1027.08	11.3093
1029.97	11.4133
1032.86	6.65283
1035.76	10.2664
1038.65	0.08667
1041.54	1.5979
1044.43	4.51221
1047.33	5.32812
1050.22	3.11768
1053.11	3.07153
1056.01	3.38769
1058.9	0.750977
1061.79	3.13696
1064.68	1.94873
1067.58	6.06836
1070.47	8.40381
1073.36	3.28272
1076.26	8.52661
1079.15	10.696
1082.04	12.6934
1084.93	16.4617
1087.83	14.614
1090.72	7.20337
1093.61	14.1133
1096.5	14.9275
1099.4	11.7256
1102.29	9.11523
1105.18	12.2949
1108.07	4.74683
1110.97	8.97021
1113.86	11.197
1116.75	6.21118
1119.64	10.4941
1122.54	16.1055
1125.43	5.72485
1128.32	3.22363
1131.22	7.80762
1134.11	7.00635
1137	11.2932
1139.89	2.66968
1142.79	7.43433
1145.68	17.2124
1148.57	11.2896
1151.46	18.7549
1154.36	1.60986
1157.25	2.97241
1160.14	7.50098
1163.04	10.9182
1165.93	3.49658
1168.82	3.73657
1171.71	8.73584
1174.61	8.28955
1177.5	7.97168
1180.39	10.8037
1183.28	3.43823
1186.18	5.04639
1189.07	1.54614
1191.96	0.091064
1194.86	0.860596
1197.75	7.52344
1200.64	11.7285
1203.53	10.7141
1206.43	12.4822
1209.32	9.49585
1212.21	7.75171
1215.1	2.92773
1218	1.61621
1220.89	5.552
1223.78	3.61816
1226.67	5.22656
1229.57	0.548584
1232.46	7.65186
1235.35	6.12939
1238.25	3.02832
1241.14	4.4812
1244.03	9.32031
1246.92	7.93213
1249.82	5.9917
1252.71	0.955078
1255.6	2.13208
1258.49	11.7722
1261.39	12.7459
1264.28	12.8867
1267.17	8.88867
1270.07	9.95996
1272.96	3.60083
1275.85	5.30591
1278.74	5.79541
1281.64	10.7722
1284.53	6.5979
1287.42	3.94922
1290.31	1.75391
1293.21	8.323
1296.1	0.148682
1298.99	4.12427
1301.88	0
