Measurement: Raman, 785 nm, unoriented, Raman Data Processed
Mineral: Clinoenstatite
Rruff sample: R070276
Ideal chemistry: MgSiO_3_
Locality: Synthetic, at 15 GPa and 1600 C by Juergen Konzett
Source: Juergen Konzett
Description: Colorless grains associated with stishovite
Measured chemistry: Mg_1.00_Si_1.00_O_3_ ; trace to minor amounts of Na
Raman shift (cm-1)	intensity
187.069	0
189.962	64.7481
192.855	160.514
195.748	392.941
198.64	527.182
201.533	658.594
204.426	683.438
207.318	593.33
210.211	461.922
213.104	297.234
215.996	282.982
218.889	227.594
221.782	470.066
224.674	527.869
227.567	646.453
230.46	624.738
233.353	700.248
236.245	662.127
239.138	755.896
242.031	937.941
244.923	1112.88
247.816	750.342
250.709	334.375
253.601	230.24
256.494	271.781
259.387	275.783
262.28	255.719
265.172	216.205
268.065	194.4
270.958	201.859
273.85	140.685
276.743	46.1309
279.636	100.486
282.529	107.633
285.421	160.353
288.314	236.068
291.207	92.8769
294.099	172.816
296.992	30.2539
299.885	46.25
302.777	21.8848
305.67	58.2969
308.563	14.5332
311.455	60.3438
314.348	22.5059
317.241	93.5
320.134	45.7109
323.026	111.916
325.919	164.881
328.812	320.869
331.704	643.816
334.597	1054.73
337.49	1260.62
340.382	1748.96
343.275	1768.96
346.168	1454.09
349.061	921.551
351.953	575.969
354.846	404.09
357.739	244.512
360.631	207.82
363.524	270.031
366.417	360.465
369.31	520.285
372.202	469.422
375.095	389.652
377.988	53.4336
380.88	135.535
383.773	100.961
386.666	130.922
389.558	42.6914
392.451	32.5078
395.344	96.2148
398.236	325.059
401.129	480.469
404.022	322.367
406.915	334.852
409.807	264.402
412.7	238.348
415.593	327.195
418.485	460.113
421.378	368.957
424.271	289.633
427.163	284.66
430.056	306.961
432.949	474.055
435.842	319.902
438.734	99.707
441.627	140.887
444.52	197.856
447.412	91.7656
450.305	248.019
453.198	149.106
456.091	87.293
458.983	6.25781
461.876	128.254
464.769	42.3633
467.661	110.766
470.554	46.3555
473.447	220.477
476.339	123.113
479.232	33.9844
482.125	11.5586
485.017	116.816
487.91	74.0469
490.803	41.125
493.696	282.625
496.588	126.594
499.481	240.188
502.374	107.539
505.266	47.918
508.159	97.4414
511.052	141.965
513.944	256.652
516.837	297.195
519.73	155.199
522.623	180.945
525.515	137.43
528.408	154.047
531.301	75.6445
534.193	102.231
537.086	230.035
539.979	166.793
542.871	20.5352
545.764	58.1816
548.657	85.8574
551.55	88.4551
554.442	140.383
557.335	118.465
560.228	114.412
563.12	62.9316
566.013	195.502
568.906	175.25
571.798	100.621
574.691	16.8027
577.584	127.926
580.477	267.076
583.369	265.59
586.262	210
589.155	257.898
592.047	82.8106
594.94	66.1523
597.833	36.9102
600.726	43.1016
603.618	7.42578
606.511	69.9414
609.404	91.2051
612.296	196.215
615.189	84.3086
618.082	36.7852
620.974	11.1719
623.867	90.7656
626.76	113.773
629.653	20.6836
632.545	23.0195
635.438	37.3066
638.331	14.1621
641.223	64.2109
644.116	76.3555
647.009	52.2441
649.901	191.207
652.794	333.111
655.687	481.059
658.58	649.539
661.472	908.875
664.365	1110.22
667.258	1019.62
670.15	815.926
673.043	672.51
675.936	802.654
678.828	893.074
681.721	1166.85
684.614	1491.44
687.506	1706.24
690.399	1592.62
693.292	1142.36
696.185	665.328
699.077	412.305
701.97	419.883
704.863	258.529
707.755	285.965
710.648	147.377
713.541	120.848
716.433	195.643
719.326	100.119
722.219	119.676
725.112	139.893
728.004	51.7812
730.897	96.6504
733.79	58.6445
736.682	103.856
739.575	65.6191
742.468	132.211
745.361	94.457
748.253	132.81
751.146	188.414
754.039	137.531
756.931	81.4082
759.824	0.324219
762.717	40.7949
765.609	49.2871
768.502	99.9238
771.395	82.7188
774.288	165.559
777.18	88.2481
780.073	153.027
782.966	99.5996
785.858	54.3848
788.751	128.043
791.644	68.0312
794.536	81.8848
797.429	160.695
800.322	10.334
803.215	43.457
806.107	158.379
809	40.2363
811.893	42.6113
814.785	106.658
817.678	171.682
820.571	119.695
823.463	81.4668
826.356	31.9941
829.249	88.3496
832.141	81.0078
835.034	107.316
837.927	90.6719
840.82	179.453
843.712	187.996
846.605	200.377
849.498	148.129
852.39	177.168
855.283	154.49
858.176	142.541
861.068	153.205
863.961	89.1582
866.854	128.01
869.747	128.894
872.639	36.334
875.532	138.24
878.425	103.695
881.317	40.7773
884.21	20.9512
887.103	24.3438
889.995	166.221
892.888	166.785
895.781	125.428
898.674	104.885
901.566	91.1269
904.459	47.9648
907.352	113.228
910.244	100.682
913.137	119.49
916.03	175.506
918.923	187.971
921.815	138.902
924.708	38.334
927.601	46.9414
930.493	97.4356
933.386	78.4023
936.279	153.238
939.171	148.144
942.064	120.053
944.957	84.4981
947.85	209.598
950.742	2.94531
953.635	48.0254
956.528	57.834
959.42	40.75
962.313	153.223
965.206	18.5508
968.098	173.853
970.991	41.4609
973.884	22.5938
976.777	17.752
979.669	53.9336
982.562	133.469
985.455	61.6719
988.347	150.588
991.24	156.531
994.133	0.775391
997.025	116.002
999.918	253.022
1002.81	110.449
1005.7	285.359
1008.6	503.406
1011.49	687.523
1014.38	705.152
1017.27	560.816
1020.17	506.228
1023.06	525.092
1025.95	599.652
1028.85	713.836
1031.74	1237.32
1034.63	695.809
1037.52	680.793
1040.42	524.232
1043.31	337.668
1046.2	315.81
1049.09	169.553
1051.99	169.873
1054.88	107.773
1057.77	193.438
1060.66	198.685
1063.56	79.1602
1066.45	115.244
1069.34	82.1445
1072.24	20.8848
1075.13	0.095703
1078.02	121.723
1080.91	89.084
1083.81	163.824
1086.7	125.943
1089.59	55.2676
1092.48	93.1348
1095.38	4.0918
1098.27	100.91
1101.16	92.334
1104.06	126.576
1106.95	102.367
1109.84	132.978
1112.73	164.426
1115.63	77.5527
1118.52	84.6816
1121.41	119.463
1124.3	132.856
1127.2	195.678
1130.09	60.6914
1132.98	81.209
1135.88	69.957
1138.77	51.377
1141.66	88.0644
1144.55	31.5449
1147.45	20.9297
1150.34	147.227
1153.23	202.037
1156.12	98.3164
1159.02	108.641
1161.91	49.6953
1164.8	83.1172
1167.69	105.885
1170.59	96.9199
1173.48	55.3164
1176.37	24.6953
1179.27	175.59
1182.16	109.557
1185.05	107.203
1187.94	59.918
1190.84	165.565
1193.73	88.2754
1196.62	122.367
1199.51	121.594
1202.41	127.096
1205.3	130.949
1208.19	58.1191
1211.09	71.5176
1213.98	124.992
1216.87	156.644
1219.76	150.973
1222.66	97.7168
1225.55	10.4844
1228.44	182.572
1231.33	142.477
1234.23	102.463
1237.12	23.9297
