Measurement: Raman, 532 nm, unoriented, Raman Data Processed
Mineral: Clinoptilolite-Ca
Rruff sample: R061098
Ideal chemistry: Ca_3_(Si_30_Al_6_)O_72_20H_2_O
Locality: Fish Creek Quarry, Clackamas River, Estacada, Clackamas County, Oregon, USA
Source: Michael Scott
Description: Druse of colorless, clear tabular somewhat pseudohexagonal crystals in vug
Measured chemistry: (Ca_1.90_K_1.85_Na_0.23_Mg_0.11_)_Σ=4.09_(Si_29.90_Al_6.10_)_Σ=36_O_72_·21.90H_2_O; H_2_O estimated by difference
Raman shift (cm-1)	intensity
118.19	0
121.565	503.492
124.94	1651.68
128.314	1887.24
131.689	1621.29
135.064	1447.57
138.439	1717.95
141.814	1610.32
145.189	1449.34
148.563	1270.81
151.938	1159.31
155.313	1192.68
158.688	1057.99
162.063	870.842
165.437	760.014
168.812	619.602
172.187	550.19
175.562	443.564
178.937	343.707
182.311	208.082
185.686	209.159
189.061	217.461
192.436	181.488
195.811	116.387
199.185	99.8867
202.56	53.4456
205.935	29.3953
209.31	14.9812
212.685	21.7334
216.06	70.4087
219.434	54.1328
222.809	105.094
226.184	0.701416
229.559	13.2424
232.934	16.77
236.309	142.531
239.683	187.796
243.058	244.168
246.433	300.794
249.808	381.535
253.183	428.11
256.557	493.514
259.932	538.761
263.307	497.587
266.682	441.447
270.057	430.19
273.431	388.798
276.806	311.84
280.181	273.416
283.556	152.052
286.931	147.459
290.305	132.761
293.68	67.9619
297.055	96.6101
300.43	28.2434
303.805	23.311
307.18	2.23413
310.554	29.4485
313.929	37.4958
317.304	22.7275
320.679	25.825
324.054	34.562
327.428	63.2273
330.803	40.5901
334.178	31.0366
337.553	6.21387
340.928	53.8457
344.303	24.5232
347.677	68.6882
351.052	65.573
354.427	83.8372
357.802	151.351
361.177	260.867
364.551	300.211
367.926	388.214
371.301	548.425
374.676	649.955
378.051	768.171
381.425	981.334
384.8	1250.34
388.175	1577.17
391.55	1978.63
394.925	2411.48
398.3	2812.16
401.674	3197.8
405.049	3262.74
408.424	3178.09
411.799	2780.13
415.174	2220.24
418.548	1725.82
421.923	1192.37
425.298	793.305
428.673	496.75
432.048	217.747
435.423	167.139
438.797	9.56323
442.172	6.01099
445.547	6.98901
448.922	2.61938
452.297	100.669
455.671	246.867
459.046	459.901
462.421	779.984
465.796	1081.57
469.171	1422.87
472.546	1798.92
475.92	2118.19
479.295	2325.4
482.67	2144
486.045	1709.56
489.42	1145.94
492.794	717.013
496.169	371.872
499.544	187.654
502.919	76.3835
506.294	65.8984
509.668	21.3294
513.043	23.3042
516.418	32.4585
519.793	0.222168
523.168	11.7437
526.543	18.5266
529.917	3.91504
533.292	2.80493
536.667	1.43018
540.042	18.9084
543.417	61.4397
546.791	63.0815
550.166	94.1655
553.541	102.358
556.916	99.2361
560.291	131.876
563.665	109.557
567.04	143.597
570.415	154.446
573.79	147.833
577.165	138.84
580.54	198.426
583.914	175.814
587.289	193.433
590.664	154.048
594.039	220.401
597.414	272.812
600.788	281.949
604.163	377.568
607.538	441.932
610.913	480.553
614.288	532.073
617.663	576.115
621.037	582.257
624.412	506.684
627.787	448.919
631.162	394.067
634.537	280.352
637.911	183.879
641.286	109.214
644.661	121.284
648.036	58.2766
651.411	72.5857
654.785	29.7866
658.16	52.1707
661.535	12.0253
664.91	24.3636
668.285	29.7897
671.659	44.7398
675.034	29.7105
678.409	18.655
681.784	15.271
685.159	29.3849
688.534	6.57544
691.908	5.73694
695.283	4.00977
698.658	13.0387
702.033	52.0691
705.408	48.6349
708.783	42.2643
712.157	39.9625
715.532	29.6764
718.907	48.0435
722.282	47.2665
725.657	64.3645
729.031	66.1415
732.406	43.1938
735.781	19.9061
739.156	1.23377
742.531	27.3104
745.905	35.6428
749.28	50.1078
752.655	32.8837
756.03	53.0259
759.405	59.1233
762.779	139.133
766.154	105.649
769.529	185.744
772.904	183.531
776.279	225.632
779.654	276.861
783.028	290.96
786.403	310.412
789.778	315.752
793.153	305.463
796.528	328.136
799.903	293.406
803.277	273.7
806.652	156.087
810.027	154.554
813.402	125.371
816.777	88.8127
820.151	84.1216
823.526	98.2024
826.901	43.4747
830.276	45.9637
833.651	34.426
837.025	19.3433
840.4	0.647583
843.775	41.3024
847.15	14.9049
850.525	15.2583
853.899	17.1619
857.274	32.5879
860.649	69.7704
864.024	33.667
867.399	24.0666
870.774	15.3932
874.148	33.3234
877.523	9.8822
880.898	6.12939
884.273	57.1078
887.648	30.4217
891.023	5.9187
894.397	30.3302
897.772	41.7723
901.147	1.6062
904.522	30.1693
907.896	62.6224
911.271	18.8044
914.646	45.3773
918.021	23.9022
921.396	48.4248
924.771	42.8159
928.145	45.3911
931.52	32.6636
934.895	3.55298
938.27	12.5373
941.645	12.2085
945.019	31.2715
948.394	42.4834
951.769	44.3276
955.144	4.68457
958.519	38.2363
961.894	3.854
965.268	5.69238
968.643	14.7864
972.018	12.2651
975.393	26.9768
978.768	24.1135
982.143	46.8367
985.517	61.4087
988.892	55.1065
992.267	35.9482
995.642	51.0906
999.016	71.8401
1002.39	59.8667
1005.77	76.2766
1009.14	56.8897
1012.52	70.4219
1015.89	52.0156
1019.26	83.9905
1022.64	121.37
1026.02	127.831
1029.39	100.411
1032.77	145.624
1036.14	123.551
1039.51	90.2192
1042.89	119.49
1046.26	87.6477
1049.64	105.207
1053.01	109.664
1056.39	72.3567
1059.76	35.3347
1063.14	57.4453
1066.51	29.8943
1069.89	0.283203
1073.26	0.202881
1076.64	15.012
1080.01	23.2783
1083.39	16.1279
1086.76	20.4961
1090.14	7.62109
1093.51	74.8779
1096.89	101.471
1100.26	115.593
1103.64	111.624
1107.01	177.728
1110.38	167.566
1113.76	205.509
1117.13	218.035
1120.51	208.348
1123.88	234.412
1127.26	246.903
1130.63	253.037
1134.01	282.436
1137.38	288.161
1140.76	280.232
1144.13	261.677
1147.51	262.827
1150.88	296.738
1154.26	310.685
1157.63	272.735
1161.01	237.133
1164.38	273.669
1167.76	314.263
1171.13	249.38
1174.51	226.508
1177.88	241.208
1181.26	211.2
1184.63	204.138
1188.01	158.187
1191.38	178.168
1194.76	134.004
1198.13	134.471
1201.51	105.168
1204.88	99.575
1208.26	49.9565
1211.63	83.6663
1215.01	36.2424
1218.38	18.4334
1221.75	21.3496
1225.13	51.4185
1228.5	7.49219
1231.88	23.553
1235.25	19.6597
1238.63	5.9375
1242	46.8723
1245.38	68.7012
1248.75	71.1167
1252.13	59.0325
1255.5	90.6433
1258.88	40.6558
1262.25	44.5725
1265.63	26.4385
1269	2.19556
1272.38	29.2639
1275.75	44.2732
