Measurement: Raman, 514 nm, unoriented, Raman Data Processed
Mineral: Clinozoisite
Rruff sample: R040085
Ideal chemistry: Ca_2_Al_3_(Si_2_O_7_)(SiO_4_)O(OH)
Locality: Alamos, Sonora, Mexico
Source: University of Arizona Mineral Museum
Description: Divergent aggregate of red thin prismatic crystals
Measured chemistry: Ca_2.03_(Al_0.90_Fe_0.13_)_3_(Si_1.00_O_4_)(Si_2.00_O_7_)O(OH)
Raman shift (cm-1)	intensity
137.857	0
142.016	286.551
146.172	432.287
150.327	305.912
154.48	398.207
158.63	465.645
162.779	1167.69
166.926	1423.45
171.07	1308.5
175.213	1000.84
179.354	431.344
183.493	306.1
187.63	44.811
191.765	47.299
195.898	113.25
200.029	110.695
204.158	24.65
208.285	276.43
212.41	133.523
216.533	7.623
220.654	34.756
224.773	166.395
228.891	488.51
233.006	1156.74
237.119	1521.74
241.231	2009.21
245.34	2943
249.448	4510.6
253.553	5716.59
257.657	4638.44
261.758	3317.6
265.858	2671.37
269.956	2086.93
274.052	2007.91
278.146	1644.8
282.237	1093.39
286.327	646.688
290.416	853.699
294.502	578.43
298.586	837.881
302.668	917.502
306.749	717.27
310.827	615.75
314.903	437.557
318.978	381.152
323.051	681.713
327.121	838.248
331.19	1363.22
335.257	1993.29
339.322	2342.5
343.385	2959.58
347.446	4044.44
351.505	5167.86
355.563	4116.5
359.618	2301.04
363.672	1331.93
367.723	971.631
371.773	430.414
375.821	110.281
379.866	251.283
383.91	157.787
387.952	234.422
391.992	378.771
396.031	581.762
400.067	306.162
404.101	67.086
408.134	63.404
412.165	242.512
416.193	735.051
420.22	979.168
424.245	1888.99
428.268	3088.28
432.289	2657.05
436.309	2365.34
440.326	3121.14
444.342	4727.47
448.355	8380.39
452.367	11077.8
456.377	9722.65
460.385	7500.9
464.391	6043.67
468.395	5714.77
472.398	5531.08
476.398	4803.9
480.397	5174.41
484.394	4646.22
488.389	3790.99
492.382	2322.42
496.373	1539.77
500.362	1334.37
504.349	1613.24
508.335	1713.38
512.319	1825.8
516.3	1998.65
520.28	1842.77
524.259	1833.33
528.235	1597.31
532.209	1352.6
536.182	595.121
540.152	8.832
544.121	260.863
548.088	23.912
552.053	116.961
556.017	361.877
559.978	848.887
563.938	1669.71
567.895	4180.59
571.851	5802.44
575.805	3169.19
579.758	830.48
583.708	732.773
587.657	501.918
591.603	771.273
595.548	1004.06
599.491	1238.07
603.432	1878.85
607.372	1833.14
611.309	1557.95
615.245	678.992
619.179	742.121
623.111	108.605
627.041	673.336
630.97	9.633
634.896	99.938
638.821	77.719
642.744	308.59
646.665	67.637
650.584	153.328
654.502	856
658.418	314.699
662.331	828.684
666.244	639.27
670.154	358.656
674.062	375.566
677.969	266.176
681.874	341.594
685.777	718.57
689.678	603.223
693.577	785.543
697.475	613.523
701.371	908.121
705.265	461.402
709.157	586.57
713.047	183.148
716.936	407.336
720.823	80.75
724.708	124.578
728.591	361.922
732.472	277.387
736.352	133.832
740.23	93.984
744.106	32.637
747.98	140.105
751.853	37.133
755.723	35.5
759.592	433.074
763.459	67.789
767.325	114.84
771.188	201.379
775.05	453.234
778.91	234.258
782.768	223.742
786.625	76.523
790.479	333.953
794.332	174.047
798.183	239.734
802.033	188.422
805.88	349.062
809.726	179.973
813.57	420.023
817.413	272.723
821.253	476.062
825.092	599.059
828.929	547.684
832.764	617.145
836.598	950.344
840.429	746.348
844.259	721.25
848.088	709.902
851.914	708.551
855.739	1243.59
859.562	1773.98
863.383	2243.3
867.203	2651.26
871.02	3785.69
874.836	4477.98
878.65	5026.48
882.463	5211.09
886.274	4458.07
890.083	4340.09
893.89	3873.91
897.695	3191.81
901.499	2792.09
905.301	2321.8
909.102	2054.5
912.9	1928.61
916.697	2028.43
920.492	1672.09
924.285	1280.32
928.077	1213.41
931.867	1095.91
935.655	1025.29
939.442	1276.28
943.226	905.695
947.009	750.668
950.791	450.926
954.57	397.801
958.348	800.219
962.124	980.773
965.899	755.855
969.671	508.902
973.442	701.996
977.211	1327.97
980.979	2368.59
984.745	3541.9
988.509	3052.37
992.271	1702.65
996.032	1109.28
999.791	936.059
1003.55	366.141
1007.3	615.516
1011.06	304.305
1014.81	736.395
1018.56	556.695
1022.31	639.746
1026.06	900.16
1029.8	823.598
1033.55	652.855
1037.29	693.809
1041.03	852.785
1044.77	752.32
1048.5	727.211
1052.24	896.789
1055.97	886.453
1059.7	962.812
1063.43	879.211
1067.16	642.176
1070.89	524.176
1074.61	867.941
1078.34	1128.79
1082.06	1541.3
1085.78	2378.68
1089.5	3423.59
1093.21	4282.82
1096.93	3687.74
1100.64	1790.12
1104.35	1152.82
1108.06	466.324
1111.77	765.898
1115.48	357.953
1119.18	322.734
1122.89	434.434
1126.59	421.273
1130.29	127.004
1133.99	171.59
1137.68	465.855
1141.38	25.73
1145.07	136.523
1148.76	187.051
1152.45	222.379
1156.14	261.75
1159.83	20.402
1163.51	192.578
1167.19	505.996
1170.88	182.484
1174.56	187.625
1178.23	365.742
1181.91	39.246
1185.59	311.203
1189.26	469.371
1192.93	378.863
1196.6	425.367
1200.27	293.973
1203.94	752.895
1207.6	574.137
1211.27	331.059
1214.93	528.234
1218.59	313.449
1222.25	588.746
1225.9	444.836
1229.56	272.172
1233.21	598.395
1236.86	501.598
1240.51	343.535
1244.16	556.648
1247.81	825.871
1251.45	610.98
1255.1	587.242
1258.74	102.309
1262.38	177.191
1266.02	462.758
1269.66	475.238
1273.29	394.758
1276.93	328.742
1280.56	466.871
1284.19	464.648
1287.82	257.461
1291.45	200.871
1295.07	197.988
1298.7	236.473
1302.32	77.605
1305.94	190.957
1309.56	345.215
1313.18	51.582
1316.8	596.973
1320.41	61.586
1324.02	247.406
1327.63	430.621
1331.24	188.055
1334.85	21.922
1338.46	79.387
1342.06	344.012
1345.67	270.273
1349.27	634.957
1352.87	809.043
1356.47	649.906
1360.07	709.062
1363.66	419.699
1367.25	314.742
1370.85	656.461
1374.44	766.152
1378.03	432.418
1381.61	530.797
1385.2	845.5
1388.78	551.715
1392.37	906.664
1395.95	737.824
1399.53	554.043
1403.1	745.133
1406.68	471.43
1410.26	366.953
1413.83	737.051
1417.4	357.336
1420.97	513.672
1424.54	410.191
1428.1	626.586
1431.67	454.555
1435.23	564.477
1438.8	968.148
1442.36	625.125
1445.91	856.43
1449.47	660.863
1453.03	1032.86
1456.58	1054.77
1460.13	927.465
1463.68	489.102
1467.23	300.609
1470.78	467.141
1474.33	637.297
1477.87	331.09
1481.42	116.852
1484.96	500.223
1488.5	103.473
1492.04	552.34
1495.57	429.754
