Measurement: Raman, 785 nm, unoriented, Raman Data Processed
Mineral: Clinocervantite
Rruff sample: R070385
Ideal chemistry: Sb^3+^Sb^5+^O_4_
Locality: Le Cetine di Cotorniano Mine (Le Cetine Mine; Cetine Mine; Rosia), Chiusdino, Siena Province, Tuscany, Italy
Source: Michael Scott
Description: White acicular crystals in vug associated with valentinite, tripuhyite, R070383, and rosiaite, R070384. Co-type specimen
Measured chemistry: Sb^3+^_1.00_(Sb^5+^_0.99_As^5+^_0.01_)_Î£=1_O_4_; Sb^5+^ and Sb^3+^ splitted by charge balance
Raman shift (cm-1)	intensity
74.2639	0
77.6387	9.18036
81.0135	26.3773
84.3883	48.7367
87.7631	62.404
91.1379	68.8898
94.5128	90.2936
97.8876	125.838
101.262	125.798
104.637	90.4148
108.012	52.2344
111.387	12.9466
114.762	3.13478
118.136	23.5783
121.511	39.6704
124.886	25.2835
128.261	6.06674
131.636	114.288
135.011	285.838
138.385	423.707
141.76	634.46
145.135	1200.73
148.51	1776.66
151.885	1109.49
155.26	460.174
158.634	230.293
162.009	182.893
165.384	201.714
168.759	301.484
172.133	495.947
175.508	1092.72
178.883	2044.29
182.258	2889.14
185.633	4099.57
189.008	6809.72
192.382	12930.3
195.757	11829.8
199.132	10804.7
202.507	13941.3
205.882	22059.7
209.256	28521.2
212.631	13218.7
216.006	4556.11
219.381	2135.98
222.756	1254.24
226.131	760.597
229.505	466.127
232.88	320.688
236.255	235.027
239.63	201.816
243.005	225.978
246.38	255.5
249.754	290.926
253.129	493.968
256.504	503.617
259.879	86.5071
263.254	13.1328
266.628	26.3107
270.003	57.4514
273.378	90.8633
276.753	159.466
280.128	139.008
283.502	4.19553
286.877	45.6131
290.252	37.3341
293.627	35.6362
297.002	0.532318
300.377	6.92044
303.751	12.5353
307.126	22.2866
310.501	83.2265
313.876	177.288
317.251	136.1
320.625	144.15
324	81.1118
327.375	42.7773
330.75	43.0765
334.125	24.9311
337.5	48.5581
340.874	53.8728
344.249	36.7825
347.624	2.77878
350.999	3.14551
354.374	28.3513
357.748	19.1883
361.123	5.0975
364.498	9.01788
367.873	44.6132
371.248	85.0974
374.623	172.857
377.997	236.585
381.372	441.677
384.747	981.596
388.122	1964.74
391.497	3127.94
394.871	4654.43
398.246	7339.34
401.621	8448.13
404.996	4663.41
408.371	2035.19
411.745	1052.86
415.12	692.64
418.495	493.16
421.87	443.402
425.245	449.719
428.62	461.44
431.994	552.231
435.369	688.449
438.744	691.414
442.119	582.552
445.494	558.69
448.868	799.242
452.243	1077.72
455.618	1295.42
458.993	1676.36
462.368	2000.73
465.743	1685.68
469.117	1013
472.492	558.369
475.867	313.35
479.242	197.639
482.617	140.978
485.991	90.4924
489.366	47.1226
492.741	12.1091
496.116	8.86047
499.491	20.7919
502.866	14.3186
506.24	8.92064
509.615	3.38149
512.99	9.37186
516.365	9.88466
519.74	6.86642
523.115	3.69746
526.489	13.4908
529.864	2.22961
533.239	25.0787
536.614	15.9738
539.989	20.5103
543.363	13.398
546.738	21.5748
550.113	36.6277
553.488	45.8395
556.863	48.3833
560.237	41.8222
563.612	26.4622
566.987	39.4153
570.362	25.2467
573.737	16.8782
577.111	4.95825
580.486	2.73257
583.861	14.5964
587.236	16.5082
590.611	32.8638
593.986	47.4852
597.36	80.4123
600.735	94.154
604.11	99.7437
607.485	96.2506
610.86	97.7957
614.235	125.1
617.609	165.105
620.984	238.786
624.359	339.377
627.734	398.916
631.109	425.69
634.483	354.371
637.858	260.945
641.233	234.807
644.608	327.966
647.983	510.868
651.357	763.555
654.732	1218.67
658.107	1395.12
661.482	728.593
664.857	371.637
668.232	168.137
671.606	87.502
674.981	36.6789
678.356	28.8454
681.731	6.48364
685.106	7.54787
688.481	2.34043
691.855	0.622684
695.23	7.15104
698.605	7.72298
701.98	8.41454
705.355	22.2878
708.729	29.7598
712.104	28.9305
715.479	45.1461
718.854	46.0618
722.229	28.2418
725.604	49.4182
728.978	73.7788
732.353	88.1343
735.728	99.2513
739.103	95.7248
742.477	75.8814
745.852	49.0307
749.227	26.8048
752.602	6.74691
755.977	18.6753
759.352	0.91208
762.726	1.73247
766.101	1.30526
769.476	1.27515
772.851	11.2233
776.226	7.19132
779.601	16.1325
782.975	6.57585
786.35	20.0197
789.725	24.876
793.1	31.1026
796.475	54.3917
799.849	76.0069
803.224	88.9281
806.599	156.483
809.974	211.058
813.349	239.961
816.723	219.513
820.098	158.157
823.473	107.466
826.848	71.9062
830.223	52.4995
833.598	36.7678
836.972	13.7475
840.347	20.9611
843.722	20.0775
847.097	13.7443
850.472	1.67784
853.846	7.85789
857.221	9.25161
860.596	4.99817
863.971	4.70305
867.346	9.88109
870.721	2.49986
874.095	11.5495
877.47	9.13447
880.845	19.1502
884.22	1.57083
887.595	11.8133
890.97	10.942
894.344	3.62727
897.719	9.62748
901.094	7.05727
904.469	9.47451
907.844	9.43601
911.218	0.474171
914.593	12.1652
917.968	13.6809
921.343	16.4642
924.718	9.16609
928.092	16.6142
931.467	18.0317
934.842	17.6057
938.217	12.5875
941.592	16.973
944.967	11.054
948.341	10.429
951.716	6.119
955.091	1.44701
958.466	13.5746
961.841	10.866
965.216	1.77121
968.59	1.305
971.965	3.12511
975.34	5.85134
978.715	3.30135
982.09	2.0929
985.464	4.55681
988.839	6.93851
992.214	7.08815
995.589	9.67336
998.964	3.61422
1002.34	16.7493
1005.71	4.28399
1009.09	8.37246
1012.46	13.9304
1015.84	5.81742
1019.21	16.8787
1022.59	12.0041
1025.96	11.1495
1029.34	20.4119
1032.71	12.259
1036.09	20.1063
1039.46	21.9678
1042.84	18.504
1046.21	7.00447
1049.59	23.2242
1052.96	15.2795
1056.34	9.83121
1059.71	16.4004
1063.09	13.149
1066.46	9.78696
1069.84	11.7948
1073.21	4.50322
1076.58	13.6755
1079.96	22.6173
1083.33	7.97616
1086.71	7.93961
1090.08	4.93979
1093.46	5.54876
1096.83	7.61367
1100.21	3.43659
1103.58	10.7655
1106.96	14.6276
1110.33	7.59001
1113.71	7.33053
1117.08	10.0039
1120.46	7.95293
1123.83	16.395
1127.21	8.05798
1130.58	20.8216
1133.96	11.5668
1137.33	15.3196
1140.71	4.27406
1144.08	13.3124
1147.46	7.73272
1150.83	1.39692
1154.2	1.27543
1157.58	4.56438
1160.95	7.46973
1164.33	10.4776
1167.7	6.60088
1171.08	9.16116
1174.45	19.8211
1177.83	19.1929
1181.2	28.341
1184.58	46.4519
1187.95	68.9341
1191.33	84.3055
1194.7	116.331
1198.08	144.92
1201.45	139.592
1204.83	134.513
1208.2	129.056
1211.58	93.379
1214.95	58.2225
1218.33	42.691
1221.7	25.3976
1225.08	5.02293
1228.45	10.4189
1231.83	10.5701
1235.2	3.38363
