Measurement: Raman, 532 nm, unoriented, Raman Data Processed
Mineral: Clinoatacamite
Rruff sample: R061066
Ideal chemistry: Cu_2_(OH)_3_Cl
Locality: Esperanza mine, Diego de Almagro, Chile
Source: Bob Jenkins
Description: Aggregates of dark green pseudo-octahedral crystals associated with malachite
Measured chemistry: Cu_2.00_Cl_1.00_(OH)_3_
Raman shift (cm-1)	intensity
118.147	0
121.522	84.8272
124.897	1693.1
128.272	4240.17
131.647	5833.21
135.021	8867.1
138.396	12182.9
141.771	16146.7
145.146	6144.26
148.521	2831.97
151.895	1269.05
155.27	1175.01
158.645	1629.17
162.02	2858.59
165.395	4041.55
168.769	4572.65
172.144	2145.56
175.519	829.709
178.894	498.028
182.269	626.64
185.644	440.309
189.018	281.374
192.393	275.978
195.768	366.955
199.143	431.073
202.518	341.551
205.893	147.032
209.267	53.0572
212.642	17.7051
216.017	19.9201
219.392	10.0159
222.767	-0.888019
226.141	6.63005
229.516	20.4181
232.891	34.2483
236.266	64.0606
239.641	112.104
243.015	219.746
246.39	449.599
249.765	543.276
253.14	717.22
256.515	920.443
259.889	1019.02
263.264	988.697
266.639	890.326
270.014	794.238
273.389	646.098
276.764	535.803
280.138	414.417
283.513	195.241
286.888	35.2495
290.263	14.2979
293.638	12.373
297.012	82.0845
300.387	86.3809
303.762	131.947
307.137	241.274
310.512	222.597
313.887	182.034
317.261	267.476
320.636	256.072
324.011	389.168
327.386	558.059
330.761	753.052
334.135	1057.14
337.51	1363.82
340.885	1746.28
344.26	2266.28
347.635	3040.97
351.01	4299.48
354.384	6237.67
357.759	8519.78
361.134	10534.8
364.509	11606.6
367.884	10912.6
371.258	9141.61
374.633	5963.25
378.008	3035.83
381.383	1334.05
384.758	475.895
388.132	56.2658
391.507	-69.0355
394.882	-68.3764
398.257	172.418
401.632	579.172
405.007	953.724
408.381	1354.17
411.756	2011.69
415.131	2505.25
418.506	2892.34
421.881	2999.39
425.255	2622.93
428.63	2325.38
432.005	2252.66
435.38	2613.33
438.755	3192.11
442.13	3758.49
445.504	3970.75
448.879	3380.93
452.254	2368.66
455.629	1354.78
459.004	632.928
462.378	212.486
465.753	-96.1855
469.128	-200.268
472.503	-151.516
475.878	111.179
479.252	438.775
482.627	917.27
486.002	1664.88
489.377	2671.59
492.752	4017.23
496.127	5788.94
499.501	8009.1
502.876	10832.1
506.251	14147.3
509.626	17566
513.001	18741.7
516.375	16023.5
519.75	11122.5
523.125	7031.54
526.5	4352.47
529.875	2682.11
533.25	1642.55
536.624	949.552
539.999	589.106
543.374	399.319
546.749	270.184
550.124	351.822
553.498	387.706
556.873	689.301
560.248	980.696
563.623	1406.75
566.998	1889.47
570.372	2373.01
573.747	2747.2
577.122	2869.81
580.497	2644.87
583.872	2077.78
587.246	1477.16
590.621	1072.92
593.996	625.464
597.371	367.074
600.746	193.344
604.121	101.376
607.495	3.55469
610.87	7.89453
614.245	26.374
617.62	45.707
620.995	25.5874
624.369	5.54077
627.744	22.1548
631.119	26.3735
634.494	27.2761
637.869	11.488
641.244	16.7761
644.618	63.9624
647.993	100.425
651.368	137.668
654.743	138.387
658.118	152.059
661.492	148.545
664.867	132.849
668.242	161.457
671.617	121.042
674.992	168.922
678.366	119.089
681.741	76.7009
685.116	126.331
688.491	93.5481
691.866	33.3374
695.241	41.4976
698.615	99.2383
701.99	83.5751
705.365	107.396
708.74	80.2133
712.115	62.2606
715.489	94.8117
718.864	93.8536
722.239	106.75
725.614	32.0265
728.989	57.1758
732.364	76.6414
735.738	34.5499
739.113	53.7113
742.488	8.19092
745.863	41.7742
749.238	33.4397
752.612	96.8258
755.987	53.4526
759.362	54.029
762.737	152.251
766.112	148.369
769.486	161.193
772.861	247.792
776.236	354.551
779.611	533.105
782.986	793.995
786.361	1208.89
789.735	1607.2
793.11	2038.64
796.485	2342.97
799.86	2365.22
803.235	2079
806.609	1509.88
809.984	1068.1
813.359	654.538
816.734	420.808
820.109	319.324
823.484	310.669
826.858	220.918
830.233	105.289
833.608	52.4487
836.983	32.7617
840.358	50.3616
843.732	36.5005
847.107	112.241
850.482	202.302
853.857	265.542
857.232	619.662
860.606	1219
863.981	1944.07
867.356	2496.09
870.731	2295.32
874.106	1755.95
877.481	1780.99
880.855	2462.66
884.23	3937.09
887.605	6082.17
890.98	8283.91
894.355	9065.06
897.729	6786.07
901.104	3781.84
904.479	1994.49
907.854	1313.66
911.229	1333.67
914.604	1910.88
917.978	3263.73
921.353	5308.78
924.728	7884.45
928.103	9616.15
931.478	7900.07
934.852	4624.5
938.227	2376.06
941.602	1269.32
944.977	766.937
948.352	669.513
951.726	799.173
955.101	1321.2
958.476	2226.16
961.851	3641.25
965.226	5618.72
968.601	7652.03
971.975	8522.8
975.35	6700.55
978.725	4661.4
982.1	3149.54
985.475	1778.58
988.849	892.325
992.224	451.914
995.599	218.411
998.974	63.1067
1002.35	31.3525
1005.72	83.1753
1009.1	71.312
1012.47	39.1001
1015.85	35.0356
1019.22	10.7373
1022.6	17.7493
1025.97	16.8694
1029.35	9.76221
1032.72	11.5005
1036.1	7.22998
1039.47	20.103
1042.85	34.9239
1046.22	33.2418
1049.6	34.2739
1052.97	25.5933
1056.35	70.1406
1059.72	79.2943
1063.1	88.7557
1066.47	59.4869
1069.85	71.6992
1073.22	71.3621
1076.6	104.524
1079.97	117.378
1083.34	127.953
1086.72	142.915
1090.09	185.468
1093.47	177.802
1096.84	215.32
1100.22	188.687
1103.59	222.49
1106.97	221.805
1110.34	215.542
1113.72	227.047
1117.09	223.869
1120.47	243.667
1123.84	226.909
1127.22	237.425
1130.59	245.256
1133.97	222.763
1137.34	214.507
1140.72	147.823
1144.09	134.079
1147.47	141.942
1150.84	153.081
1154.21	101.313
1157.59	110.96
1160.96	98.0302
1164.34	101.152
1167.71	68.1714
1171.09	82.4152
1174.46	81.2078
1177.84	40.3709
1181.21	54.7975
1184.59	28.5027
1187.96	43.7512
1191.34	39.5988
1194.71	24.3467
1198.09	12.7433
1201.46	1.56885
1204.84	16.0091
1208.21	5.81128
1211.59	3.07568
1214.96	12.4658
1218.34	39.6506
1221.71	16.3854
1225.09	18.3901
1228.46	21.2899
1231.84	16.116
1235.21	18.32
1238.59	23.8724
1241.96	19.3882
1245.34	27.8873
1248.71	9.14545
1252.09	1.12763
1255.46	11.7488
1258.84	30.0139
1262.21	45.3624
1265.58	32.8174
1268.96	16.3868
1272.33	46.037
1275.71	15.1171
1279.08	25.4874
1282.46	15.5345
1285.83	2.41303
1289.21	19.8508
1292.58	0
