Measurement: Raman, 532 nm, unoriented, Raman Data Processed
Mineral: Clinoptilolite-K
Rruff sample: R110201
Ideal chemistry: K_6_(Si_30_Al_6_)O_72_20H_2_O
Locality: Conejo Volcanics, Agoura, Santa Monica Mountains, Los Angeles Co., California, USA
Source: Donald Doell
Description: Colorless tabular crystals associated with ferrierite-K R110200
Raman shift (cm-1)	intensity
234.163	0
237.056	2.19598
239.948	4.1897
242.841	10.8647
245.734	18.097
248.626	28.0036
251.519	32.3511
254.412	38.8554
257.305	45.3184
260.197	42.8413
263.09	41.8802
265.983	41.8296
268.875	40.0226
271.768	39.9938
274.661	34.2739
277.553	34.1062
280.446	25.7972
283.339	19.0089
286.232	11.9678
289.124	6.14453
292.017	4.35626
294.91	1.25171
297.802	0.032654
300.695	3.7688
303.588	0.111572
306.481	0.184937
309.373	1.06616
312.266	1.79224
315.159	2.23407
318.051	4.02625
320.944	0.245667
323.837	1.18951
326.729	2.31165
329.622	6.62146
332.515	5.82104
335.408	0.297852
338.3	0.822998
341.193	2.39337
344.086	3.18249
346.978	5.00891
349.871	11.7271
352.764	19.1244
355.656	32.9467
358.549	42.6812
361.442	50.261
364.334	63.0861
367.227	78.6662
370.12	95.0428
373.012	114.758
375.905	139.613
378.798	156.057
381.691	188.052
384.583	230.262
387.476	278.697
390.369	342.584
393.261	416.464
396.154	499.962
399.047	581.951
401.94	654.586
404.832	690.129
407.725	678.075
410.618	627.486
413.51	544.589
416.403	442.459
419.296	346.06
422.188	259.209
425.081	184.023
427.974	130.13
430.866	81.9771
433.759	51.3918
436.652	26.7501
439.545	11.5185
442.437	7.50787
445.33	7.83508
448.223	13.2192
451.115	30.0241
454.008	53.8805
456.901	85.9476
459.793	130.137
462.686	168.81
465.579	204.233
468.472	223.567
471.364	251.641
474.257	282.564
477.15	317.896
480.042	342.622
482.935	328.333
485.828	289.807
488.721	216.698
491.613	146.071
494.506	89.5193
497.399	50.5536
500.291	31.846
503.184	14.3263
506.077	1.76672
508.969	2.46429
511.862	1.35156
514.755	4.38849
517.648	10.1844
520.54	0.177246
523.433	3.17938
526.326	0.530029
529.218	2.18408
532.111	1.96368
535.004	1.97394
537.896	1.67761
540.789	3.17804
543.682	4.2793
546.575	5.5506
549.467	12.6588
552.36	11.866
555.253	13.8006
558.145	15.6845
561.038	16.2136
563.931	16.2311
566.823	16.2927
569.716	20.3107
572.609	17.9747
575.502	19.7208
578.394	25.5553
581.287	27.502
584.18	28.3785
587.072	26.9008
589.965	30.3561
592.858	33.0751
595.75	33.6984
598.643	33.888
601.536	38.2944
604.428	44.4131
607.321	54.3577
610.214	64.0395
613.107	80.1127
615.999	90.9909
618.892	101.541
621.785	105.493
624.677	96.9174
627.57	83.2316
630.463	68.1777
633.356	61.0906
636.248	44.7032
639.141	38.5428
642.034	28.1633
644.926	20.3057
647.819	15.5001
650.712	12.2218
653.604	14.1703
656.497	6.89453
659.39	4.87463
662.283	4.18793
665.175	2.84912
668.068	1.74249
670.961	0.90155
673.853	0.739868
676.746	0.605469
679.639	0.501465
682.531	5.37006
685.424	1.26856
688.317	0.918701
691.21	1.69299
694.102	5.03113
696.995	5.49322
699.888	4.23907
702.78	0.016052
705.673	0.194275
708.566	7.6579
711.458	8.15332
714.351	5.38422
717.244	4.60846
720.136	4.27594
723.029	5.51123
725.922	3.6319
728.815	5.80194
731.707	3.18567
734.6	1.82025
737.493	1.5545
740.385	1.82379
743.278	1.00256
746.171	0.361755
749.063	0.983215
751.956	6.52002
754.849	3.68585
757.742	7.8429
760.634	9.98523
763.527	9.95093
766.42	8.06848
769.312	14.5388
772.205	13.5564
775.098	18.2622
777.99	20.3671
780.883	19.3674
783.776	23.3715
786.669	25.0656
789.561	23.8264
792.454	27.7942
795.347	26.2372
798.239	21.8507
801.132	21.1388
804.025	17.0455
806.918	20.2567
809.81	21.4895
812.703	23.2695
815.596	24.7471
818.488	31.2268
821.381	33.7697
824.274	27.2966
827.166	14.7212
830.059	11.7665
832.952	5.8139
835.845	3.67627
838.737	1.36542
841.63	0.018066
844.523	1.34106
847.415	2.38104
850.308	0.489624
853.201	2.68738
856.093	1.03772
858.986	2.60883
861.879	1.16522
864.771	0.73291
867.664	1.53552
870.557	3.6662
873.45	3.08887
876.342	2.85205
879.235	2.69836
882.128	2.16925
885.02	1.966
887.913	4.08966
890.806	3.35223
893.698	0.050537
896.591	1.13129
899.484	2.87463
902.377	0.66095
905.269	5.97382
908.162	5.74866
911.055	5.71967
913.947	4.16809
916.84	3.76367
919.733	8.13214
922.625	7.88721
925.518	4.16125
928.411	6.06488
931.304	3.27789
934.196	2.63635
937.089	2.96655
939.982	3.6441
942.875	2.0097
945.767	4.72797
948.66	2.97064
951.553	4.49634
954.445	6.21777
957.338	3.9989
960.231	1.2149
963.123	1.24591
966.016	4.79205
968.909	6.76739
971.802	0.62915
974.694	0.901917
977.587	6.84467
980.48	5.78308
983.372	2.97064
986.265	2.2298
989.158	3.41614
992.05	4.1297
994.943	5.81128
997.836	1.67987
1000.73	1.41168
1003.62	0.222534
1006.51	7.70056
1009.41	4.33575
1012.3	6.31659
1015.19	0.795715
1018.09	1.72168
1020.98	4.08612
1023.87	6.13892
1026.76	0.816833
1029.66	3.49792
1032.55	4.08209
1035.44	8.06183
1038.33	1.79266
1041.23	7.37012
1044.12	3.21826
1047.01	3.38361
1049.9	5.08838
1052.8	5.2298
1055.69	5.4483
1058.58	4.92633
1061.47	0.964783
1064.37	6.35162
1067.26	0.98114
1070.15	0.118408
1073.05	0.151306
1075.94	2.88415
1078.83	1.94611
1081.72	7.26672
1084.62	20.8074
1087.51	41.8666
1090.4	36.5866
1093.3	37.2277
1096.19	36.3927
1099.08	27.6956
1101.97	19.706
1104.87	14.4802
1107.76	11.5198
1110.65	13.1263
1113.54	17.1161
1116.44	15.121
1119.33	18.6284
1122.22	16.5222
1125.12	16.857
1128.01	17.6455
1130.9	17.3964
1133.79	18.056
1136.68	21.8314
1139.58	24.8965
1142.47	21.8306
1145.36	25.8019
1148.26	28.3906
1151.15	30.0557
1154.04	25.0182
1156.93	27.6207
1159.83	27.9946
1162.72	31.0285
1165.61	30.2885
1168.51	27.7044
1171.4	30.4591
1174.29	28.9725
1177.18	27.2123
1180.08	29.6032
1182.97	29.3345
1185.86	28.6324
1188.75	25.6729
1191.65	19.5143
1194.54	22.3019
1197.43	18.641
1200.33	17.3675
1203.22	11.9553
1206.11	13.4114
1209	9.67474
1211.9	10.2997
1214.79	7.48285
1217.68	4.21228
1220.57	2.55188
1223.47	3.63141
1226.36	4.82184
1229.25	4.85974
1232.14	1.20502
1235.04	0.342468
1237.93	5.36346
1240.82	1.18921
1243.71	1.4231
1246.61	0.473877
1249.5	1.71771
1252.39	3.95337
1255.29	5.61914
1258.18	5.80646
1261.07	8.13483
1263.96	8.6759
1266.86	7.34283
1269.75	10.5944
1272.64	1.19476
1275.54	5.86151
1278.43	3.57935
1281.32	3.49902
1284.21	2.25909
1287.11	4.216
1290	3.13104
1292.89	3.80359
1295.78	0.08252
1298.68	6.23315
1301.57	0.756897
