Measurement: Raman, 532 nm, unoriented, Raman Data Processed
Mineral: Clinohumite
Rruff sample: R050183
Ideal chemistry: Mg_9_(SiO_4_)_4_F_2_
Locality: Pein Pyit, Mogok, Burma
Source: Marcus Origlieri
Description: Yellowish-green blebs in calcite, associated with red spinel, R050184
Measured chemistry: (Mg_8.85_Ti_0.07_[box]_0.07_Fe_0.01_)_Σ=9_(Si_1.00_O_4_)_4_(F_1.00_(OH)_1.00_)_Σ=2_
Raman shift (cm-1)	intensity
139.094	0
141.987	1.88443
144.88	0.21843
147.772	1.53369
150.665	2.99355
153.558	5.37
156.451	5.23517
159.343	0.511108
162.236	0.08194
165.129	1.63495
168.021	3.86485
170.914	4.41164
173.807	4.65117
176.699	5.11394
179.592	7.34065
182.485	13.5391
185.377	18.6805
188.27	20.5016
191.163	9.49741
194.056	3.93288
196.948	5.53662
199.841	10.3589
202.734	12.2918
205.626	13.8928
208.519	16.1388
211.412	16.3191
214.304	9.16232
217.197	1.12686
220.09	2.62129
222.983	1.38072
225.875	1.34602
228.768	4.9214
231.661	6.12682
234.553	5.79507
237.446	3.5943
240.339	3.85402
243.232	3.04485
246.124	2.39624
249.017	1.04906
251.91	4.96049
254.802	6.7516
257.695	7.30598
260.588	6.49286
263.48	6.36275
266.373	2.75349
269.266	10.7588
272.159	11.2779
275.051	2.87886
277.944	4.37974
280.837	3.72705
283.729	0.907455
286.622	4.17032
289.515	3.94501
292.407	6.20877
295.3	8.84967
298.193	9.95013
301.086	14.3326
303.978	22.5557
306.871	35.4257
309.764	31.1464
312.656	19.1246
315.549	20.095
318.442	27.544
321.334	32.9481
324.227	26.8575
327.12	19.3418
330.012	16.1533
332.905	17.2798
335.798	14.5923
338.691	18.1171
341.583	19.1334
344.476	22.3974
347.369	26.4613
350.261	25.0583
353.154	20.7566
356.047	15.8015
358.94	10.7366
361.832	5.2316
364.725	0.988464
367.618	0.175644
370.51	0.815247
373.403	2.67458
376.296	5.91675
379.188	7.9621
382.081	5.81364
384.974	1.87692
387.866	1.60509
390.759	1.27713
393.652	1.21283
396.545	0.110596
399.437	1.31708
402.33	0.702408
405.223	0.286591
408.115	3.16849
411.008	6.10545
413.901	7.9599
416.793	10.7982
419.686	12.3155
422.579	14.4607
425.472	21.5333
428.364	30.9648
431.257	40.2123
434.15	37.4208
437.042	27.5625
439.935	24.3893
442.828	23.4003
445.721	23.5017
448.613	20.5281
451.506	14.8193
454.399	9.75156
457.291	5.53006
460.184	5.36633
463.077	2.28563
465.969	0.584854
468.862	1.32089
471.755	0.288452
474.647	1.51349
477.54	0.154617
480.433	0.477753
483.326	0.750122
486.218	0.033981
489.111	0.230881
492.004	0.319168
494.896	0.915024
497.789	0.754166
500.682	1.01643
503.575	1.53529
506.467	0.809525
509.36	0.394913
512.253	0.327927
515.145	1.2177
518.038	0.554703
520.931	0.726776
523.823	2.23583
526.716	6.56741
529.609	8.22571
532.501	14.5355
535.394	21.7307
538.287	28.6452
541.18	40.9768
544.072	56.0956
546.965	71.0999
549.858	81.2125
552.75	63.744
555.643	38.4384
558.536	23.585
561.428	18.4611
564.321	16.4376
567.214	16.5613
570.107	12.4482
572.999	15.5258
575.892	16.6109
578.785	21.9272
581.677	28.646
584.57	33.7376
587.463	33.8115
590.356	31.4047
593.248	34.9811
596.141	42.8376
599.034	55.9159
601.926	75.9631
604.819	104.435
607.712	122.778
610.604	117.495
613.497	79.963
616.39	46.1868
619.283	26.1536
622.175	16.524
625.068	10.9965
627.961	8.29576
630.853	5.5732
633.746	5.07147
636.639	2.57707
639.531	1.48431
642.424	0.474854
645.317	0.735001
648.21	1.08373
651.102	2.20032
653.995	1.15311
656.888	2.59789
659.78	4.11395
662.673	4.99791
665.566	4.97408
668.458	5.93399
671.351	5.59822
674.244	5.93877
677.136	7.12778
680.029	6.08701
682.922	5.26611
685.815	5.58488
688.707	4.86568
691.6	4.06093
694.493	4.10474
697.385	3.22047
700.278	2.08275
703.171	1.42488
706.063	0.688278
708.956	0.727249
711.849	1.5421
714.741	1.77762
717.634	3.92453
720.527	3.84167
723.42	2.62028
726.312	2.28096
729.205	3.63905
732.098	2.16708
734.99	8.87442
737.883	15.8977
740.776	23.015
743.668	30.3137
746.561	30.8758
749.454	26.5398
752.347	24.184
755.239	15.8947
758.132	12.4591
761.025	5.06262
763.917	2.35617
766.81	1.06692
769.703	5.53049
772.596	15.5541
775.488	33.684
778.381	61.6317
781.274	103.498
784.166	141.345
787.059	136.172
789.952	81.9228
792.844	40.5829
795.737	20.6963
798.63	23.3796
801.523	35.3558
804.415	59.4901
807.308	92.6571
810.201	110.359
813.093	127.394
815.986	162.281
818.879	242.273
821.771	356.969
824.664	534.547
827.557	821.286
830.449	1112.61
833.342	1126.78
836.235	834.216
839.128	683.416
842.02	714.668
844.913	785.642
847.806	700.092
850.698	519.77
853.591	421.707
856.484	441.896
859.376	536.318
862.269	575.583
865.162	414.073
868.055	240.779
870.947	142.624
873.84	88.807
876.733	53.3573
879.625	28.3153
882.518	11.4475
885.411	4.41242
888.303	1.68545
891.196	5.71994
894.089	7.06323
896.982	4.23624
899.874	1.1766
902.767	4.34006
905.66	11.2059
908.552	24.8523
911.445	40.3582
914.338	43.3263
917.231	20.8312
920.123	9.59338
923.016	3.46185
925.909	3.64716
928.801	8.66873
931.694	14.7165
934.587	9.43497
937.479	2.40283
940.372	1.90427
943.265	4.81601
946.158	10.6386
949.05	13.4748
951.943	18.2118
954.836	31.714
957.728	55.6208
960.621	87.9728
963.514	137.178
966.406	209.811
969.299	262.799
972.192	187.969
975.085	98.7677
977.977	57.818
980.87	38.4109
983.763	22.566
986.655	12.5067
989.548	7.12872
992.441	4.15595
995.333	2.85068
998.226	2.08994
1001.12	0.531799
1004.01	1.27295
1006.9	1.71979
1009.8	1.53409
1012.69	3.03213
1015.58	0.616058
1018.48	0.93396
1021.37	0.933319
1024.26	0.863861
1027.15	0.371979
1030.05	0.336182
1032.94	2.03851
1035.83	2.05756
1038.72	3.78116
1041.62	2.83206
1044.51	2.93326
1047.4	2.96744
1050.3	1.81088
1053.19	2.22195
1056.08	2.91052
1058.97	3.17084
1061.87	0.76825
1064.76	0.444733
1067.65	0.932617
1070.54	0.85788
1073.44	0.672668
1076.33	2.4693
1079.22	2.19061
1082.11	1.49902
1085.01	1.01657
1087.9	1.82654
1090.79	1.93204
1093.68	1.68576
1096.58	2.3671
1099.47	2.37921
1102.36	1.05789
1105.26	1.72089
1108.15	2.289
1111.04	0.419952
1113.93	2.76071
1116.83	3.35547
1119.72	1.76309
1122.61	0.949371
1125.51	2.57288
1128.4	2.51749
1131.29	0.288696
1134.18	1.68414
1137.08	0.499786
1139.97	2.63718
1142.86	0.672607
1145.75	2.29547
1148.65	1.53577
1151.54	2.07938
1154.43	0.604797
1157.33	2.19211
1160.22	2.0571
1163.11	3.51541
1166	2.11172
1168.89	0.787476
1171.79	1.43726
1174.68	1.98502
1177.57	1.40457
1180.47	1.59808
1183.36	0.083191
1186.25	0.822876
1189.14	0.092438
1192.04	0.716064
1194.93	0.349701
1197.82	1.93668
1200.71	1.58823
1203.61	0.100464
1206.5	2.86041
1209.39	1.8634
1212.29	0.851501
1215.18	1.90485
1218.07	2.12924
1220.96	3.23022
1223.86	2.94766
1226.75	2.91992
1229.64	2.15607
1232.54	1.90915
1235.43	1.2865
1238.32	1.60284
1241.21	1.75879
1244.11	2.3772
1247	1.93524
1249.89	2.38599
1252.78	0.250366
1255.68	2.87448
1258.57	1.54352
1261.46	2.62265
1264.35	1.58637
