Measurement: Raman, 780 nm, unoriented, Raman Data Processed
Mineral: Clinochalcomenite
Rruff sample: R110125
Ideal chemistry: CuSe^4+^O_3_2H_2_O
Locality: El Dragon mine, Potosi, Bolivia
Source: Royal Ontario Museum
Description: Aggregates of pale greenish-blue crystals associated with darker blue chalcomenite
Measured chemistry: (Cu_0.99_Ni_0.02_Co_0.01_Fe_0.01_)_Σ=1.03_Se^+4^_1.11_O_3_·1.77H_2_O ; Note: water content determined by difference
Raman shift (cm-1)	intensity
175.492	0
178.385	0.475498
181.277	0.697704
184.17	2.2789
187.063	2.58735
189.955	3.59427
192.848	4.05351
195.741	2.8063
198.633	1.62307
201.526	0.469833
204.419	0.298222
207.311	0.129047
210.204	0.407719
213.097	0.451256
215.99	1.07709
218.882	0.039116
221.775	0.193707
224.668	0.403244
227.56	0.152031
230.453	0.426861
233.346	0.518963
236.238	0.067345
239.131	0.631386
242.024	0.727856
244.917	1.77581
247.809	2.16635
250.702	2.44637
253.595	3.46854
256.487	3.68228
259.38	4.59044
262.273	3.60159
265.166	4.18499
268.058	4.80856
270.951	3.50827
273.844	2.86789
276.736	2.14582
279.629	2.0824
282.522	2.04738
285.414	0.819653
288.307	0.643646
291.2	0.456657
294.092	0.008011
296.985	0.226303
299.878	0.607201
302.771	0.557114
305.663	0.777863
308.556	0.828514
311.449	0.789665
314.341	1.48253
317.234	1.32227
320.127	0.279408
323.019	1.19419
325.912	0.300388
328.805	0.654339
331.698	0.002701
334.59	0.165562
337.483	0.045948
340.376	0.661339
343.268	0.27066
346.161	0.620224
349.054	1.10076
351.947	1.42917
354.839	1.57272
357.732	2.43876
360.625	2.54573
363.517	4.44163
366.41	4.92519
369.303	5.56052
372.195	5.39309
375.088	3.54951
377.981	2.15806
380.873	1.83999
383.766	1.05419
386.659	0.25832
389.552	0.895493
392.444	0.009686
395.337	0.285854
398.23	0.706287
401.122	0.416256
404.015	0.522743
406.908	0.562454
409.8	0.26474
412.693	0.23629
415.586	0.357841
418.479	0.05069
421.371	0.276634
424.264	0.004688
427.157	0.885674
430.049	0.152367
432.942	0.194611
435.835	0.457359
438.728	0.128719
441.62	0.632145
444.513	0.667988
447.406	0.724575
450.298	0.299877
453.191	0.89011
456.084	0.67786
458.976	0.909225
461.869	0.928886
464.762	1.22388
467.654	0.672867
470.547	1.20125
473.44	1.74876
476.333	2.00706
479.225	1.67118
482.118	2.45767
485.011	2.47478
487.903	1.67745
490.796	1.4473
493.689	1.40227
496.582	1.25127
499.474	1.50329
502.367	1.12512
505.26	1.79099
508.152	1.62349
511.045	2.41488
513.938	2.26749
516.83	3.72965
519.723	3.04402
522.616	2.77663
525.509	2.02019
528.401	1.48331
531.294	1.35125
534.187	1.18721
537.079	1.0898
539.972	0.472012
542.865	0.56562
545.757	0.299416
548.65	0.096333
551.543	0.157806
554.436	0.07563
557.328	0.378849
560.221	0.519501
563.114	0.222317
566.006	0.347778
568.899	0.175117
571.792	0.499294
574.684	0.710495
577.577	0.532795
580.47	0.042984
583.362	0.041573
586.255	0.622139
589.148	0.415058
592.041	0.755344
594.933	0.085484
597.826	0.627041
600.719	0.107918
603.611	0.531944
606.504	0.299389
609.397	0.366951
612.29	0.381794
615.182	0.374023
618.075	0.289474
620.968	0.023525
623.86	1.01841
626.753	0.262112
629.646	0.281788
632.538	0.650921
635.431	1.26965
638.324	0.058048
641.217	0.27803
644.109	0.526566
647.002	0.572174
649.895	0.177086
652.787	0.061676
655.68	0.071255
658.573	0.458344
661.466	0.308399
664.358	0.415913
667.251	0.428806
670.144	0.350418
673.036	0.984886
675.929	0.348343
678.822	0.754566
681.714	0.988968
684.607	0.665543
687.5	1.47987
690.393	1.40411
693.285	1.10493
696.178	1.87185
699.071	2.26709
701.963	2.59063
704.856	3.46843
707.749	3.6183
710.641	3.73411
713.534	3.55821
716.427	3.95558
719.319	3.46307
722.212	4.06234
725.105	4.15212
727.998	4.38262
730.89	5.13613
733.783	5.00932
736.676	4.74827
739.568	4.40067
742.461	2.68898
745.354	1.65541
748.246	1.14734
751.139	1.36979
754.032	0.069038
756.925	0.420303
759.817	0.153526
762.71	0.120022
765.603	0.152763
768.495	0.224731
771.388	0.038898
774.281	0.518635
777.173	1.04842
780.066	1.28426
782.959	1.1276
785.852	1.8237
788.744	2.8842
791.637	2.91471
794.53	3.98726
797.422	5.32405
800.315	8.18776
803.208	10.2703
806.101	14.7995
808.993	20.0457
811.886	25.7215
814.779	32.6974
817.671	34.691
820.564	28.6699
823.457	21.1358
826.349	14.3826
829.242	9.9494
832.135	7.15846
835.028	4.31021
837.92	3.8547
840.813	2.57649
843.706	1.84726
846.598	2.3598
849.491	0.870659
852.384	1.30236
855.276	0.820301
858.169	1.0882
861.062	0.108097
863.955	0.293545
866.847	0.710194
869.74	0.268612
872.633	0.24498
875.525	0.888695
878.418	0.711113
881.311	1.22052
884.203	0.208801
887.096	0.240978
889.989	0.47839
892.881	0.29517
895.774	0.151962
898.667	0.367783
901.56	0.30714
904.452	0.040543
907.345	0.281033
910.238	0.237503
913.13	0.390591
916.023	0.23597
918.916	0.030415
921.808	0.233944
924.701	0.018768
927.594	0.218361
930.487	0.341946
933.379	0.308922
936.272	0.139351
939.165	0.338116
942.057	1.11335
944.95	0.794876
947.843	0.661701
950.736	0.582623
953.628	1.09686
956.521	0.641285
959.414	0.96767
962.306	0.365181
965.199	0.210869
968.092	0.430553
970.984	0.386715
973.877	0.674362
976.77	1.14856
979.663	0.940273
982.555	0.802458
985.448	0.058681
988.341	0.371502
991.233	0.312605
994.126	0.255219
997.019	1.4802
999.911	0.809462
1002.8	0.772713
1005.7	0.176786
1008.59	0.144047
1011.48	0.122217
1014.38	0.294678
1017.27	1.00215
1020.16	0.715982
1023.05	0.628584
1025.95	0.309898
1028.84	0.201834
1031.73	0.760666
1034.62	0.039726
1037.52	0.602514
1040.41	0.086763
1043.3	0.515457
1046.19	0.807045
1049.09	0.368635
1051.98	0.036417
1054.87	0.081118
1057.77	0.666346
1060.66	0.630928
1063.55	0.072487
1066.44	0.403255
1069.34	0.449953
1072.23	0.595598
1075.12	0.970425
1078.01	0.113974
1080.91	0.83449
1083.8	0.554724
1086.69	0.636021
1089.59	0.720755
1092.48	0.432035
1095.37	0.418959
1098.26	0.283821
1101.16	0.396198
1104.05	0.106512
1106.94	0.018442
1109.83	0.026344
1112.73	0.032528
1115.62	0.407711
1118.51	0.130621
1121.4	0.476042
1124.3	0.173311
1127.19	0.198774
1130.08	0.423477
1132.98	0.057261
1135.87	0.682819
1138.76	0.340275
1141.65	0.327154
1144.55	0.42366
1147.44	0.221579
1150.33	0.305172
1153.22	0.310598
1156.12	0.069349
1159.01	0.95871
1161.9	0.628416
1164.8	0.576973
1167.69	0.607153
1170.58	0.906898
1173.47	0.416639
1176.37	0.72654
1179.26	0.392038
1182.15	0.737392
1185.04	0.382059
1187.94	0.101301
1190.83	0.549421
1193.72	0.204512
1196.62	0.397287
1199.51	0.473858
1202.4	0.715403
1205.29	0.762779
1208.19	0.366129
1211.08	0.504597
1213.97	0.441156
1216.86	0.042339
1219.76	0.466721
1222.65	0.754717
1225.54	0.996433
1228.43	0.789335
1231.33	0.555695
1234.22	0.245535
1237.11	0.254555
1240.01	0.631922
1242.9	0.459366
1245.79	0.88504
1248.68	0.502234
1251.58	0.396938
1254.47	0.540243
1257.36	0.278393
1260.25	0.183607
1263.15	0.515888
1266.04	0.385872
1268.93	0.950928
1271.83	1.01605
1274.72	0.368124
1277.61	0.037331
1280.5	0.570227
1283.4	0.150356
