Measurement: Raman, 532 nm, unoriented, Raman Data Processed
Mineral: Clinoclase
Rruff sample: R050659
Ideal chemistry: Cu^2+^_3_As^5+^O_4_(OH)_3_
Locality: Carissa mine, Tintic District, Utah, USA
Source: University of Arizona Mineral Museum
Description: Dark blue prismatic single crystal associated with cornwallite
Raman shift (cm-1)	intensity
129.797	0
133.172	44.7872
136.547	209.473
139.922	333.174
143.297	112.038
146.671	9.72104
150.046	6.37976
153.421	19.6786
156.796	38.7963
160.171	86.2563
163.546	81.147
166.92	52.5517
170.295	57.6051
173.67	64.0358
177.045	77.9978
180.42	75.4269
183.794	87.7448
187.169	102.446
190.544	95.2319
193.919	42.6908
197.294	0.960785
200.668	6.73471
204.043	7.58118
207.418	1.35362
210.793	2.94359
214.168	13.5852
217.543	24.4695
220.917	29.3459
224.292	49.9297
227.667	67.2459
231.042	78.3047
234.417	83.4966
237.792	76.3291
241.166	86.611
244.541	110.276
247.916	127.789
251.291	120.566
254.666	135.531
258.041	160.112
261.415	116.237
264.79	60.5759
268.165	36.311
271.54	27.5119
274.915	26.8007
278.289	36.246
281.664	46.5589
285.039	70.0026
288.414	95.805
291.789	124.579
295.163	161.698
298.538	212.599
301.913	256.798
305.288	253.728
308.663	181.334
312.038	100.81
315.412	53.1676
318.787	24.914
322.162	7.21577
325.537	3.12975
328.912	2.7868
332.287	3.05962
335.661	0.668198
339.036	7.85489
342.411	11.6772
345.786	19.7003
349.161	22.8375
352.536	22.424
355.91	20.3773
359.285	13.3333
362.66	12.1038
366.035	10.4998
369.41	7.52801
372.784	15.1781
376.159	21.1781
379.534	31.1335
382.909	43.1777
386.284	49.7115
389.659	41.1921
393.033	22.5047
396.408	10.702
399.783	2.54956
403.158	5.06703
406.533	5.29733
409.907	8.0629
413.282	2.73768
416.657	9.34566
420.032	26.6469
423.407	44.2915
426.782	76.161
430.156	109.006
433.531	142.134
436.906	180.432
440.281	199.635
443.656	205.022
447.031	233.218
450.405	253.87
453.78	307.462
457.155	337.094
460.53	306.059
463.905	243.229
467.279	199.514
470.654	186.216
474.029	177.837
477.404	168.638
480.779	158.857
484.154	133.458
487.528	97.3638
490.903	74.6833
494.278	63.4907
497.653	65.1896
501.028	68.2602
504.402	75.5829
507.777	78.249
511.152	75.3874
514.527	64.3945
517.902	54.2012
521.277	36.2917
524.651	25.54
528.026	21.5424
531.401	22.8944
534.776	21.866
538.151	27.0907
541.525	29.6677
544.9	35.0496
548.275	30.0469
551.65	19.499
555.025	10.994
558.399	2.75748
561.774	0.403623
565.149	4.31401
568.524	4.47014
571.899	4.04718
575.274	0.044296
578.649	0.863724
582.023	3.94466
585.398	1.08237
588.773	7.95837
592.148	13.4964
595.523	19.9353
598.897	28.6647
602.272	37.0414
605.647	46.8277
609.022	45.8345
612.397	36.2515
615.771	32.0693
619.146	26.6711
622.521	23.1056
625.896	12.1356
629.271	11.6072
632.646	9.95279
636.02	7.95915
639.395	5.30016
642.77	2.30804
646.145	4.09253
649.52	1.50243
652.894	2.62787
656.269	4.72994
659.644	6.96661
663.019	5.703
666.394	7.81734
669.769	6.46243
673.144	7.36441
676.518	10.1003
679.893	13.6972
683.268	15.9863
686.643	15.775
690.018	22.8348
693.392	21.678
696.767	23.7042
700.142	26.5468
703.517	26.2257
706.892	19.9908
710.266	15.8744
713.641	10.9771
717.016	10.3865
720.391	5.22241
723.766	1.3676
727.141	1.22682
730.515	3.12854
733.89	4.41557
737.265	4.68422
740.64	3.62698
744.015	2.11587
747.389	0.818176
750.764	1.99432
754.139	5.60808
757.514	12.3285
760.889	26.9837
764.264	44.6095
767.639	77.5881
771.013	129.614
774.388	200.83
777.763	281.929
781.138	340.258
784.513	338.663
787.887	266.675
791.262	180.43
794.637	124.892
798.012	87.9108
801.387	81.3591
804.761	86.0727
808.136	117.085
811.511	171.636
814.886	269.212
818.261	420.351
821.636	626.91
825.01	855.463
828.385	1101.75
831.76	1315.47
835.135	1351.25
838.51	1171.56
841.885	900.282
845.259	620.765
848.634	414.502
852.009	290.151
855.384	203.856
858.759	145.374
862.134	110.707
865.508	82.088
868.883	69.5423
872.258	55.1599
875.633	46.863
879.008	36.5642
882.382	18.5019
885.757	14.9336
889.132	4.47688
892.507	1.31172
895.882	4.66563
899.256	2.82286
902.631	3.48685
906.006	2.42981
909.381	1.11827
912.756	2.75301
916.131	1.52451
919.505	0.312172
922.88	0.17408
926.255	2.9777
929.63	3.41717
933.005	2.91339
936.38	5.7484
939.754	6.01746
943.129	8.92915
946.504	6.81853
949.879	10.8236
953.254	12.0888
956.629	11.745
960.003	17.1414
963.378	14.0252
966.753	19.9665
970.128	27.248
973.503	34.9328
976.877	43.0647
980.252	52.4033
983.627	51.9671
987.002	48.0278
990.377	25.6908
993.751	18.95
997.126	12.4511
1000.5	7.75703
1003.88	6.78284
1007.25	4.45033
1010.63	4.24118
1014	0.191017
1017.38	3.23382
1020.75	1.18056
1024.12	3.24161
1027.5	0.854408
1030.88	0.105438
1034.25	0.072525
1037.62	1.60621
1041	1.66106
1044.37	3.20207
1047.75	3.39539
1051.12	0.756554
1054.5	3.22016
1057.87	4.57381
1061.25	4.7975
1064.62	1.45135
1068	10.9722
1071.37	2.39216
1074.75	5.01365
1078.12	0.675659
1081.5	1.70293
1084.87	4.66718
1088.25	3.81058
1091.62	2.21105
1095	1.53625
1098.37	7.1441
1101.75	4.63174
1105.12	1.62946
1108.49	3.89459
1111.87	1.89003
1115.24	4.69034
1118.62	2.83995
1121.99	2.67819
1125.37	6.13711
1128.74	4.38042
1132.12	6.23409
1135.49	6.21317
1138.87	4.31858
1142.24	0.302025
1145.62	1.9051
1148.99	0.99913
1152.37	1.46755
1155.74	0.587044
1159.12	0.343399
1162.49	2.82118
1165.87	0.577557
1169.24	0.158962
1172.62	3.94809
1175.99	4.38834
1179.37	2.0788
1182.74	0.884537
1186.12	2.17468
1189.49	3.098
1192.87	1.419
1196.24	2.29533
1199.62	5.0123
1202.99	2.33057
1206.37	7.12046
1209.74	6.57021
1213.12	3.26794
1216.49	6.572
1219.87	4.00479
1223.24	5.79758
1226.61	7.33911
1229.99	1.80436
1233.36	5.03994
1236.74	4.10458
1240.11	3.11008
1243.49	3.57888
1246.86	2.85146
1250.24	2.99317
1253.61	1.20041
1256.99	1.9852
1260.36	1.50394
1263.74	1.38333
1267.11	4.40682
1270.49	6.39758
1273.86	4.00302
1277.24	0.707977
1280.61	1.32183
1283.99	3.22325
1287.36	1.45167
1290.74	1.3741
1294.11	1.68729
1297.48	0.069202
1300.86	2.96326
