Measurement: Raman, 785 nm, unoriented, Raman Data Processed
Mineral: Clinohumite
Rruff sample: R070561
Ideal chemistry: Mg_9_(SiO_4_)_4_F_2_
Locality: Unknown
Source: www.multicolour.com
Description: Brownish orange transparent fragments
Measured chemistry: (Mg_8.47_Fe_0.23_Ti_0.15_[box]_0.14_Mn_0.01_)_Σ=9_((Si_3.98_Al_0.02_)_Σ=1_O_4_)_4_(F_1.01_(OH)_0.99_)_Σ=2_ ; OH estimated by difference and charge balance
Raman shift (cm-1)	intensity
155.762	0
158.655	219.981
161.547	9.39429
164.44	105.97
167.333	105.634
170.225	246.132
173.118	96.6067
176.011	314.954
178.904	436.376
181.796	329.559
184.689	193.12
187.582	197.199
190.474	226.211
193.367	186.807
196.26	138.684
199.152	157.142
202.045	461.225
204.938	290.99
207.831	489.584
210.723	278.201
213.616	358.582
216.509	50.812
219.401	48.7402
222.294	71.9702
225.187	108.851
228.079	463.588
230.972	273.807
233.865	527.148
236.757	508.609
239.65	175.97
242.543	100.601
245.436	413.759
248.328	180.542
251.221	279.853
254.114	541.43
257.006	426.775
259.899	144.544
262.792	136.394
265.685	485.778
268.577	321.663
271.47	128.415
274.363	185.036
277.255	342.191
280.148	8.6687
283.041	323.541
285.933	62.0889
288.826	306.931
291.719	67.8745
294.611	283.809
297.504	221.432
300.397	219.562
303.29	262.715
306.182	197.763
309.075	779.091
311.968	665.199
314.86	844.954
317.753	854.891
320.646	932.643
323.538	977.462
326.431	698.657
329.324	633.182
332.217	562.789
335.109	578.746
338.002	422.076
340.895	285.462
343.787	421.052
346.68	507.856
349.573	378.769
352.466	471.716
355.358	223.861
358.251	163.724
361.144	265.755
364.036	120.258
366.929	210.848
369.822	178.34
372.714	168.585
375.607	74.802
378.5	273.395
381.392	168.22
384.285	31.4573
387.178	23.7085
390.071	271.879
392.963	205.722
395.856	70.96
398.749	220.783
401.641	76.4255
404.534	179.894
407.427	56.4751
410.32	319.237
413.212	245.439
416.105	264.106
418.998	348.813
421.89	518.243
424.783	612.059
427.676	943.792
430.568	912.334
433.461	783.073
436.354	730.851
439.247	393.656
442.139	752.001
445.032	560.218
447.925	386.889
450.817	407.996
453.71	182.454
456.603	175.83
459.495	239.707
462.388	21.4395
465.281	217.977
468.173	95.8502
471.066	292.954
473.959	14.0011
476.852	196.942
479.744	289.762
482.637	171.632
485.53	144.485
488.422	51.4659
491.315	387.399
494.208	117.53
497.101	67.2616
499.993	78.2594
502.886	19.5145
505.779	222.158
508.671	78.677
511.564	330.141
514.457	44.484
517.349	81.2925
520.242	100.316
523.135	91.7942
526.028	205.274
528.92	386.229
531.813	332.97
534.706	292.941
537.598	268.303
540.491	699.329
543.384	558.477
546.276	839.676
549.169	883.498
552.062	748.665
554.955	427.702
557.847	304.691
560.74	231.174
563.633	411.631
566.525	565.113
569.418	307.515
572.311	257.694
575.203	398.146
578.096	565.506
580.989	424.591
583.881	557.909
586.774	863.533
589.667	1073.88
592.56	1096.44
595.452	1278.76
598.345	1931.01
601.238	2371.86
604.13	3267.23
607.023	3280.36
609.916	2660.27
612.809	1593.4
615.701	916.827
618.594	649.562
621.487	593.351
624.379	308.729
627.272	522.181
630.165	287.043
633.058	53.5536
635.95	282.62
638.843	25.3748
641.736	258.406
644.628	87.2251
647.521	251.478
650.414	213.569
653.306	33.7861
656.199	83.8354
659.092	306.933
661.985	198.586
664.877	191.566
667.77	238.965
670.663	197.166
673.555	49.1964
676.448	64.6766
679.341	38.0878
682.233	115.25
685.126	115.507
688.019	90.8777
690.912	153.748
693.804	83.4186
696.697	133.349
699.59	182.97
702.482	29.3035
705.375	81.3718
708.268	62.4969
711.16	18.7942
714.053	164.278
716.946	83.432
719.838	91.0098
722.731	13.5951
725.624	80.0784
728.517	261.643
731.409	209.58
734.302	551.526
737.195	897.406
740.087	968.153
742.98	1039.13
745.873	827.46
748.765	911.849
751.658	716.894
754.551	740.077
757.444	523.077
760.336	336.444
763.229	143.109
766.122	43.2305
769.014	106.747
771.907	490.478
774.8	1010.05
777.692	1950.3
780.585	3220.94
783.478	3482.83
786.371	2689.84
789.263	1072.45
792.156	292.119
795.049	6.24805
797.941	98.2498
800.834	316.282
803.727	608.691
806.62	886.121
809.512	1073.17
812.405	1417.39
815.298	2119.96
818.19	3502.73
821.083	6388.02
823.976	10995.1
826.868	16005.6
829.761	18925.2
832.654	16451.9
835.547	13106.5
838.439	12597.2
841.332	13940.9
844.225	13670
847.117	10726
850.01	8385.31
852.903	8263.1
855.795	9905.61
858.688	11825.2
861.581	10738
864.473	7163.25
867.366	4542.95
870.259	2822.41
873.152	1896.79
876.044	1339.07
878.937	830.67
881.83	709.249
884.722	192.339
887.615	36.365
890.508	66.2008
893.4	62.2037
896.293	105.738
899.186	132.261
902.079	43.352
904.971	136.718
907.864	313.143
910.757	464.841
913.649	191.29
916.542	257.274
919.435	178.122
922.328	195.234
925.22	425.762
928.113	754.428
931.006	607.139
933.898	168.412
936.791	36.6892
939.684	75.9438
942.577	181.395
945.469	132.508
948.362	246.898
951.255	553.769
954.147	589.739
957.04	979.814
959.933	1856.36
962.825	2801.89
965.718	3947.36
968.611	3334.62
971.504	1897.27
974.396	1225.02
977.289	897.532
980.182	545.485
983.074	435.176
985.967	109.644
988.86	336.779
991.752	88.347
994.645	231.948
997.538	6.72876
1000.43	37.9391
1003.32	151.33
1006.22	78.7858
1009.11	135.797
1012	157.455
1014.89	83.7562
1017.79	166.96
1020.68	322.009
1023.57	87.4182
1026.46	117.713
1029.36	134.157
1032.25	51.0126
1035.14	239.543
1038.04	41.3426
1040.93	332.977
1043.82	156.954
1046.71	175.852
1049.61	127.83
1052.5	97.1421
1055.39	77.0994
1058.28	53.9237
1061.18	125.962
1064.07	46.3745
1066.96	60.3823
1069.86	156.656
1072.75	294.716
1075.64	74.4037
1078.53	164.37
1081.43	254.98
1084.32	228.329
1087.21	178.695
1090.1	2.86792
1093	210.086
1095.89	58.5498
1098.78	154.403
1101.67	125.023
1104.57	131.154
1107.46	176.873
1110.35	87.5991
1113.25	59.9344
1116.14	50.0854
1119.03	364.929
1121.92	147.922
1124.82	73.1899
1127.71	144.5
1130.6	214.963
1133.49	128.374
1136.39	162.695
1139.28	207.765
1142.17	224.202
1145.07	104.32
1147.96	223.491
1150.85	180.523
1153.74	11.6968
1156.64	176.341
1159.53	42.8975
1162.42	25.4178
1165.31	190.041
1168.21	285.537
1171.1	193.821
1173.99	246.452
1176.88	172.524
1179.78	83.6188
1182.67	172.747
1185.56	225.328
1188.46	93.2711
1191.35	272.324
1194.24	85.154
1197.13	203.058
1200.03	174.022
1202.92	116.921
1205.81	244.975
1208.7	252.448
1211.6	147.365
1214.49	337.734
1217.38	173.616
1220.28	211.592
1223.17	180.709
1226.06	198.142
1228.95	170.824
1231.85	223.18
1234.74	245.009
1237.63	86.709
1240.53	143.604
1243.42	289.895
1246.31	233.207
1249.2	174.822
1252.1	142.423
1254.99	220.6
1257.88	118.486
1260.77	165.853
1263.67	292.366
1266.56	43.9287
1269.45	129.015
1272.34	298.513
1275.24	231.858
1278.13	250.169
1281.02	235.91
