Measurement: Raman, 532 nm, unoriented, Raman Data Processed
Mineral: Clintonite
Rruff sample: R070196
Ideal chemistry: CaAlMg_2_(SiAl_3_)O_10_(OH)_2_
Locality: Crestmore, Riverside County, California, USA
Source: California Institute of Technology
Description: Transparent green micaceous single crystal
Measured chemistry: (Ca_0.97_[box]_0.03_)_Σ=1_(Al_0.90_Fe^3+^_0.10_)_Σ=1_Mg_2.00_(Si_1.18_Al_2.82_)_Σ=3_O_10_((OH)_1.88_O_0.12_)_Σ=2_; OH estimated by charge balance
Raman shift (cm-1)	intensity
152.592	0
155.485	75.6008
158.378	64.9492
161.27	50.1543
164.163	92.0327
167.056	167.647
169.948	194.893
172.841	248.317
175.734	238.022
178.626	258.374
181.519	296.688
184.412	272.872
187.305	327.19
190.197	390.93
193.09	306.644
195.983	251.155
198.875	222.531
201.768	247.255
204.661	264.778
207.554	327.379
210.446	473.957
213.339	673.582
216.232	878.734
219.124	1180.6
222.017	1590.14
224.91	2089.47
227.802	2761.02
230.695	3407.97
233.588	3551.77
236.481	2914.24
239.373	1889.36
242.266	1097.72
245.159	557.347
248.051	309.037
250.944	164.174
253.837	87.2681
256.729	25.2229
259.622	19.3254
262.515	28.5479
265.408	20.4602
268.3	33.7283
271.193	58.5056
274.086	35.5727
276.978	2.82495
279.871	48.1765
282.764	4.57544
285.656	5.48096
288.549	49.9246
291.442	29.6487
294.335	105.765
297.227	38.2922
300.12	43.802
303.013	85.3447
305.905	80.3489
308.798	140.985
311.691	231.05
314.584	300.337
317.476	417.97
320.369	569.572
323.262	806.858
326.154	1038.32
329.047	1348.23
331.94	1726.35
334.832	2172.31
337.725	2587.38
340.618	2802.01
343.51	2884.7
346.403	2838.81
349.296	2477.72
352.189	2043.44
355.081	1709.33
357.974	1385.51
360.867	1021.53
363.759	798.798
366.652	578.738
369.545	470.783
372.438	428.228
375.33	410.44
378.223	566.095
381.116	932.9
384.008	1451.05
386.901	2146.15
389.794	2999.84
392.686	4076.72
395.579	4976.4
398.472	5581.89
401.365	5544.54
404.257	5159.14
407.15	4503.32
410.043	3528.91
412.935	2718.73
415.828	2102.31
418.721	1648.35
421.613	1270.1
424.506	1039.86
427.399	902.569
430.291	774.415
433.184	675.851
436.077	484.838
438.97	451.935
441.862	363.918
444.755	258.299
447.648	243.588
450.54	154.992
453.433	169.303
456.326	136.906
459.219	130.748
462.111	114.464
465.004	110.278
467.897	129.394
470.789	14.1006
473.682	36.333
476.575	110.469
479.467	87.3252
482.36	64.4243
485.253	31.896
488.146	45.1733
491.038	139.462
493.931	185.542
496.824	233.023
499.716	309.571
502.609	444.238
505.502	418.448
508.394	393.743
511.287	384.057
514.18	381.619
517.072	354.708
519.965	399.037
522.858	485.362
525.751	516.38
528.643	598.625
531.536	712.75
534.429	742.256
537.321	829.939
540.214	894.484
543.107	917.585
546	1014.13
548.892	1052.87
551.785	1009.13
554.678	838.487
557.57	674.327
560.463	492.892
563.356	359.228
566.248	185.804
569.141	98.4241
572.034	51.6108
574.927	2.61768
577.819	11.0832
580.712	44.6255
583.605	48.1802
586.497	27.7178
589.39	8.35693
592.283	43.8489
595.175	26.2966
598.068	102.78
600.961	127.939
603.854	174.785
606.746	157.507
609.639	144.58
612.532	246.461
615.424	254.198
618.317	334.397
621.21	399.467
624.102	536.418
626.995	734.559
629.888	1009.91
632.78	1540.35
635.673	2201.64
638.566	3179.08
641.459	4700.72
644.351	6634.44
647.244	8894.34
650.137	11214.7
653.029	13264.5
655.922	13252.5
658.815	10251.1
661.707	6624.19
664.6	4411.79
667.493	3104.76
670.386	2317.56
673.278	1878.01
676.171	1620.9
679.064	1360.97
681.956	1236.73
684.849	1074.56
687.742	931.84
690.635	857.052
693.527	795.79
696.42	688.162
699.313	623.487
702.205	596.903
705.098	519.652
707.991	457.333
710.883	367.515
713.776	298.681
716.669	243.143
719.562	191.149
722.454	175.536
725.347	129.449
728.24	104.195
731.132	45.9014
734.025	65.4343
736.918	26.6768
739.81	28.446
742.703	38.802
745.596	7.38721
748.489	41.5271
751.381	61.3667
754.274	14.7937
757.167	50.7891
760.059	15.3591
762.952	31.6521
765.845	46.0459
768.737	83.6116
771.63	187.682
774.523	286.891
777.415	479.882
780.308	562.723
783.201	650.544
786.094	822.014
788.986	962.758
791.879	982.172
794.772	1017.41
797.664	991.96
800.557	956.562
803.45	905.795
806.342	857.639
809.235	856.846
812.128	880.403
815.021	879.575
817.913	891.198
820.806	852.427
823.699	889.29
826.591	868.344
829.484	871.491
832.377	831.732
835.269	737.544
838.162	745.941
841.055	630.118
843.948	506.832
846.84	350.581
849.733	246.476
852.626	164.35
855.519	50.3909
858.411	11.6252
861.304	50.1624
864.197	77.27
867.089	8.96338
869.982	46.0327
872.875	246.481
875.767	464.54
878.66	1014.38
881.553	1629.49
884.446	2466.1
887.338	3261.11
890.231	3936.21
893.124	4351.74
896.016	4259.07
898.909	3614.98
901.802	2860.68
904.694	2208.53
907.587	1726.86
910.48	1371.33
913.372	1082.76
916.265	911.33
919.158	836.004
922.051	675.644
924.943	660.116
927.836	619.819
930.729	597.882
933.621	544.977
936.514	538.186
939.407	488.138
942.299	423.891
945.192	333.644
948.085	264.274
950.978	259.82
953.87	241.281
956.763	241.206
959.656	287.442
962.548	329.006
965.441	375.729
968.334	400.876
971.226	507.498
974.119	593.727
977.012	588.395
979.905	644.97
982.797	571.111
985.69	463.745
988.583	369.098
991.475	243.683
994.368	122.327
997.261	63.418
1000.15	11.5898
1003.05	4.22046
1005.94	5.07507
1008.83	22.4924
1011.72	21.9484
1014.62	11.7969
1017.51	2.51257
1020.4	13.6128
1023.29	7.14294
1026.19	31.5632
1029.08	70.9471
1031.97	57.7028
1034.87	65.2983
1037.76	104.253
1040.65	84.1643
1043.54	71.7556
1046.44	64.6224
1049.33	94.0478
1052.22	90.1654
1055.12	106.116
1058.01	137.933
1060.9	127.477
1063.79	110.444
1066.69	105.322
1069.58	88.8994
1072.47	93.4688
1075.36	65.0787
1078.26	57.3756
1081.15	75.8699
1084.04	77.5164
1086.93	68.4188
1089.83	57.5175
1092.72	52.749
1095.61	35.1975
1098.51	81.4285
1101.4	38.4198
1104.29	57.3665
1107.18	45.4705
1110.08	24.5409
1112.97	51.7893
1115.86	26.5023
1118.75	24.5327
1121.65	10.9391
1124.54	25.2465
1127.43	37.4042
1130.33	16.6752
1133.22	33.5641
1136.11	0.941528
1139	13.4591
1141.9	49.0151
1144.79	11.0769
1147.68	40.0425
1150.57	29.486
1153.47	13.4584
1156.36	32.353
1159.25	40.3234
1162.14	42.5399
1165.04	36.3909
1167.93	0.65918
1170.82	5.14331
1173.72	44.4465
1176.61	36.7583
1179.5	47.3278
1182.39	43.161
1185.29	25.8528
1188.18	31.8777
1191.07	8.33789
1193.96	33.2246
1196.86	11.4258
1199.75	18.8396
1202.64	24.2112
1205.54	48.7543
1208.43	84.3085
1211.32	64.5134
1214.21	68.7051
1217.11	64.1045
1220	62.1882
1222.89	66.2622
1225.78	65.9262
1228.68	63.5223
1231.57	42.3522
1234.46	37.2411
1237.36	27.7406
1240.25	31.6566
1243.14	72.6805
1246.03	54.4747
1248.93	46.1307
1251.82	16.5328
1254.71	10.7823
1257.6	35.0857
1260.5	16.4022
1263.39	30.9248
1266.28	64.6962
1269.17	68.3318
1272.07	41.334
1274.96	2.13586
1277.85	0.398071
1280.74	24.063
1283.64	24.2418
1286.53	49.0759
1289.42	30.1665
1292.32	36.4443
1295.21	54.9114
1298.1	25.4861
