Measurement: Raman, 780 nm, unoriented, Raman Data Processed
Mineral: Coalingite
Rruff sample: R110196
Ideal chemistry: Mg_10_Fe^3+^_2_CO_3_(OH)_24_2H_2_O
Locality: San Benito County, California (about 35 miles NW of Coalinga), USA
Source: James Shigley
Description: Golden-reddish-brown flakes
Raman shift (cm-1)	intensity
113.781	0
117.156	8.69739
120.531	15.6316
123.905	45.2139
127.28	60.2604
130.655	78.445
134.03	56.6227
137.405	46.2094
140.779	46.7699
144.154	37.4061
147.529	37.3828
150.904	39.8049
154.279	30.798
157.654	24.171
161.028	14.1641
164.403	11.415
167.778	5.75024
171.153	2.84888
174.528	7.14282
177.902	1.0152
181.277	0.436462
184.652	2.8349
188.027	0.718567
191.402	8.13196
194.776	6.43579
198.151	7.55347
201.526	9.51422
204.901	10.3915
208.276	9.32764
211.651	21.652
215.025	24.8086
218.4	33.6332
221.775	37.0207
225.15	45.0229
228.525	55.2542
231.899	66.4531
235.274	68.3102
238.649	59.5513
242.024	52.5973
245.399	54.7626
248.774	56.606
252.148	60.1018
255.523	64.1295
258.898	72.7057
262.273	80.0065
265.648	88.3345
269.022	96.8853
272.397	91.9426
275.772	99.5557
279.147	103.034
282.522	104.992
285.897	92.4092
289.271	82.5088
292.646	69.4043
296.021	58.5018
299.396	53.6112
302.771	43.9188
306.145	38.0844
309.52	25.9979
312.895	24.9415
316.27	21.2487
319.645	12.7986
323.019	7.08356
326.394	2.29736
329.769	0.281738
333.144	3.32434
336.519	1.3075
339.894	3.27173
343.268	2.01758
346.643	7.19873
350.018	4.17041
353.393	8.69513
356.768	4.1084
360.142	5.64239
363.517	2.4458
366.892	4.92273
370.267	9.53009
373.642	5.59821
377.017	13.6382
380.391	16.8254
383.766	18.6866
387.141	34.104
390.516	40.5158
393.891	27.165
397.265	2.47504
400.64	2.88721
404.015	1.89667
407.39	0.318298
410.765	2.07892
414.14	7.24878
417.514	13.1832
420.889	12.3822
424.264	25.0899
427.639	38.6871
431.014	47.4395
434.389	63.0042
437.763	75.8637
441.138	98.3141
444.513	105.804
447.888	103.8
451.263	85.7272
454.637	67.7672
458.012	41.2225
461.387	27.7263
464.762	10.1722
468.137	4.6026
471.512	2.32959
474.886	0.826477
478.261	1.63574
481.636	0.472351
485.011	5.92102
488.386	10.0803
491.76	14.1179
495.135	30.1022
498.51	48.4482
501.885	72.2703
505.26	124.61
508.635	179.184
512.009	248.737
515.384	335.786
518.759	412.997
522.134	455.664
525.509	452.29
528.883	395.356
532.258	315.914
535.633	244.19
539.008	187.453
542.383	137.29
545.757	100.757
549.132	73.583
552.507	60.6271
555.882	42.5358
559.257	35.2064
562.631	23.2999
566.006	19.487
569.381	13.1756
572.756	7.0415
576.131	6.64539
579.506	3.49066
582.88	8.97119
586.255	6.38977
589.63	6.88043
593.005	10.5898
596.38	13.8754
599.755	7.91907
603.129	12.4867
606.504	4.84619
609.879	6.90405
613.254	0.050049
616.629	2.97516
620.003	4.37695
623.378	0.454407
626.753	0.963562
630.128	2.52167
633.503	3.72211
636.878	1.60858
640.252	3.40356
643.627	2.12567
647.002	2.8952
650.377	8.48468
653.752	4.11804
657.126	3.18408
660.501	5.49005
663.876	3.72174
667.251	12.538
670.626	9.20837
674	11.6937
677.375	23.3805
680.75	24.1363
684.125	33.2558
687.5	47.2472
690.875	44.4509
694.249	37.7777
697.624	22.4387
700.999	12.4109
704.374	14.8005
707.749	13.7756
711.124	8.91626
714.498	8.20941
717.873	2.92889
721.248	7.28235
724.623	3.20441
727.998	2.59485
731.372	2.70001
734.747	3.73096
738.122	2.211
741.497	2.91656
744.872	1.7453
748.246	4.69434
751.621	2.71326
754.996	2.96191
758.371	5.8103
761.746	5.37408
765.12	4.32819
768.495	0.491211
771.87	3.57581
775.245	5.43378
778.62	3.65521
781.995	2.8515
785.369	3.87567
788.744	0.663208
792.119	3.96033
795.494	4.95312
798.869	3.17914
802.244	8.05432
805.618	7.79608
808.993	9.76636
812.368	8.08227
815.743	6.34778
819.118	12.9878
822.492	16.1804
825.867	12.4258
829.242	13.7977
832.617	10.0761
835.992	16.9619
839.366	16.6104
842.741	13.6025
846.116	12.1356
849.491	15.4898
852.866	13.717
856.241	5.51398
859.615	13.3665
862.99	18.86
866.365	16.2953
869.74	11.8312
873.115	5.98459
876.49	10.2172
879.864	9.17883
883.239	8.5329
886.614	4.54529
889.989	7.88623
893.364	5.48608
896.738	2.86108
900.113	0.263092
903.488	0.335114
906.863	0.564697
910.238	2.04443
913.612	3.43185
916.987	5.78931
920.362	9.59531
923.737	8.32663
927.112	14.0403
930.487	14.3987
933.861	11.5111
937.236	11.0287
940.611	14.2886
943.986	5.56867
947.361	5.92865
950.736	6.28693
954.11	6.73508
957.485	0.651794
960.86	2.35318
964.235	2.09177
967.61	0.804199
970.984	1.72403
974.359	2.72952
977.734	1.20395
981.109	3.08685
984.484	0.237549
987.859	1.5387
991.233	2.96884
994.608	5.66711
997.983	4.70706
1001.36	4.35757
1004.73	6.61325
1008.11	7.26089
1011.48	5.54306
1014.86	8.31726
1018.23	7.97223
1021.61	7.53018
1024.98	9.24442
1028.36	0.490723
1031.73	5.20755
1035.11	9.90378
1038.48	9.34051
1041.86	16.5922
1045.23	20.7362
1048.61	24.8478
1051.98	25.1308
1055.36	33.2976
1058.73	35.6199
1062.1	23.4548
1065.48	14.1612
1068.85	8.82205
1072.23	7.20715
1075.6	10.4724
1078.98	5.02957
1082.35	7.69458
1085.73	8.30502
1089.1	1.62857
1092.48	3.01346
1095.85	5.8548
1099.23	6.02969
1102.6	2.93729
1105.98	7.61984
1109.35	5.81821
1112.73	6.18979
1116.1	3.92874
1119.48	0.006378
1122.85	1.26093
1126.23	0.718353
1129.6	0.359924
1132.98	4.90555
1136.35	1.22998
1139.72	1.09875
1143.1	2.84329
1146.47	4.60422
1149.85	5.72568
1153.22	5.02966
1156.6	2.01221
1159.97	6.14758
1163.35	8.68512
1166.72	2.11719
1170.1	5.74689
1173.47	5.85172
1176.85	3.62393
1180.22	1.3909
1183.6	5.31515
1186.97	9.7721
1190.35	8.61972
1193.72	3.63275
1197.1	9.1167
1200.47	2.65567
1203.85	5.73511
1207.22	8.18808
1210.6	10.9741
1213.97	0.781067
1217.35	7.19022
1220.72	9.54926
1224.1	7.85992
1227.47	4.6318
1230.85	5.04514
1234.22	2.80365
1237.6	9.70902
1240.97	0.290161
1244.34	3.78873
1247.72	8.75562
1251.09	5.52921
1254.47	2.63907
1257.84	3.12955
1261.22	2.74918
1264.59	5.18024
1267.97	4.27347
1271.34	5.4454
1274.72	8.95874
1278.09	2.76022
1281.47	2.63895
1284.84	0.853455
