Measurement: Raman, 780 nm, unoriented, Raman Data Processed
Mineral: Coalingite
Rruff sample: R110197
Ideal chemistry: Mg_10_Fe^3+^_2_CO_3_(OH)_24_2H_2_O
Locality: Hunting Hill quarry, Rockville, Montgomery Co., Maryland, USA
Source: Donald Doell
Description: Reddish-brown flakes
Raman shift (cm-1)	intensity
113.781	0
117.156	10.9399
120.531	32.5168
123.905	82.0756
127.28	102.141
130.655	167.642
134.03	133.036
137.405	124.112
140.779	126.702
144.154	109.551
147.529	110.139
150.904	112.129
154.279	98.8
157.654	83.0757
161.028	64.9428
164.403	52.0171
167.778	32.0971
171.153	17.8876
174.528	5.29004
177.902	3.71503
181.277	2.91614
184.652	6.6745
188.027	3.45032
191.402	1.0376
194.776	3.82471
198.151	3.16138
201.526	9.19452
204.901	15.0277
208.276	15.5913
211.651	26.7604
215.025	40.1087
218.4	50.556
221.775	66.7158
225.15	100.058
228.525	163.305
231.899	201.328
235.274	128.617
238.649	81.1559
242.024	63.126
245.399	70.6295
248.774	73.212
252.148	75.8649
255.523	78.5425
258.898	89.8026
262.273	104.879
265.648	116.304
269.022	124.551
272.397	124.031
275.772	134.852
279.147	135.471
282.522	138.91
285.897	125.33
289.271	109.478
292.646	93.2978
296.021	78.8114
299.396	66.1296
302.771	57.9513
306.145	51.8151
309.52	39.4574
312.895	31.6505
316.27	25.8601
319.645	12.6143
323.019	11.6229
326.394	0.39447
329.769	1.59851
333.144	5.12555
336.519	1.88849
339.894	0.094421
343.268	7.89905
346.643	14.7517
350.018	27.7845
353.393	34.1493
356.768	24.6592
360.142	30.8012
363.517	33.7535
366.892	44.4191
370.267	63.0941
373.642	63.8351
377.017	75.0411
380.391	93.5698
383.766	134.966
387.141	142.987
390.516	63.7272
393.891	24.9795
397.265	1.23144
400.64	1.29071
404.015	3.18591
407.39	2.73364
410.765	1.83704
414.14	10.8097
417.514	14.5313
420.889	11.0161
424.264	29.4869
427.639	47.2363
431.014	55.5877
434.389	74.916
437.763	94.0766
441.138	124.245
444.513	141.381
447.888	140.656
451.263	127.034
454.637	107.09
458.012	67.8956
461.387	41.9575
464.762	16.868
468.137	1.76318
471.512	4.09381
474.886	1.62915
478.261	2.84125
481.636	2.70563
485.011	7.09851
488.386	9.42248
491.76	16.5421
495.135	35.2481
498.51	54.692
501.885	80.9702
505.26	150.439
508.635	213.87
512.009	307.093
515.384	433.87
518.759	553.965
522.134	647.702
525.509	667.797
528.883	601.047
532.258	488.701
535.633	378.957
539.008	283.142
542.383	209.157
545.757	154.951
549.132	116.462
552.507	94.6415
555.882	70.5966
559.257	64.4064
562.631	43.9592
566.006	37.9616
569.381	28.6625
572.756	19.8004
576.131	19.4856
579.506	9.62994
582.88	17.3873
586.255	10.9585
589.63	15.4288
593.005	19.4164
596.38	25.4867
599.755	15.3392
603.129	18.7981
606.504	8.68289
609.879	10.5803
613.254	4.05069
616.629	10.579
620.003	17.599
623.378	2.82986
626.753	0.657623
630.128	0.879578
633.503	2.78805
636.878	4.16248
640.252	3.26721
643.627	0.522339
647.002	0.250031
650.377	5.52246
653.752	4.4054
657.126	5.40128
660.501	9.28955
663.876	11.2172
667.251	22.2936
670.626	25.2105
674	32.582
677.375	52.4656
680.75	62.3956
684.125	89.8088
687.5	116.904
690.875	104.157
694.249	69.1736
697.624	39.7936
700.999	27.8296
704.374	31.8922
707.749	32.3239
711.124	28.8528
714.498	21.8277
717.873	15.1769
721.248	13.6948
724.623	4.80335
727.998	5.6463
731.372	7.37082
734.747	5.06378
738.122	3.59497
741.497	4.7124
744.872	1.38928
748.246	4.90381
751.621	0.202637
754.996	2.31583
758.371	3.89285
761.746	4.4119
765.12	4.30661
768.495	3.07605
771.87	0.588623
775.245	4.30417
778.62	6.83203
781.995	1.46735
785.369	4.08075
788.744	0.07373
792.119	6.93613
795.494	4.64444
798.869	2.92618
802.244	10.1921
805.618	7.58603
808.993	13.9738
812.368	8.845
815.743	8.02966
819.118	15.7891
822.492	16.3505
825.867	12.3176
829.242	17.2576
832.617	10.4809
835.992	17.7147
839.366	16.8947
842.741	13.6234
846.116	13.4836
849.491	17.5001
852.866	17.8308
856.241	5.62299
859.615	16.2449
862.99	16.1508
866.365	18.1777
869.74	12.4984
873.115	8.33954
876.49	11.3785
879.864	12.0871
883.239	10.7712
886.614	8.87991
889.989	7.85931
893.364	10.2897
896.738	5.93268
900.113	0.327972
903.488	0.917786
906.863	0.969421
910.238	1.76654
913.612	4.80054
916.987	2.32465
920.362	1.41769
923.737	0.618347
927.112	2.32413
930.487	7.47656
933.861	6.25879
937.236	5.29425
940.611	6.94656
943.986	0.88678
947.361	1.48206
950.736	5.2749
954.11	5.12592
957.485	0.616211
960.86	4.3945
964.235	2.76025
967.61	3.81753
970.984	0.111877
974.359	2.72208
977.734	2.03204
981.109	4.21393
984.484	1.24197
987.859	4.36099
991.233	3.77451
994.608	2.73087
997.983	3.69177
1001.36	5.66296
1004.73	7.29221
1008.11	11.497
1011.48	7.33194
1014.86	16.5807
1018.23	14.099
1021.61	13.118
1024.98	17.3076
1028.36	3.60941
1031.73	8.16159
1035.11	11.5601
1038.48	15.1534
1041.86	26.0004
1045.23	38.9598
1048.61	61.4566
1051.98	73.3747
1055.36	100.203
1058.73	102.293
1062.1	60.4176
1065.48	28.5151
1068.85	12.8778
1072.23	6.99652
1075.6	7.36542
1078.98	5.76852
1082.35	7.93594
1085.73	11.1004
1089.1	5.50076
1092.48	6.05093
1095.85	7.92651
1099.23	7.69946
1102.6	0.71402
1105.98	9.30579
1109.35	6.44437
1112.73	16.0768
1116.1	19.2673
1119.48	30.197
1122.85	35.8506
1126.23	22.8091
1129.6	8.85289
1132.98	3.64059
1136.35	0.888275
1139.72	1.82303
1143.1	0.71579
1146.47	2.60182
1149.85	1.86069
1153.22	4.52681
1156.6	0.815582
1159.97	3.78476
1163.35	4.28651
1166.72	6.39621
1170.1	5.39725
1173.47	4.86881
1176.85	4.52788
1180.22	0.001038
1183.6	4.53484
1186.97	9.8356
1190.35	8.83983
1193.72	5.26633
1197.1	8.494
1200.47	2.65764
1203.85	3.37398
1207.22	10.8126
1210.6	10.873
1213.97	1.35095
1217.35	7.86014
1220.72	11.7506
1224.1	9.97133
1227.47	5.56633
1230.85	7.13502
1234.22	3.47655
1237.6	9.84139
1240.97	0.652725
1244.34	3.07619
1247.72	6.56189
1251.09	7.04379
1254.47	5.18166
1257.84	5.12128
1261.22	2.61249
1264.59	6.68626
1267.97	6.12096
1271.34	5.1665
1274.72	9.69641
1278.09	4.07996
1281.47	3.70344
1284.84	1.61815
