Measurement: Raman, 532 nm, unoriented, Raman Data Processed
Mineral: Coalingite
Rruff sample: R110197
Ideal chemistry: Mg_10_Fe^3+^_2_CO_3_(OH)_24_2H_2_O
Locality: Hunting Hill quarry, Rockville, Montgomery Co., Maryland, USA
Source: Donald Doell
Description: Reddish-brown flakes
Raman shift (cm-1)	intensity
192.219	0
195.112	1.40362
198.004	0.453918
200.897	6.41522
203.79	12.8632
206.682	5.10669
209.575	5.4765
212.468	9.20135
215.36	10.8524
218.253	16.7555
221.146	21.1002
224.038	27.1577
226.931	44.3322
229.824	59.8661
232.717	71.9033
235.609	52.1648
238.502	42.9783
241.395	37.6165
244.287	43.6539
247.18	46.9221
250.073	56.7156
252.965	57.2569
255.858	74.428
258.751	74.9295
261.644	83.1535
264.536	92.8533
267.429	97.0007
270.322	99.7535
273.214	111.261
276.107	115.162
279	114.489
281.892	106.875
284.785	96.058
287.678	83.5472
290.571	77.0908
293.463	63.4102
296.356	58.2871
299.249	49.5679
302.141	42.4535
305.034	43.6025
307.927	35.3451
310.82	26.3438
313.712	17.8
316.605	10.6115
319.498	9.93079
322.39	2.73608
325.283	1.36792
328.176	1.44812
331.068	0.277283
333.961	5.50293
336.854	5.92163
339.747	7.93646
342.639	9.88324
345.532	10.9846
348.425	10.2743
351.317	24.9589
354.21	24.3976
357.103	14.4312
359.995	21.323
362.888	18.9275
365.781	21.1161
368.673	27.0177
371.566	33.381
374.459	30.4772
377.352	32.7705
380.244	32.7521
383.137	42.6
386.03	60.7582
388.922	43.9058
391.815	15.7364
394.708	2.67914
397.601	7.65912
400.493	4.49249
403.386	1.83527
406.279	2.32819
409.171	7.37195
412.064	9.52271
414.957	15.7949
417.849	15.5646
420.742	14.8616
423.635	25.123
426.527	32.8404
429.42	42.7873
432.313	56.3521
435.206	59.979
438.098	65.2297
440.991	80.8638
443.884	85.4552
446.776	83.2034
449.669	79.6161
452.562	68.6303
455.454	50.4665
458.347	34.6549
461.24	17.606
464.133	3.64221
467.025	1.01782
469.918	6.84753
472.811	6.48853
475.703	2.80298
478.596	3.05335
481.489	1.33887
484.382	6.42615
487.274	3.97974
490.167	10.2789
493.06	23.7872
495.952	38.7574
498.845	47.7123
501.738	67.3091
504.63	107.56
507.523	151.086
510.416	211.633
513.308	287.562
516.201	376.327
519.094	459.261
521.987	530.5
524.879	571.909
527.772	559.538
530.665	506.104
533.557	431.708
536.45	357.902
539.343	301.085
542.236	256.391
545.128	219.17
548.021	193.769
550.914	174.35
553.806	160.245
556.699	146.774
559.592	143.049
562.484	133.628
565.377	128.295
568.27	116.003
571.163	110.152
574.055	108.286
576.948	108.105
579.841	104.152
582.733	101.622
585.626	99.0927
588.519	102.202
591.411	99.9242
594.304	94.059
597.197	89.0663
600.09	71.0156
602.982	59.8889
605.875	47.6125
608.768	40.9247
611.66	37.9873
614.553	24.1942
617.446	20.9966
620.338	19.5377
623.231	5.7699
626.124	1.76843
629.016	3.67957
631.909	4.22217
634.802	1.64929
637.695	3.76929
640.587	4.44287
643.48	1.34326
646.373	0.570068
649.265	0.10791
652.158	3.95422
655.051	7.76953
657.943	8.2699
660.836	6.78821
663.729	14.9002
666.622	11.0812
669.514	25.5828
672.407	22.1311
675.3	28.6464
678.192	34.8694
681.085	44.5681
683.978	56.2538
686.87	66.087
689.763	74.9415
692.656	66.8262
695.549	51.2533
698.441	48.8774
701.334	33.3339
704.227	27.5508
707.119	27.3182
710.012	34.6403
712.905	26.9635
715.798	18.6385
718.69	12.3435
721.583	10.9028
724.476	18.3922
727.368	13.9208
730.261	15.2299
733.154	11.2191
736.046	9.06848
738.939	10.7081
741.832	5.78577
744.725	2.9176
747.617	10.7515
750.51	6.88672
753.403	12.5336
756.295	14.0571
759.188	10.2649
762.081	10.1094
764.973	3.88818
767.866	6.62219
770.759	2.01428
773.652	1.38379
776.544	1.40039
779.437	7.2644
782.33	4.40222
785.222	1.29077
788.115	0.65918
791.008	3.09985
793.9	4.97998
796.793	3.41992
799.686	2.09692
802.578	1.11694
805.471	4.75159
808.364	1.57837
811.257	4.20252
814.149	6.21643
817.042	2.50806
819.935	3.74646
822.827	8.91931
825.72	1.75037
828.613	4.2135
831.505	5.59412
834.398	7.18079
837.291	0.754395
840.184	7.70825
843.076	6.22046
845.969	8.7832
848.862	5.66943
851.754	4.20984
854.647	5.91968
857.54	14.0126
860.433	9.56421
863.325	7.9281
866.218	5.97778
869.111	1.87732
872.003	8.30505
874.896	9.33752
877.789	0.255981
880.681	1.84485
883.574	2.76025
886.467	10.707
889.36	11.2523
892.252	8.69373
895.145	7.22021
898.038	2.0044
900.93	1.12415
903.823	1.71081
906.716	3.67346
909.608	9.88196
912.501	7.33899
915.394	4.06616
918.287	5.50476
921.179	5.27686
924.072	3.052
926.965	5.16626
929.857	9.11938
932.75	4.84424
935.643	2.79358
938.535	3.1062
941.428	1.80554
944.321	2.44177
947.213	5.66528
950.106	5.69324
952.999	3.12512
955.892	5.43054
958.784	3.93701
961.677	1.72424
964.57	2.50012
967.462	0.009399
970.355	5.05933
973.248	0.312256
976.14	2.11597
979.033	3.44665
981.926	3.22327
984.819	2.75476
987.711	1.84534
990.604	4.69495
993.497	3.34253
996.389	6.26074
999.282	5.90967
1002.17	3.31653
1005.07	9.58496
1007.96	9.39246
1010.85	10.9996
1013.75	11.291
1016.64	5.77161
1019.53	9.67786
1022.42	13.5469
1025.32	7.55444
1028.21	12.3572
1031.1	9.36365
1033.99	14.963
1036.89	13.5631
1039.78	15.4507
1042.67	21.5646
1045.57	34.5134
1048.46	40.9589
1051.35	55.8433
1054.24	70.7412
1057.14	83.6465
1060.03	77.5753
1062.92	48.6813
1065.81	17.7329
1068.71	9.02576
1071.6	7.54297
1074.49	1.79639
1077.38	1.12146
1080.28	3.95203
1083.17	2.42871
1086.06	1.28894
1088.96	4.57056
1091.85	1.01636
1094.74	1.48718
1097.63	8.04126
1100.53	5.76599
1103.42	4.4845
1106.31	3.63672
1109.2	0.199951
1112.1	6.31738
1114.99	6.08301
1117.88	12.5765
1120.78	11.6561
1123.67	15.8469
1126.56	1.76709
1129.45	3.15381
1132.35	2.0824
1135.24	2.32495
1138.13	3.94019
1141.02	1.54797
1143.92	5.97424
1146.81	5.25427
1149.7	5.59436
1152.6	6.59949
1155.49	3.35461
1158.38	1.53394
1161.27	3.03943
1164.17	3.41919
1167.06	1.36951
1169.95	1.48853
1172.84	5.64954
1175.74	11.4573
1178.63	2.85693
1181.52	8.83874
1184.41	6.67395
1187.31	6.17883
1190.2	2.05786
1193.09	5.02918
1195.99	5.88965
1198.88	1.11768
1201.77	6.01196
1204.66	7.0863
1207.56	12.7158
1210.45	10.5881
1213.34	4.86621
1216.23	7.08093
1219.13	0.581055
1222.02	2.76733
1224.91	6.45007
1227.81	2.86084
1230.7	2.50501
1233.59	0.170288
1236.48	1.62268
1239.38	0.16748
1242.27	5.93042
1245.16	4.27393
1248.05	4.27942
1250.95	0.446411
1253.84	8.71753
1256.73	3.10742
1259.62	4.99255
1262.52	7.86902
1265.41	8.78223
1268.3	5.05237
1271.2	3.88611
1274.09	4.54834
1276.98	12.2364
1279.87	1.67664
1282.77	0.514282
1285.66	8.5332
1288.55	12.111
1291.44	13.057
1294.34	10.198
1297.23	4.56348
1300.12	6.2959
1303.02	0
