Measurement: Raman, 532 nm, unoriented, Raman Data Processed
Mineral: Coalingite
Rruff sample: R110196
Ideal chemistry: Mg_10_Fe^3+^_2_CO_3_(OH)_24_2H_2_O
Locality: San Benito County, California (about 35 miles NW of Coalinga), USA
Source: James Shigley
Description: Golden-reddish-brown flakes
Raman shift (cm-1)	intensity
198.968	0
201.861	2.85828
204.754	11.8746
207.647	1.02844
210.539	0.271973
213.432	2.99744
216.325	4.00256
219.217	7.57129
222.11	13.1505
225.003	20.9983
227.895	24.0233
230.788	27.7162
233.681	37.2562
236.573	32.5255
239.466	26.3516
242.359	29.3112
245.252	31.5352
248.144	36.7783
251.037	42.4545
253.93	41.4714
256.822	54.2021
259.715	58.3518
262.608	57.5321
265.5	66.2568
268.393	75.7402
271.286	67.4678
274.179	77.6902
277.071	83.8806
279.964	78.1422
282.857	74.2048
285.75	60.1054
288.642	54.2685
291.535	47.4391
294.428	37.9902
297.32	36.8298
300.213	39.3049
303.106	32.7822
305.998	30.1239
308.891	20.7822
311.784	18.6329
314.676	18.328
317.569	9.29578
320.462	7.22351
323.355	3.77698
326.247	0.89856
329.14	1.51904
332.033	2.6969
334.925	2.83362
337.818	0.280273
340.711	3.09961
343.603	3.36987
346.496	3.68799
349.389	0.910767
352.281	4.59106
355.174	0.06604
358.067	3.49426
360.96	2.02148
363.852	0.509766
366.745	0.601807
369.638	4.25049
372.53	3.74963
375.423	2.23425
378.316	11.8851
381.209	13.0548
384.101	9.85742
386.994	26.2316
389.887	28.0155
392.779	30.3822
395.672	9.2085
398.565	1.41431
401.457	0.517456
404.35	5.34729
407.243	2.89978
410.135	7.76575
413.028	18.6597
415.921	24.6355
418.814	27.6278
421.706	24.2622
424.599	32.6156
427.492	49.6954
430.384	53.3276
433.277	67.0319
436.17	69.251
439.062	79.292
441.955	86.1881
444.848	85.589
447.741	79.7892
450.633	62.0195
453.526	49.5935
456.419	32.1028
459.311	24.3658
462.204	15.0867
465.097	1.87
467.99	2.08228
470.882	4.66882
473.775	2.64539
476.668	1.37146
479.56	2.64539
482.453	1.81482
485.346	8.9331
488.238	10.2644
491.131	11.8301
494.024	23.6815
496.916	35.1476
499.809	58.1003
502.702	74.4382
505.595	112.704
508.487	154.945
511.38	210.185
514.273	273.527
517.165	325.876
520.058	376.235
522.951	400.886
525.844	401.665
528.736	366.528
531.629	312.142
534.522	258.254
537.414	216.909
540.307	171.972
543.2	142.043
546.092	114.761
548.985	103.57
551.878	89.9967
554.771	74.814
557.663	67.7516
560.556	62.2815
563.449	50.6091
566.341	51.9479
569.234	42.7258
572.127	38.3716
575.019	37.264
577.912	41.1643
580.805	44.66
583.697	36.0852
586.59	32.5149
589.483	30.5098
592.376	39.5402
595.268	31.7892
598.161	33.5219
601.054	28.942
603.946	25.1897
606.839	17.9658
609.732	14.4521
612.625	13.177
615.517	7.55212
618.41	6.78162
621.303	7.03894
624.195	2.1919
627.088	0.537354
629.981	0.762939
632.873	1.24963
635.766	1.63025
638.659	2.27161
641.552	3.4812
644.444	1.20911
647.337	2.04309
650.23	1.62866
653.122	3.28235
656.015	3.73596
658.908	5.90332
661.8	7.474
664.693	6.67615
667.586	9.32825
670.479	13.7925
673.371	14.584
676.264	20.5715
679.157	25.0737
682.049	33.7185
684.942	42.0558
687.835	50.8684
690.727	57.7102
693.62	48.6082
696.513	40.3475
699.405	33.7582
702.298	24.1998
705.191	19.0085
708.084	22.4681
710.976	18.1492
713.869	15.2701
716.762	11.7899
719.654	4.88818
722.547	2.53955
725.44	10.8957
728.332	13.4164
731.225	10.426
734.118	7.76709
737.011	0.907227
739.903	3.91516
742.796	1.20813
745.689	3.38635
748.581	8.48694
751.474	5.52319
754.367	8.3147
757.26	6.30933
760.152	5.13074
763.045	4.26465
765.938	4.48718
768.83	6.99451
771.723	2.36548
774.616	2.21545
777.508	1.09534
780.401	2.58935
783.294	3.72449
786.187	1.00098
789.079	1.05395
791.972	2.47949
794.865	4.38403
797.757	3.297
800.65	3.60217
803.543	2.09204
806.435	7.02576
809.328	5.99402
812.221	8.46252
815.114	10.2114
818.006	10.5397
820.899	8.17981
823.792	12.3939
826.684	7.32104
829.577	6.8241
832.47	5.90869
835.362	11.5326
838.255	3.54565
841.148	10.4772
844.04	11.0688
846.933	11.6074
849.826	1.87402
852.719	9.07849
855.611	11.6727
858.504	9.11169
861.397	10.2828
864.289	10.3757
867.182	10.2312
870.075	4.5354
872.967	12.937
875.86	7.10486
878.753	4.78601
881.646	4.47107
884.538	7.48315
887.431	4.28259
890.324	7.54236
893.216	4.32239
896.109	4.3324
899.002	3.38904
901.894	0.377686
904.787	3.60486
907.68	2.66028
910.573	3.73132
913.465	9.59924
916.358	8.97241
919.251	11.1669
922.143	10.5448
925.036	14.5514
927.929	14.5742
930.822	10.9647
933.714	8.77246
936.607	4.56262
939.5	7.61939
942.392	7.6604
945.285	3.02002
948.178	12.3076
951.07	5.33716
953.963	4.84155
956.856	2.28137
959.749	2.59802
962.641	3.61157
965.534	2.17688
968.427	6.85083
971.319	1.5072
974.212	0.196655
977.105	2.23572
979.997	7.00305
982.89	6.02368
985.783	0.971191
988.676	3.87915
991.568	1.11584
994.461	4.62585
997.354	4.08032
1000.25	4.59033
1003.14	5.17676
1006.03	5.27466
1008.92	6.00647
1011.82	2.77942
1014.71	2.16907
1017.6	6.255
1020.5	8.8894
1023.39	7.28528
1026.28	3.2384
1029.17	9.43225
1032.07	8.47229
1034.96	18.898
1037.85	11.4943
1040.74	14.3582
1043.64	15.0501
1046.53	15.6832
1049.42	24.1863
1052.32	26.3782
1055.21	31.6788
1058.1	29.5886
1060.99	26.4669
1063.89	18.8087
1066.78	11.025
1069.67	9.38391
1072.56	4.63232
1075.46	4.5481
1078.35	0.936157
1081.24	0.639404
1084.13	1.53686
1087.03	1.49206
1089.92	1.58093
1092.81	3.49878
1095.7	6.91418
1098.6	11.3394
1101.49	8.49548
1104.38	4.22583
1107.28	6.43127
1110.17	3.88538
1113.06	8.66736
1115.95	6.91504
1118.85	11.4198
1121.74	6.2406
1124.63	4.8999
1127.53	3.42517
1130.42	0.76062
1133.31	0.369263
1136.2	0.623657
1139.1	4.82654
1141.99	3.49951
1144.88	7.51343
1147.77	4.92371
1150.67	6.98486
1153.56	10.9766
1156.45	4.15515
1159.35	0.044312
1162.24	4.60669
1165.13	2.35901
1168.02	6.32898
1170.92	7.32947
1173.81	2.9032
1176.7	7.46606
1179.59	5.13293
1182.49	9.78052
1185.38	10.3928
1188.27	7.8905
1191.16	9.55835
1194.06	7.45178
1196.95	6.62451
1199.84	10.2267
1202.73	7.12158
1205.63	10.9446
1208.52	12.0671
1211.41	12.7408
1214.31	13.8428
1217.2	7.71204
1220.09	6.64502
1222.98	6.63647
1225.88	11.734
1228.77	3.552
1231.66	8.53369
1234.56	0.353027
1237.45	0.78064
1240.34	0.016113
1243.23	3.47168
1246.13	5.81799
1249.02	0.552124
1251.91	4.27795
1254.8	9.14941
1257.7	0.716309
1260.59	4.95264
1263.48	12.0591
1266.38	5.49475
1269.27	6.07629
1272.16	6.65283
1275.05	4.86194
1277.95	1.6947
1280.84	2.53333
1283.73	1.50561
1286.62	11.0209
1289.52	8.98694
1292.41	7.04688
1295.3	2.52295
1298.19	7.21082
1301.09	5.56763
