Measurement: Raman, 780 nm, unoriented, Raman Data Processed
Mineral: Cobaltaustinite
Rruff sample: R050536
Ideal chemistry: CaCo^2+^As^5+^O_4_(OH)
Locality: Dome Rock, Mingary, South Australia, Australia
Source: University of Arizona Mineral Museum
Description: Dark-green drusy coating
Measured chemistry: Ca_1.00_(Co_0.95_Cu_0.05_)_Î£=1_As_1.00_O_4_(OH) ; (OH) estimated by difference and stoichiometry
Raman shift (cm-1)	intensity
154.234	0
157.127	1.05255
160.02	2.5141
162.912	4.29572
165.805	5.96472
168.698	7.51083
171.591	8.2178
174.483	8.3739
177.376	7.97076
180.269	11.2327
183.161	10.1898
186.054	15.3507
188.947	17.8621
191.839	23.692
194.732	27.7396
197.625	30.6241
200.518	36.0554
203.41	41.2074
206.303	48.5584
209.196	52.3689
212.088	54.3662
214.981	54.9593
217.874	45.8512
220.766	36.8117
223.659	29.6273
226.552	25.3073
229.445	18.3554
232.337	10.2962
235.23	7.07831
238.123	6.19006
241.015	3.67557
243.908	0.538391
246.801	0.060516
249.694	1.02005
252.586	0.17099
255.479	0.722839
258.372	1.53186
261.264	0.277893
264.157	0.327759
267.05	0.597107
269.942	1.73584
272.835	0.813599
275.728	1.33539
278.62	0.657074
281.513	0.66217
284.406	2.43729
287.299	2.73761
290.191	4.26633
293.084	6.74026
295.977	5.95544
298.869	10.1974
301.762	11.9179
304.655	18.3786
307.548	24.7402
310.44	34.27
313.333	49.0479
316.226	60.1752
319.118	75.8427
322.011	91.6021
324.904	107.136
327.796	119.651
330.689	122.078
333.582	113.646
336.474	110.196
339.367	106.201
342.26	104.536
345.152	97.1791
348.045	88.1358
350.938	86.2051
353.831	78.6919
356.723	73.968
359.616	67.4134
362.509	54.7504
365.401	43.4401
368.294	28.8775
371.187	20.4092
374.079	9.51267
376.972	6.38171
379.865	6.86508
382.758	6.31833
385.65	6.02652
388.543	4.68277
391.436	3.04245
394.328	0.907349
397.221	1.00827
400.114	0.538849
403.007	2.00772
405.899	4.58734
408.792	9.50958
411.685	16.2922
414.577	26.3013
417.47	36.0673
420.363	39.9494
423.255	42.1213
426.148	43.4923
429.041	40.4341
431.933	35.4207
434.826	22.4141
437.719	9.09195
440.612	0.770966
443.504	0.54599
446.397	1.96786
449.29	1.16672
452.182	6.92825
455.075	11.1438
457.968	15.6175
460.861	22.5556
463.753	27.1003
466.646	29.7101
469.539	29.9237
472.431	23.6739
475.324	21.6562
478.217	14.3957
481.109	12.1144
484.002	11.1581
486.895	11.7084
489.788	10.6528
492.68	8.53824
495.573	8.65265
498.466	5.28189
501.358	2.19516
504.251	2.45248
507.144	0.834381
510.036	0.566528
512.929	0.126923
515.822	0.514648
518.715	1.78418
521.607	0.530701
524.5	0.449066
527.393	0.534851
530.285	0.266479
533.178	1.25662
536.071	2.81836
538.963	2.33051
541.856	0.727844
544.749	1.41113
547.641	3.22952
550.534	2.28104
553.427	4.69876
556.32	4.40591
559.212	4.729
562.105	5.02338
564.998	4.7764
567.89	4.60556
570.783	5.89947
573.676	4.22623
576.568	5.17194
579.461	5.52402
582.354	5.48862
585.247	5.25275
588.139	6.41922
591.032	5.20145
593.925	7.17584
596.817	7.07575
599.71	5.09317
602.603	4.92709
605.495	4.65433
608.388	4.91602
611.281	5.73541
614.174	3.86124
617.066	5.83524
619.959	5.0072
622.852	4.86081
625.744	5.51523
628.637	3.92688
631.53	6.2359
634.423	4.17798
637.315	4.71509
640.208	6.56876
643.101	6.0892
645.993	6.59024
648.886	5.3475
651.779	4.99091
654.671	3.91461
657.564	6.26776
660.457	6.66293
663.35	4.72864
666.242	4.42331
669.135	5.18494
672.028	5.87357
674.92	4.45328
677.813	4.18787
680.706	3.03589
683.598	2.2692
686.491	1.35727
689.384	1.17529
692.277	0.048706
695.169	0.910614
698.062	0.864624
700.955	0.635345
703.847	0.739136
706.74	0.866852
709.633	0.591827
712.525	0.391205
715.418	2.55514
718.311	1.12601
721.203	1.86923
724.096	1.7475
726.989	1.09573
729.882	1.63504
732.774	1.09158
735.667	0.091095
738.56	1.85269
741.452	3.23611
744.345	6.93115
747.238	10.3947
750.13	14.4751
753.023	21.0508
755.916	28.0145
758.809	36.4747
761.701	45.7633
764.594	54.5825
767.487	61.3655
770.379	73.1183
773.272	83.7781
776.165	97.253
779.058	115.702
781.95	138.718
784.843	169.041
787.736	202.818
790.628	249.82
793.521	305.611
796.414	356.238
799.306	396.279
802.199	433.222
805.092	475.438
807.985	521.855
810.877	545.784
813.77	559.173
816.663	571.888
819.555	631.02
822.448	713.633
825.341	755.351
828.233	613.769
831.126	331.909
834.019	175.395
836.912	106.096
839.804	68.5182
842.697	46.4785
845.59	31.6114
848.482	24.0345
851.375	18.2036
854.268	13.9365
857.16	11.0139
860.053	8.61343
862.946	6.88513
865.838	4.35205
868.731	2.59503
871.624	3.18835
874.517	0.012268
877.409	0.513458
880.302	1.20789
883.195	2.09515
886.087	0.717987
888.98	2.46875
891.873	1.56787
894.765	0.875702
897.658	0.570465
900.551	0.132202
903.444	0.22757
906.336	0.049164
909.229	1.93884
912.122	1.83112
915.014	2.09442
917.907	3.1318
920.8	3.08069
923.692	2.86258
926.585	3.07297
929.478	3.87587
932.37	3.59909
935.263	4.46072
938.156	3.87755
941.049	3.20291
943.941	3.62656
946.834	3.12898
949.727	3.75081
952.619	3.61674
955.512	3.91133
958.405	5.25761
961.298	4.11871
964.19	3.37538
967.083	3.22568
969.976	3.65462
972.868	4.03461
975.761	3.4727
978.654	1.76874
981.546	0.618912
984.439	1.89331
987.332	2.27214
990.225	1.93806
993.117	1.55222
996.01	1.8945
998.903	0.9953
1001.79	2.93611
1004.69	0.386002
1007.58	0.198196
1010.47	1.38191
1013.37	0.784775
1016.26	0.160416
1019.15	0.211945
1022.04	2.61006
1024.94	0.912384
1027.83	1.63231
1030.72	0.676849
1033.62	3.57895
1036.51	1.65445
1039.4	2.35297
1042.29	2.23611
1045.19	2.97589
1048.08	3.53938
1050.97	4.66603
1053.86	3.63431
1056.76	3.79158
1059.65	3.79016
1062.54	3.28375
1065.43	3.97378
1068.33	2.16647
1071.22	1.82791
1074.11	1.99834
1077.01	2.2422
1079.9	2.15216
1082.79	2.4397
1085.68	2.12479
1088.58	2.28494
1091.47	1.74589
1094.36	1.80179
1097.25	0.841385
1100.15	0.527115
1103.04	0.577133
1105.93	0.906677
1108.83	0.817612
1111.72	1.03937
1114.61	1.5724
1117.5	0.255066
1120.4	0.483994
1123.29	0.625977
1126.18	0.615387
1129.07	1.69733
1131.97	1.68001
1134.86	2.65569
1137.75	1.68636
1140.64	2.33508
1143.54	3.12109
1146.43	2.10864
1149.32	2.1087
1152.22	2.6328
1155.11	1.94452
1158	1.19339
1160.89	1.10919
1163.79	1.92516
1166.68	2.97614
1169.57	1.78938
1172.46	3.02197
1175.36	1.41808
1178.25	3.84396
1181.14	2.76556
1184.04	3.38545
1186.93	3.00653
1189.82	3.54424
1192.71	2.44051
1195.61	3.79053
1198.5	2.82558
1201.39	2.57925
1204.28	2.27811
1207.18	2.19479
1210.07	1.60381
1212.96	2.46092
1215.86	2.36363
1218.75	2.33362
1221.64	1.82455
1224.53	1.53287
1227.43	0.595551
1230.32	0.23642
1233.21	0.3125
1236.1	1.54034
1239	0.041122
1241.89	0.098541
1244.78	1.401
1247.67	2.26009
1250.57	1.53468
1253.46	1.54056
1256.35	0.76947
1259.25	1.64342
1262.14	0.591034
1265.03	0.635895
1267.92	1.12155
1270.82	1.05876
1273.71	1.2086
1276.6	0.019989
1279.49	0.326019
1282.39	0.375183
1285.28	0.673187
