Measurement: Raman, 780 nm, unoriented, Raman Data Processed
Mineral: Cobaltomenite
Rruff sample: R110040
Ideal chemistry: CoSe^4+^O_3_2H_2_O
Locality: Musonoi mine extension, Kolwezi, Katanga, Congo
Source: William W Pinch
Description: Pale pink to purple grains scattered through a matrix of chalcomenite, demesmaekerite, and derriksite
Raman shift (cm-1)	intensity
197.187	0
200.08	3.65558
202.972	1.13806
205.865	11.5981
208.758	21.7568
211.651	33.173
214.543	46.8924
217.436	40.8862
220.329	48.5105
223.221	58.7271
226.114	71.531
229.007	93.7947
231.899	116.265
234.792	139.165
237.685	170.665
240.578	179.914
243.47	168.277
246.363	145.254
249.256	106.87
252.148	75.0323
255.041	56.402
257.934	40.5805
260.827	27.4647
263.719	22.3482
266.612	28.4477
269.505	23.6117
272.397	24.3251
275.29	19.6803
278.183	21.8308
281.075	16.1514
283.968	12.9737
286.861	8.88487
289.753	12.783
292.646	17.0164
295.539	24.2237
298.432	29.08
301.324	31.3988
304.217	38.4609
307.11	32.2388
310.002	35.7241
312.895	27.4883
315.788	17.0138
318.68	13.5621
321.573	5.98422
324.466	1.7029
327.359	6.89632
330.251	1.97246
333.144	0.62571
336.037	7.48832
338.929	0.106438
341.822	5.00353
344.715	13.002
347.608	23.7263
350.5	44.0598
353.393	68.0959
356.286	109.488
359.178	161.609
362.071	209.346
364.964	235.328
367.856	195.881
370.749	135.775
373.642	82.013
376.534	48.8032
379.427	36.403
382.32	23.726
385.213	25.6014
388.105	20.5073
390.998	25.4592
393.891	24.4779
396.783	27.8631
399.676	36.115
402.569	34.6141
405.462	37.3949
408.354	32.4405
411.247	29.8375
414.14	29.8474
417.032	41.0634
419.925	53.5602
422.818	56.8761
425.71	74.5925
428.603	88.2155
431.496	87.3599
434.389	69.7917
437.281	55.6047
440.174	42.515
443.067	32.372
445.959	11.4461
448.852	5.30562
451.745	2.1416
454.637	1.83076
457.53	0.958038
460.423	4.16623
463.315	0.604355
466.208	2.5699
469.101	10.6436
471.994	14.4992
474.886	32.0736
477.779	44.3773
480.672	60.7281
483.564	87.7446
486.457	106.441
489.35	122.616
492.243	118.254
495.135	106.028
498.028	85.9719
500.921	68.5104
503.813	48.9738
506.706	37.7193
509.599	31.9302
512.491	22.5009
515.384	16.4619
518.277	12.4546
521.169	5.00424
524.062	3.35122
526.955	2.3984
529.848	4.82642
532.74	0.175491
535.633	4.40551
538.526	0.497246
541.418	2.13285
544.311	9.43779
547.204	6.33685
550.096	0.077522
552.989	3.6618
555.882	6.18546
558.775	2.06424
561.667	6.64919
564.56	10.5004
567.453	4.80567
570.345	9.27475
573.238	14.6958
576.131	13.2491
579.024	13.7303
581.916	10.4167
584.809	11.2253
587.702	15.6447
590.594	13.6448
593.487	13.3446
596.38	10.8138
599.272	21.9077
602.165	19.163
605.058	18.6909
607.951	18.2698
610.843	16.3981
613.736	20.4117
616.629	12.4368
619.521	15.4069
622.414	14.8213
625.307	13.1895
628.199	11.1011
631.092	8.04625
633.985	4.54077
636.878	15.7792
639.77	3.25833
642.663	6.03271
645.556	4.94926
648.448	3.94178
651.341	2.92596
654.234	2.6082
657.126	1.06094
660.019	3.71394
662.912	1.27521
665.804	1.39818
668.697	0.932922
671.59	2.15152
674.483	0.723953
677.375	5.76077
680.268	15.7348
683.161	16.4719
686.053	23.9206
688.946	39.5983
691.839	52.7499
694.731	73.444
697.624	96.9935
700.517	115.449
703.41	139.408
706.302	147.278
709.195	140.998
712.088	140.059
714.98	139.931
717.873	127.193
720.766	112.57
723.659	96.0864
726.551	82.6391
729.444	65.2576
732.337	62.4708
735.229	60.4997
738.122	65.8406
741.015	67.2173
743.907	65.309
746.8	48.2733
749.693	43.5
752.586	34.0632
755.478	22.8861
758.371	12.6177
761.264	4.59576
764.156	3.51511
767.049	4.54127
769.942	5.18932
772.834	3.37315
775.727	12.611
778.62	29.8278
781.513	46.2095
784.405	67.5442
787.298	101.007
790.191	151.324
793.083	211.859
795.976	325.735
798.869	475.654
801.761	726.609
804.654	1054.41
807.547	1379.9
810.439	1369.11
813.332	1012.5
816.225	637.548
819.118	390.24
822.01	246.107
824.903	159.506
827.796	111.208
830.688	74.2331
833.581	54.2078
836.474	37.3743
839.366	26.2879
842.259	16.8695
845.152	11.636
848.045	7.14265
850.937	5.72258
853.83	4.6195
856.723	2.8773
859.615	2.43599
862.508	4.90595
865.401	2.94154
868.293	0.830803
871.186	1.38807
874.079	1.19131
876.972	0.172661
879.864	1.1815
882.757	0.555534
885.65	0.413666
888.542	0.748138
891.435	7.78762
894.328	0.720528
897.221	7.5215
900.113	4.50942
903.006	4.80965
905.899	7.13144
908.791	6.72185
911.684	12.0037
914.577	8.64693
917.469	7.44221
920.362	11.7223
923.255	12.3441
926.148	10.0892
929.04	8.61853
931.933	8.57237
934.826	8.48883
937.718	11.1362
940.611	8.55199
943.504	6.66528
946.396	8.7267
949.289	6.46085
952.182	17.6897
955.074	6.73171
957.967	6.47133
960.86	6.67233
963.753	8.82039
966.645	6.44029
969.538	3.51463
972.431	5.28447
975.323	7.55682
978.216	5.35905
981.109	13.6786
984.001	3.52551
986.894	0.068226
989.787	8.83788
992.68	1.73721
995.572	8.74923
998.465	5.41283
1001.36	0.099537
1004.25	5.42724
1007.14	7.8895
1010.04	8.59839
1012.93	2.43479
1015.82	5.56085
1018.71	5.12922
1021.61	5.0877
1024.5	3.46454
1027.39	4.72254
1030.29	8.56213
1033.18	1.80999
1036.07	3.33918
1038.96	8.70044
1041.86	0.185619
1044.75	1.83822
1047.64	2.86812
1050.53	16.1495
1053.43	0.868584
1056.32	1.47434
1059.21	3.63391
1062.1	2.77764
1065	6.73362
1067.89	2.23466
1070.78	4.31376
1073.67	5.90438
1076.57	0.966709
1079.46	6.32164
1082.35	0.751514
1085.25	3.23585
1088.14	6.41658
1091.03	7.42737
1093.92	6.19239
1096.82	4.24214
1099.71	2.71652
1102.6	7.32067
1105.49	2.85846
1108.39	7.77607
1111.28	9.71273
1114.17	1.02566
1117.07	6.46616
1119.96	4.95897
1122.85	8.09922
1125.74	7.71582
1128.64	8.12146
1131.53	3.36018
1134.42	5.03751
1137.32	3.89001
1140.21	1.95883
1143.1	3.80375
1145.99	4.95958
1148.88	4.82449
1151.78	10.4857
1154.67	4.84461
1157.56	11.0663
1160.46	2.20533
1163.35	0.404675
1166.24	7.34115
1169.13	2.49765
1172.03	10.9996
1174.92	6.92738
1177.81	4.56945
1180.7	10.5035
1183.6	9.18452
1186.49	8.20646
1189.38	6.18819
1192.28	9.7555
1195.17	8.49418
1198.06	5.02634
1200.95	6.30642
1203.85	6.62615
1206.74	3.75554
1209.63	6.08197
1212.53	7.49089
1215.42	4.19687
1218.31	10.1684
1221.2	8.70955
1224.1	1.02925
1226.99	3.09977
1229.88	7.75704
1232.77	0.038929
1235.67	5.5943
1238.56	7.18832
1241.45	7.87331
1244.34	6.3032
1247.24	7.80891
1250.13	8.3689
1253.02	9.36776
1255.91	4.64164
1258.81	9.41038
1261.7	7.63675
1264.59	8.6401
1267.49	5.43866
1270.38	1.79201
1273.27	5.19955
1276.16	6.87103
1279.06	3.94183
1281.95	4.98433
1284.84	1.90231
