Measurement: Raman, 785 nm, unoriented, Raman Data Processed
Mineral: Cobaltarthurite
Rruff sample: R070224
Ideal chemistry: Co^2+^Fe^+3^_2_(As^5+^O_4_)_2_(OH)_2_4H_2_O
Locality: Dolores prospect, Pastrana, Mazarr√≥n-Aguilas, Murcia, Spain
Source: Michael Scott
Description: Radiating pale dirty green fibrous crystals
Raman shift (cm-1)	intensity
170.195	0
173.088	75.7034
175.981	198.058
178.873	149.125
181.766	146.858
184.659	134.281
187.552	50.3957
190.444	3.76343
193.337	2.90478
196.23	21.5837
199.122	1.84888
202.015	6.62134
204.908	111.024
207.8	233.107
210.693	458.238
213.586	701.959
216.478	1134.11
219.371	1693.33
222.264	2325
225.157	2737.56
228.049	2871.98
230.942	3128.08
233.835	3334.51
236.727	2823.03
239.62	1978.16
242.513	1176.62
245.405	799.79
248.298	545.883
251.191	533.29
254.084	535.335
256.976	570.652
259.869	628.053
262.762	667.108
265.654	815.616
268.547	948.916
271.44	1029.5
274.332	1002.4
277.225	827.354
280.118	686.311
283.011	570.489
285.903	476.424
288.796	428.632
291.689	369.226
294.581	327.317
297.474	258.547
300.367	224.472
303.26	188.66
306.152	128.844
309.045	148.188
311.938	101.832
314.83	87.6151
317.723	12.5078
320.616	40.1337
323.508	69.2259
326.401	50.1917
329.294	45.6813
332.187	23.4253
335.079	147.263
337.972	190.898
340.865	322.966
343.757	298.706
346.65	199.071
349.543	134.324
352.435	75.342
355.328	114.285
358.221	119.485
361.113	148.82
364.006	219.685
366.899	273.455
369.792	328.636
372.684	381.418
375.577	395.752
378.47	388.908
381.362	382.704
384.255	443.589
387.148	485.4
390.041	609.44
392.933	723.369
395.826	836.261
398.719	880.62
401.611	874.799
404.504	830.528
407.397	834.882
410.289	814.139
413.182	697.6
416.075	648.715
418.967	572.567
421.86	546.827
424.753	595.861
427.646	608.461
430.538	642.375
433.431	651.079
436.324	690.047
439.216	573.902
442.109	542.509
445.002	535.16
447.894	502.776
450.787	466.589
453.68	400.053
456.573	238.868
459.465	148.816
462.358	23.7798
465.251	28.4614
468.143	53.4736
471.036	32.8801
473.929	4.57959
476.822	76.9265
479.714	167.063
482.607	290.91
485.5	453.8
488.392	759.471
491.285	1057.96
494.178	1393.03
497.07	1673.3
499.963	1937.09
502.856	2043.02
505.748	1831.47
508.641	1558.42
511.534	1156.97
514.427	790.648
517.319	521.869
520.212	323.571
523.105	174.182
525.997	70.96
528.89	19.8624
531.783	8.8739
534.676	31.5886
537.568	13.1536
540.461	57.0617
543.354	90.6282
546.246	98.8451
549.139	62.5431
552.032	74.7449
554.924	4.78821
557.817	25.5603
560.71	14.5702
563.602	5.26587
566.495	22.2272
569.388	36.4053
572.281	75.9066
575.173	62.6553
578.066	30.6532
580.959	57.667
583.851	43.912
586.744	36.7401
589.637	35.0585
592.529	14.8062
595.422	8.30591
598.315	38.0911
601.208	8.54846
604.1	42.3284
606.993	16.8198
609.886	33.2441
612.778	48.2461
615.671	42.8336
618.564	53.1296
621.457	41.9473
624.349	49.8744
627.242	50.0665
630.135	80.2407
633.027	74.2345
635.92	61.2568
638.813	92.7981
641.705	56.7563
644.598	69.9901
647.491	79.437
650.384	69.4199
653.276	90.4598
656.169	71.5538
659.062	79.9947
661.954	92.7712
664.847	101.477
667.74	97.2538
670.632	100.421
673.525	120.098
676.418	150.252
679.311	124.79
682.203	167.962
685.096	134.713
687.989	147.459
690.881	158.914
693.774	165.72
696.667	163.109
699.559	159.669
702.452	126.543
705.345	114.085
708.237	106.29
711.13	97.6844
714.023	55.6012
716.916	57.0162
719.808	15.0028
722.701	1.49939
725.594	0.194214
728.486	8.22986
731.379	32.585
734.272	53.4783
737.164	33.0919
740.057	8.19849
742.95	14.3533
745.843	41.9676
748.735	41.1696
751.628	94.7404
754.521	178.484
757.413	288.196
760.306	470.754
763.199	643.565
766.091	859.32
768.984	986.685
771.877	1031.37
774.77	911.158
777.662	748.025
780.555	589.784
783.448	558.745
786.34	490.914
789.233	562.484
792.126	743.887
795.019	1038.47
797.911	1396.82
800.804	1774.53
803.697	1991.21
806.589	1922.99
809.482	1464.78
812.375	984.431
815.267	712.325
818.16	582.341
821.053	670.505
823.946	920.126
826.838	1380.23
829.731	2102.26
832.624	2967.15
835.516	3913.46
838.409	4414.47
841.302	4207.85
844.194	3408.19
847.087	2337.82
849.98	1498.25
852.872	990.258
855.765	600.195
858.658	406.624
861.551	223.37
864.443	127.649
867.336	98.5132
870.229	60.911
873.121	33.0868
876.014	64.4628
878.907	93.4072
881.799	112.376
884.692	161.653
887.585	236.32
890.478	246.602
893.37	339.997
896.263	388.828
899.156	401.875
902.048	375.474
904.941	283.883
907.834	222.71
910.726	85.2045
913.619	47.2472
916.512	7.04645
919.405	7.43835
922.297	34.1221
925.19	57.7407
928.083	16.07
930.975	1.04138
933.868	33.4731
936.761	6.00116
939.654	9.79407
942.546	26.3442
945.439	22.1553
948.332	13.3398
951.224	48.0934
954.117	43.6572
957.01	66.3421
959.902	84.1904
962.795	104.082
965.688	110.89
968.581	97.9965
971.473	79.4135
974.366	112.332
977.259	131.503
980.151	110.608
983.044	108.434
985.937	95.9993
988.829	105.68
991.722	88.6067
994.615	70.5434
997.508	72.4415
1000.4	72.4473
1003.29	79.0219
1006.19	58.8983
1009.08	61.6876
1011.97	71.5961
1014.86	65.3607
1017.76	105.219
1020.65	73.1706
1023.54	134.305
1026.43	133.354
1029.33	160.792
1032.22	192.108
1035.11	231.758
1038.01	231.562
1040.9	215.283
1043.79	182.245
1046.68	145.33
1049.58	141.235
1052.47	80.0279
1055.36	93.9631
1058.25	62.9997
1061.15	60.1709
1064.04	41.1155
1066.93	54.0781
1069.83	3.03912
1072.72	7.31885
1075.61	41.9394
1078.5	0.573914
1081.4	32.5789
1084.29	33.5973
1087.18	38.5193
1090.07	38.6423
1092.97	8.71936
1095.86	6.52252
1098.75	33.1668
1101.64	1.10864
1104.54	32.7414
1107.43	5.66998
1110.32	0.981934
1113.21	10.1834
1116.11	26.2608
1119	22.414
1121.89	13.1038
1124.79	36.1401
1127.68	0.86261
1130.57	3.94708
1133.46	0.168823
1136.36	6.19354
1139.25	30.1822
1142.14	2.94324
1145.04	24.9263
1147.93	12.2994
1150.82	12.3913
1153.71	2.38403
1156.61	24.8992
1159.5	23.3967
1162.39	27.4537
1165.28	46.3544
1168.18	11.0199
1171.07	19.0611
1173.96	37.4652
1176.86	17.051
1179.75	23.9955
1182.64	22.3242
1185.53	35.83
1188.43	19.5487
1191.32	20.7314
1194.21	52.9258
1197.1	28.0087
1200	21.5693
1202.89	40.6866
1205.78	59.2504
1208.67	30.2511
1211.57	0.131348
1214.46	22.317
1217.35	58.0128
1220.24	19.8261
1223.14	12.3208
1226.03	19.1224
1228.92	47.1067
