Measurement: Raman, 532 nm, unoriented, Raman Data Processed
Mineral: Cobaltomenite
Rruff sample: R070352
Ideal chemistry: CoSe^4+^O_3_2H_2_O
Locality: Temple Mountain, San Rafael District (San Rafael Swell), Emery County, Utah, USA
Source: Michael Scott
Description: Purple druse of tabular crystals
Raman shift (cm-1)	intensity
170.393	0
173.286	0.131235
176.178	74.1269
179.071	38.6401
181.964	27.1006
184.856	98.9584
187.749	32.3665
190.642	58.9051
193.535	136.18
196.427	163.223
199.32	20.8063
202.213	145.949
205.105	163.078
207.998	162.607
210.891	114.288
213.783	266.336
216.676	238.696
219.569	209.608
222.462	240.288
225.354	213.746
228.247	296.482
231.14	316.349
234.032	274.981
236.925	386.593
239.818	319.985
242.71	271.104
245.603	259.601
248.496	267.211
251.388	269.892
254.281	178.975
257.174	155.841
260.067	157.903
262.959	209.124
265.852	120.364
268.745	199.356
271.637	123.802
274.53	87.372
277.423	111.579
280.315	40.4128
283.208	22.281
286.101	13.4558
288.994	18.5119
291.886	71.8277
294.779	47.9397
297.672	34.5516
300.564	13.3426
303.457	78.358
306.35	0.128751
309.243	56.4479
312.135	3.46016
315.028	6.1203
317.921	1.96702
320.813	61.4013
323.706	3.24184
326.599	4.03504
329.491	0.609728
332.384	0.750266
335.277	0.077757
338.17	22.5675
341.062	1.04087
343.955	0.368863
346.848	12.9008
349.74	3.25228
352.633	15.647
355.526	58.5512
358.418	22.6562
361.311	184.765
364.204	249.168
367.097	208.347
369.989	148.935
372.882	195.03
375.775	31.5628
378.667	70.8615
381.56	38.6603
384.453	83.4464
387.346	8.27155
390.238	135.742
393.131	196.444
396.024	171.239
398.916	187.963
401.809	210.87
404.702	196.659
407.594	166.873
410.487	167.643
413.38	159.709
416.272	303.308
419.165	368.085
422.058	423.436
424.951	506.711
427.843	484.975
430.736	433.217
433.629	451.884
436.521	458.218
439.414	268
442.307	289.235
445.2	109.333
448.092	161.963
450.985	8.40401
453.878	101.341
456.77	1.6485
459.663	41.5952
462.556	8.90702
465.448	49.1809
468.341	6.81885
471.234	70.8604
474.127	9.61497
477.019	27.4271
479.912	87.2425
482.805	94.6921
485.697	127.562
488.59	123.877
491.483	142.601
494.375	296.856
497.268	327.427
500.161	151.698
503.053	237.144
505.946	35.0225
508.839	71.1979
511.732	183.672
514.624	188.929
517.517	0.463754
520.41	93.7424
523.302	36.7498
526.195	28.3149
529.088	32.4645
531.981	7.13562
534.873	46.8697
537.766	132.132
540.659	8.0596
543.551	36.3192
546.444	91.1428
549.337	145.976
552.229	40.6141
555.122	143.909
558.015	1.50952
560.908	98.3521
563.8	112.04
566.693	14.5053
569.586	71.0973
572.478	54.7887
575.371	99.9052
578.264	5.77191
581.156	59.2986
584.049	5.07942
586.942	94.1274
589.835	39.2337
592.727	28.1065
595.62	187.008
598.513	34.2002
601.405	187.589
604.298	85.3129
607.191	162.025
610.083	94.7765
612.976	58.3676
615.869	14.6473
618.762	81.5675
621.654	82.1923
624.547	103.281
627.44	131.359
630.332	138.413
633.225	172.263
636.118	141.614
639.01	18.7048
641.903	93.5159
644.796	6.7657
647.689	263.404
650.581	14.6724
653.474	5.59117
656.367	63.7906
659.259	17.7487
662.152	2.58124
665.045	53.3861
667.938	2.78459
670.83	12.4671
673.723	41.0394
676.616	4.11656
679.508	3.67445
682.401	51.7431
685.294	89.8923
688.186	217.879
691.079	303.166
693.972	409.079
696.865	421.835
699.757	485.861
702.65	714.39
705.543	765.515
708.435	657.201
711.328	621.782
714.221	616.188
717.113	461.677
720.006	472.707
722.899	334.052
725.792	275.898
728.684	322.798
731.577	1.89866
734.47	100.078
737.362	93.3636
740.255	137.768
743.148	58.9046
746.04	6.40146
748.933	2.32098
751.826	4.4087
754.719	3.02803
757.611	0.897282
760.504	3.10553
763.397	20.9681
766.289	12.2638
769.182	1.11289
772.075	55.8946
774.967	128.953
777.86	298.515
780.753	519.608
783.646	892.663
786.538	1341.62
789.431	2006.99
792.324	2888.99
795.216	4358.73
798.109	6387.64
801.002	8544.14
803.894	10685
806.787	11758.1
809.68	11196.6
812.573	8902.52
815.465	6283.2
818.358	4334.26
821.251	2986.51
824.143	2097.75
827.036	1506.07
829.929	1031.5
832.822	724.474
835.714	511.28
838.607	604.392
841.5	425.589
844.392	273.935
847.285	209.646
850.178	79.6096
853.07	168.259
855.963	6.14729
858.856	12.9141
861.749	3.61374
864.641	113.422
867.534	82.5391
870.427	24.1605
873.319	1.47329
876.212	2.35747
879.105	132.59
881.997	5.69916
884.89	79.2485
887.783	4.84889
890.676	20.238
893.568	4.13967
896.461	42.9789
899.354	0.77304
902.246	207.929
905.139	227.292
908.032	146.535
910.924	2.37775
913.817	147.161
916.71	86.8565
919.602	45.2758
922.495	137.55
925.388	114.429
928.281	99.9931
931.173	47.1525
934.066	88.1937
936.959	2.6705
939.851	126.445
942.744	95.4233
945.637	158.88
948.529	226.461
951.422	199.35
954.315	28.3173
957.208	81.2583
960.1	152.187
962.993	211.204
965.886	98.3134
968.778	38.5905
971.671	3.12686
974.564	113.869
977.457	5.93885
980.349	9.16469
983.242	100.646
986.135	151.493
989.027	181.351
991.92	136.716
994.813	181.269
997.705	0.766123
1000.6	262.884
1003.49	159.921
1006.38	239.107
1009.28	9.99823
1012.17	237.419
1015.06	100.122
1017.95	27.8051
1020.85	82.1875
1023.74	70.2444
1026.63	176.008
1029.53	1.46612
1032.42	265.205
1035.31	11.2927
1038.2	32.7187
1041.1	5.53594
1043.99	161.6
1046.88	44.3681
1049.77	210.531
1052.67	5.8198
1055.56	4.19915
1058.45	21.8817
1061.35	67.1986
1064.24	35.0754
1067.13	175.609
1070.02	3.38632
1072.92	154.784
1075.81	196.431
1078.7	141.976
1081.59	25.9928
1084.49	2.14583
1087.38	375.395
1090.27	140.035
1093.16	4.1643
1096.06	5.82115
1098.95	25.5865
1101.84	158.008
1104.73	216.504
1107.63	323.503
1110.52	145.145
1113.41	247.195
1116.31	61.0912
1119.2	138.166
1122.09	7.44013
1124.98	117.732
1127.88	130.533
1130.77	215.965
1133.66	80.9283
1136.56	210.066
1139.45	178.037
1142.34	236.703
1145.23	181.953
1148.13	139.851
1151.02	202.058
1153.91	70.7842
1156.8	138.571
1159.7	5.9816
1162.59	70.1035
1165.48	252.922
1168.38	398.118
1171.27	121.581
1174.16	201.095
1177.05	105.074
1179.95	29.8634
1182.84	120.179
1185.73	7.64356
1188.62	76.909
1191.52	162.643
1194.41	66.0511
1197.3	63.5507
1200.19	224.751
1203.09	47.4657
1205.98	5.39212
1208.87	124.803
1211.77	113.114
1214.66	4.28264
1217.55	49.2169
1220.44	147.707
1223.34	113.277
1226.23	50.3384
1229.12	44.8716
1232.01	1.76622
1234.91	44.9729
1237.8	98.9396
1240.69	147.135
1243.59	7.83791
1246.48	47.4736
1249.37	203.728
1252.26	254.369
1255.16	118.815
1258.05	135.032
1260.94	124.529
1263.83	154.353
1266.73	156.312
1269.62	2.05898
1272.51	120.447
1275.4	193.063
1278.3	67.9798
1281.19	280.405
1284.08	148.409
1286.98	219.151
1289.87	64.3252
1292.76	6.73158
1295.65	1.71775
1298.55	63.7811
1301.44	302.013
1304.33	161.075
