Measurement: Raman, 532 nm, unoriented, Raman Data Processed
Mineral: Cobaltaustinite
Rruff sample: R050536
Ideal chemistry: CaCo^2+^As^5+^O_4_(OH)
Locality: Dome Rock, Mingary, South Australia, Australia
Source: University of Arizona Mineral Museum
Description: Dark-green drusy coating
Measured chemistry: Ca_1.00_(Co_0.95_Cu_0.05_)_Î£=1_As_1.00_O_4_(OH) ; (OH) estimated by difference and stoichiometry
Raman shift (cm-1)	intensity
153.1	0
155.993	1.35821
158.886	0.314087
161.778	3.81732
164.671	8.88727
167.564	15.8735
170.456	19.1453
173.349	19.9902
176.242	18.4651
179.135	23.6415
182.027	23.6799
184.92	23.5743
187.813	27.8453
190.705	33.385
193.598	38.2457
196.491	42.6616
199.383	45.8672
202.276	47.1257
205.169	56.9624
208.061	68.5859
210.954	83.3531
213.847	93.1762
216.74	86.2909
219.632	74.2818
222.525	58.2969
225.418	54.8796
228.31	40.8403
231.203	25.0367
234.096	16.1111
236.988	5.65802
239.881	3.90686
242.774	3.88873
245.667	0.174255
248.559	0.499756
251.452	3.47443
254.345	1.1507
257.237	0.552124
260.13	0.493713
263.023	2.30914
265.916	0.94635
268.808	0.64032
271.701	1.57709
274.594	2.7124
277.486	5.63483
280.379	4.38788
283.272	6.49579
286.164	1.85675
289.057	3.14838
291.95	3.23871
294.842	2.88031
297.735	3.22955
300.628	11.2665
303.521	19.4879
306.413	24.5081
309.306	34.0855
312.199	43.3608
315.091	65.2492
317.984	85.4885
320.877	113.61
323.769	146.436
326.662	185.064
329.555	211.752
332.448	213.272
335.34	205.841
338.233	203.796
341.126	197.594
344.018	182.139
346.911	168.627
349.804	160.482
352.697	156.163
355.589	150.447
358.482	146.243
361.375	139.356
364.267	114.592
367.16	86.1844
370.053	51.9246
372.945	28.2783
375.838	20.3577
378.731	18.0691
381.623	19.8551
384.516	19.9033
387.409	22.7561
390.302	21.7648
393.194	14.874
396.087	7.13855
398.98	0.810547
401.872	0.031738
404.765	1.73914
407.658	6.97449
410.55	15.1313
413.443	32.0582
416.336	53.6895
419.229	68.3467
422.121	72.3545
425.014	79.1046
427.907	86.26
430.799	86.2566
433.692	63.1077
436.585	33.9044
439.478	10.6113
442.37	1.73853
445.263	5.19568
448.156	2.62744
451.048	6.51294
453.941	15.5171
456.834	21.0916
459.726	40.2329
462.619	54.6117
465.512	66.8823
468.404	68.4275
471.297	60.7552
474.19	49.9161
477.083	37.7638
479.975	34.4294
482.868	27.0974
485.761	26.4091
488.653	22.3621
491.546	23.7111
494.439	19.516
497.332	17.2167
500.224	15.2399
503.117	10.7538
506.01	2.80518
508.902	4.82605
511.795	0.555908
514.688	3.38013
517.58	0.075928
520.473	0.543579
523.366	0.635498
526.259	1.12598
529.151	0.068604
532.044	2.8186
534.937	2.85583
537.829	5.15881
540.722	5.203
543.615	6.40112
546.507	10.0493
549.4	6.50806
552.293	8.06213
555.186	10.3846
558.078	7.46301
560.971	6.927
563.864	7.86621
566.756	5.69067
569.649	4.7196
572.542	6.39233
575.434	6.55957
578.327	5.69824
581.22	8.93225
584.112	9.65955
587.005	5.6897
589.898	7.49194
592.791	11.4271
595.683	11.812
598.576	12.1786
601.469	14.0826
604.361	12.3102
607.254	10.3778
610.147	13.3617
613.04	10.535
615.932	12.4667
618.825	10.0981
621.718	11.1185
624.61	10.8178
627.503	10.9401
630.396	10.0845
633.288	11.7628
636.181	12.6204
639.074	13.1116
641.967	10.787
644.859	8.17322
647.752	9.35657
650.645	8.74255
653.537	7.56335
656.43	12.4511
659.323	11.5608
662.216	13.1274
665.108	12.1672
668.001	8.93787
670.894	13.7485
673.786	6.29126
676.679	10.3949
679.572	9.99243
682.464	7.63367
685.357	6.39221
688.25	3.29822
691.143	3.30408
694.035	0.989746
696.928	2.07898
699.821	5.09729
702.713	2.63049
705.606	1.71777
708.499	1.20776
711.391	0.346924
714.284	0.481201
717.177	0.904541
720.069	1.17798
722.962	1.1499
725.855	5.17664
728.748	0.697754
731.64	3.17065
734.533	1.88049
737.426	2.61768
740.318	4.80212
743.211	13.1631
746.104	18.863
748.996	26.9678
751.889	38.4291
754.782	54.5873
757.675	72.0754
760.567	96.9877
763.46	122.976
766.353	150.601
769.245	173.709
772.138	197.062
775.031	227.06
777.923	259.717
780.816	310.765
783.709	377.782
786.602	456.956
789.494	561.24
792.387	688.652
795.28	810.133
798.172	914.61
801.065	1013.28
803.958	1178.07
806.851	1374.53
809.743	1452.72
812.636	1348.19
815.529	1270.82
818.421	1331.2
821.314	1623.84
824.207	2074.89
827.099	2165.8
829.992	1376.35
832.885	707.489
835.778	402.622
838.67	254.658
841.563	166.789
844.456	118.381
847.348	80.267
850.241	60.2797
853.134	44.5504
856.026	37.4699
858.919	28.3235
861.812	18.0727
864.705	16.0205
867.597	10.9796
870.49	6.24585
873.383	1.68848
876.275	3.88769
879.168	3.87073
882.061	8.24634
884.953	2.55164
887.846	0.115845
890.739	2.63171
893.631	1.03101
896.524	1.22131
899.417	1.46362
902.31	1.0116
905.202	4.25537
908.095	2.22363
910.988	3.68445
913.88	2.17712
916.773	6.98718
919.666	7.25256
922.558	4.1687
925.451	9.75366
928.344	7.51599
931.237	9.45203
934.129	5.32617
937.022	5.94873
939.915	0.129517
942.807	1.36194
945.7	3.34644
948.593	4.44995
951.486	4.24316
954.378	6.16956
957.271	8.00501
960.164	6.88525
963.056	7.90698
965.949	9.14307
968.842	10.4448
971.734	11.4641
974.627	14.395
977.52	11.0975
980.413	15.303
983.305	11.1392
986.198	7.75073
989.091	11.1161
991.983	11.4015
994.876	6.15491
997.769	4.24011
1000.66	0.842651
1003.55	0.250366
1006.45	1.68787
1009.34	1.25037
1012.23	1.65796
1015.12	3.53857
1018.02	11.0176
1020.91	10.3706
1023.8	2.05457
1026.7	1.23535
1029.59	1.47839
1032.48	1.45911
1035.37	4.1792
1038.27	7.19812
1041.16	8.34143
1044.05	2.8429
1046.94	4.50366
1049.84	6.13965
1052.73	10.252
1055.62	9.12134
1058.52	12.1005
1061.41	8.91956
1064.3	4.03296
1067.19	3.46399
1070.09	3.19067
1072.98	3.53699
1075.87	4.41162
1078.76	4.14185
1081.66	2.88379
1084.55	1.30115
1087.44	0.944824
1090.34	1.82752
1093.23	2.74243
1096.12	3.09961
1099.01	1.32752
1101.91	6.67346
1104.8	0.809814
1107.69	0.119141
1110.58	1.71289
1113.48	2.57324
1116.37	2.401
1119.26	0.099609
1122.15	0.019043
1125.05	1.90576
1127.94	1.57044
1130.83	3.58264
1133.73	3.0708
1136.62	5.76135
1139.51	4.60852
1142.4	8.0166
1145.3	3.81213
1148.19	8.28821
1151.08	2.57947
1153.97	0.142944
1156.87	1.48206
1159.76	2.79114
1162.65	5.80664
1165.55	6.65454
1168.44	4.3844
1171.33	4.46924
1174.22	6.65271
1177.12	3.96155
1180.01	5.27844
1182.9	3.33521
1185.79	2.70166
1188.69	8.07605
1191.58	4.68274
1194.47	7.73071
1197.37	3.64221
1200.26	7.30225
1203.15	4.67102
1206.04	3.78455
1208.94	3.43042
1211.83	7.29871
1214.72	3.68201
1217.61	8.70947
1220.51	6.28857
1223.4	4.87317
1226.29	8.18054
1229.18	5.10608
1232.08	5.30396
1234.97	9.99988
1237.86	1.47876
1240.76	1.56763
1243.65	0.929077
1246.54	5.50818
1249.43	5.86108
1252.33	3.14221
1255.22	7.17871
1258.11	4.11939
1261	3.11035
1263.9	8.74255
1266.79	2.82703
1269.68	2.11963
1272.58	4.48853
1275.47	2.76917
1278.36	4.87805
1281.25	1.54285
1284.15	4.38074
1287.04	11.2505
1289.93	5.25525
1292.82	4.88452
1295.72	2.51514
1298.61	3.96106
1301.5	0.170044
1304.39	0
