Measurement: Raman, 532 nm, unoriented, Raman Data Processed
Mineral: Cobaltomenite
Rruff sample: R110040
Ideal chemistry: CoSe^4+^O_3_2H_2_O
Locality: Musonoi mine extension, Kolwezi, Katanga, Congo
Source: William W Pinch
Description: Pale pink to purple grains scattered through a matrix of chalcomenite, demesmaekerite, and derriksite
Raman shift (cm-1)	intensity
181.612	0
184.505	11.6274
187.398	11.1803
190.29	22.0765
193.183	5.22125
196.076	4.24133
198.968	2.91815
201.861	3.91132
204.754	14.0795
207.647	27.1841
210.539	37.7687
213.432	43.071
216.325	35.5753
219.217	51.2812
222.11	54.0355
225.003	60.1721
227.895	79.1999
230.788	91.8898
233.681	106.298
236.573	128.976
239.466	131.576
242.359	123.675
245.252	105.654
248.144	77.246
251.037	55.0793
253.93	49.37
256.822	40.2337
259.715	29.0971
262.608	32.0699
265.5	35.0633
268.393	35.5364
271.286	37.3873
274.179	27.8008
277.071	40.234
279.964	27.527
282.857	21.5372
285.75	14.5743
288.642	20.2067
291.535	22.1805
294.428	23.6207
297.32	30.0777
300.213	31.6281
303.106	31.6576
305.998	24.5485
308.891	34.7236
311.784	25.1052
314.676	18.3532
317.569	16.1504
320.462	1.94745
323.355	2.17285
326.247	10.9063
329.14	0.476074
332.033	3.92438
334.925	9.07739
337.818	2.78259
340.711	6.49347
343.603	10.8189
346.496	19.5693
349.389	41.4066
352.281	57.6932
355.174	91.0681
358.067	125.107
360.96	157.5
363.852	185.785
366.745	170.626
369.638	128.183
372.53	78.9232
375.423	40.2921
378.316	32.6016
381.209	20.5904
384.101	24.0311
386.994	16.4177
389.887	19.5604
392.779	16.4956
395.672	21.5466
398.565	28.8271
401.457	27.3818
404.35	37.4118
407.243	28.5199
410.135	25.2404
413.028	26.6996
415.921	37.0001
418.814	48.3643
421.706	53.7284
424.599	57.205
427.492	74.1837
430.384	78.8037
433.277	63.3703
436.17	47.6226
439.062	40.8651
441.955	28.8969
444.848	9.36859
447.741	10.4681
450.633	6.79022
453.526	4.15784
456.419	0.79248
459.311	2.50745
462.204	0.558899
465.097	0.303894
467.99	3.89581
470.882	20.0024
473.775	30.9464
476.668	43.7476
479.56	70.8954
482.453	87.5012
485.346	102.884
488.238	122.406
491.131	111.499
494.024	104.094
496.916	90.4863
499.809	75.4075
502.702	48.2889
505.595	40.633
508.487	30.1774
511.38	18.0001
514.273	6.76068
517.165	10.0089
520.058	6.3407
522.951	0.160583
525.844	6.35736
528.736	1.09991
531.629	5.71002
534.522	1.76392
537.414	1.78021
540.307	2.88104
543.2	5.08612
546.092	2.74957
548.985	9.54254
551.878	8.34888
554.771	3.6084
557.663	12.3912
560.556	0.960815
563.449	4.36957
566.341	13.8668
569.234	4.54077
572.127	5.96594
575.019	18.6595
577.912	20.5611
580.805	22.9582
583.697	22.5065
586.59	15.1417
589.483	24.8253
592.376	23.3704
595.268	24.0972
598.161	20.7028
601.054	27.5149
603.946	29.4143
606.839	25.9492
609.732	25.443
612.625	25.4332
615.517	31.2386
618.41	17.501
621.303	21.9543
624.195	17.2141
627.088	9.13629
629.981	8.38336
632.873	6.07117
635.766	0.400391
638.659	7.71649
641.552	1.12769
644.444	7.82892
647.337	1.90295
650.23	0.525635
653.122	0.781799
656.015	1.92773
658.908	2.79584
661.8	3.31055
664.693	4.00665
667.586	1.52765
670.479	1.10181
673.371	4.98212
676.264	9.04144
679.157	18.1295
682.049	42.5221
684.942	48.3019
687.835	72.5357
690.727	101.138
693.62	132.35
696.513	169.056
699.405	207.159
702.298	232.034
705.191	261.242
708.084	286.01
710.976	295.156
713.869	290.224
716.762	280.271
719.654	256.889
722.547	230.153
725.44	199.758
728.332	164.943
731.225	154.636
734.118	133.248
737.011	124.907
739.903	109.648
742.796	101.225
745.689	92.1399
748.581	71.2703
751.474	44.3389
754.367	32.3856
757.26	27.1859
760.152	9.97778
763.045	2.60828
765.938	1.23694
768.83	2.29407
771.723	7.38794
774.616	22.0847
777.508	28.812
780.401	58.2803
783.294	93.7963
786.187	145.427
789.079	201.622
791.972	295.508
794.865	442.541
797.757	634.827
800.65	928.702
803.543	1266.95
806.435	1608.79
809.328	1692.57
812.221	1394.64
815.114	939.16
818.006	602.167
820.899	380.999
823.792	245.74
826.684	165.962
829.577	110.989
832.47	89.2537
835.362	54.9242
838.255	44.0243
841.148	32.3019
844.04	17.8801
846.933	18.1653
849.826	14.8456
852.719	0.342529
855.611	1.32471
858.504	0.988281
861.397	1.0979
864.289	2.03442
867.182	1.06592
870.075	0.88208
872.967	0.08606
875.86	0.540771
878.753	1.39856
881.646	1.76257
884.538	1.23999
887.431	6.16785
890.324	10.6948
893.216	9.43005
896.109	6.45923
899.002	11.4407
901.894	10.7834
904.787	14.3161
907.68	11.3325
910.573	14.2262
913.465	15.744
916.358	13.682
919.251	20.0268
922.143	18.8699
925.036	10.241
927.929	18.301
930.822	12.9724
933.714	15.7183
936.607	8.24109
939.5	17.2203
942.392	16.1306
945.285	19.2913
948.178	16.2156
951.07	14.2665
953.963	15.0442
956.856	9.06396
959.749	22.165
962.641	15.338
965.534	15.6537
968.427	14.4204
971.319	7.91186
974.212	15.4702
977.105	8.20361
979.997	15.8798
982.89	14.1044
985.783	11.9748
988.676	13.6261
991.568	10.0801
994.461	16.048
997.354	15.9095
1000.25	8.4812
1003.14	14.8099
1006.03	13.431
1008.92	11.5183
1011.82	13.9959
1014.71	3.73291
1017.6	11.1838
1020.5	7.68323
1023.39	10.3472
1026.28	8.75024
1029.17	7.71094
1032.07	5.78503
1034.96	18.7625
1037.85	6.04907
1040.74	11.9329
1043.64	9.79748
1046.53	0.004028
1049.42	7.40955
1052.32	1.03638
1055.21	4.12048
1058.1	6.92444
1060.99	16.9005
1063.89	3.77478
1066.78	3.31506
1069.67	5.10596
1072.56	5.04126
1075.46	10.7006
1078.35	6.7738
1081.24	6.86609
1084.13	0.167725
1087.03	4.65295
1089.92	7.09595
1092.81	2.29346
1095.7	0.166016
1098.6	9.6886
1101.49	8.15637
1104.38	6.06824
1107.28	4.92334
1110.17	11.3511
1113.06	5.56567
1115.95	9.02344
1118.85	7.98584
1121.74	6.51587
1124.63	1.21191
1127.53	4.19727
1130.42	5.29211
1133.31	2.83179
1136.2	2.98218
1139.1	9.23145
1141.99	2.56506
1144.88	3.37817
1147.77	8.19531
1150.67	6.62195
1153.56	7.6875
1156.45	5.25281
1159.35	9.23901
1162.24	11.4694
1165.13	15.4683
1168.02	3.19446
1170.92	9.64246
1173.81	6.30542
1176.7	11.1325
1179.59	12.1914
1182.49	5.8053
1185.38	15.9053
1188.27	13.3377
1191.16	17.8594
1194.06	13.8748
1196.95	22.2258
1199.84	15.3031
1202.73	22.0394
1205.63	29.8175
1208.52	18.8362
1211.41	18.0597
1214.31	12.757
1217.2	7.07153
1220.09	5.48498
1222.98	9.57776
1225.88	15.7598
1228.77	13.7045
1231.66	11.4282
1234.56	2.26807
1237.45	10.2847
1240.34	2.72009
1243.23	8.5929
1246.13	10.8947
1249.02	3.24487
1251.91	10.8749
1254.8	12.9073
1257.7	14.8835
1260.59	4.37512
1263.48	15.3452
1266.38	13.9539
1269.27	17.63
1272.16	11.6303
1275.05	14.6396
1277.95	19.3337
1280.84	16.3442
1283.73	4.45898
1286.62	12.8296
1289.52	9.65491
1292.41	11.3054
1295.3	1.52197
1298.19	4.19214
1301.09	0.170044
