Measurement: Raman, 532 nm, unoriented, Raman Data Processed
Mineral: Cobaltarthurite
Rruff sample: R070224
Ideal chemistry: Co^2+^Fe^+3^_2_(As^5+^O_4_)_2_(OH)_2_4H_2_O
Locality: Dolores prospect, Pastrana, Mazarr√≥n-Aguilas, Murcia, Spain
Source: Michael Scott
Description: Radiating pale dirty green fibrous crystals
Raman shift (cm-1)	intensity
148.698	0
151.59	35.8379
154.483	44.2805
157.376	15.917
160.268	8.21216
163.161	41.522
166.054	90.5742
168.946	288.824
171.839	532.41
174.732	742.599
177.625	724.464
180.517	664.195
183.41	604.316
186.303	453.326
189.195	369.722
192.088	415.811
194.981	411.596
197.874	506.592
200.766	572.147
203.659	781.553
206.552	1097.62
209.444	1557.64
212.337	2213.34
215.23	3136.03
218.122	4183.51
221.015	5127.12
223.908	5518.76
226.8	5521.36
229.693	5509.93
232.586	5272.31
235.479	4509.48
238.371	3293.99
241.264	2169.23
244.157	1607.92
247.049	1383.97
249.942	1445.4
252.835	1611.3
255.727	1686.23
258.62	1738.11
261.513	1843.6
264.406	2095.83
267.298	2248.57
270.191	2276.53
273.084	2003.64
275.976	1728.21
278.869	1426.24
281.762	1139.35
284.655	843.869
287.547	736.716
290.44	576.341
293.333	411.908
296.225	303.897
299.118	233.554
302.011	189.19
304.904	129.743
307.796	143.956
310.689	147.596
313.582	84.4265
316.474	27.9311
319.367	65.9394
322.26	150.661
325.152	135.296
328.045	36.398
330.938	96.6387
333.83	349.858
336.723	606.152
339.616	736.986
342.509	798.852
345.401	658.5
348.294	420.998
351.187	253.113
354.079	211.07
356.972	187.214
359.865	197.346
362.757	176.382
365.65	214.389
368.543	280.142
371.436	271.854
374.328	382.006
377.221	486.101
380.114	519.084
383.006	593.35
385.899	786.874
388.792	989.218
391.685	1119.15
394.577	1287.33
397.47	1308.67
400.363	1291.8
403.255	1300.8
406.148	1200.63
409.041	1020.74
411.933	814.055
414.826	649.182
417.719	480.845
420.611	409.654
423.504	308.103
426.397	401.562
429.29	370.194
432.182	393.661
435.075	441.331
437.968	479.93
440.86	491.1
443.753	500.713
446.646	478.735
449.538	463.427
452.431	334.746
455.324	206.879
458.217	22.2319
461.109	87.2505
464.002	110.16
466.895	15.2969
469.787	129.274
472.68	344.485
475.573	581.932
478.466	994.029
481.358	1481.03
484.251	2125.6
487.144	2951.51
490.036	3879.53
492.929	4704.12
495.822	5396.5
498.714	5697.08
501.607	5502.07
504.5	4847.83
507.393	3760.21
510.285	2883.76
513.178	1952.02
516.071	1316.32
518.963	797.8
521.856	520.659
524.749	308.693
527.641	243.368
530.534	207.827
533.427	229.111
536.32	317.052
539.212	338.539
542.105	419.168
544.998	348.665
547.89	276.843
550.783	204.35
553.676	111.322
556.568	32.1128
559.461	77.5908
562.354	38.3792
565.247	56.9492
568.139	74.125
571.032	74.4578
573.925	33.74
576.817	41.0259
579.71	47.3069
582.603	12.8386
585.495	15.2922
588.388	33.8662
591.281	7.83521
594.174	18.0349
597.066	82.5283
599.959	100.65
602.852	114.267
605.744	229.34
608.637	261.799
611.53	375.737
614.423	371.461
617.315	427.074
620.208	492.279
623.101	527.769
625.993	543.61
628.886	497.512
631.779	524.424
634.671	568.207
637.564	566.818
640.457	508.692
643.35	537.602
646.242	465.474
649.135	546.398
652.028	542.473
654.92	565.507
657.813	546.383
660.706	601.859
663.598	601.48
666.491	598.313
669.384	619.918
672.277	649.033
675.169	626.619
678.062	592.41
680.955	549.494
683.847	521.439
686.74	486.907
689.633	424.021
692.525	361.045
695.418	336.09
698.311	253.674
701.204	177.72
704.096	209.776
706.989	93.6506
709.882	39.9866
712.774	11.6509
715.667	22.916
718.56	5.16162
721.452	21.9587
724.345	96.2041
727.238	44.0034
730.131	60.0039
733.023	64.1721
735.916	65.571
738.809	46.2446
741.701	26.7791
744.594	89.6008
747.487	220.29
750.38	384.05
753.272	623.12
756.165	901.299
759.058	1300.38
761.95	1769.99
764.843	2088.9
767.736	2307.7
770.628	2335.9
773.521	2026.66
776.414	1561.46
779.307	1061.16
782.199	727.181
785.092	602.007
787.985	635.762
790.877	897.572
793.77	1465.35
796.663	2137
799.555	2740.06
802.448	3007.99
805.341	2504.42
808.234	1793.65
811.126	1084.5
814.019	665.029
816.912	615.117
819.804	812.531
822.697	1442.61
825.59	2466.36
828.482	3888.35
831.375	5656.06
834.268	7091.45
837.16	7945.43
840.053	7431.23
842.946	5906.06
845.839	4149.01
848.731	2714.78
851.624	1848.59
854.517	1151.6
857.409	911.322
860.302	745.12
863.195	540.936
866.087	522.42
868.98	499.296
871.873	536.976
874.766	653.056
877.658	908.899
880.551	1062.46
883.444	1319.66
886.337	1658.64
889.229	1979.68
892.122	2217.35
895.015	2407.13
897.907	2459.68
900.8	2248.04
903.693	1822.22
906.585	1295.12
909.478	865.403
912.371	544.816
915.264	253.593
918.156	120.464
921.049	53.2605
923.942	36.3594
926.834	90.8264
929.727	109.548
932.62	38.1509
935.512	32.0266
938.405	48.3723
941.298	54.7256
944.191	21.1809
947.083	39.1125
949.976	35.3811
952.869	117.388
955.761	100.404
958.654	183.894
961.547	180.876
964.439	235.232
967.332	228.001
970.225	293.663
973.117	314.004
976.01	321.091
978.903	349.26
981.796	376.788
984.688	304.26
987.581	308.515
990.474	339.071
993.366	284.575
996.259	295.707
999.152	275.222
1002.04	269.003
1004.94	266.89
1007.83	251.005
1010.72	283.83
1013.62	328.661
1016.51	375.278
1019.4	445.114
1022.29	463.75
1025.19	603.258
1028.08	681.889
1030.97	741.183
1033.86	725.678
1036.76	715.925
1039.65	622.297
1042.54	567.7
1045.43	497.753
1048.33	355.408
1051.22	281.556
1054.11	251.155
1057.01	209.455
1059.9	142.206
1062.79	129.098
1065.68	90.0413
1068.58	126.507
1071.47	59.5281
1074.36	111.2
1077.26	118.579
1080.15	111.55
1083.04	79.5456
1085.93	44.231
1088.83	29.2537
1091.72	80.0852
1094.61	21.1462
1097.5	65.2366
1100.4	23.761
1103.29	16.9685
1106.18	14.3435
1109.07	15.7007
1111.97	16.5342
1114.86	14.1672
1117.75	0.267578
1120.64	8.01392
1123.54	6.22144
1126.43	0.405762
1129.32	16.3757
1132.22	10.7947
1135.11	20.905
1138	4.22314
1140.89	2.29932
1143.79	30.1001
1146.68	1.65332
1149.57	17.3992
1152.46	11.2222
1155.36	19.1641
1158.25	24.4627
1161.14	21.6367
1164.04	16.9636
1166.93	9.98413
1169.82	23.8877
1172.71	3.04517
1175.61	43.279
1178.5	4.30127
1181.39	25.8601
1184.29	6.85107
1187.18	31.4995
1190.07	24.761
1192.96	27.4282
1195.86	21.0635
1198.75	36.8735
1201.64	10.5046
1204.53	40.8589
1207.43	61.2512
1210.32	39.2717
1213.21	6.14502
1216.1	41.5466
1219	72.2302
1221.89	40.8733
1224.78	61.23
1227.67	51.813
1230.57	75.0312
1233.46	23.5903
1236.35	49.3557
1239.25	80.0894
1242.14	69.904
1245.03	61.2935
1247.92	43.2568
1250.82	41.0803
1253.71	25.2341
1256.6	42.6836
1259.49	9.28418
1262.39	57.74
1265.28	51.1624
1268.17	40.6965
1271.07	56.4419
1273.96	15.4285
1276.85	64.7847
1279.74	20.3735
1282.64	34.3149
1285.53	75.8425
1288.42	45.7527
1291.32	44.061
1294.21	27.1194
1297.1	41.0161
1299.99	21.2227
1302.88	3.99048
