Measurement: Raman, 532 nm, unoriented, Raman Data Processed
Mineral: Coconinoite
Rruff sample: R060952
Ideal chemistry: Fe^3+^_2_Al_2_(UO_2_)_2_(PO_4_)_4_(SO_4_)(OH)_2_20H_2_O
Locality: Jomac mine, White Canyon Mining District, San Juan County, Utah, USA
Source: Bob Jenkins
Description: White powdery consolidated aggregate
Raman shift (cm-1)	intensity
139.843	0
143.218	91.6685
146.593	177.623
149.968	143.363
153.343	34.5542
156.718	8.0874
160.092	39.4993
163.467	248.575
166.842	458.365
170.217	750.405
173.592	1042.66
176.966	1311.99
180.341	1509.08
183.716	1521.69
187.091	1602.7
190.466	1816.89
193.84	2053.82
197.215	2138.7
200.59	1989.73
203.965	1583.45
207.34	1309.64
210.714	988.35
214.089	804.057
217.464	700.371
220.839	618.141
224.214	672.462
227.589	678.251
230.963	534.542
234.338	430.049
237.713	327.355
241.088	231.074
244.463	169.657
247.838	167.197
251.212	171.605
254.587	175.317
257.962	143.792
261.337	99.9695
264.712	102.369
268.086	50.7502
271.461	71.1352
274.836	8.91675
278.211	27.5696
281.586	20.0408
284.96	24.5471
288.335	10.3364
291.71	4.38696
295.085	23.5794
298.46	47.8669
301.834	149.45
305.209	268.982
308.584	376.617
311.959	463.586
315.334	528.782
318.709	563.68
322.083	519.255
325.458	424.182
328.833	393.45
332.208	300.196
335.583	199.341
338.957	163.313
342.332	168.812
345.707	184.121
349.082	259.745
352.457	302.207
355.832	431.624
359.206	460.646
362.581	565.129
365.956	599.153
369.331	673.788
372.706	737.56
376.08	765.818
379.455	734.065
382.83	594.343
386.205	449.68
389.58	335.221
392.954	247.584
396.329	225.678
399.704	214.005
403.079	216.385
406.454	206.245
409.829	163.059
413.203	27.0403
416.578	52.6489
419.953	21.2302
423.328	27.8254
426.703	10.2073
430.077	15.2373
433.452	125.964
436.827	209.94
440.202	286.648
443.577	365.19
446.952	374.24
450.326	397.297
453.701	305.203
457.076	269.81
460.451	206.356
463.826	224.788
467.2	228.989
470.575	290.529
473.95	337.337
477.325	407.553
480.7	529.718
484.074	644.591
487.449	755.761
490.824	762.029
494.199	676.083
497.574	529.73
500.949	322.104
504.323	151.078
507.698	94.198
511.073	60.3779
514.448	32.2698
517.823	23.4451
521.197	21.3332
524.572	20.7842
527.947	21.5395
531.322	41.5239
534.697	13.5488
538.072	136.511
541.446	178.052
544.821	262.882
548.196	292.687
551.571	320.473
554.946	271.77
558.32	202.149
561.695	217.268
565.07	219.057
568.445	173.414
571.82	174.931
575.194	184.647
578.569	148.546
581.944	100.689
585.319	101.371
588.694	110.959
592.068	136.016
595.443	118.671
598.818	178.737
602.193	185.686
605.568	294.265
608.942	324.742
612.317	408.471
615.692	421.749
619.067	425.485
622.442	461.184
625.817	484.033
629.191	511.631
632.566	455.662
635.941	459.709
639.316	386.88
642.691	267.941
646.066	202.003
649.44	197.948
652.815	140.838
656.19	103.821
659.565	86.1055
662.94	28.8547
666.314	59.2402
669.689	88.0593
673.064	48.6079
676.439	6.24634
679.814	18.5493
683.188	28.4744
686.563	36.9932
689.938	0.733643
693.313	16.1069
696.688	5.83325
700.062	2.7439
703.437	18.5186
706.812	4.87622
710.187	39.3975
713.562	25.2361
716.937	12.1257
720.311	35.2434
723.686	20.812
727.061	59.5869
730.436	42.6582
733.811	4.77539
737.185	6.47485
740.56	27.3633
743.935	26.7075
747.31	52.2842
750.685	33.6013
754.059	33.5474
757.434	99.6802
760.809	34.0789
764.184	28.1465
767.559	32.9417
770.934	57.6982
774.308	44.7971
777.683	71.1279
781.058	104.296
784.433	117.954
787.808	194.617
791.183	236.212
794.557	301.685
797.932	426.554
801.307	520.164
804.682	679.946
808.057	847.178
811.431	1154.51
814.806	1541.2
818.181	2158.54
821.556	2983.43
824.931	4008.83
828.305	5269.32
831.68	6868.08
835.055	8568.82
838.43	9354.6
841.805	9512.58
845.179	9219.63
848.554	7029.05
851.929	4093.87
855.304	2288.58
858.679	1381.95
862.053	923.424
865.428	685.179
868.803	491.645
872.178	263.662
875.553	228.867
878.928	156.752
882.302	128.647
885.677	81.8018
889.052	58.3621
892.427	37.8149
895.802	100.772
899.177	28.897
902.551	13.8506
905.926	2.55054
909.301	8.11816
912.676	35.7263
916.051	8.97046
919.425	4.5835
922.8	28.6379
926.175	20.179
929.55	11.2627
932.925	2.29639
936.299	14.0969
939.674	21.3618
943.049	47.6204
946.424	134.122
949.799	306.954
953.173	429.57
956.548	683.629
959.923	931.808
963.298	1178.72
966.673	1414.79
970.048	1817.36
973.422	2528.02
976.797	3462.77
980.172	4632.1
983.547	5793.78
986.922	5372.45
990.296	3821.5
993.671	3964.97
997.046	4199.98
1000.42	3162.12
1003.8	2252.94
1007.17	2154.5
1010.54	2594.96
1013.92	3221.71
1017.29	3742.1
1020.67	3766.41
1024.05	3167.41
1027.42	2190.16
1030.79	1498.06
1034.17	1043.35
1037.54	802.224
1040.92	643.599
1044.29	560.635
1047.67	358.962
1051.04	193.98
1054.42	50.9995
1057.79	11.6055
1061.17	38.1316
1064.54	40.9119
1067.92	28.6006
1071.29	68.5308
1074.67	151.835
1078.04	270.952
1081.42	385.214
1084.79	436.212
1088.17	431.129
1091.54	376.303
1094.92	405.783
1098.29	487.116
1101.66	472.845
1105.04	486.88
1108.41	352.608
1111.79	241.066
1115.16	212.263
1118.54	145.788
1121.91	99.6311
1125.29	86.9263
1128.66	82.2551
1132.04	70.1916
1135.41	104.575
1138.79	108.018
1142.16	91.0845
1145.54	66.5784
1148.91	95.6084
1152.29	100.361
1155.66	169.15
1159.04	154.244
1162.41	149.026
1165.79	110.383
1169.16	77.8154
1172.54	6.57788
1175.91	88.1152
1179.29	13.7354
1182.66	21.9429
1186.04	57.4753
1189.41	49.1182
1192.79	10.9343
1196.16	14.7031
1199.54	26.0613
1202.91	15.1206
1206.29	9.93506
1209.66	29.7798
1213.03	32.7356
1216.41	66.9099
1219.78	87.052
1223.16	89.8852
1226.53	42.863
1229.91	76.5134
1233.28	104.231
1236.66	100.758
1240.03	69.5671
1243.41	116.11
1246.78	111.151
1250.16	65.3379
1253.53	40.6001
1256.91	85.5915
1260.28	39.521
1263.66	54.0066
1267.03	31.6724
1270.41	71.9915
1273.78	82.6511
1277.16	29.1851
1280.53	52.978
1283.9	61.9011
1287.28	27.095
1290.65	50.7786
1294.03	9.34766
1297.4	0
