Measurement: Raman, 785 nm, unoriented, Raman Data Processed
Mineral: Coconinoite
Rruff sample: R060952
Ideal chemistry: Fe^3+^_2_Al_2_(UO_2_)_2_(PO_4_)_4_(SO_4_)(OH)_2_20H_2_O
Locality: Jomac mine, White Canyon Mining District, San Juan County, Utah, USA
Source: Bob Jenkins
Description: White powdery consolidated aggregate
Raman shift (cm-1)	intensity
170.222	0
173.114	26.1882
176.007	91.52
178.9	161.096
181.793	219.738
184.685	268.392
187.578	242.037
190.471	390.302
193.363	562.02
196.256	721.822
199.149	755.136
202.042	624.698
204.934	395.142
207.827	278.092
210.72	243.098
213.612	159.954
216.505	149.282
219.398	112.341
222.29	167.683
225.183	157.434
228.076	157.966
230.969	114.022
233.861	92.7634
236.754	73.9548
239.647	25.5072
242.539	8.09497
245.432	37.7078
248.325	23.2269
251.217	1.46887
254.11	7.03516
257.003	48.712
259.895	50.1422
262.788	66.647
265.681	28.3821
268.574	15.4134
271.466	20.8033
274.359	16.4586
277.252	25.5287
280.144	47.1764
283.037	33.8285
285.93	12.9874
288.822	8.61255
291.715	4.31043
294.608	38.0911
297.5	52.521
300.393	92.6317
303.286	107.56
306.179	168.597
309.071	155.766
311.964	187.061
314.857	210.214
317.749	214.036
320.642	212.945
323.535	194.402
326.428	199.811
329.32	148.121
332.213	114.411
335.106	81.2731
337.998	36.0056
340.891	47.4004
343.784	44.427
346.676	60.3273
349.569	88.9228
352.462	88.2472
355.354	117.14
358.247	186.671
361.14	151.936
364.033	170.391
366.925	202.486
369.818	229.2
372.711	236.151
375.603	253.745
378.496	296.207
381.389	245.763
384.281	209.109
387.174	134.424
390.067	86.525
392.96	65.0754
395.852	91.8694
398.745	76.8374
401.638	65.5209
404.53	71.3739
407.423	78.7515
410.316	30.4027
413.209	6.09851
416.101	2.49939
418.994	8.9541
421.887	9.82922
424.779	12.2752
427.672	5.97144
430.565	23.1279
433.457	56.7767
436.35	121.829
439.243	127.267
442.135	169.841
445.028	187.876
447.921	133.005
450.813	172.835
453.706	146.044
456.599	116.175
459.492	95.132
462.384	74.0606
465.277	63.9938
468.17	95.6301
471.062	92.7561
473.955	94.0965
476.848	124.522
479.74	142.306
482.633	147.876
485.526	226.694
488.419	285.686
491.311	256.915
494.204	272.133
497.097	237.398
499.989	145.057
502.882	76.2318
505.775	48.4824
508.668	18.7675
511.56	6.07648
514.453	4.37372
517.346	11.3101
520.238	12.8289
523.131	20.5392
526.024	0.627319
528.916	4.77228
531.809	17.508
534.702	14.4538
537.595	45.1207
540.487	74.778
543.38	68.8514
546.273	105.989
549.165	125.999
552.058	104.95
554.951	96.386
557.843	88.5214
560.736	80.6359
563.629	73.655
566.521	42.8383
569.414	44.263
572.307	53.3802
575.2	72.6667
578.092	52.884
580.985	49.856
583.878	70.1923
586.77	55.1592
589.663	35.4214
592.556	50.8666
595.448	53.8017
598.341	58.625
601.234	92.4859
604.126	78.7507
607.019	97.2819
609.912	115.413
612.805	121.446
615.697	146.661
618.59	174.814
621.483	152.314
624.375	170.295
627.268	150.001
630.161	179.318
633.053	187.811
635.946	140.007
638.839	127.1
641.732	130.644
644.624	85.5933
647.517	44.493
650.41	46.5295
653.302	34.4662
656.195	34.2606
659.088	35.7601
661.981	22.6691
664.873	2.29394
667.766	17.0197
670.659	21.3318
673.551	1.69299
676.444	15.4619
679.337	9.65094
682.229	10.2629
685.122	9.90558
688.015	9.88916
690.908	11.0362
693.8	6.74609
696.693	29.7237
699.586	3.19257
702.478	39.7828
705.371	1.46747
708.264	1.73425
711.156	13.9732
714.049	28.5266
716.942	4.73792
719.835	39.6111
722.727	32.7258
725.62	12.7745
728.513	9.10974
731.405	4.37036
734.298	23.0229
737.191	23.4795
740.083	23.6163
742.976	15.1298
745.869	19.7708
748.761	17.355
751.654	7.53571
754.547	33.2889
757.439	3.58636
760.332	21.0713
763.225	10.7815
766.118	14.5643
769.01	9.71777
771.903	24.3571
774.796	17.7454
777.688	27.1432
780.581	25.7292
783.474	37.2817
786.366	46.5872
789.259	50.585
792.152	80.8638
795.045	92.1185
797.937	67.033
800.83	98.1953
803.723	103.201
806.615	179.805
809.508	249.254
812.401	325.631
815.293	389.362
818.186	560.588
821.079	699.499
823.972	902.891
826.864	1195.29
829.757	1554.18
832.65	2015.82
835.542	2579.38
838.435	2765.47
841.328	2944.86
844.221	2986.33
847.113	2697.03
850.006	1913.42
852.899	1167.06
855.791	706.598
858.684	474.232
861.577	308.996
864.469	212.627
867.362	150.154
870.255	123.315
873.148	112.922
876.04	77.9376
878.933	51.3784
881.826	25.093
884.718	13.3746
887.611	20.804
890.504	26.5015
893.396	10.1789
896.289	17.3184
899.182	15.306
902.074	5.46277
904.967	15.9859
907.86	12.4442
910.753	4.88983
913.645	39.4852
916.538	2.73102
919.431	4.19318
922.323	12.1209
925.216	5.05042
928.109	16.8509
931.001	11.5912
933.894	23.2972
936.787	11.5037
939.679	5.10925
942.572	26.8383
945.465	40.4665
948.358	40.8672
951.25	69.6493
954.143	127.297
957.036	202.321
959.928	270.423
962.821	341.511
965.714	391.04
968.606	455.78
971.499	501.831
974.392	669.817
977.285	926.531
980.177	1321.85
983.07	1769.78
985.963	1845.78
988.855	1240.97
991.748	1027.58
994.641	1187.35
997.534	1239.44
1000.43	954.263
1003.32	667.249
1006.21	552.124
1009.1	635.768
1012	794.456
1014.89	1024.53
1017.78	1141.18
1020.67	1055.86
1023.57	847.861
1026.46	617.584
1029.35	431.191
1032.25	310.09
1035.14	238.458
1038.03	196.944
1040.92	177.541
1043.82	164.41
1046.71	151.984
1049.6	77.657
1052.49	63.676
1055.39	13.3232
1058.28	15.694
1061.17	25.9282
1064.07	16.7373
1066.96	4.15155
1069.85	9.52417
1072.74	14.0722
1075.64	69.9759
1078.53	88.4427
1081.42	129.278
1084.31	142.84
1087.21	121.306
1090.1	118.716
1092.99	117.662
1095.88	93.182
1098.78	147.159
1101.67	140.729
1104.56	136.3
1107.46	110.664
1110.35	82.461
1113.24	84.2876
1116.13	61.3926
1119.03	63.5255
1121.92	55.5484
1124.81	56.6025
1127.7	40.4597
1130.6	37.8174
1133.49	42.99
1136.38	41.0723
1139.28	6.22046
1142.17	21.7882
1145.06	47.3723
1147.95	6.80554
1150.85	18.3686
1153.74	32.2192
1156.63	49.4811
1159.53	61.9298
1162.42	39.7004
1165.31	40.8607
1168.2	53.6354
1171.1	16.9239
1173.99	25.0286
1176.88	7.59369
1179.77	26.9056
1182.67	19.0108
1185.56	32.3487
1188.45	29.8812
1191.34	44.969
1194.24	25.6049
1197.13	14.0625
1200.02	8.60831
1202.91	10.5199
1205.81	1.97357
1208.7	57.257
1211.59	45.479
1214.49	10.4116
1217.38	40.1902
1220.27	46.7674
1223.16	56.5041
1226.06	59.5168
1228.95	49.0486
1231.84	51.072
1234.73	18.687
1237.63	20.6751
1240.52	4.34012
1243.41	74.0066
1246.31	61.3585
1249.2	62.1301
1252.09	97.4374
1254.98	78.1305
1257.88	40.5896
1260.77	38.7041
1263.66	15.2307
1266.55	35.48
1269.45	13.5204
