Measurement: Raman, 532 nm, unoriented, Raman Data Processed
Mineral: Coesite
Rruff sample: R070565
Ideal chemistry: SiO_2_
Locality: Synthetic, P = 45 kbar, T = 650 C
Source: Charles Prewitt
Description: Colorless crystalline fragments
Measured chemistry: Si_1.00_O_2_
Raman shift (cm-1)	intensity
183.118	0
186.01	471.131
188.903	1596.84
191.796	2194.35
194.689	3095.03
197.581	3990.26
200.474	5501.76
203.367	9741.71
206.259	6882.05
209.152	1295.84
212.045	261.208
214.937	14.2529
217.83	10.2315
220.723	13.9531
223.615	21.376
226.508	33.2803
229.401	36.3076
232.294	71.6318
235.186	103.034
238.079	125.973
240.972	278.696
243.864	477.191
246.757	495.489
249.65	792.262
252.542	1942.34
255.435	3415.49
258.328	4237.09
261.221	5318.41
264.113	6673.73
267.006	9512.86
269.899	14022.1
272.791	6888.81
275.684	2060.67
278.577	909.381
281.469	525.977
284.362	218.675
287.255	181.14
290.148	21.2402
293.04	22.9766
295.933	52.3535
298.826	3.91309
301.718	54.7002
304.611	141.583
307.504	317.935
310.396	870.302
313.289	1134.17
316.182	1401.99
319.075	1726.05
321.967	2300.17
324.86	3522.46
327.753	2444.56
330.645	862.187
333.538	310.994
336.431	184.391
339.323	602.005
342.216	786.585
345.109	1067.93
348.002	1172.74
350.894	1586.78
353.787	2942.45
356.68	2513.82
359.572	489.007
362.465	96.4941
365.358	32.456
368.25	236.462
371.143	296.18
374.036	232.372
376.928	317.871
379.821	313.126
382.714	133.743
385.607	83.2344
388.499	24.3281
391.392	19.7578
394.285	48.5938
397.177	23.0986
400.07	75.9014
402.963	34.3457
405.856	238.668
408.748	745.187
411.641	883.028
414.534	1429.04
417.426	1359.77
420.319	1700.6
423.212	2664.16
426.104	4332.8
428.997	1883.39
431.89	518.409
434.782	283.709
437.675	145.698
440.568	136.029
443.461	57.1768
446.353	166.78
449.246	530.582
452.139	938.1
455.031	1107.15
457.924	1485.81
460.817	1830.41
463.709	2804.69
466.602	3670.98
469.495	1506.76
472.387	409.812
475.28	23.791
478.173	33.3613
481.066	5.03711
483.958	45.6553
486.851	79.3838
489.744	192.282
492.636	300.965
495.529	710.834
498.422	1355.51
501.315	2991.59
504.207	6914.7
507.1	12163.2
509.993	15072.6
512.885	16511.5
515.778	18030.4
518.671	23744.2
521.563	23295.6
524.456	17586.5
527.349	7678.2
530.241	4097.52
533.134	2502.79
536.027	1635.61
538.92	1290.9
541.812	897.34
544.705	711.374
547.598	698.1
550.49	512.607
553.383	373.999
556.276	357.06
559.168	287.695
562.061	214.815
564.954	149.537
567.847	121.231
570.739	86.2666
573.632	113.478
576.525	88.6894
579.417	58.0137
582.31	34.6074
585.203	36.0107
588.096	1.20801
590.988	37.0752
593.881	15.0547
596.774	68.4277
599.666	31.1562
602.559	76.9346
605.452	12.4678
608.344	55.3428
611.237	11.6016
614.13	109.882
617.022	109.686
619.915	100.117
622.808	90.0029
625.701	107.018
628.593	77.1894
631.486	37.206
634.379	160.575
637.271	206.209
640.164	174.728
643.057	101.649
645.949	140.555
648.842	162.679
651.735	180.286
654.628	165.565
657.52	135.861
660.413	166.01
663.306	155.439
666.198	4.71777
669.091	123.417
671.984	92.4248
674.876	84.3945
677.769	119.387
680.662	120.09
683.554	42.9648
686.447	15.4219
689.34	22.9971
692.233	99.3701
695.125	157.424
698.018	118.822
700.911	85.2978
703.803	108.054
706.696	69.834
709.589	85.7022
712.481	105.938
715.374	114.35
718.267	114.874
721.159	89.5928
724.052	93.6572
726.945	98.3457
729.838	94.2617
732.73	71.6943
735.623	62.9004
738.516	62.1299
741.408	62.0596
744.301	36.7324
747.194	41.7344
750.087	0.111328
752.979	42.8877
755.872	34.7627
758.765	71.7236
761.657	95.0811
764.55	40.3701
767.443	199.267
770.335	208.195
773.228	189.123
776.121	288.339
779.014	386.111
781.906	552.725
784.799	480.759
787.692	448.361
790.584	323.071
793.477	237.15
796.37	319.894
799.262	473.894
802.155	652.22
805.048	802.635
807.941	1108.25
810.833	1505.23
813.726	2058.79
816.619	1851.98
819.511	855.176
822.404	452.923
825.297	284.482
828.189	123.362
831.082	96.6455
833.975	162.342
836.867	48.5615
839.76	134.368
842.653	15.4287
845.546	42.3184
848.438	35.5137
851.331	35.4512
854.224	43.168
857.116	167.293
860.009	3.0625
862.902	39.165
865.794	66.0811
868.687	105.613
871.58	75.6699
874.472	93.5615
877.365	56.5869
880.258	71.0312
883.151	122.898
886.043	124.407
888.936	93.2188
891.829	72.1436
894.721	147.379
897.614	50.7148
900.507	72.3115
903.399	107.769
906.292	107.475
909.185	33.2188
912.078	34.5342
914.97	130.101
917.863	116.603
920.756	43.7861
923.648	141.1
926.541	111.109
929.434	156.549
932.327	120.855
935.219	187.491
938.112	81.3769
941.005	61.2949
943.897	78.9072
946.79	64.8965
949.683	116.173
952.575	96.9541
955.468	152.753
958.361	104.447
961.254	121.52
964.146	22.2373
967.039	60.9717
969.932	51.6211
972.824	65.3633
975.717	24.9453
978.61	8.58594
981.502	116.346
984.395	56.4688
987.288	58.8662
990.181	7.88086
993.073	79.2959
995.966	36.2373
998.859	47.4668
1001.75	36.9785
1004.64	34.0977
1007.54	12.3896
1010.43	51.9287
1013.32	24.8936
1016.22	45.1152
1019.11	46.9678
1022	83.9541
1024.89	229.477
1027.79	356.782
1030.68	468.565
1033.57	549.947
1036.46	811.054
1039.36	746.873
1042.25	480.019
1045.14	214.074
1048.03	100.849
1050.93	49.165
1053.82	112.923
1056.71	153.944
1059.61	239.255
1062.5	172.433
1065.39	251.421
1068.28	285.2
1071.18	298.515
1074.07	277.048
1076.96	282.386
1079.85	364.592
1082.75	329.394
1085.64	254.429
1088.53	270.31
1091.42	285.06
1094.32	316.882
1097.21	314.92
1100.1	317.544
1103	322.556
1105.89	321.801
1108.78	308.711
1111.67	319.038
1114.57	255.3
1117.46	270.555
1120.35	250.985
1123.24	232.64
1126.14	192.433
1129.03	241.978
1131.92	391.258
1134.82	553.407
1137.71	841.523
1140.6	1048.59
1143.49	1175.64
1146.39	1193.8
1149.28	1191.9
1152.17	429.893
1155.06	312.916
1157.96	269.409
1160.85	202.814
1163.74	225.965
1166.63	153.565
1169.53	119.569
1172.42	40.5215
1175.31	37.9219
1178.21	74.8428
1181.1	60.6123
1183.99	20.043
1186.88	30.3691
1189.78	7.7959
1192.67	29.1367
1195.56	12.5176
1198.45	2.39258
1201.35	10.2402
1204.24	0.404297
1207.13	13.8018
1210.03	27.79
1212.92	104.284
1215.81	128.689
1218.7	66.8477
1221.6	201.432
1224.49	65.1123
1227.38	12.4199
1230.27	123.542
1233.17	84.2939
1236.06	57.1807
1238.95	64.3662
1241.85	56.4141
1244.74	129.276
1247.63	58.252
1250.52	82.7783
1253.42	72.4707
1256.31	140.294
1259.2	166.361
1262.09	193.312
1264.99	144.647
1267.88	75.6514
1270.77	49.9072
1273.66	79.2647
1276.56	163.912
1279.45	151.92
1282.34	99.9053
1285.24	114.959
1288.13	107.717
1291.02	28.1455
1293.91	30.9492
1296.81	68.1807
