Measurement: Raman, 780 nm, unoriented, Raman Data Processed
Mineral: Coesite
Rruff sample: R070565
Ideal chemistry: SiO_2_
Locality: Synthetic, P = 45 kbar, T = 650 C
Source: Charles Prewitt
Description: Colorless crystalline fragments
Measured chemistry: Si_1.00_O_2_
Raman shift (cm-1)	intensity
99.4995	0
102.874	1643.6
106.249	2929.43
109.624	4275.29
112.999	6786.12
116.374	12926.5
119.748	14535.8
123.123	4065.81
126.498	568.779
129.873	161.309
133.248	149.836
136.623	18.5518
139.997	264.088
143.372	338.97
146.747	783.357
150.122	2028.4
153.497	670.602
156.871	173.579
160.246	133.653
163.621	417.033
166.996	909.938
170.371	1660.66
173.745	3014.08
177.12	5159.73
180.495	3187.49
183.87	1728.09
187.245	1530.52
190.62	2903.66
193.994	3997.76
197.369	5552.01
200.744	8368.25
204.119	19046.6
207.494	7749.94
210.869	1685.89
214.243	523.906
217.618	112.92
220.993	78.374
224.368	18.0972
227.743	7.92285
231.117	34.3252
234.492	149.547
237.867	267.707
241.242	344.728
244.617	540.114
247.992	251.065
251.366	306.543
254.741	1059.96
258.116	2689.47
261.491	3902.26
264.865	5955.36
268.24	11399.8
271.615	11968.5
274.99	3593.71
278.365	1040.17
281.74	333.877
285.114	188.338
288.489	163.168
291.864	125.966
295.239	23.4561
298.614	44.1069
301.988	43.3389
305.363	63.3965
308.738	235.819
312.113	772.397
315.488	1099.51
318.863	1518.28
322.237	2545.33
325.612	4740.74
328.987	2344.15
332.362	605.641
335.737	246.856
339.111	82.1509
342.486	503.084
345.861	714.335
349.236	1308.89
352.611	2522.67
355.986	4845.2
359.36	1090.37
362.735	176.532
366.11	64.8657
369.485	208.772
372.86	206.724
376.235	381.255
379.609	499.311
382.984	148.258
386.359	123.555
389.734	37.0029
393.109	66.4175
396.483	29.4873
399.858	58.373
403.233	64.6001
406.608	10.0015
409.983	107.124
413.358	340.131
416.732	458.929
420.107	725.411
423.482	1366.66
426.857	2371.6
430.232	851.404
433.606	402.384
436.981	281.409
440.356	371.915
443.731	302.989
447.106	282.996
450.481	379.076
453.855	985.925
457.23	1769.9
460.605	2852.66
463.98	5084.7
467.355	6760.88
470.729	2069.39
474.104	413.101
477.479	81.5542
480.854	61.3193
484.229	14.5762
487.603	12.6001
490.978	73.4326
494.353	305.299
497.728	637.667
501.103	1188.59
504.478	2920.3
507.852	7295.58
511.227	13844
514.602	22482.3
517.977	39601.7
521.352	46679.5
524.726	21176.3
528.101	8087.42
531.476	3911.08
534.851	2309.83
538.226	1605.23
541.601	1061.15
544.975	849.231
548.35	635.336
551.725	363.914
555.1	363.961
558.475	287.93
561.849	177.872
565.224	123.737
568.599	183.499
571.974	107.944
575.349	15.4971
578.723	44.6333
582.098	13.5928
585.473	2.96631
588.848	37.1514
592.223	13.2598
595.598	45.5537
598.972	25.3706
602.347	65.4277
605.722	15.9663
609.097	44.044
612.472	36.2192
615.847	88.0112
619.221	119.384
622.596	92.1123
625.971	31.1401
629.346	155.846
632.721	143.039
636.096	55.2695
639.47	163.5
642.845	113.062
646.22	201.595
649.595	143.457
652.97	149.102
656.344	188.002
659.719	233.88
663.094	84.3281
666.469	61.2319
669.844	16.8799
673.218	53.2974
676.593	86.5195
679.968	110.306
683.343	51.4116
686.718	60.3555
690.092	0.279297
693.467	82.9165
696.842	60.9268
700.217	126.889
703.592	28.7319
706.967	119.238
710.341	10.6665
713.716	97.2686
717.091	114.218
720.466	60.3027
723.841	84.3369
727.216	37.1987
730.59	78.5654
733.965	32.4019
737.34	30.1616
740.715	11.916
744.09	35.3355
747.464	90.4976
750.839	50.4805
754.214	55.9492
757.589	92.4839
760.964	52.1162
764.338	63.6655
767.713	64.3096
771.088	132.235
774.463	276.731
777.838	343.131
781.213	586.199
784.587	673.444
787.962	438.85
791.337	363.996
794.712	230.148
798.087	330.875
801.462	434.287
804.836	825.277
808.211	1456.4
811.586	2622.08
814.961	3578.34
818.336	2093.81
821.71	846.317
825.085	480.699
828.46	261.668
831.835	264.322
835.21	144.603
838.585	74.7012
841.959	144.581
845.334	85.6133
848.709	63.1328
852.084	69.71
855.459	8.74707
858.833	14.6836
862.208	16.8838
865.583	38.2949
868.958	87.166
872.333	102.259
875.707	92.4883
879.082	4.65918
882.457	113.884
885.832	108.07
889.207	106.285
892.582	108.981
895.956	105.519
899.331	27.1484
902.706	45.9453
906.081	6.67773
909.456	89.8394
912.83	36.9399
916.205	89.8106
919.58	116.147
922.955	33.5864
926.33	126.676
929.705	117.877
933.079	74.6714
936.454	143.065
939.829	106.424
943.204	84.7681
946.579	81.8711
949.953	43.1724
953.328	88.2876
956.703	22.3003
960.078	41.293
963.453	5.104
966.827	15.0195
970.202	72.0478
973.577	26.687
976.952	31.1982
980.327	28.2812
983.702	54.6113
987.076	80.52
990.451	39.3794
993.826	73.1948
997.201	121.678
1000.58	177.387
1003.95	34.5698
1007.33	7.24365
1010.7	28.3643
1014.08	66.2305
1017.45	17.5322
1020.83	31.2993
1024.2	61.7031
1027.57	204.222
1030.95	437.17
1034.32	859.578
1037.7	1122.27
1041.07	699.351
1044.45	315.399
1047.82	145.327
1051.2	53.9194
1054.57	145.593
1057.95	127.315
1061.32	252.245
1064.7	217.411
1068.07	271.062
1071.45	214.499
1074.82	179.789
1078.2	190.82
1081.57	135.464
1084.95	114.835
1088.32	139.536
1091.7	193.748
1095.07	119.197
1098.44	134.828
1101.82	111.201
1105.19	101.265
1108.57	65.2383
1111.94	124.752
1115.32	104.957
1118.69	22.0503
1122.07	50.9966
1125.44	11.3086
1128.82	25.9477
1132.19	171.036
1135.57	336.1
1138.94	606.674
1142.32	930.839
1145.69	1105.77
1149.07	730.409
1152.44	312.357
1155.82	238.185
1159.19	298.818
1162.57	311.326
1165.94	347.703
1169.32	251.475
1172.69	95.6826
1176.07	125.043
1179.44	77.1792
1182.82	47.4253
1186.19	34.7793
1189.57	15.3516
1192.94	2.67676
1196.32	65.5811
1199.69	97.7314
1203.07	102.79
1206.44	96.3008
1209.81	72.1103
1213.19	195.231
1216.56	154.732
1219.94	76.7314
1223.31	148.908
1226.69	165.27
1230.06	265.501
1233.44	203.59
1236.81	188.866
1240.19	194.616
1243.56	187.583
1246.94	244.089
1250.31	154.287
1253.69	27.0166
1257.06	142.991
1260.44	64.4531
1263.81	86.4443
1267.19	130.332
1270.56	92.5244
1273.94	81.9463
1277.31	94.6562
1280.69	87.7773
1284.06	11.3994
1287.43	30.8438
