Measurement: Raman, 780 nm, unoriented, Raman Data Processed
Mineral: Colemanite
Rruff sample: R050102
Ideal chemistry: CaB_3_O_4_(OH)_3_H_2_O
Locality: Kramer deposit, Boron, Kern County, California, USA
Source: Rock Currier
Description: Colorless prismatic to tabular crystals
Measured chemistry: Ca_1.00_B_3.00_O_4_(OH)_3_Â·H_2_O ; trace amounts of Na; B assumed by stoichiometry and charge balance.
Raman shift (cm-1)	intensity
139.419	0
142.312	7.33466
145.204	31.5426
148.097	56.5619
150.99	71.3024
153.882	68.7007
156.775	69.5461
159.668	74.7331
162.56	86.2061
165.453	107.845
168.346	125.243
171.238	124.849
174.131	137.948
177.024	123.5
179.917	73.5275
182.809	34.4321
185.702	13.7698
188.595	1.85873
191.487	5.35898
194.38	5.13931
197.273	3.21802
200.166	3.99719
203.058	9.94312
205.951	12.2141
208.844	18.6598
211.736	26.7928
214.629	44.6491
217.522	64.3705
220.414	84.9897
223.307	85.6058
226.2	66.5956
229.093	45.5942
231.985	34.9385
234.878	30.6356
237.771	24.0139
240.663	20.8901
243.556	18.9334
246.449	16.2185
249.341	13.5528
252.234	7.91751
255.127	8.08624
258.019	9.9805
260.912	15.1793
263.805	19.9942
266.698	20.3838
269.59	21.3161
272.483	17.974
275.376	11.2377
278.268	4.18283
281.161	2.88425
284.054	2.2514
286.946	2.66837
289.839	12.0596
292.732	23.7612
295.625	43.8189
298.517	55.9359
301.41	74.5635
304.303	99.2794
307.195	125.691
310.088	127.585
312.981	89.8108
315.873	57.4435
318.766	46.3831
321.659	41.3349
324.551	35.7222
327.444	23.8247
330.337	13.9782
333.23	6.90951
336.122	5.25125
339.015	5.23361
341.908	9.17105
344.8	17.312
347.693	24.9335
350.586	31.0018
353.478	27.9774
356.371	21.238
359.264	18.3722
362.157	16.6624
365.049	28.3767
367.942	46.9223
370.835	65.477
373.727	85.5423
376.62	115.201
379.513	157.935
382.406	213.576
385.298	267.029
388.191	270.249
391.084	195.379
393.976	120.593
396.869	68.7404
399.762	39.1735
402.654	20.5002
405.547	9.86102
408.44	4.36868
411.332	0.163437
414.225	0.026718
417.118	2.51218
420.011	0.968613
422.903	2.09883
425.796	1.27977
428.689	1.23174
431.581	3.05193
434.474	2.91435
437.367	3.08502
440.26	5.29481
443.152	7.99381
446.045	12.6842
448.938	18.0025
451.83	26.094
454.723	33.4828
457.616	29.8568
460.508	19.9245
463.401	16.6438
466.294	16.173
469.186	14.8347
472.079	18.8402
474.972	23.7968
477.865	27.6428
480.757	26.7349
483.65	15.9267
486.543	8.60371
489.435	0.579163
492.328	0.312668
495.221	0.689026
498.113	0.785675
501.006	0.641571
503.899	0.558136
506.791	3.82318
509.684	9.39592
512.577	20.4469
515.47	34.1837
518.362	55.9101
521.255	79.784
524.148	114.88
527.04	161.411
529.933	224.508
532.826	288.784
535.718	289.441
538.611	220.701
541.504	140.329
544.397	89.6642
547.289	64.3493
550.182	50.3205
553.075	45.4436
555.967	46.9461
558.86	53.9214
561.753	66.8507
564.645	70.5416
567.538	50.7063
570.431	29.1655
573.323	18.2598
576.216	14.0499
579.109	8.45754
582.002	7.74245
584.894	17.0384
587.787	29.292
590.68	54.507
593.572	87.559
596.465	132.495
599.358	178.634
602.25	254.598
605.143	363.405
608.036	515.889
610.929	585.649
613.821	415.481
616.714	210.18
619.607	107.289
622.5	56.4207
625.392	29.9031
628.285	16.4323
631.178	7.30667
634.07	1.24486
636.963	2.25819
639.856	3.47435
642.748	4.24345
645.641	1.29431
648.534	3.72865
651.426	13.5912
654.319	25.916
657.212	43.3991
660.105	68.5206
662.997	100.454
665.89	134.47
668.783	152.934
671.675	125.605
674.568	74.6807
677.461	38.8409
680.353	20.3871
683.246	9.82253
686.139	4.67532
689.032	5.2641
691.924	5.21988
694.817	4.67737
697.71	3.06074
700.602	1.73219
703.495	0.36972
706.388	2.19409
709.28	3.20105
712.173	5.78862
715.066	5.94682
717.958	9.94864
720.851	13.7972
723.744	22.4147
726.636	35.4217
729.529	53.1435
732.422	77.6971
735.315	109.765
738.207	159.916
741.1	218.452
743.993	265.592
746.885	235.94
749.778	158.105
752.671	98.2371
755.563	60.805
758.456	36.4494
761.349	22.6227
764.242	15.2797
767.134	10.8094
770.027	8.746
772.92	9.43887
775.812	11.1412
778.705	14.8494
781.598	21.926
784.49	36.3652
787.383	43.0261
790.276	34.3974
793.169	20.8915
796.061	10.0479
798.954	4.96239
801.847	1.56032
804.739	1.05922
807.632	5.0817
810.525	9.03984
813.418	5.83121
816.31	1.80115
819.203	1.81914
822.096	3.57204
824.988	1.51927
827.881	2.43141
830.774	2.53728
833.666	4.79044
836.559	7.60136
839.452	8.74359
842.345	11.4663
845.237	11.0089
848.13	12.476
851.023	14.5178
853.915	15.4134
856.808	18.7055
859.701	24.0607
862.593	28.4808
865.486	32.3189
868.379	37.8627
871.271	42.953
874.164	43.5145
877.057	44.4606
879.949	40.5864
882.842	33.2696
885.735	26.4343
888.628	20.0209
891.52	17.0996
894.413	15.8794
897.306	12.1568
900.198	9.48601
903.091	9.26256
905.984	8.02
908.876	6.80484
911.769	4.2218
914.662	4.70427
917.555	1.7592
920.447	2.58665
923.34	2.44905
926.233	1.0818
929.125	0.71402
932.018	0.933487
934.911	0.67717
937.803	1.31045
940.696	1.87032
943.589	4.85735
946.482	5.44159
949.374	8.11273
952.267	11.9714
955.16	15.3195
958.052	18.842
960.945	22.0911
963.838	24.9055
966.731	29.1729
969.623	28.5071
972.516	27.0309
975.409	26.1985
978.301	24.186
981.194	22.4296
984.087	20.4762
986.979	21.0275
989.872	21.9637
992.765	23.0596
995.658	24.1257
998.55	22.8547
1001.44	18.897
1004.34	13.2552
1007.23	9.64621
1010.12	5.19336
1013.01	2.69138
1015.91	1.09734
1018.8	0.571457
1021.69	0.085159
1024.58	0.528046
1027.48	0.233887
1030.37	1.02608
1033.26	0.138443
1036.15	0.384277
1039.05	0.546829
1041.94	1.43842
1044.83	2.36708
1047.73	5.18826
1050.62	8.03717
1053.51	14.7046
1056.4	17.4229
1059.3	22.1895
1062.19	28.3046
1065.08	29.1645
1067.97	34.0775
1070.87	32.4692
1073.76	38.1744
1076.65	41.7126
1079.55	47.4173
1082.44	49.9668
1085.33	46.8905
1088.22	39.6073
1091.12	32.6748
1094.01	24.9699
1096.9	18.9507
1099.8	14.8722
1102.69	9.67987
1105.58	7.29477
1108.47	6.9254
1111.37	3.83601
1114.26	2.16003
1117.15	2.86284
1120.04	4.0898
1122.94	3.90976
1125.83	6.75955
1128.72	7.26267
1131.61	7.97221
1134.51	8.88379
1137.4	12.7075
1140.29	11.5441
1143.18	14.5337
1146.08	14.4716
1148.97	14.7877
1151.86	15.579
1154.76	14.4595
1157.65	15.9432
1160.54	15.6522
1163.43	12.7527
1166.33	11.8408
1169.22	10.4644
1172.11	7.73601
1175.01	7.01091
1177.9	3.94177
1180.79	5.53694
1183.68	3.7054
1186.58	2.53349
1189.47	2.38499
1192.36	0.798676
1195.25	0.225388
1198.15	1.21732
1201.04	0.437393
1203.93	0.421265
1206.82	1.67735
1209.72	0.876938
1212.61	0.744568
1215.5	1.26354
1218.39	1.7558
1221.29	0.909027
1224.18	1.63904
1227.07	2.87738
1229.97	1.70042
1232.86	4.0085
1235.75	3.43175
1238.64	2.748
1241.54	3.0475
1244.43	5.87367
1247.32	7.29712
1250.21	8.58652
1253.11	9.41849
1256	9.18249
1258.89	7.85767
1261.79	3.90173
1264.68	1.00691
