Measurement: Raman, 514 nm, unoriented, Raman Data Processed
Mineral: Colemanite
Rruff sample: R050102
Ideal chemistry: CaB_3_O_4_(OH)_3_H_2_O
Locality: Kramer deposit, Boron, Kern County, California, USA
Source: Rock Currier
Description: Colorless prismatic to tabular crystals
Measured chemistry: Ca_1.00_B_3.00_O_4_(OH)_3_Â·H_2_O ; trace amounts of Na; B assumed by stoichiometry and charge balance.
Raman shift (cm-1)	intensity
105.908	0
110.082	139.011
114.254	396.424
118.424	336.182
122.592	280.729
126.758	340.562
130.922	533.441
135.083	537.325
139.243	1145.96
143.401	1247.04
147.557	938.057
151.711	747.106
155.863	880.626
160.013	1050.05
164.161	1277.63
168.308	1045.26
172.452	1119.8
176.594	736.061
180.734	471.883
184.872	230.399
189.008	43.394
193.143	110.47
197.275	102.665
201.405	17.249
205.534	42.551
209.66	74.97
213.784	65.025
217.907	55.029
222.027	123.082
226.146	232.268
230.263	174.526
234.377	537.742
238.49	939.891
242.601	1224.58
246.709	912.13
250.816	553.718
254.921	305.336
259.024	256.973
263.125	186.118
267.224	291.672
271.321	605.111
275.416	333.727
279.51	272.981
283.601	498.108
287.69	559.762
291.778	816.094
295.863	969.677
299.947	1692.45
304.029	2831.57
308.108	4062
312.186	3367.91
316.262	1977.53
320.336	1574.88
324.408	1498.88
328.478	972.885
332.546	746.932
336.612	482.992
340.677	324.881
344.739	571.299
348.799	418.768
352.858	418.207
356.915	342.002
360.969	90.391
365.022	159.094
369.073	236.357
373.122	324.023
377.169	886.094
381.215	1935.63
385.258	2887.78
389.299	2986.92
393.339	1953.06
397.376	1325.13
401.412	408.127
405.446	344.051
409.478	151.877
413.508	107.379
417.536	63.629
421.562	40.115
425.586	78.143
429.609	235.512
433.629	407.014
437.648	206.453
441.665	221.795
445.68	237.031
449.693	97.863
453.704	198.816
457.713	39.16
461.721	0.736
465.726	133.91
469.73	139.6
473.731	256.404
477.731	163.289
481.729	278.27
485.725	125.568
489.72	138.412
493.712	61.775
497.703	91.543
501.691	88.418
505.678	263.506
509.663	373.4
513.646	351.152
517.627	724.777
521.607	1033.23
525.584	1902
529.56	3356.4
533.534	4297.36
537.506	3618.37
541.476	2083.23
545.444	1371.83
549.41	917.918
553.375	802.41
557.337	1063.89
561.298	1422.57
565.257	1779.87
569.214	1053.41
573.17	404.861
577.123	377.719
581.075	449.314
585.024	171.77
588.972	522.383
592.918	762.988
596.863	1102.83
600.805	2043.65
604.746	4579.21
608.685	8539.29
612.621	8011.19
616.557	3796.48
620.49	1624.27
624.421	807.828
628.351	686.236
632.279	507.557
636.205	18.344
640.129	71.703
644.051	67.459
647.972	21.477
651.89	188.312
655.807	240.051
659.722	445.562
663.636	541.912
667.547	1197.4
671.457	1013.91
675.365	579.949
679.271	263.668
683.175	333.67
687.077	174.121
690.978	178.207
694.877	206.918
698.774	184.691
702.669	217.611
706.562	563.182
710.454	493.531
714.344	136.289
718.232	361.754
722.118	367.941
726.002	493.869
729.885	715.584
733.766	840.918
737.645	1802.88
741.522	3006.59
745.397	4498.45
749.271	3249.21
753.143	1758.72
757.013	991.975
760.881	807.98
764.748	640.771
768.613	265.828
772.476	236.352
776.337	426.645
780.196	440.785
784.054	589.6
787.91	730.258
791.764	613.264
795.616	451.768
799.467	123.428
803.316	34.795
807.163	271.834
811.008	33.775
814.851	19.162
818.693	129.967
822.533	38.566
826.371	16.094
830.208	348.971
834.042	112.584
837.875	515.109
841.706	419.902
845.536	670.744
849.363	226.324
853.189	358.518
857.013	1007.91
860.836	633.977
864.656	550.605
868.475	911.492
872.292	885.92
876.108	864.033
879.922	1011.9
883.733	920.982
887.544	772.129
891.352	985.213
895.159	832.449
898.964	602.854
902.767	554.285
906.568	529.797
910.368	499.156
914.166	428.41
917.962	231.402
921.757	533.75
925.55	560.762
929.341	634.195
933.13	391.84
936.918	193.75
940.703	418.426
944.488	591.98
948.27	544.426
952.051	486.879
955.83	738.191
959.607	627.148
963.383	576.629
967.156	996.355
970.928	854.656
974.699	689.207
978.468	441.328
982.234	409.941
986	630.41
989.763	657.07
993.525	605.238
997.285	525.969
1001.04	773.043
1004.8	399.047
1008.55	423.445
1012.31	528.406
1016.06	232.434
1019.81	33.426
1023.56	157.312
1027.31	329.074
1031.05	562.703
1034.79	753.129
1038.53	612.121
1042.27	345.25
1046.01	360.785
1049.75	827.934
1053.48	650.23
1057.22	771.133
1060.95	402.613
1064.68	618.793
1068.4	1126.66
1072.13	1240.64
1075.86	1253.18
1079.58	1451.07
1083.3	1193.28
1087.02	1620.62
1090.74	1189.52
1094.45	652.66
1098.17	643.781
1101.88	400.242
1105.59	550.625
1109.3	37.863
1113.01	176.676
1116.71	113.281
1120.42	87.293
1124.12	24.242
1127.82	182.457
1131.52	332.051
1135.22	36.152
1138.91	812.008
1142.61	9.656
1146.3	247.738
1149.99	8.574
1153.68	327.805
1157.37	13.551
1161.06	456.52
1164.74	290.668
1168.42	562.18
1172.1	163.344
1175.78	587.547
1179.46	607.727
1183.14	409.023
1186.81	192.18
1190.48	407.566
1194.15	242.301
1197.83	723.883
1201.49	268.48
1205.16	725.055
1208.82	250.141
1212.49	250.391
1216.15	589.652
1219.81	392.133
1223.46	64.535
1227.12	524.902
1230.78	644.633
1234.43	538.414
1238.08	734.719
1241.73	626.758
1245.38	254.5
1249.03	45.422
1252.67	372.402
1256.31	102.562
1259.95	655.066
1263.6	500.648
1267.23	313.496
1270.87	124.754
1274.51	0
