Measurement: Raman, 780 nm, unoriented, Raman Data Processed
Mineral: Colemanite
Rruff sample: R050331
Ideal chemistry: CaB_3_O_4_(OH)_3_H_2_O
Locality: Thompson mine, Death Valley, Inyo County, California, USA
Source: California Institute of Technology
Description: Colorless fragment
Measured chemistry: Ca_1.00_B_3.00_O_4_(OH)_3_Â·H_2_O ; B not measured but assumed by stoichiometry and charge balance.
Raman shift (cm-1)	intensity
114.219	0
117.594	9.9519
120.968	1.06494
124.343	2.91846
127.718	19.1761
131.093	17.4485
134.468	3.65149
137.842	11.8132
141.217	37.6802
144.592	82.2375
147.967	136.412
151.342	170.511
154.716	197.468
158.091	246.644
161.466	300.778
164.841	341.25
168.216	306.914
171.591	237.638
174.965	189.841
178.34	128.036
181.715	55.735
185.09	22.0369
188.465	7.67676
191.839	5.01587
195.214	3.55457
198.589	8.78687
201.964	5.34448
205.339	6.07935
208.714	3.80115
212.088	7.89697
215.463	29.5529
218.838	54.15
222.213	72.7728
225.588	107.371
228.962	136.365
232.337	173.937
235.712	237.902
239.087	291.42
242.462	306.303
245.837	248.24
249.211	164.438
252.586	116.261
255.961	71.1058
259.336	53.5033
262.711	41.5116
266.085	47.7432
269.46	47.273
272.835	50.8556
276.21	39.5442
279.585	37.0283
282.959	57.0687
286.334	94.297
289.709	167.409
293.084	238.126
296.459	320.512
299.834	441.314
303.208	594.74
306.583	781.078
309.958	814.579
313.333	547.252
316.708	349.518
320.082	263.414
323.457	218.959
326.832	159.513
330.207	103.674
333.582	56.5188
336.957	31.7152
340.331	20.9324
343.706	24.8254
347.081	26.054
350.456	25.4216
353.831	17.0537
357.205	2.95642
360.58	9.66614
363.955	12.6095
367.33	51.3666
370.705	111.929
374.079	179.63
377.454	285.009
380.829	436.49
384.204	600.801
387.579	651.07
390.954	477.804
394.328	283.723
397.703	160.279
401.078	87.2634
404.453	39.2273
407.828	14.7938
411.202	0.675049
414.577	10.7993
417.952	8.83935
421.327	4.55896
424.702	7.11523
428.077	15.5146
431.451	34.5831
434.826	53.3177
438.201	39.6143
441.576	26.574
444.951	23.3583
448.325	17.7372
451.7	14.7181
455.075	21.6311
458.45	16.907
461.825	23.4241
465.2	24.8386
468.574	41.2231
471.949	48.4506
475.324	46.8899
478.699	51.1875
482.074	36.6406
485.449	8.35803
488.823	1.46814
492.198	5.12427
495.573	11.4305
498.948	4.52161
502.323	4.31506
505.697	19.6914
509.072	31.1045
512.447	83.5209
515.822	129.717
519.197	212.903
522.572	304.076
525.946	443.814
529.321	620.76
532.696	775.406
536.071	708.16
539.446	458.955
542.82	278.92
546.195	177.629
549.57	142.29
552.945	133.92
556.32	154.691
559.694	222.438
563.069	302.99
566.444	257.158
569.819	118.767
573.194	44.3259
576.568	16.3624
579.943	10.7394
583.318	32.7498
586.693	72.0214
590.068	133.086
593.443	254.956
596.817	391.519
600.192	562.406
603.567	845.416
606.942	1270.08
610.317	1550.11
613.692	1078.93
617.066	504.424
620.441	230.728
623.816	111.259
627.191	56.2654
630.566	28.3615
633.94	1.25061
637.315	4.06152
640.69	7.03931
644.065	13.6237
647.44	10.4789
650.814	5.89551
654.189	24.8186
657.564	52.1429
660.939	100.637
664.314	167.806
667.688	220.791
671.063	194.587
674.438	105.654
677.813	43.2013
681.188	18.2169
684.563	12.5316
687.937	10.6587
691.312	21.1428
694.687	14.9442
698.062	16.8442
701.437	22.8594
704.812	15.0585
708.186	25.1648
711.561	34.8512
714.936	40.1576
718.311	47.3217
721.686	63.7185
725.06	78.9088
728.435	120.71
731.81	184.959
735.185	280.136
738.56	399.852
741.934	564.904
745.309	623.939
748.684	453.434
752.059	285.832
755.434	175.971
758.809	120.171
762.183	83.2173
765.558	61.3058
768.933	49.8124
772.308	38.0642
775.683	46.9124
779.058	62.7179
782.432	89.9907
785.807	125.546
789.182	118.527
792.557	68.2513
795.932	30.4253
799.306	11.9016
802.681	5.40051
806.056	3.83252
809.431	2.68066
812.806	1.29553
816.181	2.07922
819.555	5.43738
822.93	5.40369
826.305	2.91797
829.68	2.79529
833.055	14.8452
836.429	22.6752
839.804	30.6907
843.179	39.4663
846.554	43.4375
849.929	47.8404
853.303	46.5507
856.678	56.0526
860.053	67.0006
863.428	71.4327
866.803	80.4714
870.178	90.2496
873.552	92.9705
876.927	86.6896
880.302	83.6753
883.677	69.4305
887.052	63.536
890.427	54.5675
893.801	48.5236
897.176	43.4275
900.551	41.1111
903.926	30.0923
907.301	24.7064
910.675	19.0878
914.05	16.6984
917.425	15.8332
920.8	7.78247
924.175	4.53467
927.549	0.161011
930.924	4.1001
934.299	3.99487
937.674	1.07825
941.049	5.54858
944.423	7.5636
947.798	16.8307
951.173	30.4324
954.548	36.1039
957.923	54.8126
961.298	65.2638
964.672	82.8046
968.047	80.1469
971.422	66.6299
974.797	60.2926
978.172	45.0682
981.546	35.808
984.921	33.3272
988.296	23.7864
991.671	26.0072
995.046	30.6437
998.42	23.9062
1001.79	17.5271
1005.17	9.12097
1008.54	8.55335
1011.92	3.51416
1015.29	0.672974
1018.67	1.77087
1022.04	0.663269
1025.42	1.21936
1028.79	1.28259
1032.17	2.70703
1035.54	1.35425
1038.92	6.52252
1042.29	1.96112
1045.67	6.36169
1049.04	5.80878
1052.42	12.1605
1055.79	18.2844
1059.17	25.8608
1062.54	34.3083
1065.92	45.3826
1069.29	58.5984
1072.67	77.8962
1076.04	98.391
1079.42	126.04
1082.79	123.451
1086.17	114.553
1089.54	98.854
1092.91	72.139
1096.29	53.2656
1099.66	40.3899
1103.04	22.8185
1106.41	14.9295
1109.79	5.31348
1113.16	3.12048
1116.54	3.31201
1119.91	0.186523
1123.29	3.9306
1126.66	4.23261
1130.04	4.32098
1133.41	5.23541
1136.79	5.12061
1140.16	9.65729
1143.54	9.38776
1146.91	13.7019
1150.29	16.2495
1153.66	17.7393
1157.04	21.214
1160.41	20.6287
1163.79	15.6268
1167.16	11.151
1170.54	14.29
1173.91	12.0452
1177.29	15.0314
1180.66	4.16132
1184.04	2.01709
1187.41	2.13977
1190.79	1.98102
1194.16	1.31458
1197.54	0.385803
1200.91	2.04059
1204.28	2.36853
1207.66	0.348389
1211.03	3.29279
1214.41	0.976746
1217.78	1.48242
1221.16	2.70728
1224.53	1.39374
1227.91	5.13818
1231.28	6.3667
1234.66	2.10181
1238.03	9.97534
1241.41	17.1268
1244.78	21.2365
1248.16	25.5032
1251.53	26.3325
1254.91	30.4185
1258.28	23.4212
1261.66	24.7227
1265.03	15.186
1268.41	7.50946
1271.78	3.80652
1275.16	3.01801
1278.53	1.93201
1281.9	1.39606
1285.28	1.20917
