Measurement: Raman, 532 nm, unoriented, Raman Data Processed
Mineral: Colemanite
Rruff sample: R050331
Ideal chemistry: CaB_3_O_4_(OH)_3_H_2_O
Locality: Thompson mine, Death Valley, Inyo County, California, USA
Source: California Institute of Technology
Description: Colorless fragment
Measured chemistry: Ca_1.00_B_3.00_O_4_(OH)_3_Â·H_2_O ; B not measured but assumed by stoichiometry and charge balance.
Raman shift (cm-1)	intensity
144.422	0
147.797	57.1155
151.172	119.378
154.547	184.018
157.921	293.292
161.296	440.291
164.671	573.378
168.046	608.825
171.421	586.182
174.796	589.819
178.17	383.821
181.545	152.04
184.92	55.5102
188.295	19.3425
191.67	0.380737
195.044	5.40894
198.419	15.7584
201.794	21.3046
205.169	17.1321
208.544	1.45001
211.918	14.3182
215.293	45.1598
218.668	74.5984
222.043	108.367
225.418	134.812
228.792	167.05
232.167	212.651
235.542	277.846
238.917	344.849
242.292	396.959
245.667	381.447
249.041	345.5
252.416	340.406
255.791	345.665
259.166	330.622
262.541	298.287
265.916	269.714
269.29	238.88
272.665	186.627
276.04	111.535
279.415	50.5548
282.79	14.8256
286.164	7.82361
289.539	29.3444
292.914	67.9752
296.289	121.366
299.664	203.853
303.038	328.188
306.413	466.803
309.788	478.483
313.163	316.035
316.538	209.149
319.913	167.896
323.287	148.853
326.662	120.554
330.037	78.5374
333.412	45.9915
336.787	29.3957
340.161	31.3835
343.536	41.3152
346.911	59.9209
350.286	72.8695
353.661	71.3733
357.036	53.5825
360.41	36.693
363.785	27.0913
367.16	47.6435
370.535	94.7609
373.91	158.877
377.284	253.881
380.659	408.18
384.034	564.832
387.409	590.788
390.784	402.038
394.159	209.793
397.533	94.4265
400.908	38.501
404.283	6.79504
407.658	11.6376
411.033	20.0662
414.407	20.2489
417.782	2.63452
421.157	13.8956
424.532	44.5231
427.907	86.0659
431.281	136.995
434.656	147.369
438.031	120.848
441.406	81.7884
444.781	62.8717
448.156	51.6001
451.53	59.3707
454.905	60.5464
458.28	54.3199
461.655	60.5665
465.03	62.3358
468.404	62.3971
471.779	60.6456
475.154	72.8333
478.529	84.321
481.904	81.3832
485.279	72.8048
488.653	45.1681
492.028	31.6426
495.403	19.5627
498.778	11.3453
502.153	0.40564
505.527	7.85657
508.902	2.38977
512.277	7.42078
515.652	45.0393
519.027	103.749
522.402	194.036
525.776	335.208
529.151	543.792
532.526	765.141
535.901	882.434
539.276	838.424
542.65	675.985
546.025	424.386
549.4	297.952
552.775	290.477
556.15	368.865
559.525	550.01
562.899	740.2
566.274	624.115
569.649	275.573
573.024	101.851
576.399	44.3628
579.774	26.4558
583.148	44.3496
586.523	73.9984
589.898	134.973
593.273	248.535
596.648	439.608
600.022	684.499
603.397	1077.19
606.772	1604.09
610.147	1888.61
613.522	1247.25
616.896	537.475
620.271	221.874
623.646	91.7773
627.021	32.5974
630.396	6.91626
633.77	5.64722
637.145	13.8301
640.52	14.9614
643.895	8.30066
647.27	7.83362
650.645	52.9325
654.019	135.582
657.394	261.202
660.769	444.914
664.144	680.088
667.519	855.815
670.894	740.868
674.268	424.417
677.643	217.816
681.018	116.663
684.393	78.0483
687.768	54.8845
691.142	44.0647
694.517	28.7047
697.892	18.3875
701.267	18.1519
704.642	10.6696
708.016	19.9912
711.391	22.2345
714.766	39.8969
718.141	53.4675
721.516	78.5455
724.891	121.42
728.265	187.386
731.64	300.554
735.015	450.859
738.39	678.024
741.765	928.78
745.139	959.419
748.514	669.625
751.889	389.063
755.264	236.292
758.639	147.766
762.014	102.861
765.388	74.5005
768.763	63.973
772.138	61.1397
775.513	80.4814
778.888	109.847
782.263	176.909
785.637	230.123
789.012	195.291
792.387	105.998
795.762	46.2672
799.136	16.3092
802.511	4.44971
805.886	3.43176
809.261	7.45996
812.636	7.21436
816.011	5.12683
819.385	3.26233
822.76	7.74951
826.135	19.8829
829.51	30.1387
832.885	48.3077
836.26	59.6671
839.634	68.4564
843.009	61.9908
846.384	59.2533
849.759	50.3632
853.134	44.5758
856.508	43.6024
859.883	41.5115
863.258	47.48
866.633	47.2863
870.008	54.6755
873.383	56.1608
876.757	57.604
880.132	55.7659
883.507	48.7793
886.882	41.7444
890.257	35.2891
893.631	29.2333
897.006	30.434
900.381	18.9006
903.756	14.9276
907.131	14.3994
910.505	10.2291
913.88	12.4822
917.255	4.11585
920.63	8.98047
924.005	2.27344
927.38	1.01856
930.754	2.70447
934.129	1.02539
937.504	0.435181
940.879	8.61169
944.254	13.2513
947.629	25.2669
951.003	35.4156
954.378	60.7638
957.753	76.8783
961.128	94.6178
964.503	111.719
967.877	109.621
971.252	90.2794
974.627	79.0702
978.002	67.8848
981.377	59.88
984.751	53.6551
988.126	54.2429
991.501	63.3893
994.876	64.7628
998.251	71.6594
1001.63	61.0808
1005	46.8489
1008.38	34.6858
1011.75	28.6204
1015.12	15.0751
1018.5	10.1252
1021.87	6.87134
1025.25	0.998291
1028.62	1.21631
1032	1.12085
1035.37	2.50061
1038.75	3.89526
1042.12	0.237549
1045.5	3.09436
1048.87	3.53235
1052.25	15.1912
1055.62	32.5265
1059	42.0926
1062.37	60.6599
1065.75	87.1024
1069.12	118.364
1072.5	159.534
1075.87	212.716
1079.25	264.025
1082.62	283.839
1086	272.674
1089.37	221.33
1092.75	166.625
1096.12	125.92
1099.49	90.785
1102.87	64.9293
1106.24	37.996
1109.62	28.3636
1112.99	21.5884
1116.37	14.6782
1119.74	13.5877
1123.12	8.3092
1126.49	9.86987
1129.87	6.17737
1133.24	10.8918
1136.62	12.6263
1139.99	15.2752
1143.37	15.4828
1146.74	16.1311
1150.12	15.5997
1153.49	13.9235
1156.87	18.3375
1160.24	16.0085
1163.62	14.1398
1166.99	23.1092
1170.37	12.8121
1173.74	16.0912
1177.12	9.02014
1180.49	7.74646
1183.87	5.16785
1187.24	4.27478
1190.62	7.04492
1193.99	2.73914
1197.37	5.20898
1200.74	0.489746
1204.12	3.66223
1207.49	0.058105
1210.86	0.380981
1214.24	4.76782
1217.61	6.33789
1220.99	10.1888
1224.36	7.80652
1227.74	17.5619
1231.11	14.7078
1234.49	23.3573
1237.86	27.2199
1241.24	23.4359
1244.61	32.6312
1247.99	47.369
1251.36	53.0574
1254.74	59.5194
1258.11	55.5527
1261.49	48.054
1264.86	28.1094
1268.24	10.7213
1271.61	4.89233
1274.99	5.06457
1278.36	2.39038
1281.73	3.45642
1285.11	17.3325
1288.48	29.203
1291.86	28.1897
1295.23	44.2664
1298.61	32.8467
1301.98	15.5515
