Measurement: Raman, 514 nm, unoriented, Raman Data Processed
Mineral: Colemanite
Rruff sample: R050331
Ideal chemistry: CaB_3_O_4_(OH)_3_H_2_O
Locality: Thompson mine, Death Valley, Inyo County, California, USA
Source: California Institute of Technology
Description: Colorless fragment
Measured chemistry: Ca_1.00_B_3.00_O_4_(OH)_3_Â·H_2_O ; B not measured but assumed by stoichiometry and charge balance.
Raman shift (cm-1)	intensity
103.87	0
108.059	351.338
112.245	740.615
116.43	901.748
120.612	701.314
124.793	251.068
128.971	70.0649
133.147	101.887
137.321	512.049
141.492	1366.34
145.662	2563.91
149.829	3460.66
153.995	3935.53
158.158	4535.56
162.319	5781.75
166.478	7017.74
170.634	7715.64
174.789	7223.7
178.941	3491.53
183.092	1176.01
187.24	451.468
191.386	174.913
195.53	81.1802
199.672	49.1221
203.812	106.654
207.949	58.9688
212.085	6.75391
216.218	158.177
220.349	222.161
224.479	398.767
228.606	544.04
232.731	787.692
236.853	1187.73
240.974	1745.35
245.093	2203.59
249.209	2561.69
253.324	3119.88
257.436	3705.47
261.546	3848.27
265.654	3607.35
269.761	3102.39
273.864	2275.16
277.966	1340.33
282.066	763.28
286.164	421.832
290.259	475.16
294.353	520.542
298.444	862.255
302.534	1448.13
306.621	2655.09
310.706	2764.14
314.789	1859.96
318.87	1425.51
322.949	1426.88
327.026	1235.92
331.101	1028.09
335.174	743.354
339.244	809.69
343.313	744.104
347.38	791.579
351.444	786.182
355.507	616.511
359.567	336.299
363.625	205.199
367.682	56.0918
371.736	379.96
375.788	973.226
379.838	2269.03
383.886	4144.45
387.932	4153.66
391.976	2324.57
396.018	760.261
400.058	205.012
404.096	96.166
408.131	71.4658
412.165	220.966
416.197	81.7217
420.226	113.195
424.254	549.482
428.28	1095.71
432.303	1876.1
436.325	2186.39
440.344	1786.57
444.362	1416.66
448.377	1316.48
452.39	1355.83
456.402	1575.21
460.411	1485.4
464.419	1535.66
468.424	1625.98
472.427	2076.4
476.429	2361.2
480.428	2772.07
484.425	2673.38
488.42	2732.18
492.414	2780.36
496.405	2511.79
500.394	2313.41
504.381	2165.29
508.366	2327.38
512.35	2309.68
516.331	2382.24
520.31	2315.15
524.287	2987.82
528.263	4040.14
532.236	6634.83
536.207	10330.2
540.176	13056.2
544.143	10762.4
548.109	6578.94
552.072	4875.7
556.033	5392.7
559.993	8800.02
563.95	12616.5
567.905	7600.61
571.859	3525.43
575.81	2253.92
579.759	1829.65
583.707	1878.57
587.652	1677.83
591.596	2027.56
595.537	2877.7
599.477	5038.41
603.414	10009.8
607.35	19371.7
611.283	21204
615.215	9656.86
619.145	3690.11
623.072	1403.72
626.998	547.713
630.922	32.0547
634.844	33.2607
638.764	108.506
642.682	213.97
646.598	179.934
650.512	203.955
654.424	1098.09
658.334	3033.05
662.242	6952.49
666.148	11997.4
670.052	11522.5
673.955	5987.77
677.855	2803.32
681.754	1349.09
685.65	795.078
689.545	411.273
693.437	397.651
697.328	314.204
701.217	200.923
705.104	268.138
708.989	105.599
712.872	358.824
716.753	547.75
720.632	746.259
724.509	935.059
728.384	1484
732.258	2777.62
736.129	5477.82
739.999	9868.31
743.866	13067.5
747.732	9750.43
751.596	5272.6
755.457	3051.2
759.317	1782.66
763.175	1150.48
767.031	919.837
770.886	633.411
774.738	835.882
778.588	1475.25
782.437	2726.77
786.283	3727.86
790.128	2455
793.971	1201.95
797.812	716.267
801.651	329.682
805.488	108.794
809.323	2.09082
813.156	73.0762
816.988	105.724
820.817	184.435
824.645	303.152
828.47	281.671
832.294	650.092
836.116	888.403
839.936	906.594
843.755	774.679
847.571	562.634
851.385	370.455
855.198	78.1406
859.008	115.673
862.817	173.042
866.624	70.2119
870.429	97.0772
874.232	103.746
878.034	132.316
881.833	196.648
885.631	202.776
889.426	198.701
893.22	54.4766
897.012	149.971
900.802	65.0615
904.591	70.6269
908.377	56.9815
912.161	145.859
915.944	208.191
919.725	109.841
923.504	128.993
927.281	51.5684
931.056	321.739
934.83	361.495
938.601	150.762
942.371	169.658
946.139	238.407
949.905	227.183
953.669	506.071
957.431	864.782
961.192	992.654
964.95	1056.1
968.707	733.94
972.462	551.598
976.215	758.991
979.966	866.119
983.716	813.829
987.464	450.427
991.209	588.013
994.953	964.461
998.695	930.232
1002.44	1136.66
1006.17	892.106
1009.91	876.975
1013.65	702.761
1017.38	361.753
1021.11	374.945
1024.84	299.021
1028.57	413.431
1032.29	490.812
1036.02	632.941
1039.74	594.876
1043.46	533.046
1047.18	486.438
1050.89	747.957
1054.61	1012.11
1058.32	1093.4
1062.03	1711.66
1065.74	1944.88
1069.45	2335.84
1073.16	3361.94
1076.86	4459.88
1080.56	5041.98
1084.26	5059.96
1087.96	4137.62
1091.66	3184.5
1095.35	2193.71
1099.05	1772.59
1102.74	1361.81
1106.43	970.901
1110.12	929.852
1113.8	1068.69
1117.49	827.431
1121.17	606.034
1124.85	324.4
1128.53	72.7207
1132.2	300.852
1135.88	518.666
1139.55	585.925
1143.23	472.82
1146.9	429.209
1150.56	125.206
1154.23	191.032
1157.9	156.713
1161.56	72.249
1165.22	247.684
1168.88	373.014
1172.54	228.082
1176.19	63.0879
1179.85	41.7129
1183.5	147.111
1187.15	102.761
1190.8	17.4785
1194.45	136.938
1198.09	251.133
1201.73	366.244
1205.38	310.925
1209.02	175.611
1212.65	100.394
1216.29	35.4629
1219.93	440.676
1223.56	526.213
1227.19	484.58
1230.82	709.001
1234.45	867.481
1238.07	865.943
1241.7	654.344
1245.32	912.687
1248.94	1090.98
1252.56	1388.4
1256.18	1446.42
1259.79	1382.56
1263.41	1258.99
1267.02	876.611
1270.63	561.971
1274.24	317.752
1277.84	362.019
1281.45	672.848
1285.05	748.531
1288.65	1293.26
1292.26	1813.4
1295.85	1945.5
1299.45	1638.81
1303.04	1222.26
1306.64	665.496
1310.23	208.08
1313.82	139.912
1317.41	320.959
1320.99	401.119
1324.58	490.315
1328.16	619.654
1331.74	491.973
1335.32	388.029
1338.9	164.914
1342.47	17.5508
1346.05	91.166
1349.62	219.703
1353.19	553.652
1356.76	649.092
1360.33	607.719
1363.89	837.373
1367.46	896.307
1371.02	464.461
