Measurement: Raman, 532 nm, unoriented, Raman Data Processed
Mineral: Colemanite
Rruff sample: R050102
Ideal chemistry: CaB_3_O_4_(OH)_3_H_2_O
Locality: Kramer deposit, Boron, Kern County, California, USA
Source: Rock Currier
Description: Colorless prismatic to tabular crystals
Measured chemistry: Ca_1.00_B_3.00_O_4_(OH)_3_Â·H_2_O ; trace amounts of Na; B assumed by stoichiometry and charge balance.
Raman shift (cm-1)	intensity
139.627	0
142.52	11.4285
145.413	41.5641
148.306	76.3235
151.198	76.2116
154.091	56.7138
156.984	36.7148
159.876	37.556
162.769	52.927
165.662	98.3408
168.554	166.497
171.447	217.637
174.34	279.791
177.233	303.161
180.125	209.952
183.018	104.072
185.911	42.5966
188.803	7.00696
191.696	10.571
194.589	15.3029
197.482	10.0472
200.374	4.74176
203.267	24.597
206.16	36.7415
209.052	49.4969
211.945	74.5614
214.838	110.673
217.73	157.584
220.623	206.457
223.516	218.157
226.409	168.6
229.301	116.761
232.194	85.3606
235.087	70.487
237.979	57.6976
240.872	53.2535
243.765	49.3363
246.657	46.9083
249.55	43.7789
252.443	42.0433
255.335	43.5193
258.228	61.0619
261.121	75.7905
264.014	93.3702
266.906	98.5738
269.799	93.0745
272.692	86.7664
275.584	71.1926
278.477	54.7848
281.37	42.4448
284.262	44.9553
287.155	34.1953
290.048	38.2734
292.941	50.4745
295.833	65.8003
298.726	87.8274
301.619	93.2943
304.511	112.806
307.404	133.048
310.297	140.163
313.19	137.446
316.082	150.639
318.975	182.739
321.868	202.169
324.76	194.576
327.653	149.85
330.546	96.28
333.438	49.5597
336.331	22.1157
339.224	4.21387
342.116	4.68799
345.009	4.95996
347.902	3.27722
350.795	3.66711
353.687	2.30695
356.58	4.55493
359.473	3.78638
362.365	5.20093
365.258	12.2817
368.151	19.228
371.043	28.7793
373.936	32.589
376.829	44.4016
379.721	59.6869
382.614	81.5889
385.507	113.908
388.4	120.759
391.292	89.4745
394.185	54.3683
397.078	31.5532
399.97	13.7147
402.863	10.5778
405.756	4.32636
408.649	0.796204
411.541	0.855103
414.434	4.07886
417.327	1.17041
420.219	1.72577
423.112	3.42639
426.005	5.54376
428.897	9.98816
431.79	9.92871
434.683	13.8177
437.575	19.9697
440.468	29.1916
443.361	35.7542
446.254	47.0939
449.146	56.4711
452.039	78.6477
454.932	97.2247
457.824	87.2779
460.717	69.968
463.61	54.0001
466.502	48.1207
469.395	52.0063
472.288	60.123
475.181	75.3574
478.073	95.0714
480.966	100.557
483.859	78.3628
486.751	43.7516
489.644	20.199
492.537	9.23438
495.43	2.0163
498.322	0.256958
501.215	5.66303
504.108	2.91846
507	5.961
509.893	3.33417
512.786	2.92212
515.678	4.52246
518.571	15.3612
521.464	27.8133
524.356	41.044
527.249	70.9603
530.142	107.036
533.034	140.255
535.927	148.653
538.82	124.689
541.713	90.8117
544.605	71.4529
547.498	71.1617
550.391	84.5926
553.283	111.898
556.176	145.826
559.069	206.84
561.962	289.704
564.854	360.8
567.747	307.601
570.64	183.572
573.532	108.293
576.425	75.425
579.318	51.4614
582.21	38.8175
585.103	38.9011
587.996	50.8101
590.889	79.9246
593.781	132.084
596.674	219.277
599.567	331.563
602.459	496.623
605.352	743.871
608.245	1075.88
611.137	1291.71
614.03	1013.61
616.923	544.518
619.816	282.018
622.708	159.764
625.601	90.4449
628.494	53.3355
631.386	30.0741
634.279	16.6962
637.172	4.9455
640.064	1.84564
642.957	7.42328
645.85	7.4151
648.742	2.16992
651.635	1.60333
654.528	12.1708
657.421	31.5008
660.313	60.9947
663.206	102.188
666.099	136.757
668.991	153.533
671.884	131.281
674.777	78.6318
677.669	42.7562
680.562	17.7777
683.455	6.81421
686.348	0.498657
689.24	2.63452
692.133	3.32251
695.026	5.76502
697.918	4.56097
700.811	3.53345
703.704	6.73303
706.596	6.41614
709.489	6.62085
712.382	10.6311
715.274	14.8371
718.167	19.026
721.06	19.9863
723.953	25.2681
726.845	31.4852
729.738	50.3389
732.631	80.4906
735.523	128.27
738.416	197.106
741.309	284.313
744.202	351.75
747.094	327.137
749.987	227.204
752.88	134.887
755.772	78.2653
758.665	44.0576
761.558	21.4742
764.45	7.23846
767.343	2.13354
770.236	0.339905
773.129	1.53149
776.021	3.99866
778.914	13.0405
781.807	35.5468
784.699	63.381
787.592	84.7003
790.485	69.3908
793.377	41.1747
796.27	19.435
799.163	10.2379
802.056	3.11798
804.948	5.22833
807.841	10.2928
810.734	20.4597
813.626	19.4705
816.519	5.63409
819.412	0.720032
822.304	2.78717
825.197	2.53217
828.09	9.42438
830.982	15.9186
833.875	28.2241
836.768	35.9289
839.661	39.0008
842.553	42.6913
845.446	37.2289
848.339	30.8116
851.231	25.7037
854.124	25.7435
857.017	25.9996
859.909	34.4656
862.802	40.4955
865.695	46.7242
868.588	53.1424
871.48	64.575
874.373	64.451
877.266	65.877
880.158	56.5162
883.051	45.4568
885.944	40.7472
888.837	27.1516
891.729	21.6493
894.622	16.8416
897.515	12.4972
900.407	8.83179
903.3	9.45666
906.193	7.14514
909.085	4.23059
911.978	4.24933
914.871	6.5628
917.763	2.22553
920.656	3.89972
923.549	1.79822
926.442	0.178284
929.334	0.98291
932.227	2.38281
935.12	0.144165
938.012	2.53333
940.905	3.21277
943.798	3.9649
946.69	6.25128
949.583	16.7293
952.476	18.1812
955.369	29.5463
958.261	34.4104
961.154	46.2688
964.047	58.1646
966.939	64.4468
969.832	66.5771
972.725	63.3748
975.617	61.639
978.51	52.3537
981.403	48.8344
984.295	46.4402
987.188	47.7481
990.081	53.1603
992.974	60.0652
995.866	64.1569
998.759	67.9415
1001.65	64.254
1004.54	51.1223
1007.44	32.7967
1010.33	24.282
1013.22	14.0887
1016.12	10.088
1019.01	4.89288
1021.9	0.781677
1024.79	5.18835
1027.69	2.75525
1030.58	0.69397
1033.47	0.550598
1036.36	1.95807
1039.26	7.17871
1042.15	7.78912
1045.04	12.7447
1047.93	20.8531
1050.83	40.3077
1053.72	66.4053
1056.61	87.4285
1059.51	109.213
1062.4	118.985
1065.29	120.834
1068.18	110.008
1071.08	93.5502
1073.97	77.6428
1076.86	74.9231
1079.76	74.5345
1082.65	65.5502
1085.54	56.5587
1088.43	44.5851
1091.33	35.1163
1094.22	23.455
1097.11	17.8343
1100	14.6207
1102.9	10.1071
1105.79	7.67627
1108.68	3.07117
1111.57	1.30981
1114.47	0.014099
1117.36	1.86017
1120.25	5.72388
1123.14	8.58734
1126.04	18.0602
1128.93	16.6045
1131.82	20.1456
1134.72	19.1056
1137.61	25.754
1140.5	29.2852
1143.39	33.5204
1146.29	37.7448
1149.18	37.0466
1152.07	33.9457
1154.96	40.9706
1157.86	33.1663
1160.75	37.3099
1163.64	28.1422
1166.54	27.8876
1169.43	23.0285
1172.32	14.6097
1175.21	12.564
1178.11	10.266
1181	10.2441
1183.89	12.1177
1186.78	4.98261
1189.68	2.47412
1192.57	2.64319
1195.46	3.54449
1198.36	4.98498
1201.25	2.41223
1204.14	1.72345
1207.03	1.17981
1209.93	0.583374
1212.82	1.77527
1215.71	3.12976
1218.6	1.6134
1221.5	1.23883
1224.39	6.26251
1227.28	6.84839
1230.17	10.0861
1233.07	11.5164
1235.96	12.6723
1238.85	16.6457
1241.75	19.486
1244.64	25.4808
1247.53	30.2142
1250.42	41.4179
1253.32	49.269
1256.21	51.065
1259.1	46.9396
1261.99	43.1703
1264.89	36.8922
1267.78	25.0254
1270.67	20.2861
1273.57	11.1484
1276.46	6.33423
1279.35	3.65564
1282.24	0.157593
1285.14	3.45624
1288.03	1.56042
1290.92	2.987
1293.81	1.14697
