Measurement: Raman, 532 nm, unoriented, Raman Data Processed
Mineral: Colinowensite
Rruff sample: R150109
Ideal chemistry: BaCu^2+^Si_2_O_6_
Locality: Synthetic
Source: Yan Chen and Shouhua Feng
Description: Purple powder
Raman shift (cm-1)	intensity
102.318	9.11255
105.693	2.81482
109.068	91.0964
112.443	81.4647
115.817	158.843
119.192	244.271
122.567	294.921
125.942	364.429
129.317	375.667
132.692	383.312
136.066	339.448
139.441	315.767
142.816	278.469
146.191	220.404
149.566	184.861
152.94	150.294
156.315	133.673
159.69	110.895
163.065	106.61
166.44	97.0245
169.815	87.1895
173.189	90.1932
176.564	94.4432
179.939	102.175
183.314	70.1552
186.689	24.1412
190.064	2.99127
193.438	7.90717
196.813	3.2092
200.188	0.298645
203.563	3.17053
206.938	4.2157
210.312	7.89539
213.687	14.4374
217.062	16.3591
220.437	17.4119
223.812	19.7183
227.186	20.7952
230.561	26.2896
233.936	26.6495
237.311	35.0319
240.686	41.0157
244.06	48.5909
247.435	61.2352
250.81	71.0965
254.185	81.1261
257.56	95.6459
260.935	113.15
264.309	127.574
267.684	127.602
271.059	124.459
274.434	107.477
277.809	86.3055
281.183	64.1037
284.558	46.9586
287.933	31.6307
291.308	19.8458
294.683	13.2061
298.058	8.26401
301.432	1.81174
304.807	0.145844
308.182	0.855347
311.557	0.502991
314.932	1.15158
318.307	0.808929
321.681	4.20502
325.056	11.0621
328.431	13.4206
331.806	20.9546
335.181	25.7639
338.555	34.9427
341.93	43.5621
345.305	45.7078
348.68	46.2547
352.055	42.0308
355.43	40.496
358.804	36.9925
362.179	34.7118
365.554	36.19
368.929	39.6711
372.304	38.0613
375.678	41.0678
379.053	34.4051
382.428	28.9985
385.803	19.7734
389.178	9.0119
392.553	3.40033
395.927	1.64893
399.302	5.22372
402.677	3.78854
406.052	1.70441
409.427	6.86792
412.801	13.1983
416.176	28.4931
419.551	42.3056
422.926	51.2893
426.301	59.8997
429.675	68.2277
433.05	73.0152
436.425	81.9072
439.8	92.4043
443.175	100.555
446.55	102.776
449.924	99.1838
453.299	95.4226
456.674	82.243
460.049	76.8867
463.424	68.1808
466.798	62.1598
470.173	64.3988
473.548	67.9208
476.923	75.1851
480.298	87.5355
483.673	108.193
487.047	132.728
490.422	159.216
493.797	184.459
497.172	207.18
500.547	221.927
503.921	230.735
507.296	224.169
510.671	199.615
514.046	163.794
517.421	120.994
520.795	85.077
524.17	55.2814
527.545	34.5399
530.92	19.2417
534.295	8.8078
537.67	0.138947
541.044	1.98474
544.419	3.49164
547.794	0.158234
551.169	0.596039
554.544	5.28214
557.918	14.0403
561.293	30.7122
564.668	56.0151
568.043	97.5649
571.418	160.53
574.793	241.193
578.167	320.445
581.542	370.87
584.917	337.897
588.292	240.52
591.667	150.632
595.042	90.6987
598.416	56.8306
601.791	35.676
605.166	19.9051
608.541	11.3272
611.916	9.5072
615.29	4.45254
618.665	1.0661
622.04	0.802002
625.415	1.28919
628.79	1.22891
632.164	1.27847
635.539	1.2301
638.914	0.845367
642.289	0.031311
645.664	3.01874
649.039	1.16727
652.413	0.77179
655.788	2.01895
659.163	3.73319
662.538	3.53598
665.913	4.79916
669.288	5.49316
672.662	4.93509
676.037	6.20184
679.412	8.52161
682.787	11.0936
686.162	12.2046
689.536	22.7884
692.911	20.6189
696.286	12.14
699.661	8.87363
703.036	3.39664
706.41	3.06714
709.785	5.74307
713.16	2.39597
716.535	3.23834
719.91	3.58243
723.284	2.14267
726.659	5.88013
730.034	2.96182
733.409	1.48886
736.784	4.4736
740.159	4.94885
743.533	8.69336
746.908	9.65436
750.283	10.6787
753.658	7.2865
757.033	9.4667
760.408	4.01697
763.782	4.80804
767.157	7.96997
770.532	5.65808
773.907	3.40375
777.282	3.31543
780.656	4.29767
784.031	4.45901
787.406	3.66257
790.781	5.11432
794.156	3.2471
797.53	3.10498
800.905	0.569916
804.28	0.379547
807.655	0.867859
811.03	0.274475
814.405	0.623444
817.779	1.89349
821.154	0.341705
824.529	1.03589
827.904	3.55835
831.279	5.17215
834.654	5.77924
838.028	2.99948
841.403	4.66892
844.778	4.69592
848.153	7.49936
851.528	7.81934
854.902	7.22916
858.277	8.18411
861.652	9.59878
865.027	6.36453
868.402	6.8721
871.777	6.23349
875.151	3.98282
878.526	2.11493
881.901	2.16864
885.276	0.276947
888.651	1.68469
892.025	1.19107
895.4	3.66452
898.775	0.819183
902.15	0.487274
905.525	0.30246
908.899	5.20282
912.274	6.922
915.649	6.94678
919.024	1.01993
922.399	4.91055
925.774	2.23636
929.148	2.40378
932.523	4.26895
935.898	4.89517
939.273	4.87009
942.648	4.58881
946.023	2.79388
949.397	3.04755
952.772	8.79895
956.147	11.0992
959.522	18.6864
962.896	21.2084
966.271	29.8178
969.646	48.4868
973.021	59.1411
976.396	70.1149
979.771	82.6818
983.145	85.4898
986.52	78.2032
989.895	63.851
993.27	45.4745
996.645	30.6999
1000.02	21.5545
1003.39	15.5775
1006.77	8.49994
1010.14	7.24704
1013.52	2.30887
1016.89	2.68289
1020.27	1.13739
1023.64	1.6218
1027.02	1.91165
1030.39	1.81369
1033.77	2.93601
1037.14	5.11279
1040.52	7.41931
1043.89	14.0211
1047.27	24.3922
1050.64	45.7182
1054.02	80.9067
1057.39	107.5
1060.77	43.5826
1064.14	19.8836
1067.52	16.4945
1070.89	14.552
1074.27	14.4943
1077.64	13.754
1081.02	12.7018
1084.39	15.6552
1087.77	18.1863
1091.14	13.7135
1094.51	12.6427
1097.89	12.5282
1101.26	8.53036
1104.64	5.51227
1108.01	1.94605
1111.39	5.91293
1114.76	2.79782
1118.14	1.85782
1121.51	3.27887
1124.89	4.29553
1128.26	0.051056
1131.64	0.014618
1135.01	1.11468
1138.39	2.44183
1141.76	2.64343
1145.14	2.64764
1148.51	2.7034
1151.89	4.29742
1155.26	2.41238
1158.64	0.191772
1162.01	1.27335
1165.38	2.89911
1168.76	3.72397
1172.13	2.86099
1175.51	1.72067
1178.88	6.29663
1182.26	4.39471
1185.63	2.4791
1189.01	2.34103
1192.38	8.03146
1195.76	1.78372
1199.13	5.01434
1202.51	1.13483
1205.88	2.45557
1209.26	1.5798
1212.63	2.95551
1216.01	1.3718
1219.38	1.20544
1222.76	3.37683
1226.13	0.744659
1229.51	2.32736
1232.88	1.01193
1236.26	1.0773
1239.63	2.98498
1243.01	2.673
1246.38	3.5415
1249.76	4.76074
1253.13	0.747101
1256.51	5.00204
1259.88	3.39829
1263.26	2.70535
1266.63	2.60529
1270.01	2.10803
1273.38	4.19785
1276.76	2.57422
1280.13	1.33844
1283.5	2.92297
1286.88	5.43402
1290.25	3.43109
1293.63	1.40555
1297	2.41196
1300.38	0.001068
