Measurement: Raman, 532 nm, unoriented, Raman Data Processed
Mineral: Collinsite
Rruff sample: R060140
Ideal chemistry: Ca_2_Mg(PO_4_)_2_2H_2_O
Locality: Big Fish River, Yukon Territory, Canada
Source: Mark Mauthner
Description: Platy, colorless fragment
Measured chemistry: darker phase:Ca_2.00_(Mg_0.63_Fe^2+^_0.34_Mn_0.03_)_Σ=1_(P_1.00_O_4_)_2_·2H_2_O ; lighter phase: Ca_2.00_(Mg_0.58_Fe^2+^_0.38_Mn_0.04_)_Σ=1_(P_1.00_O_4_)_2_·2H_2_O
Raman shift (cm-1)	intensity
136.065	0
139.44	2.74978
142.815	6.91787
146.189	13.944
149.564	31.4649
152.939	39.083
156.314	8.52743
159.689	1.50135
163.063	1.37179
166.438	14.8537
169.813	26.272
173.188	43.5076
176.563	69.8264
179.938	104.46
183.312	155.567
186.687	114.674
190.062	92.4061
193.437	90.0969
196.812	38.3736
200.186	20.8001
203.561	22.3097
206.936	26.5338
210.311	35.426
213.686	53.8454
217.06	75.267
220.435	52.8966
223.81	10.9074
227.185	1.5275
230.56	1.75229
233.935	2.10274
237.31	7.46616
240.684	16.1537
244.059	26.6078
247.434	36.2489
250.809	33.8518
254.184	25.9304
257.558	21.9681
260.933	17.7367
264.308	7.39738
267.683	3.67352
271.058	6.87477
274.433	14.7048
277.807	29.3057
281.182	46.2009
284.557	65.2789
287.932	90.0696
291.307	118.572
294.681	129.94
298.056	90.3406
301.431	43.3262
304.806	20.9998
308.181	13.3431
311.555	12.1933
314.93	14.6878
318.305	18.4357
321.68	23.9113
325.055	34.0789
328.43	37.2511
331.804	19.4658
335.179	6.03158
338.554	0.946272
341.929	0.735762
345.304	1.22023
348.679	1.71032
352.053	1.3049
355.428	0.981956
358.803	0.595592
362.178	0.548462
365.553	1.42312
368.928	3.25618
372.302	4.90997
375.677	7.18025
379.052	10.3114
382.427	14.359
385.802	19.8099
389.176	27.5916
392.551	38.3954
395.926	56.088
399.301	83.2184
402.676	123.762
406.05	176.105
409.425	238.577
412.8	317.878
416.175	398.212
419.55	424.884
422.925	393.399
426.299	363.281
429.674	342.443
433.049	269.616
436.424	183.379
439.799	144.297
443.174	142.119
446.548	155.404
449.923	182.013
453.298	189.391
456.673	147.85
460.048	88.3474
463.423	51.9964
466.797	31.0576
470.172	19.593
473.547	12.075
476.922	7.32899
480.297	5.19858
483.671	3.35121
487.046	1.81096
490.421	0.563377
493.796	0.024015
497.171	0.245516
500.546	0.286259
503.92	1.05971
507.295	0.787533
510.67	0.509012
514.045	0.575233
517.42	0.293619
520.794	0.355476
524.169	1.23874
527.544	2.03466
530.919	4.06895
534.294	6.59907
537.669	11.7302
541.043	21.5304
544.418	33.8689
547.793	46.5386
551.168	62.7316
554.543	77.1453
557.918	68.9969
561.292	40.104
564.667	22.5304
568.042	15.7192
571.417	13.1788
574.792	14.082
578.166	19.0856
581.541	29.8322
584.916	47.5071
588.291	67.7515
591.666	96.5303
595.04	128.809
598.415	122.927
601.79	70.3416
605.165	38.7551
608.54	20.5546
611.915	11.4214
615.289	6.58121
618.664	3.81691
622.039	2.09798
625.414	1.46189
628.789	0.829068
632.164	0.434252
635.538	0.349328
638.913	0.223155
642.288	0.036987
645.663	0.393351
649.038	0.202333
652.413	0.162487
655.787	0.121817
659.162	0.087583
662.537	0.339095
665.912	0.239264
669.287	0.088964
672.661	0.477655
676.036	0.367506
679.411	0.558291
682.786	0.921816
686.161	0.92489
689.535	1.24171
692.91	1.52658
696.285	3.08742
699.66	2.3735
703.035	3.04461
706.41	3.43211
709.784	4.10064
713.159	5.18882
716.534	7.20833
719.909	8.80886
723.284	10.8804
726.659	13.2007
730.033	15.0081
733.408	14.9647
736.783	12.0222
740.158	9.16644
743.533	6.63173
746.908	5.53289
750.282	4.63649
753.657	4.21382
757.032	3.91479
760.407	3.76505
763.782	3.39135
767.156	3.12388
770.531	2.84766
773.906	2.65009
777.281	2.05219
780.656	1.72318
784.03	1.45452
787.405	1.79973
790.78	1.16511
794.155	1.39871
797.53	0.729424
800.905	0.453808
804.279	0.148945
807.654	0.126387
811.029	0.148624
814.404	0.100538
817.779	0.182861
821.154	0.56897
824.528	1.21869
827.903	2.18659
831.278	3.53369
834.653	5.59995
838.028	8.10407
841.403	11.8277
844.777	14.6186
848.152	17.1482
851.527	17.9166
854.902	16.3873
858.277	13.8853
861.651	10.5231
865.026	7.25779
868.401	4.4317
871.776	2.20412
875.151	0.75042
878.525	0.073853
881.9	0.468239
885.275	0.328808
888.65	0.53899
892.025	0.610298
895.4	0.705284
898.774	0.363087
902.149	0.462299
905.524	1.44417
908.899	2.62091
912.274	6.08341
915.649	10.8059
919.023	17.7648
922.398	28.5615
925.773	44.9064
929.148	74.8788
932.523	141.631
935.898	347.209
939.272	700.711
942.647	1081.71
946.022	1763.73
949.397	2075.87
952.771	648.808
956.146	199.28
959.521	85.9746
962.896	46.448
966.271	31.3044
969.646	27.5678
973.02	31.2431
976.395	38.9275
979.77	42.8992
983.145	34.5916
986.52	23.0427
989.895	18.1167
993.269	21.9508
996.644	32.2749
1000.02	51.8917
1003.39	76.4231
1006.77	102.922
1010.14	101.477
1013.52	56.2176
1016.89	25.8024
1020.27	11.0026
1023.64	5.60785
1027.02	2.18154
1030.39	0.221258
1033.77	0.187323
1037.14	0.689201
1040.52	1.00736
1043.89	1.00525
1047.27	0.621683
1050.64	0.495743
1054.02	0.098738
1057.39	0.137072
1060.77	1.52062
1064.14	1.80386
1067.52	2.41833
1070.89	3.39109
1074.27	5.31841
1077.64	8.51218
1081.02	15.7002
1084.39	33.1607
1087.76	73.3474
1091.14	120.673
1094.51	192.85
1097.89	236.467
1101.26	106.656
1104.64	40.1158
1108.01	20.7496
1111.39	12.2833
1114.76	7.62423
1118.14	5.29431
1121.51	3.63717
1124.89	2.65903
1128.26	1.45472
1131.64	1.01043
1135.01	0.853033
1138.39	0.711503
1141.76	0.6685
1145.14	0.55791
1148.51	0.615577
1151.89	0.373409
1155.26	0.359904
1158.64	0.424294
1162.01	0.404801
1165.38	0.782267
1168.76	0.529644
1172.13	0.604635
1175.51	0.951813
1178.88	1.262
1182.26	1.86057
1185.63	1.44071
1189.01	1.82878
1192.38	2.21862
1195.76	2.1315
1199.13	2.16481
1202.51	2.0443
1205.88	2.02284
1209.26	1.60212
1212.63	1.44758
1216.01	0.85955
1219.38	0.617159
1222.76	0.368495
1226.13	0.523635
1229.51	0.176144
1232.88	0.049826
1236.26	0.478765
1239.63	0.091069
1243.01	0.063885
1246.38	0.102113
1249.76	0.195271
1253.13	0.300322
1256.51	0.681858
1259.88	0.759349
1263.26	0.926503
1266.63	0.900765
1270.01	1.00771
1273.38	1.15868
1276.75	0.39577
1280.13	0.406516
1283.5	0.294025
1286.88	0.890931
1290.25	0.225022
1293.63	0.425498
1297	0.338518
1300.38	0.017271
