Measurement: Raman, 780 nm, unoriented, Raman Data Processed
Mineral: Collinsite
Rruff sample: R120022
Ideal chemistry: Ca_2_Mg(PO_4_)_2_2H_2_O
Locality: Prinz von Hessen mine, Messel, Darmstadt, Hesse, Germany
Source: Dr. JÃ¼rgen Wachsmuth
Description: Radiating outward sprays of light brown, acircular crystals
Raman shift (cm-1)	intensity
96.4247	0
99.7995	96.1758
103.174	34.835
106.549	0.900391
109.924	10.0488
113.299	82.4619
116.674	193.67
120.048	384.835
123.423	768.515
126.798	471.519
130.173	94.5752
133.548	3.31738
136.923	10.5977
140.297	8.33594
143.672	30.0635
147.047	47.7803
150.422	127.666
153.797	143.375
157.171	42.248
160.546	3.87207
163.921	12.8955
167.296	9.16797
170.671	24.5742
174.046	86.6269
177.42	219.023
180.795	476.967
184.17	721.398
187.545	256.266
190.92	121.701
194.294	91.1904
197.669	42.0625
201.044	11.4951
204.419	45.1357
207.794	91.0019
211.168	203.294
214.543	373.301
217.918	575.761
221.293	350.334
224.668	116.864
228.043	32.4658
231.417	25.3916
234.792	17.0498
238.167	61.8652
241.542	41.0693
244.917	81.7549
248.292	116.178
251.666	75.459
255.041	59.8193
258.416	63.4004
261.791	48.6592
265.166	21.3047
268.54	11.6484
271.915	4.90039
275.29	4.2793
278.665	33.0498
282.04	73.6914
285.414	110.561
288.789	168.165
292.164	226.183
295.539	188.759
298.914	98.0576
302.288	26.0771
305.663	8.34863
309.038	2.26172
312.413	5.7666
315.788	11.8496
319.163	16.2539
322.537	47.0391
325.912	81.0234
329.287	76.5478
332.662	18.5576
336.037	12.2969
339.411	15.0127
342.786	3.0791
346.161	11.5791
349.536	21.96
352.911	4.44336
356.286	25.6191
359.66	7.56641
363.035	1.40234
366.41	5.38672
369.785	19.6211
373.16	1.48144
376.534	10.0322
379.909	6.51562
383.284	13.2559
386.659	14.0967
390.034	51.2832
393.409	53.2852
396.783	83.0889
400.158	108.936
403.533	136.515
406.908	201.886
410.283	272.829
413.658	410.666
417.032	555.422
420.407	604.144
423.782	564.423
427.157	534.157
430.532	526.448
433.906	436.621
437.281	306.39
440.656	207.534
444.031	199.432
447.406	208.505
450.781	212.34
454.155	204.736
457.53	167.912
460.905	124.28
464.28	98.0654
467.655	84.5723
471.029	62.5693
474.404	71.71
477.779	53.7637
481.154	43.4326
484.529	28.4033
487.904	21.8164
491.278	26.0059
494.653	13.0791
498.028	16.0684
501.403	0.001953
504.778	13.084
508.152	7.91894
511.527	14.0215
514.902	20.4863
518.277	0.375
521.652	5.96387
525.026	19.2402
528.401	1.03418
531.776	8.31836
535.151	8.23633
538.526	7.16894
541.9	26.5352
545.275	28.8838
548.65	72.9404
552.025	142.635
555.4	196.171
558.775	166.211
562.149	92.583
565.524	48.1846
568.899	44.7861
572.274	36.9102
575.649	36.0459
579.024	33.374
582.398	67.085
585.773	121.234
589.148	154.326
592.523	268.862
595.898	393.44
599.273	375.025
602.647	270.643
606.022	159.776
609.397	77.8799
612.772	46.0674
616.146	26.0615
619.521	16.748
622.896	7.20312
626.271	22.3721
629.646	18.498
633.021	16.3701
636.395	21.335
639.77	27.0352
643.145	24.6133
646.52	36.2578
649.895	34.2461
653.269	33.9971
656.644	16.876
660.019	18.7871
663.394	3.19043
666.769	5.92578
670.144	5.57324
673.518	12.9854
676.893	10.9111
680.268	11.6514
683.643	2.08203
687.018	12.2871
690.393	0.585938
693.767	1.125
697.142	4.08398
700.517	2.63574
703.892	6.93555
707.267	22.1846
710.641	27.3623
714.016	23.1777
717.391	10.9004
720.766	50.4385
724.141	51.0088
727.515	44.4492
730.89	74.8486
734.265	57.5869
737.64	48.3955
741.015	40.2256
744.39	47.835
747.764	26.7061
751.139	44.2588
754.514	13.9941
757.889	24.4492
761.264	20.3867
764.639	1.41016
768.013	2.09668
771.388	4.83887
774.763	6.95898
778.138	17.1299
781.513	17.0107
784.887	3.84375
788.262	9.08789
791.637	39.331
795.012	39.4043
798.387	27.8613
801.761	20.6953
805.136	15.957
808.511	41.706
811.886	34.959
815.261	28.9795
818.636	42.4346
822.01	42.0566
825.385	53.2881
828.76	45.1357
832.135	45.8945
835.51	52.2783
838.885	50.2959
842.259	70.1973
845.634	54.6963
849.009	48.8096
852.384	65.8603
855.759	46.6211
859.133	57.0254
862.508	58.4473
865.883	47.4248
869.258	41.916
872.633	40.2852
876.007	42.7256
879.382	27.4248
882.757	26.0708
886.132	30.0273
889.507	3.89941
892.881	19.7344
896.256	4.72754
899.631	2.65332
903.006	1.9292
906.381	1.26318
909.756	11.7119
913.13	16.1943
916.505	11.958
919.88	26.9868
923.255	30.6191
926.63	34.77
930.005	61.1494
933.379	111.273
936.754	197.259
940.129	418.168
943.504	933.038
946.879	2241
950.253	2587.6
953.628	735.113
957.003	252.117
960.378	126.837
963.753	43.1782
967.128	32.1299
970.502	0.240723
973.877	22.4214
977.252	3.896
980.627	15.1914
984.002	18.8091
987.376	0.683594
990.751	12.8735
994.126	20.7354
997.501	30.6602
1000.88	58.1504
1004.25	98.9273
1007.62	158.393
1011	144.43
1014.38	85.7407
1017.75	33.456
1021.12	20.8491
1024.5	3.90576
1027.87	2.45703
1031.25	19.2964
1034.62	20.2319
1038	20.6895
1041.37	5.34326
1044.75	3.03125
1048.12	0.914063
1051.5	11.5474
1054.87	6.65527
1058.25	4.71191
1061.62	13.4448
1065	7.25488
1068.37	26.2808
1071.75	43.8345
1075.12	38.5962
1078.5	32.6875
1081.87	44.9351
1085.25	78.8213
1088.62	149.854
1092	301.991
1095.37	582.129
1098.74	451.285
1102.12	169.085
1105.49	67.3301
1108.87	59.9199
1112.24	14.2622
1115.62	8.30566
1118.99	11.0938
1122.37	3.74756
1125.74	0.740723
1129.12	17.2905
1132.49	3.99902
1135.87	26.769
1139.24	13.7969
1142.62	22.1011
1145.99	34.5523
1149.37	47.71
1152.74	29.1206
1156.12	29.168
1159.49	47.8613
1162.87	52.9043
1166.24	61.6875
1169.62	61.3965
1172.99	69.0493
1176.37	62.0185
1179.74	59.6733
1183.12	54.7944
1186.49	55.999
1189.87	60.4688
1193.24	66.3701
1196.62	65.2178
1199.99	44.0732
1203.37	59.3296
1206.74	59.4141
1210.11	58.1558
1213.49	56.1299
1216.86	63.7144
1220.24	44.3716
1223.61	17.2412
1226.99	20.6606
1230.36	29.3921
1233.74	22.9956
1237.11	36.1514
1240.49	8.26416
1243.86	0.211426
1247.24	16.2129
1250.61	5.65234
1253.99	9.10205
1257.36	12.7817
1260.74	29.7876
1264.11	38.957
1267.49	32.9414
1270.86	29.709
1274.24	15.8838
1277.61	3.57275
1280.98	20.5347
1284.36	35.1768
