Measurement: Raman, 532 nm, unoriented, Raman Data Processed
Mineral: Collinsite
Rruff sample: R140626
Ideal chemistry: Ca_2_Mg(PO_4_)_2_2H_2_O
Locality: Near Milgun Station, Meekatharra Shire, Western Australia, Australia
Source: Rock Currier
Description: Colorless bladed to prismatic crystals with pointy ends. Associated with gordonite (R130671), montgomeryite (R140625), and hydroxylapatite (R140987).
Measured chemistry: Ca_2.01_Mg_1.06_(P_1.00_O_4_)_2_Â·2H_2_O trace Mn, Fe
Raman shift (cm-1)	intensity
91.7117	0
95.0865	0.983856
98.4613	4.39284
101.836	49.1148
105.211	39.3087
108.586	0.238602
111.961	11.3017
115.335	30.2405
118.71	58.3358
122.085	100.216
125.46	253.199
128.835	518.889
132.209	95.9955
135.584	21.9492
138.959	16.6138
142.334	21.618
145.709	27.331
149.084	52.0603
152.458	121.795
155.833	243.556
159.208	55.9939
162.583	2.20276
165.958	10.5191
169.333	0.750809
172.707	26.8449
176.082	52.0179
179.457	100.166
182.832	230.933
186.207	599.491
189.581	483.108
192.956	86.1397
196.331	44.143
199.706	24.009
203.081	26.983
206.455	62.9504
209.83	108.309
213.205	190.846
216.58	384.166
219.955	842.914
223.329	906.195
226.704	305.002
230.079	77.309
233.454	26.8727
236.829	16.7614
240.204	23.8477
243.578	50.2849
246.953	109.47
250.328	210.425
253.703	271.84
257.078	186.679
260.452	152.908
263.827	135.37
267.202	44.8088
270.577	9.23625
273.952	0.258652
277.327	1.93855
280.701	3.41299
284.076	14.6209
287.451	28.3259
290.826	52.4425
294.201	90.5924
297.575	130.862
300.95	103.187
304.325	36.0141
307.7	9.03693
311.075	1.21397
314.45	2.42677
317.824	3.92059
321.199	15.6461
324.574	37.4331
327.949	96.0575
331.324	190.176
334.699	159.869
338.073	48.6774
341.448	17.5991
344.823	6.83226
348.198	1.32527
351.573	1.23383
354.947	1.31838
358.322	1.14148
361.697	0.513153
365.072	0.390076
368.447	0.502335
371.822	0.790695
375.196	2.98924
378.571	5.9093
381.946	10.3095
385.321	14.4658
388.696	17.7439
392.07	21.3661
395.445	29.9084
398.82	45.1599
402.195	66.0241
405.57	102.967
408.945	159.533
412.319	241.484
415.694	372.939
419.069	554.383
422.444	676.422
425.818	589.624
429.193	476.426
432.568	462.392
435.943	411.307
439.318	265.174
442.693	172.376
446.067	137.784
449.442	132.067
452.817	152.592
456.192	159.719
459.567	109.858
462.942	59.6624
466.316	35.6252
469.691	23.3056
473.066	13.7382
476.441	9.18408
479.816	6.34882
483.19	3.88356
486.565	3.06532
489.94	1.93579
493.315	1.55649
496.69	0.471802
500.065	1.20079
503.439	0.171448
506.814	0.422043
510.189	1.48602
513.564	0.318542
516.939	0.912415
520.313	0.40889
523.688	1.06769
527.063	3.10226
530.438	5.22826
533.813	9.46216
537.188	12.5208
540.562	23.4461
543.937	40.65
547.312	68.0503
550.687	108.288
554.062	166.912
557.436	225.107
560.811	186.173
564.186	97.0474
567.561	57.1295
570.936	41.5308
574.311	40.1401
577.685	44.3429
581.06	56.7773
584.435	83.7427
587.81	129.756
591.185	193.6
594.559	297.204
597.934	448.58
601.309	513.344
604.684	393.037
608.059	255.484
611.433	122.096
614.808	59.9357
618.183	33.0832
621.558	18.5276
624.933	12.4258
628.308	8.80136
631.682	5.94521
635.057	3.2601
638.432	1.57788
641.807	0.391556
645.182	0.099579
648.557	0.714737
651.931	0.246384
655.306	0.29483
658.681	2.22263
662.056	1.21648
665.431	0.065628
668.805	0.123428
672.18	0.267899
675.555	0.570358
678.93	0.195465
682.305	2.79819
685.679	2.66116
689.054	2.68347
692.429	3.5166
695.804	5.44716
699.179	6.33608
702.553	6.27887
705.928	9.21309
709.303	10.014
712.678	11.5333
716.053	14.582
719.428	16.7423
722.802	21.7604
726.177	25.707
729.552	32.8005
732.927	35.0504
736.302	33.1059
739.677	29.9129
743.051	19.6801
746.426	17.0951
749.801	15.9353
753.176	13.8779
756.551	11.6148
759.925	9.50073
763.3	11.2145
766.675	8.0645
770.05	7.48018
773.425	6.96288
776.799	5.0567
780.174	4.59274
783.549	3.472
786.924	2.71379
790.299	3.70146
793.674	1.22632
797.048	0.580414
800.423	0.889877
803.798	0.408401
807.173	0.189423
810.548	0.536194
813.923	0.720627
817.297	1.01024
820.672	2.35017
824.047	1.8522
827.422	3.32132
830.797	4.53519
834.171	7.60638
837.546	10.9312
840.921	17.1284
844.296	26.4476
847.671	32.9663
851.045	40.9653
854.42	47.4583
857.795	40.7706
861.17	30.8425
864.545	18.361
867.92	8.23801
871.294	3.46442
874.669	0.912292
878.044	1.94626
881.419	0.424805
884.794	3.64383
888.168	3.78717
891.543	2.52243
894.918	0.965332
898.293	2.08563
901.668	2.82031
905.043	1.48401
908.417	0.647125
911.792	3.43787
915.167	11.094
918.542	21.5315
921.917	38.8903
925.291	60.1127
928.666	88.1437
932.041	136.732
935.416	238.122
938.791	503.858
942.165	1179.62
945.54	2324
948.915	5561.31
952.29	10125.6
955.665	2230.03
959.04	611.247
962.414	259.961
965.789	128.938
969.164	68.3288
972.539	42.0595
975.914	36.6133
979.288	40.1088
982.663	59.7728
986.038	60.4995
989.413	49.8991
992.788	61.0562
996.163	92.4481
999.537	162.016
1002.91	305.405
1006.29	590.463
1009.66	1129.03
1013.04	1235.39
1016.41	530.446
1019.79	214.35
1023.16	98.5088
1026.54	51.1149
1029.91	27.2094
1033.29	13.2584
1036.66	5.26721
1040.04	0.651276
1043.41	2.30692
1046.79	4.24954
1050.16	2.12421
1053.53	1.41269
1056.91	0.825928
1060.28	0.221649
1063.66	4.78287
1067.03	5.4267
1070.41	13.868
1073.78	16.3781
1077.16	28.7427
1080.53	46.4964
1083.91	82.4222
1087.28	180.923
1090.66	415.621
1094.03	809.828
1097.41	1829.91
1100.78	2070.28
1104.16	565.741
1107.53	217.815
1110.91	115.316
1114.28	68.3073
1117.66	45.1117
1121.03	31.6446
1124.41	21.3066
1127.78	14.36
1131.15	8.91367
1134.53	6.14841
1137.9	3.62891
1141.28	2.12994
1144.65	1.96008
1148.03	1.52445
1151.4	0.837738
1154.78	1.99728
1158.15	1.32852
1161.53	0.792877
1164.9	0.286621
1168.28	1.06125
1171.65	0.457062
1175.03	2.43774
1178.4	2.64804
1181.78	3.16568
1185.15	5.86716
1188.53	5.38339
1191.9	12.1722
1195.28	4.87302
1198.65	8.19693
1202.03	7.82605
1205.4	9.20538
1208.78	8.42892
1212.15	9.13116
1215.53	5.83164
1218.9	4.68961
1222.28	4.66855
1225.65	1.19962
1229.03	0.638428
1232.4	0.422638
1235.78	0.052673
1239.15	1.36069
1242.52	1.95319
1245.9	0.817719
1249.27	0.198151
1252.65	2.20184
1256.02	3.33582
1259.4	1.90326
1262.77	1.15253
1266.15	1.91837
1269.52	2.76895
1272.9	3.02582
1276.27	2.57819
1279.65	4.45935
1283.02	2.0592
1286.4	1.86194
1289.77	2.76404
1293.15	2.50458
1296.52	2.76196
1299.9	1.15677
