Measurement: Raman, 780 nm, unoriented, Raman Data Processed
Mineral: Collinsite
Rruff sample: R060140
Ideal chemistry: Ca_2_Mg(PO_4_)_2_2H_2_O
Locality: Big Fish River, Yukon Territory, Canada
Source: Mark Mauthner
Description: Platy, colorless fragment
Measured chemistry: darker phase:Ca_2.00_(Mg_0.63_Fe^2+^_0.34_Mn_0.03_)_Σ=1_(P_1.00_O_4_)_2_·2H_2_O ; lighter phase: Ca_2.00_(Mg_0.58_Fe^2+^_0.38_Mn_0.04_)_Σ=1_(P_1.00_O_4_)_2_·2H_2_O
Raman shift (cm-1)	intensity
135.898	0
138.791	0.214737
141.683	1.03679
144.576	2.9315
147.469	7.71557
150.362	23.6089
153.254	40.0771
156.147	16.5937
159.04	2.64013
161.932	0.60746
164.825	0.288143
167.718	2.55859
170.61	5.18099
173.503	11.5154
176.396	23.8755
179.288	49.7677
182.181	122.643
185.074	195.355
187.966	83.9412
190.859	38.5139
193.752	32.5931
196.645	16.0479
199.537	5.8857
202.43	2.25162
205.323	0.853043
208.215	2.41537
211.108	4.73038
214.001	12.9764
216.893	30.7448
219.786	43.4142
222.679	22.7415
225.572	5.65023
228.464	0.178465
231.357	1.1184
234.25	0.220821
237.142	2.07737
240.035	7.0698
242.928	14.5535
245.821	25.8857
248.713	35.8322
251.606	33.97
254.499	24.3454
257.391	17.4589
260.284	14.2644
263.177	8.74925
266.069	4.03246
268.962	1.60501
271.855	0.634008
274.748	1.02643
277.64	3.14374
280.533	6.56639
283.426	9.89539
286.318	15.5867
289.211	26.6331
292.104	42.4042
294.996	54.4822
297.889	45.1758
300.782	25.0391
303.675	12.0502
306.567	5.70938
309.46	3.11338
312.353	1.96263
315.245	1.78374
318.138	2.75692
321.031	5.82921
323.923	10.7337
326.816	20.5866
329.709	25.7865
332.601	15.0082
335.494	5.87522
338.387	2.48649
341.279	0.909185
344.172	0.368915
347.065	0.266145
349.958	0.355698
352.85	0.016683
355.743	0.203924
358.636	0.201396
361.528	0.988151
364.421	0.249937
367.314	0.243936
370.207	0.92842
373.099	0.894218
375.992	1.8822
378.885	2.35693
381.777	3.11035
384.67	4.33922
387.563	5.72855
390.455	7.10022
393.348	9.81605
396.241	12.7204
399.134	17.4198
402.026	23.9614
404.919	32.06
407.812	45.3234
410.704	62.4962
413.597	89.6295
416.49	123.528
419.382	145.813
422.275	139.659
425.168	120.228
428.06	115.884
430.953	115.483
433.846	97.1344
436.739	67.55
439.631	46.4415
442.524	37.4342
445.417	36.069
448.309	41.4264
451.202	52.1914
454.095	60.4676
456.988	52.727
459.88	34.4848
462.773	21.0787
465.666	13.6867
468.558	9.26656
471.451	5.88878
474.344	4.05401
477.236	2.44315
480.129	1.75108
483.022	1.79054
485.914	0.743896
488.807	0.181182
491.7	0.010874
494.592	0.318977
497.485	0.255559
500.378	0.37635
503.271	0.072019
506.163	0.120804
509.056	0.239574
511.949	0.009198
514.841	0.426698
517.734	0.147586
520.627	0.03862
523.519	0.046438
526.412	0.310201
529.305	0.114898
532.198	1.10285
535.09	1.37963
537.983	1.91935
540.876	2.95162
543.768	4.02246
546.661	6.2031
549.554	9.70017
552.447	16.3789
555.339	24.8755
558.232	27.6612
561.125	18.8604
564.017	11.5296
566.91	7.97774
569.803	6.20872
572.695	5.75102
575.588	6.35157
578.481	7.60175
581.374	9.62521
584.266	13.0768
587.159	19.268
590.052	28.9885
592.944	48.059
595.837	78.1075
598.73	86.4527
601.622	54.1469
604.515	30.1321
607.408	17.7283
610.301	10.1435
613.193	6.30618
616.086	3.67744
618.979	2.73874
621.871	1.76329
624.764	1.25767
627.657	0.749905
630.549	0.281832
633.442	0.337163
636.335	0.400648
639.227	0.171843
642.12	0.415603
645.013	0.001552
647.905	0.107729
650.798	0.309946
653.691	0.154575
656.584	0.28395
659.476	0.107527
662.369	0.017645
665.262	0.119553
668.154	0.002636
671.047	0.403625
673.94	0.293363
676.832	0.063017
679.725	0.225841
682.618	0.311276
685.511	0.42849
688.403	0.396544
691.296	0.419337
694.189	0.400718
697.081	0.35263
699.974	0.606665
702.867	0.865479
705.76	0.940029
708.652	1.1027
711.545	1.4472
714.438	1.43057
717.33	4.24251
720.223	2.37868
723.116	2.99284
726.008	4.06871
728.901	4.78264
731.794	5.93486
734.687	5.66279
737.579	4.84544
740.472	3.92125
743.365	2.75462
746.257	2.04602
749.15	1.83031
752.043	1.47606
754.935	1.12414
757.828	1.1789
760.721	0.882519
763.614	0.974042
766.506	0.902533
769.399	1.2239
772.292	0.144837
775.184	0.607438
778.077	0.619885
780.97	0.183904
783.862	0.483135
786.755	0.385363
789.648	0.533014
792.54	0.592126
795.433	0.069034
798.326	0.127478
801.218	0.380449
804.111	0.266888
807.004	0.098007
809.897	0.064982
812.789	0.111272
815.682	0.300669
818.575	0.117758
821.467	0.014957
824.36	0.294489
827.253	0.280775
830.145	0.638458
833.038	0.641994
835.931	0.994593
838.824	2.06557
841.716	2.00155
844.609	2.66954
847.502	3.71056
850.394	3.90835
853.287	4.2002
856.18	3.81181
859.072	3.46487
861.965	2.9354
864.858	2.21986
867.751	1.39013
870.643	1.12701
873.536	0.471518
876.429	0.20597
879.321	0.094773
882.214	0.018038
885.107	0.14445
888	1.26376
890.892	0.403028
893.785	0.060189
896.678	0.14785
899.57	0.366506
902.463	0.254107
905.356	0.592299
908.248	0.103226
911.141	0.895838
914.034	1.89287
916.927	3.04859
919.819	4.52737
922.712	6.82616
925.605	9.82678
928.497	14.238
931.39	22.5081
934.283	36.6048
937.175	65.4543
940.068	105.419
942.961	185.313
945.854	390.201
948.746	883.36
951.639	694.319
954.532	205.228
957.424	80.2862
960.317	40.9768
963.21	22.9652
966.102	15.3545
968.995	11.1475
971.888	9.76515
974.78	10.7339
977.673	13.0812
980.566	15.5815
983.458	13.3707
986.351	10.2803
989.244	7.1064
992.137	5.82523
995.029	6.66852
997.922	9.18788
1000.82	12.389
1003.71	19.624
1006.6	29.1341
1009.49	40.6048
1012.38	35.0531
1015.28	19.0163
1018.17	9.93669
1021.06	5.16245
1023.96	2.57929
1026.85	1.64653
1029.74	0.872478
1032.63	0.349085
1035.53	0.125065
1038.42	0.339752
1041.31	0.282814
1044.2	0.158016
1047.1	0.221627
1049.99	0.35187
1052.88	0.269681
1055.78	0.123667
1058.67	0.234399
1061.56	0.505475
1064.45	0.613301
1067.35	0.809884
1070.24	1.04002
1073.13	0.982232
1076.03	1.46119
1078.92	2.32127
1081.81	3.60473
1084.7	5.49434
1087.6	9.52534
1090.49	15.6954
1093.38	29.6604
1096.27	64.2323
1099.17	85.9926
1102.06	42.3111
1104.95	16.8412
1107.84	8.72147
1110.74	4.86367
1113.63	3.39897
1116.52	2.29738
1119.41	1.52505
1122.31	1.21549
1125.2	0.876426
1128.09	1.30236
1130.99	0.765993
1133.88	0.537648
1136.77	0.059864
1139.66	0.357039
1142.56	0.199873
1145.45	0.261905
1148.34	0.54396
1151.23	0.541758
1154.13	0.111388
1157.02	0.440319
1159.91	0.277549
1162.81	0.521498
1165.7	0.52168
1168.59	0.796415
1171.48	0.358982
1174.38	0.272071
1177.27	0.952088
1180.16	0.521973
1183.06	0.629946
1185.95	0.635819
1188.84	0.537724
1191.73	0.695878
1194.62	0.990801
1197.52	0.823413
1200.41	1.34576
1203.3	1.32069
1206.2	0.740845
1209.09	1.20602
1211.98	0.819572
1214.87	0.619655
1217.77	0.658515
1220.66	0.249002
1223.55	0.305368
1226.44	0.293744
1229.34	0.293608
1232.23	0.101921
1235.12	0.131541
1238.02	0.326866
1240.91	0.283219
1243.8	0.237447
1246.69	0.358081
1249.59	0.257881
1252.48	0.350719
1255.37	0.430544
1258.27	0.53546
1261.16	0.384661
1264.05	0.152144
1266.94	0.628029
1269.84	0.278905
1272.73	0.285643
1275.62	0.578156
1278.51	0.504079
1281.41	0.477098
1284.3	0.191063
