Measurement: Raman, 780 nm, unoriented, Raman Data Processed
Mineral: Collinsite
Rruff sample: R140626
Ideal chemistry: Ca_2_Mg(PO_4_)_2_2H_2_O
Locality: Near Milgun Station, Meekatharra Shire, Western Australia, Australia
Source: Rock Currier
Description: Colorless bladed to prismatic crystals with pointy ends. Associated with gordonite (R130671), montgomeryite (R140625), and hydroxylapatite (R140987).
Measured chemistry: Ca_2.01_Mg_1.06_(P_1.00_O_4_)_2_Â·2H_2_O trace Mn, Fe
Raman shift (cm-1)	intensity
97.3453	0
100.72	41.1128
104.095	48.1388
107.47	5.94873
110.845	0.696655
114.219	2.38708
117.594	15.7632
120.969	37.5901
124.344	101.745
127.719	226.613
131.094	46.6459
134.468	4.31598
137.843	0.112854
141.218	3.32959
144.593	7.37427
147.968	27.3809
151.342	68.7581
154.717	155.962
158.092	57.1883
161.467	2.78095
164.842	2.40106
168.216	3.6673
171.591	0.269836
174.966	5.29028
178.341	28.6462
181.716	86.4999
185.09	262.062
188.465	279.408
191.84	56.0598
195.215	29.847
198.59	16.7719
201.965	8.72247
205.339	13.4922
208.714	19.0771
212.089	41.7429
215.464	108.581
218.839	279.857
222.214	390.709
225.588	147.979
228.963	34.9119
232.338	11.3772
235.713	6.63702
239.088	4.21155
242.462	9.20776
245.837	22.0964
249.212	46.6878
252.587	69.1783
255.962	56.817
259.336	60.4052
262.711	74.8725
266.086	30.3472
269.461	6.79175
272.836	0.6297
276.211	1.91296
279.585	1.71643
282.96	0.75061
286.335	8.75848
289.71	22.5461
293.085	43.0732
296.459	73.8102
299.834	70.4985
303.209	32.7885
306.584	12.2003
309.959	6.43768
313.334	4.35162
316.708	5.09582
320.083	0.85675
323.458	6.01062
326.833	14.3709
330.207	44.2875
333.582	37.7841
336.957	13.8178
340.332	5.01666
343.707	2.67157
347.082	0.645752
350.456	1.18311
353.831	2.27893
357.206	2.61273
360.581	7.5033
363.956	0.731384
367.33	0.824768
370.705	2.81543
374.08	2.08234
377.455	1.80279
380.83	1.99011
384.205	6.94189
387.579	6.03198
390.954	6.22729
394.329	9.55682
397.704	9.17627
401.079	15.5676
404.453	19.4162
407.828	31.2747
411.203	49.4646
414.578	79.4919
417.953	131.548
421.327	183.792
424.702	185.153
428.077	193.858
431.452	246.313
434.827	260.737
438.202	165.719
441.576	93.05
444.951	62.0721
448.326	56.717
451.701	68.3763
455.076	79.6895
458.45	60.5062
461.825	34.506
465.2	23.3428
468.575	16.2673
471.95	15.468
475.325	11.0793
478.699	8.21307
482.074	6.23041
485.449	5.34912
488.824	8.13678
492.199	4.84576
495.573	2.55829
498.948	0.245544
502.323	2.75812
505.698	1.58343
509.073	0.066895
512.447	1.63245
515.822	4.47131
519.197	0.149841
522.572	1.59869
525.947	1.46905
529.322	2.66687
532.696	0.771362
536.071	1.23035
539.446	3.54633
542.821	3.46271
546.196	7.6355
549.57	11.8978
552.945	26.5158
556.32	41.3597
559.695	37.3984
563.07	19.9141
566.444	12.4039
569.819	8.80939
573.194	8.99573
576.569	8.67346
579.944	12.8343
583.319	15.0319
586.693	16.1915
590.068	27.1404
593.443	53.876
596.818	95.9658
600.193	134.422
603.567	136.416
606.942	106.465
610.317	59.6334
613.692	36.8351
617.067	25.5522
620.442	14.5926
623.816	12.6566
627.191	7.52435
630.566	3.18457
633.941	3.31085
637.316	2.99634
640.69	2.63812
644.065	2.45667
647.44	0.148438
650.815	4.21576
654.19	2.70825
657.564	1.35577
660.939	1.03717
664.314	1.28699
667.689	1.38061
671.064	0.0224
674.439	0.457275
677.813	0.62384
681.188	2.7243
684.563	1.39575
687.938	2.85535
691.313	5.89624
694.688	1.74219
698.062	5.01654
701.437	0.478088
704.812	0.032166
708.187	2.16425
711.562	2.42358
714.936	1.95978
718.311	8.45105
721.686	6.76386
725.061	7.5351
728.436	8.7887
731.81	13.8243
735.185	10.4242
738.56	10.7013
741.935	10.2042
745.31	4.01208
748.684	3.65863
752.059	1.14435
755.434	3.58026
758.809	1.88879
762.184	1.70532
765.559	1.09473
768.933	2.8548
772.308	3.35144
775.683	4.66486
779.058	0.806458
782.433	1.96112
785.808	0.741272
789.182	1.58832
792.557	0.981995
795.932	3.07733
799.307	6.46051
802.682	0.586914
806.056	1.88806
809.431	1.78076
812.806	1.08173
816.181	0.355103
819.556	6.36231
822.93	4.98682
826.305	3.07764
829.68	6.94537
833.055	6.44171
836.43	7.45282
839.804	11.1742
843.179	14.4792
846.554	19.341
849.929	23.2067
853.304	24.4959
856.679	25.0689
860.053	18.4072
863.428	12.4558
866.803	12.5214
870.178	9.30524
873.553	3.72357
876.927	3.16187
880.302	3.36822
883.677	5.30212
887.052	6.10254
890.427	2.88763
893.802	1.50006
897.176	0.426147
900.551	1.52966
903.926	0.450989
907.301	3.83032
910.676	2.40124
914.05	2.71838
917.425	7.14575
920.8	9.00537
924.175	7.401
927.55	13.1534
930.924	20.5737
934.299	31.4018
937.674	52.4797
941.049	102.094
944.424	255.112
947.799	796.963
951.173	1932.31
954.548	527.156
957.923	129.579
961.298	47.8151
964.673	21.7073
968.047	9.09277
971.422	4.51715
974.797	4.20831
978.172	6.79645
981.547	23.8845
984.922	20.8378
988.296	7.99896
991.671	3.23975
995.046	5.07251
998.421	9.94507
1001.8	25.1564
1005.17	52.7681
1008.54	121.829
1011.92	157.655
1015.29	74.4083
1018.67	28.7048
1022.04	9.88354
1025.42	8.02148
1028.79	1.36939
1032.17	0.553284
1035.54	1.5799
1038.92	1.27997
1042.29	0.531433
1045.67	1.00598
1049.04	2.51062
1052.42	0.091492
1055.79	1.74744
1059.17	3.55298
1062.54	1.68396
1065.92	1.53418
1069.29	6.07904
1072.67	2.33435
1076.04	5.26697
1079.42	5.65527
1082.79	11.2996
1086.17	19.9822
1089.54	45.9693
1092.92	100.965
1096.29	273.922
1099.66	376.745
1103.04	109.045
1106.41	41.3518
1109.79	25.5303
1113.16	10.495
1116.54	5.87054
1119.91	1.93799
1123.29	1.26489
1126.66	2.41193
1130.04	4.87329
1133.41	0.235229
1136.79	2.11005
1140.16	6.44934
1143.54	1.14429
1146.91	3.04437
1150.29	1.242
1153.66	0.997192
1157.04	1.02527
1160.41	4.10901
1163.79	6.68097
1167.16	4.59992
1170.54	4.29456
1173.91	9.98779
1177.29	4.14618
1180.66	3.64825
1184.04	5.52954
1187.41	4.10132
1190.79	3.38556
1194.16	4.01086
1197.54	5.90814
1200.91	6.69379
1204.28	9.96741
1207.66	3.60883
1211.03	1.93512
1214.41	2.98669
1217.78	0.95575
1221.16	1.17676
1224.53	6.4458
1227.91	6.54205
1231.28	2.67682
1234.66	2.17096
1238.03	1.09735
1241.41	0.348083
1244.78	2.0921
1248.16	0.497131
1251.53	0.815674
1254.91	1.95929
1258.28	3.10962
1261.66	2.07721
1265.03	9.0174
1268.41	2.00879
1271.78	2.22058
1275.16	0.822083
1278.53	1.21271
1281.9	3.4411
