Measurement: Raman, 780 nm, unoriented, Raman Data Processed
Mineral: Columbite-(Fe)
Rruff sample: R050348
Ideal chemistry: Fe^2+^Nb_2_O_6_
Locality: Lord Hill mine, Stoneham, Oxford County, Maine, USA
Source: California Institute of Technology
Description: Black fragment
Measured chemistry: (Fe^2+^_0.69_Mn^2+^_0.30_Ti_0.01_)(Nb_0.89_Ta_0.10_Ti_0.01_)_2_O_6_
Raman shift (cm-1)	intensity
95.4161	0
98.7909	4.1257
102.166	1.52534
105.541	3.44827
108.915	7.05611
112.29	11.6081
115.665	22.3502
119.04	31.4002
122.415	39.4421
125.79	47.0125
129.164	53.379
132.539	57.2178
135.914	53.3254
139.289	35.9782
142.664	19.5222
146.038	9.6367
149.413	1.90115
152.788	1.68216
156.163	0.654022
159.538	2.39161
162.912	0.574654
166.287	1.33623
169.662	1.23384
173.037	1.19
176.412	0.372307
179.786	0.500038
183.161	0.783218
186.536	2.89214
189.911	6.05418
193.286	6.15476
196.661	7.95836
200.035	10.5924
203.41	11.1639
206.785	11.7316
210.16	9.29198
213.535	5.71508
216.91	4.33858
220.284	3.1137
223.659	3.20522
227.034	5.18292
230.409	5.69588
233.784	7.48632
237.158	6.46163
240.533	9.0847
243.908	10.768
247.283	10.923
250.658	12.5063
254.032	12.3633
257.407	12.5679
260.782	14.9279
264.157	16.8574
267.532	17.0231
270.907	15.5151
274.281	16.1871
277.656	16.1512
281.031	15.3323
284.406	14.6665
287.781	11.4303
291.156	9.41782
294.53	8.08395
297.905	6.23327
301.28	6.3466
304.655	4.76703
308.03	3.90897
311.404	2.16383
314.779	2.09904
318.154	1.75526
321.529	0.471779
324.904	0.770836
328.279	0.954346
331.653	1.48098
335.028	0.962807
338.403	0.78299
341.778	0.16703
345.152	0.973724
348.527	1.18007
351.902	2.38084
355.277	3.2243
358.652	3.92079
362.027	6.60973
365.401	8.9199
368.776	10.4092
372.151	14.4708
375.526	19.2676
378.901	23.514
382.276	26.404
385.65	31.5623
389.025	32.6328
392.4	33.5795
395.775	31.4327
399.15	26.483
402.524	21.3016
405.899	17.5295
409.274	10.9358
412.649	9.74831
416.024	6.96302
419.399	3.47533
422.773	1.98948
426.148	1.8461
429.523	1.2086
432.898	1.40936
436.273	1.66936
439.647	1.65447
443.022	0.429474
446.397	0.551048
449.772	0.109222
453.147	0.180443
456.522	0.58712
459.896	1.14136
463.271	1.31956
466.646	0.957138
470.021	1.84726
473.396	1.96233
476.77	2.09834
480.145	2.31051
483.52	1.20622
486.895	3.49818
490.27	2.96813
493.644	3.2597
497.019	3.60423
500.394	5.41225
503.769	3.51181
507.144	7.45114
510.519	9.78542
513.893	10.7718
517.268	12.4367
520.643	13.9473
524.018	14.7588
527.393	15.0675
530.768	12.4862
534.142	8.981
537.517	9.319
540.892	6.4817
544.267	2.74663
547.641	3.59617
551.016	2.22157
554.391	0.834862
557.766	1.79868
561.141	0.81839
564.516	1.01111
567.89	0.559196
571.265	1.01266
574.64	0.623299
578.015	0.383453
581.39	0.387016
584.764	0.469398
588.139	0.75032
591.514	0.888046
594.889	1.76528
598.264	2.05294
601.639	2.29103
605.013	3.31653
608.388	2.86849
611.763	4.51612
615.138	4.24355
618.513	4.39459
621.888	5.34771
625.262	6.91434
628.637	7.34847
632.012	6.86898
635.387	5.97154
638.761	6.66673
642.136	6.07274
645.511	5.09703
648.886	5.30706
652.261	4.0673
655.636	4.17818
659.01	3.53979
662.385	2.98859
665.76	2.95017
669.135	1.07442
672.51	0.900299
675.885	2.57809
679.259	1.78234
682.634	0.317604
686.009	1.19508
689.384	1.80056
692.759	0.315956
696.133	1.1751
699.508	1.20613
702.883	0.973328
706.258	0.443733
709.633	0.150902
713.008	0.146317
716.382	1.38144
719.757	0.472084
723.132	1.68162
726.507	0.637016
729.882	1.55924
733.256	0.490974
736.631	0.329224
740.006	1.16963
743.381	0.32415
746.756	0.535637
750.13	0.399666
753.505	0.286156
756.88	0.27771
760.255	0.635719
763.63	2.10832
767.005	0.67263
770.379	2.05862
773.754	0.943863
777.129	1.52516
780.504	1.07066
783.879	0.795288
787.254	1.45738
790.628	2.13949
794.003	2.57445
797.378	4.45815
800.753	4.45666
804.128	5.63422
807.502	7.68041
810.877	9.5192
814.252	12.3326
817.627	14.3849
821.002	16.4852
824.376	17.575
827.751	19.5367
831.126	20.416
834.501	23.7455
837.876	27.4883
841.25	32.1983
844.625	39.9632
848	49.5852
851.375	61.8827
854.75	82.8939
858.125	105.284
861.5	130.157
864.874	151.588
868.249	159.419
871.624	152.6
874.999	129.213
878.374	96.6425
881.748	62.9759
885.123	41.0408
888.498	24.3759
891.873	16.0375
895.248	11.2404
898.622	6.02578
901.997	3.14573
905.372	1.51111
908.747	0.216278
912.122	0.827679
915.496	1.36524
918.871	0.416801
922.246	0.328888
925.621	0.301258
928.996	0.727245
932.37	0.695705
935.745	1.6686
939.12	1.36466
942.495	0.625809
945.87	0.323483
949.245	1.86148
952.619	0.778122
955.994	0.798313
959.369	2.74973
962.744	1.8501
966.119	2.66009
969.494	3.15484
972.868	2.52755
976.243	3.05864
979.618	2.15198
982.993	3.16968
986.368	1.8765
989.742	3.10711
993.117	1.91354
996.492	3.58518
999.867	2.65278
1003.24	1.51996
1006.62	1.77087
1009.99	2.42561
1013.37	2.48826
1016.74	2.4376
1020.12	2.1493
1023.49	2.48774
1026.87	0.978111
1030.24	1.29998
1033.62	1.39856
1036.99	2.12348
1040.37	1.06455
1043.74	1.50384
1047.11	1.13502
1050.49	2.19934
1053.86	2.13671
1057.24	1.46328
1060.61	1.21496
1063.99	0.298292
1067.36	0.812338
1070.74	1.12324
1074.11	1.07597
1077.49	0.097588
1080.86	0.086273
1084.24	0.920147
1087.61	0.799395
1090.99	1.81253
1094.36	0.767046
1097.74	0.613472
1101.11	0.445789
1104.49	0.139078
1107.86	0.617357
1111.24	0.191534
1114.61	0.107204
1117.98	0.446312
1121.36	0.279577
1124.73	1.06753
1128.11	1.55656
1131.48	0.900358
1134.86	0.993668
1138.23	1.12676
1141.61	0.072611
1144.98	1.03832
1148.36	1.27398
1151.73	1.0901
1155.11	1.06778
1158.48	1.71295
1161.86	0.853809
1165.23	0.429516
1168.61	0.500565
1171.98	1.65845
1175.36	1.04452
1178.73	1.0731
1182.11	0.666809
1185.48	0.423498
1188.86	1.73591
1192.23	0.279743
1195.61	0.479597
1198.98	1.82666
1202.36	0.945616
1205.73	0.259405
1209.11	0.72748
1212.48	1.85698
1215.86	0.731865
1219.23	1.0024
1222.61	0.614325
1225.98	1.17629
1229.35	1.19782
1232.73	0.095798
1236.1	0.23547
1239.48	0.208164
1242.85	1.18726
1246.23	1.4318
1249.6	0.790152
1252.98	1.04361
1256.35	0.107069
1259.73	0.296278
1263.1	0.56102
1266.48	0.778627
1269.85	0.785173
1273.23	0.609838
1276.6	1.50557
1279.98	1.45654
1283.35	1.15175
