Measurement: Raman, 780 nm, unoriented, Raman Data Processed
Mineral: Columbite-(Fe)
Rruff sample: R060001
Ideal chemistry: Fe^2+^Nb_2_O_6_
Locality: Gypsy mine, Minas Gerais, Brazil
Source: Eric Van Valkenburg
Description: Steel gray fragment with internal red hints
Measured chemistry: (Fe^2+^_0.52_Mn^2+^_0.48_)_Σ=1_(Nb_1.61_Ta_0.39_)_Σ=2_O_6_
Raman shift (cm-1)	intensity
110.42	0
113.795	19.5696
117.17	31.7819
120.544	44.8246
123.919	80.5167
127.294	115.286
130.669	147.232
134.044	177.11
137.418	156.238
140.793	91.947
144.168	39.7968
147.543	15.6757
150.918	4.31699
154.292	0.99884
157.667	5.65643
161.042	0.829102
164.417	6.3996
167.792	12.539
171.167	28.3198
174.541	40.1812
177.916	37.822
181.291	26.6261
184.666	22.4639
188.041	17.6872
191.416	22.4813
194.79	34.6548
198.165	41.3435
201.54	52.7142
204.915	57.2187
208.29	51.8397
211.664	32.4547
215.039	23.5704
218.414	6.24869
221.789	2.69083
225.164	10.607
228.538	12.935
231.913	19.6667
235.288	25.853
238.663	35.2985
242.038	40.136
245.413	44.1679
248.787	43.297
252.162	43.8312
255.537	47.4131
258.912	52.3215
262.287	59.007
265.661	61.2314
269.036	46.1871
272.411	40.1961
275.786	32.3646
279.161	28.5922
282.536	21.0693
285.91	21.7639
289.285	15.1921
292.66	8.94058
296.035	5.35574
299.41	4.10574
302.784	5.79431
306.159	0.561249
309.534	0.430115
312.909	3.48773
316.284	6.824
319.659	4.78458
323.033	2.54654
326.408	1.70483
329.783	3.80844
333.158	2.92194
336.533	0.213501
339.907	0.815399
343.282	3.5968
346.657	7.67825
350.032	11.2613
353.407	16.5416
356.781	19.1347
360.156	23.1905
363.531	22.3202
366.906	26.8546
370.281	29.6133
373.656	32.2424
377.03	40.8403
380.405	47.3969
383.78	57.6039
387.155	65.5184
390.53	72.986
393.904	72.5337
397.279	72.9229
400.654	58.6077
404.029	44.0877
407.404	34.9254
410.779	21.1599
414.153	16.3443
417.528	12.6457
420.903	7.43133
424.278	3.86493
427.653	1.18088
431.027	4.92615
434.402	1.14963
437.777	2.47476
441.152	1.63763
444.527	0.423218
447.902	0.838593
451.276	4.69528
454.651	1.25107
458.026	0.79248
461.401	4.64514
464.776	3.27536
468.151	3.56384
471.525	5.22708
474.9	8.142
478.275	8.34595
481.65	9.06802
485.024	8.48779
488.399	9.11056
491.774	9.3595
495.149	4.73059
498.524	9.18665
501.899	8.37058
505.273	9.43436
508.648	16.1223
512.023	17.0546
515.398	21.968
518.773	29.0934
522.148	38.9507
525.522	44.8435
528.897	44.3995
532.272	45.9241
535.647	35.8946
539.022	35.3092
542.396	22.7932
545.771	20.5901
549.146	20.7994
552.521	13.4355
555.896	9.1304
559.27	3.87738
562.645	0.478973
566.02	1.99841
569.395	0.30014
572.77	1.96478
576.145	2.14166
579.519	0.950195
582.894	3.37811
586.269	7.13959
589.644	9.14557
593.019	9.30514
596.394	12.9846
599.768	13.1161
603.143	14.2881
606.518	16.2672
609.893	16.8953
613.268	14.9139
616.642	14.0631
620.017	13.2892
623.392	16.2312
626.767	12.1894
630.142	11.6397
633.516	13.9329
636.891	14.4162
640.266	13.5714
643.641	12.5377
647.016	12.6902
650.391	13.0525
653.765	16.8208
657.14	12.7022
660.515	11.5377
663.89	9.70859
667.265	7.1105
670.639	6.83157
674.014	7.40012
677.389	5.0936
680.764	4.92313
684.139	3.88693
687.514	1.45032
690.888	1.04181
694.263	3.00476
697.638	1.40497
701.013	1.47311
704.388	2.52142
707.763	0.750122
711.137	3.42764
714.512	0.369568
717.887	3.48941
721.262	0.05368
724.636	1.95178
728.011	0.318237
731.386	1.72775
734.761	3.7019
738.136	6.65466
741.511	4.66666
744.885	8.66412
748.26	7.94919
751.635	14.6726
755.01	17.3606
758.385	18.6365
761.76	21.7337
765.134	21.1687
768.509	20.4982
771.884	24.8399
775.259	25.7273
778.634	28.1924
782.008	24.5086
785.383	28.2459
788.758	25.8021
792.133	25.3996
795.508	22.969
798.883	25.6452
802.257	21.7699
805.632	22.4118
809.007	25.8045
812.382	30.1234
815.757	35.3328
819.131	38.3395
822.506	44.9698
825.881	52.5463
829.256	56.9002
832.631	72.8847
836.005	84.7316
839.38	98.4013
842.755	120.886
846.13	146.665
849.505	185.062
852.88	233.773
856.254	299.34
859.629	381.321
863.004	480.407
866.379	590.629
869.754	693.274
873.128	737.459
876.503	667.451
879.878	510.496
883.253	333.006
886.628	198.317
890.003	109.259
893.377	62.2069
896.752	33.7946
900.127	19.0463
903.502	7.05032
906.877	1.92439
910.251	6.59915
913.626	6.9846
917.001	6.13815
920.376	0.97435
923.751	2.82465
927.125	0.877411
930.5	3.94946
933.875	5.64868
937.25	7.72566
940.625	4.99457
944	8.74651
947.374	12.3563
950.749	12.9893
954.124	16.7335
957.499	16.4211
960.874	18.4001
964.249	20.5283
967.623	19.9907
970.998	19.9612
974.373	19.2949
977.748	12.9599
981.123	13.2959
984.497	13.5926
987.872	10.9707
991.247	11.8985
994.622	10.1941
997.997	9.35977
1001.37	10.4727
1004.75	10.0096
1008.12	10.0186
1011.5	7.38377
1014.87	8.50575
1018.25	8.24359
1021.62	6.46549
1024.99	7.48567
1028.37	5.30704
1031.74	6.2639
1035.12	5.5378
1038.49	3.76163
1041.87	4.75218
1045.24	6.14671
1048.62	3.9704
1051.99	2.08664
1055.37	5.47183
1058.74	3.62383
1062.12	3.03398
1065.49	3.66975
1068.87	1.02411
1072.24	4.24002
1075.62	1.08743
1078.99	3.1801
1082.37	1.90785
1085.74	0.443436
1089.12	1.37472
1092.49	0.68161
1095.87	3.25563
1099.24	0.53627
1102.62	1.4035
1105.99	1.23207
1109.37	0.107605
1112.74	0.134689
1116.12	3.67886
1119.49	0.489639
1122.87	1.57417
1126.24	3.76825
1129.62	1.42241
1132.99	0.120972
1136.36	2.45105
1139.74	2.70938
1143.11	1.16158
1146.49	2.02094
1149.86	1.88037
1153.24	1.52483
1156.61	1.57231
1159.99	3.70308
1163.36	3.48215
1166.74	1.8535
1170.11	2.58344
1173.49	0.465591
1176.86	2.26118
1180.24	1.48695
1183.61	1.32458
1186.99	5.15575
1190.36	3.96577
1193.74	0.239243
1197.11	2.83153
1200.49	2.77071
1203.86	2.37633
1207.23	0.99382
1210.61	4.40346
1213.98	4.39777
1217.36	1.56268
1220.73	3.43625
1224.11	3.54082
1227.48	2.89059
1230.86	3.29407
1234.23	3.19392
1237.61	2.72247
1240.98	3.61537
1244.36	2.04776
1247.73	2.81838
1251.11	0.309326
1254.48	4.25746
1257.86	3.45291
1261.23	1.19466
1264.61	2.66669
1267.98	2.358
1271.36	3.24361
1274.73	1.62822
1278.11	2.53241
1281.48	0.050766
1284.86	0.04126
1288.23	0
