Measurement: Raman, 532 nm, unoriented, Raman Data Processed
Mineral: Colusite
Rruff sample: R070568
Ideal chemistry: Cu_12_VAs_3_S_16_
Locality: East Colusa mine, Butte, Silver Bow County, Montana, USA
Source: James Shigley
Description: Metallic bronze massive associated with quartz and pyrite
Raman shift (cm-1)	intensity
134.6	0
137.975	116.281
141.349	250.582
144.724	340.147
148.099	329.183
151.474	273.964
154.849	111.53
158.224	112.971
161.598	14.5791
164.973	31.1443
168.348	7.56689
171.723	66.978
175.098	82.5149
178.472	176.748
181.847	306.994
185.222	445.109
188.597	609.114
191.972	629.839
195.346	672.779
198.721	677.09
202.096	708.58
205.471	617.328
208.846	509.107
212.221	363.854
215.595	216.283
218.97	77.1973
222.345	56.4524
225.72	25.3818
229.095	53.7151
232.47	42.2446
235.844	13.3179
239.219	3.54932
242.594	45.437
245.969	167.499
249.344	192.92
252.718	307.231
256.093	527.93
259.468	652.74
262.843	831.161
266.218	908.445
269.592	966.391
272.967	965.841
276.342	896.284
279.717	726.533
283.092	609.883
286.467	471.744
289.841	305.072
293.216	178.31
296.591	133.102
299.966	56.708
303.341	0.214844
306.716	18.2263
310.09	25.7454
313.465	80.6025
316.84	135.068
320.215	330.96
323.59	618.587
326.964	877.198
330.339	1198.06
333.714	1238.35
337.089	1062.08
340.464	741.745
343.839	417.181
347.213	240.01
350.588	129.168
353.963	156.609
357.338	322.768
360.713	513.188
364.087	854.16
367.462	1245.88
370.837	1519.16
374.212	1563.93
377.587	1569.12
380.962	1631.45
384.336	1965.96
387.711	2284.99
391.086	2781.49
394.461	3226.02
397.836	3573.07
401.21	3262.73
404.585	2372.1
407.96	1284.46
411.335	620.188
414.71	219.495
418.084	57.1948
421.459	28.8325
424.834	49.292
428.209	32.5254
431.584	20.291
434.959	118.53
438.333	198.977
441.708	463.625
445.083	589.846
448.458	819.047
451.833	676.014
455.207	469.41
458.582	286.414
461.957	257.593
465.332	222.921
468.707	146.325
472.082	180.452
475.456	105.545
478.831	101.141
482.206	87.2629
485.581	41.9949
488.956	26.3377
492.33	17.2839
495.705	10.3521
499.08	16.4231
502.455	60.4124
505.83	42.9568
509.205	58.7932
512.579	74.904
515.954	78.6714
519.329	81.4744
522.704	75.0188
526.079	56.2632
529.453	37.9294
532.828	68.2437
536.203	30.9058
539.578	74.4822
542.953	23.5718
546.328	16.7219
549.702	8.13916
553.077	50.2082
556.452	37.562
559.827	12.835
563.202	7.20239
566.577	2.90991
569.951	17.0435
573.326	34.5588
576.701	25.7161
580.076	23.0574
583.451	44.0525
586.825	17.3088
590.2	34.0818
593.575	58.1763
596.95	18.7752
600.325	30.7427
603.699	48.1792
607.074	37.7954
610.449	47.895
613.824	26.1523
617.199	0.920898
620.573	53.7842
623.948	35.833
627.323	64.6057
630.698	58.4915
634.073	86.1538
637.448	81.7981
640.822	140.786
644.197	133.815
647.572	153.819
650.947	195.629
654.322	215.716
657.697	278.697
661.071	258.91
664.446	257.886
667.821	250.15
671.196	195.339
674.571	193.742
677.946	112.149
681.32	105.517
684.695	84.9141
688.07	41.3411
691.445	64.0762
694.82	67.0134
698.194	55.3
701.569	81.0251
704.944	50.5979
708.319	42.3237
711.694	39.9077
715.068	25.532
718.443	17.0801
721.818	34.509
725.193	44.9133
728.568	14.2405
731.943	26.5989
735.317	2.62573
738.692	26.6077
742.067	36.8013
745.442	45.0835
748.817	43.9631
752.192	14.7612
755.566	12.208
758.941	15.6834
762.316	27.8103
765.691	48.54
769.066	74.0808
772.44	73.145
775.815	16.3071
779.19	35.5139
782.565	70.5278
785.94	51.907
789.314	20.3069
792.689	76.0293
796.064	2.4939
799.439	15.9856
802.814	16.5142
806.188	27.7571
809.563	13.1726
812.938	25.5146
816.313	3.84448
819.688	9.17944
823.063	3.22217
826.438	26.5425
829.812	77.8245
833.187	52.592
836.562	24.1265
839.937	32.8484
843.312	38.1921
846.686	28.4023
850.061	33.8
853.436	36.4077
856.811	29.0791
860.186	7.05151
863.561	6.68164
866.935	15.1096
870.31	39.3491
873.685	37.8586
877.06	44.1179
880.435	13.8501
883.809	4.3291
887.184	21.6455
890.559	11.4033
893.934	26.292
897.309	23.2251
900.683	23.4065
904.058	22.1824
907.433	0.131836
910.808	33.0371
914.183	4.76685
917.558	27.666
920.932	5.80176
924.307	23.084
927.682	23.6995
931.057	61.8066
934.432	40.8906
937.807	4.50561
941.181	40.1465
944.556	12.447
947.931	50.8062
951.306	29.1975
954.681	5.52246
958.055	35.6472
961.43	13.0342
964.805	78.6697
968.18	72.7358
971.555	53.4827
974.929	62.9622
978.304	74.5493
981.679	27.2852
985.054	50.5137
988.429	64.7175
991.804	45.3005
995.178	64.0803
998.553	25.1731
1001.93	43.594
1005.3	46.6797
1008.68	65.0247
1012.05	43.6902
1015.43	58.5181
1018.8	51.4395
1022.18	5.50561
1025.55	24.8943
1028.93	6.80005
1032.3	26.9255
1035.68	42.6728
1039.05	62.2742
1042.43	22.8772
1045.8	37.8823
1049.17	18.377
1052.55	37.062
1055.92	12.3621
1059.3	23.6213
1062.67	62.0154
1066.05	23.5054
1069.42	4.95752
1072.8	24.1311
1076.17	71.6128
1079.55	1.65772
1082.92	26.852
1086.3	34.6912
1089.67	1.94995
1093.05	32.7334
1096.42	26.6177
1099.8	21.626
1103.17	14.8301
1106.55	20.2097
1109.92	59.363
1113.3	29.8962
1116.67	38.4419
1120.05	45.7078
1123.42	2.8811
1126.8	28.8997
1130.17	63.6387
1133.55	55.374
1136.92	56.489
1140.3	48.7197
1143.67	19.6457
1147.05	35.844
1150.42	75.7053
1153.8	19.2239
1157.17	42.8635
1160.54	31.8806
1163.92	42.8516
1167.29	50.0583
1170.67	37.9934
1174.04	20.3181
1177.42	53.6794
1180.79	28.9011
1184.17	38.3325
1187.54	35.8059
1190.92	89.9827
1194.29	12.7466
1197.67	4.12109
1201.04	1.44946
1204.42	32.7864
1207.79	7.04053
1211.17	54.0425
1214.54	34.4898
1217.92	12.6296
1221.29	23.9421
1224.67	34.2759
1228.04	17.875
1231.42	66.75
1234.79	42.3276
1238.16	80.2427
1241.54	35.8176
1244.91	35.1238
1248.29	49.8743
1251.66	59.1914
1255.04	36.1848
1258.41	8.93652
1261.79	46.6028
1265.16	44.363
1268.54	47.385
1271.91	54.2859
1275.29	63.5017
1278.66	8.49512
1282.04	11.343
1285.41	11.1174
1288.79	38.0549
1292.16	0
