Measurement: Raman, 785 nm, unoriented, Raman Data Processed
Mineral: Colusite
Rruff sample: R070568
Ideal chemistry: Cu_12_VAs_3_S_16_
Locality: East Colusa mine, Butte, Silver Bow County, Montana, USA
Source: James Shigley
Description: Metallic bronze massive associated with quartz and pyrite
Raman shift (cm-1)	intensity
133.142	0
136.035	145.194
138.928	22.8667
141.821	25.5935
144.713	129.636
147.606	344.769
150.499	573.993
153.391	560.761
156.284	366.238
159.177	252.312
162.069	185.273
164.962	125.264
167.855	52.1106
170.748	37.614
173.64	21.3218
176.533	49.0327
179.426	123.779
182.318	192.373
185.211	228.652
188.104	224.749
190.996	190.036
193.889	202.053
196.782	201.44
199.674	216.041
202.567	167.801
205.46	119.863
208.353	139.86
211.245	34.0314
214.138	2.29309
217.031	23.0995
219.923	45.4143
222.816	28.0775
225.709	77.3132
228.601	23.4385
231.494	13.1136
234.387	18.3694
237.28	45.3057
240.172	47.5801
243.065	115.835
245.958	183.969
248.85	295.395
251.743	386.779
254.636	495.529
257.529	650.836
260.421	736.81
263.314	842.665
266.207	916.092
269.099	959.684
271.992	976.011
274.885	872.369
277.777	764.951
280.67	604.072
283.563	536.393
286.455	477.883
289.348	483.975
292.241	510.01
295.134	580.165
298.026	680.807
300.919	858.481
303.812	1116.75
306.704	1548.38
309.597	2073.12
312.49	2968
315.382	4341.58
318.275	5958.97
321.168	7862.16
324.061	9889.94
326.953	10644.8
329.846	9021.65
332.739	6030.19
335.631	3416.34
338.524	1748.84
341.417	831.867
344.31	323.751
347.202	48.2739
350.095	11.0884
352.988	10.4355
355.88	166.181
358.773	374.28
361.666	580.565
364.558	757.994
367.451	926.888
370.344	947.091
373.236	797.393
376.129	680.765
379.022	493.019
381.915	351.666
384.807	348.968
387.7	398.917
390.593	518.697
393.485	528.573
396.378	569.183
399.271	543.236
402.163	341.997
405.056	173.362
407.949	27.1647
410.842	11.1883
413.734	26.6821
416.627	27.0507
419.52	32.3683
422.412	23.6996
425.305	30.2769
428.198	12.2557
431.091	48.6152
433.983	82.7852
436.876	131.319
439.769	223.774
442.661	294.789
445.554	300.306
448.447	281.272
451.339	268.608
454.232	231.354
457.125	214.967
460.018	165.68
462.91	146.752
465.803	145.067
468.696	142.316
471.588	151.092
474.481	140.827
477.374	143.432
480.267	118.584
483.159	95.2539
486.052	75.0984
488.945	19.4044
491.837	43.6624
494.73	71.2976
497.623	31.8438
500.515	84.0337
503.408	47.0541
506.301	84.0165
509.193	18.7678
512.086	65.9418
514.979	52.7817
517.872	69.653
520.764	47.3317
523.657	38.8013
526.55	75.2978
529.442	34.5673
532.335	41.9686
535.228	39.736
538.12	28.116
541.013	37.0476
543.906	3.66187
546.799	0.997437
549.691	2.95154
552.584	11.5681
555.477	23.9783
558.369	4.29358
561.262	3.40991
564.155	2.46021
567.048	11.7689
569.94	14.3152
572.833	6.09534
575.726	2.96301
578.618	10.6932
581.511	2.69226
584.404	42.6002
587.296	16.1792
590.189	24.6168
593.082	62.9815
595.975	58.4548
598.867	44.8478
601.76	52.8481
604.653	78.0743
607.545	80.0148
610.438	39.5547
613.331	98.0765
616.223	101.031
619.116	106.894
622.009	95.6329
624.902	90.5637
627.794	125.776
630.687	166.491
633.58	178.665
636.472	223.091
639.365	281.19
642.258	333.379
645.15	401.41
648.043	465.662
650.936	516.156
653.828	583.406
656.721	619.158
659.614	496.462
662.507	398.534
665.399	323.555
668.292	252.46
671.185	168.766
674.077	139.98
676.97	82.3439
679.863	67.2329
682.755	78.9192
685.648	65.3156
688.541	37.9751
691.434	37.1409
694.326	49.4182
697.219	71.7113
700.112	84.1367
703.004	67.7052
705.897	26.7936
708.79	43.6296
711.683	23.1598
714.575	10.6613
717.468	2.9895
720.361	25.9121
723.253	7.90674
726.146	38.218
729.039	3.40967
731.931	0.079224
734.824	5.46545
737.717	3.88501
740.61	5.79053
743.502	53.9916
746.395	23.2395
749.288	11.088
752.18	33.4196
755.073	21.1254
757.966	29.3673
760.858	6.69623
763.751	19.9653
766.644	49.0599
769.537	61.3121
772.429	65.7186
775.322	46.6682
778.215	52.0966
781.107	34.3263
784	40.8099
786.893	48.3337
789.785	40.7141
792.678	30.7149
795.571	20.8121
798.463	20.2515
801.356	25.2884
804.249	10.5394
807.142	7.61035
810.034	32.3217
812.927	17.3241
815.82	12.0158
818.712	15.125
821.605	7.63507
824.498	5.56683
827.391	17.1387
830.283	11.7452
833.176	5.95416
836.069	14.4781
838.961	12.9249
841.854	18.5864
844.747	12.3411
847.639	13.8853
850.532	4.1662
853.425	26.1279
856.318	33.4268
859.21	14.3386
862.103	1.66034
864.996	23.5895
867.888	9.92133
870.781	9.23987
873.674	19.5064
876.567	14.9178
879.459	3.60034
882.352	3.30896
885.245	31.1922
888.137	23.2848
891.03	14.5487
893.923	7.78668
896.815	20.2074
899.708	2.65686
902.601	29.1771
905.494	5.47546
908.386	11.7654
911.279	27.8323
914.172	15.4994
917.064	41.4116
919.957	49.0485
922.85	5.79535
925.742	33.9004
928.635	25.1445
931.528	38.0278
934.42	32.9029
937.313	38.6879
940.206	40.3961
943.099	21.3564
945.991	35.118
948.884	16.6414
951.777	57.3261
954.669	43.8886
957.562	33.9631
960.455	41.1125
963.347	63.7763
966.24	43.5887
969.133	85.3124
972.026	76.6631
974.918	57.3266
977.811	91.8367
980.704	107.829
983.596	98.1064
986.489	86.0019
989.382	46.2236
992.274	76.0093
995.167	47.0138
998.06	39.3199
1000.95	61.1429
1003.85	72.0078
1006.74	15.6305
1009.63	2.39008
1012.52	17.7351
1015.42	2.02521
1018.31	32.771
1021.2	25.7059
1024.09	24.6121
1026.99	34.1155
1029.88	9.66205
1032.77	28.8105
1035.66	19.5627
1038.56	24.6875
1041.45	18.9799
1044.34	28.0433
1047.24	18.879
1050.13	9.79523
1053.02	0.241638
1055.91	5.35236
1058.81	24.9326
1061.7	26.4313
1064.59	32.0066
1067.48	36.9955
1070.38	25.7679
1073.27	16.3464
1076.16	16.9352
1079.06	17.2154
1081.95	18.3193
1084.84	32.3566
1087.73	25.1328
1090.63	34.1885
1093.52	23.9662
1096.41	21.5287
1099.3	23.6902
1102.2	33.3011
1105.09	35.5504
1107.98	53.8933
1110.88	28.5309
1113.77	19.2827
1116.66	37.8832
1119.55	18.123
1122.45	25.3736
1125.34	20.4002
1128.23	3.6731
1131.12	12.1494
1134.02	32.4052
1136.91	29.3875
1139.8	33.5787
1142.69	19.5051
1145.59	32.8099
1148.48	35.1531
1151.37	23.6455
1154.27	120.626
1157.16	25.0955
1160.05	30.8813
1162.94	10.6956
1165.84	40.8818
1168.73	40.2075
1171.62	49.0001
1174.52	34.0347
1177.41	42.3217
1180.3	22.1528
1183.19	36.9349
1186.09	4.42212
1188.98	36.9023
1191.87	35.035
1194.76	10.9942
1197.66	16.8815
1200.55	8.72644
1203.44	30.9005
1206.33	43.5136
1209.23	38.9819
1212.12	35.1897
1215.01	7.62061
1217.9	16.191
1220.8	11.228
1223.69	10.5948
1226.58	25.4116
1229.48	42.5693
1232.37	21.4772
1235.26	14.0219
1238.15	36.9195
1241.05	19.9533
1243.94	22.3784
1246.83	30.2607
1249.72	28.077
1252.62	40.7058
1255.51	19.2285
1258.4	34.0421
1261.3	32.2897
1264.19	11.7362
1267.08	26.3348
1269.97	34.8309
1272.87	36.9381
