Measurement: Raman, 532 nm, unoriented, Raman Data Processed
Mineral: Columbite-(Fe)
Rruff sample: R060001
Ideal chemistry: Fe^2+^Nb_2_O_6_
Locality: Gypsy mine, Minas Gerais, Brazil
Source: Eric Van Valkenburg
Description: Steel gray fragment with internal red hints
Measured chemistry: (Fe^2+^_0.52_Mn^2+^_0.48_)_Σ=1_(Nb_1.61_Ta_0.39_)_Σ=2_O_6_
Raman shift (cm-1)	intensity
158.974	0
161.867	3.49558
164.76	1.57439
167.652	0.697205
170.545	9.50483
173.438	2.21125
176.33	6.98804
179.223	4.49472
182.116	3.55125
185.008	0.296844
187.901	0.533348
190.794	0.790436
193.686	5.44091
196.579	7.22221
199.472	9.59911
202.365	12.9937
205.257	18.9055
208.15	16.1683
211.043	7.53654
213.935	1.17258
216.828	1.83696
219.721	0.8573
222.613	1.17573
225.506	3.76235
228.399	2.54992
231.292	5.53412
234.184	4.68433
237.077	4.91073
239.97	7.36794
242.862	11.142
245.755	11.8041
248.648	13.7193
251.541	11.1436
254.433	11.5284
257.326	10.7679
260.219	12.8474
263.111	10.9461
266.004	15.5248
268.897	14.1467
271.789	13.9346
274.682	14.2052
277.575	11.2896
280.467	11.8365
283.36	10.3515
286.253	9.40296
289.146	6.07996
292.038	6.65645
294.931	2.56582
297.824	1.28973
300.716	2.35803
303.609	3.20911
306.502	1.9952
309.394	2.47022
312.287	3.38802
315.18	2.56481
318.073	3.54604
320.965	4.20766
323.858	2.902
326.751	2.51238
329.643	0.261711
332.536	0.14933
335.429	1.56509
338.322	1.06773
341.214	0.590164
344.107	0.288559
347	2.32983
349.892	2.13944
352.785	5.01479
355.678	5.64252
358.57	6.45123
361.463	6.08643
364.356	8.78603
367.248	10.5774
370.141	10.2623
373.034	11.2069
375.927	15.0184
378.819	17.3412
381.712	19.9914
384.605	24.4353
387.497	31.4685
390.39	36.9345
393.283	36.8485
396.175	37.9216
399.068	32.8844
401.961	30.2715
404.853	24.2565
407.746	18.5318
410.639	15.8449
413.532	12.0182
416.424	10.0416
419.317	6.46358
422.21	4.27477
425.102	0.66674
427.995	3.06448
430.888	2.88793
433.781	0.705086
436.673	3.2978
439.566	1.86771
442.459	1.92315
445.351	1.81556
448.244	1.2832
451.137	2.19662
454.029	1.60821
456.922	0.942268
459.815	2.57691
462.708	4.45711
465.6	1.55682
468.493	3.4549
471.386	4.01003
474.278	3.21409
477.171	4.90847
480.064	4.79512
482.957	4.33138
485.849	2.18598
488.742	4.51408
491.635	2.4188
494.527	1.9537
497.42	3.62834
500.313	3.92899
503.205	4.1001
506.098	3.47551
508.991	7.15404
511.884	7.84574
514.776	9.97176
517.669	12.8244
520.562	15.5
523.454	20.7535
526.347	21.3029
529.24	22.132
532.132	24.5684
535.025	18.6629
537.918	18.0321
540.81	15.2514
543.703	12.6028
546.596	8.29932
549.489	8.48326
552.381	3.47029
555.274	4.68729
558.167	2.55414
561.059	1.3568
563.952	0.628868
566.845	1.10587
569.737	0.251595
572.63	2.27947
575.523	1.72229
578.415	1.44667
581.308	1.21596
584.201	0.907806
587.094	1.50589
589.986	1.6633
592.879	1.43225
595.772	0.907425
598.664	4.3261
601.557	2.44253
604.45	2.7703
607.342	4.53501
610.235	5.92832
613.128	2.22822
616.021	4.79071
618.913	1.84
621.806	5.34472
624.699	4.93888
627.591	4.45912
630.484	6.06488
633.377	4.75669
636.269	5.4231
639.162	5.91506
642.055	6.38325
644.948	5.84817
647.84	4.85114
650.733	5.12544
653.626	5.63943
656.518	5.87394
659.411	4.50776
662.304	5.97579
665.197	4.30907
668.089	5.34471
670.982	3.58846
673.875	2.03296
676.767	3.36612
679.66	2.79788
682.553	3.40552
685.445	3.50571
688.338	1.64696
691.231	2.10182
694.124	2.35473
697.016	0.542969
699.909	0.39502
702.802	1.56784
705.694	0.763275
708.587	1.57056
711.48	0.780319
714.372	1.55978
717.265	0.972221
720.158	1.11314
723.051	1.00538
725.943	0.241951
728.836	0.29908
731.729	1.85146
734.621	2.12791
737.514	1.44629
740.407	0.81073
743.299	0.190361
746.192	1.11106
749.085	0.085548
751.977	1.31083
754.87	1.78429
757.763	0.193306
760.656	2.77023
763.548	1.34917
766.441	0.637276
769.334	1.25198
772.226	2.70196
775.119	1.75188
778.012	2.78967
780.904	2.8301
783.797	3.01841
786.69	2.21538
789.583	2.51727
792.475	2.67664
795.368	3.31334
798.261	3.75448
801.153	4.1912
804.046	3.90306
806.939	5.23585
809.832	7.20624
812.724	8.77426
815.617	9.91749
818.51	12.2104
821.402	13.896
824.295	15.9331
827.188	20.5004
830.08	23.3951
832.973	26.0782
835.866	31.2068
838.759	39.1409
841.651	42.6551
844.544	53.2876
847.437	61.6465
850.329	73.163
853.222	91.6764
856.115	116.226
859.007	146.127
861.9	183.258
864.793	225.658
867.686	273.091
870.578	318.914
873.471	350.295
876.364	343.846
879.256	291.166
882.149	209.387
885.042	135.9
887.934	82.6076
890.827	50.5992
893.72	30.1032
896.612	19.1901
899.505	12.6498
902.398	7.4019
905.291	5.53348
908.183	2.49758
911.076	1.55153
913.969	0.943352
916.861	2.21312
919.754	0.496552
922.647	2.04345
925.539	1.23784
928.432	0.183105
931.325	0.388378
934.218	0.580593
937.11	1.18468
940.003	3.68806
942.896	2.87414
945.788	2.1068
948.681	2.22133
951.574	4.19593
954.466	3.68398
957.359	4.05924
960.252	4.33184
963.144	4.868
966.037	3.605
968.93	3.95714
971.823	4.92406
974.715	3.30133
977.608	5.3669
980.501	3.59492
983.393	2.88677
986.286	3.34732
989.179	2.65911
992.072	3.35659
994.964	0.135098
997.857	3.30938
1000.75	3.03957
1003.64	4.24702
1006.53	3.04003
1009.43	2.75383
1012.32	3.43697
1015.21	3.34923
1018.11	1.62074
1021	2.05481
1023.89	3.68514
1026.78	1.29017
1029.68	3.32878
1032.57	1.20104
1035.46	1.23239
1038.36	0.806355
1041.25	1.10633
1044.14	2.81099
1047.03	0.885624
1049.93	3.39951
1052.82	2.0097
1055.71	1.81496
1058.6	2.23233
1061.5	1.62287
1064.39	0.47113
1067.28	3.29789
1070.17	0.472588
1073.07	2.33431
1075.96	2.10861
1078.85	2.25548
1081.74	1.07807
1084.64	2.5651
1087.53	2.22341
1090.42	1.05411
1093.32	1.58082
1096.21	0.505692
1099.1	2.0248
1101.99	0.486481
1104.89	1.01893
1107.78	0.479275
1110.67	1.32662
1113.57	0.611301
1116.46	1.81152
1119.35	0.870079
1122.24	0.876125
1125.14	0.72554
1128.03	1.21029
1130.92	1.46889
1133.81	1.69127
1136.71	2.71228
1139.6	0.443333
1142.49	0.743259
1145.38	0.870468
1148.28	3.82179
1151.17	2.00148
1154.06	1.62448
1156.95	2.26709
1159.85	2.12426
1162.74	1.37362
1165.63	1.96759
1168.53	2.18949
1171.42	3.83863
1174.31	1.88865
1177.2	2.96783
1180.1	1.93432
1182.99	2.11915
1185.88	1.87099
1188.78	0.699184
1191.67	2.69695
1194.56	1.19754
1197.45	2.2311
1200.35	3.91404
1203.24	1.14403
1206.13	0.282349
1209.02	2.03441
1211.92	1.10653
1214.81	2.4119
1217.7	1.03418
1220.6	0.9193
1223.49	1.2413
1226.38	1.52903
1229.27	0.751331
1232.17	0.934818
1235.06	3.33255
1237.95	1.58213
1240.84	2.52999
1243.74	1.86606
1246.63	0.599255
1249.52	3.3819
1252.41	1.5463
1255.31	1.68213
1258.2	2.49037
1261.09	1.46115
1263.98	2.74487
1266.88	0.911331
1269.77	3.15049
1272.66	0.150913
1275.56	3.19357
1278.45	1.74209
1281.34	1.18349
1284.23	1.97406
1287.13	3.03874
1290.02	0.803288
1292.91	3.16317
1295.81	1.85031
1298.7	1.20013
1301.59	0.958973
1304.48	0.54163
