Measurement: Raman, 785 nm, unoriented, Raman Data Processed
Mineral: Comancheite
Rruff sample: R060734
Ideal chemistry: Hg^2+^_55_N^3-^_24_(NH_2_,OH)_4_(Cl,Br)_34_
Locality: Terlinguia, Texas, USA
Source: Bob Jenkins
Description: Radiating sprays of reddish-brown prismatic crystals associated with colorless calcite
Raman shift (cm-1)	intensity
124.421	0
127.313	2204.43
130.206	3313.4
133.099	3935.02
135.992	3272.26
138.884	3297.94
141.777	4719.56
144.67	6989.4
147.562	8745.42
150.455	9151.53
153.348	8256.25
156.24	7143.85
159.133	6761.46
162.026	7181.32
164.919	8297.05
167.811	9786.89
170.704	11434.3
173.597	10716.5
176.489	10229.6
179.382	11214.5
182.275	12103.9
185.167	12062.8
188.06	10138.3
190.953	7500.21
193.846	5974.68
196.738	4345.45
199.631	3619.34
202.524	3180.5
205.416	3057.3
208.309	3163.6
211.202	3594.74
214.094	4395.73
216.987	5395.76
219.88	6442.95
222.773	6942.2
225.665	7019.77
228.558	6301.21
231.451	5006.3
234.343	3544.24
237.236	2702.59
240.129	2475.48
243.021	2525.15
245.914	2680.94
248.807	2893.71
251.699	3180.34
254.592	3668.08
257.485	4166.49
260.378	4738.53
263.27	5005.87
266.163	5051.58
269.056	4874.54
271.948	4587.56
274.841	4297.1
277.734	4240.3
280.626	4483.57
283.519	4852.8
286.412	5336.58
289.305	5927.79
292.197	6711.49
295.09	7626.57
297.983	8722.35
300.875	9888.16
303.768	11048.9
306.661	12284.2
309.553	13223.4
312.446	13442.6
315.339	12835.6
318.232	11374.7
321.124	8857.39
324.017	5978.04
326.91	3499.55
329.802	2041.91
332.695	1333.83
335.588	924.019
338.48	654.392
341.373	470.204
344.266	361.384
347.159	239.111
350.051	155.792
352.944	27.946
355.837	71.856
358.729	83.547
361.622	148.119
364.515	149.632
367.408	218.949
370.3	288.037
373.193	179.085
376.086	269.816
378.978	263.101
381.871	281.416
384.764	376.398
387.656	376.885
390.549	391.719
393.442	278.545
396.335	309.073
399.227	301.753
402.12	295.191
405.013	307.097
407.905	265.917
410.798	237.394
413.691	183.885
416.583	97.657
419.476	21.738
422.369	61.525
425.262	193.346
428.154	381.928
431.047	544.32
433.94	693.666
436.832	705.583
439.725	655.893
442.618	601.748
445.51	587.367
448.403	520.715
451.296	583.526
454.189	550.927
457.081	575.951
459.974	647.682
462.867	715.408
465.759	745.615
468.652	699.722
471.545	632.995
474.437	510.527
477.33	481.533
480.223	383.806
483.116	405.08
486.008	412.211
488.901	488.046
491.794	632.936
494.686	729.576
497.579	845.857
500.472	1017.64
503.364	1310.3
506.257	1686.88
509.15	2208.27
512.042	2767.39
514.935	3385.52
517.828	4164.36
520.721	4865.39
523.613	5761.78
526.506	6917.65
529.399	8256.28
532.291	9640.57
535.184	11159.4
538.077	12060
540.969	12511.9
543.862	12457.3
546.755	12350.8
549.648	12341.7
552.54	12440.2
555.433	12727.8
558.326	13351.6
561.218	13795.4
564.111	14568.2
567.004	15467.4
569.896	16306.4
572.789	16825.4
575.682	16680.8
578.575	16153.4
581.467	15470.5
584.36	14414
587.253	13634.6
590.145	12622.6
593.038	11438.1
595.931	10172.5
598.823	8655.64
601.716	7172.53
604.609	5810.2
607.502	4878.49
610.394	4157.84
613.287	3849.22
616.18	3802.83
619.072	4057.79
621.965	4349.63
624.858	4618.35
627.75	4818.96
630.643	4693.52
633.536	4375.39
636.429	3839.03
639.321	3403.46
642.214	3016.62
645.107	2631.03
647.999	2382.24
650.892	2097.18
653.785	1828.12
656.677	1479.55
659.57	1121.34
662.463	808.673
665.356	676.57
668.248	536.253
671.141	567.763
674.034	615.662
676.926	612.828
679.819	602.203
682.712	473.9
685.604	370.2
688.497	223.418
691.39	34.676
694.283	37.076
697.175	159.69
700.068	169.591
702.961	182.44
705.853	238.932
708.746	223.275
711.639	151.824
714.531	196.345
717.424	178.31
720.317	157.27
723.21	173.277
726.102	110.051
728.995	128.169
731.888	82.391
734.78	48.821
737.673	54.958
740.566	76.906
743.458	21.085
746.351	123.076
749.244	52.233
752.137	20.195
755.029	62.726
757.922	4.261
760.815	44.671
763.707	44.185
766.6	25.437
769.493	12.769
772.385	4.83
775.278	15.953
778.171	13.904
781.064	5.162
783.956	58.944
786.849	28.964
789.742	19.98
792.634	32.365
795.527	2.706
798.42	22.116
801.312	56.877
804.205	38.946
807.098	28.496
809.991	4.39
812.883	13.048
815.776	40.836
818.669	18.957
821.561	23.282
824.454	14.544
827.347	62.916
830.24	53.63
833.132	32.815
836.025	14.779
838.917	19.127
841.81	9.199
844.703	28.94
847.596	6.277
850.488	0.763
853.381	1.901
856.274	11.824
859.166	9.627
862.059	40.223
864.952	56.471
867.844	2.995
870.737	12.463
873.63	26.284
876.523	27.901
879.415	25.51
882.308	18.748
885.201	23.416
888.093	5.7
890.986	24.989
893.879	26.645
896.771	4.74
899.664	42.018
902.557	5.5
905.45	21.017
908.342	15.915
911.235	5.486
914.128	6.739
917.02	3.682
919.913	14.571
922.806	8.697
925.698	30.373
928.591	2.176
931.484	9.434
934.377	2.929
937.269	5.261
940.162	60.444
943.055	29.21
945.947	12.678
948.84	42.132
951.733	20.074
954.625	54.126
957.518	88.583
960.411	39.11
963.304	66.013
966.196	55.533
969.089	46.661
971.982	52.615
974.875	28.793
977.767	34.073
980.66	31.499
983.553	6.141
986.445	47.267
989.338	26.239
992.231	2.587
995.123	1.223
998.016	30.191
1000.91	45.976
1003.8	46.778
1006.69	80.058
1009.59	90.706
1012.48	106.8
1015.37	89.151
1018.26	86.834
1021.16	95.149
1024.05	83.559
1026.94	77.233
1029.84	77.647
1032.73	101.446
1035.62	93.25
1038.51	114.736
1041.41	104.232
1044.3	108.895
1047.19	111.137
1050.09	73.978
1052.98	40.06
1055.87	46.813
1058.76	17.071
1061.66	35.161
1064.55	18.729
1067.44	5.23
1070.33	1.618
1073.23	30.889
1076.12	39.157
1079.01	62.074
1081.9	24.367
1084.8	74.999
1087.69	85.097
1090.58	72.833
1093.47	52.802
1096.37	59.085
1099.26	61.634
1102.15	47.572
1105.05	82.847
1107.94	60.203
1110.83	57.082
1113.72	23.395
1116.62	88.102
1119.51	65.029
1122.4	81.229
1125.3	57.911
1128.19	51.011
1131.08	74.215
1133.97	53.388
1136.87	74.792
1139.76	47.835
1142.65	64.729
1145.54	54.235
1148.44	89.113
1151.33	111.814
1154.22	44.83
1157.12	106.957
1160.01	119.918
1162.9	95.528
1165.79	131.802
1168.68	107.783
1171.58	67.493
1174.47	80.421
1177.36	58.616
1180.26	78.273
1183.15	64.615
1186.04	43.594
1188.93	54.065
1191.83	94.233
1194.72	110.945
1197.61	64.04
1200.51	36.879
1203.4	27.97
1206.29	51.763
1209.18	47.263
1212.08	53.604
1214.97	42.501
1217.86	87.827
1220.75	52.479
1223.65	30.143
1226.54	14.728
1229.43	89.792
1232.33	65.255
1235.22	34.443
1238.11	11.84
1241	0.428
1243.9	19.428
1246.79	16.508
1249.68	39.226
1252.57	28.819
1255.47	5.075
1258.36	28.995
1261.25	2.504
