Measurement: Raman, 532 nm, unoriented, Raman Data Processed
Mineral: Conichalcite
Rruff sample: R070447
Ideal chemistry: CaCu^2+^As^5+^O_4_(OH)
Locality: Copper Creek District, Mammoth, Arizona, USA
Source: Bob Jenkins
Description: Green prismatic crystals scattered over quartz
Measured chemistry: Ca_1.00_(Cu_0.99_Fe_0.01_)(As_0.94_V_0.03_S_0.02_Al_0.01_)_Î£=1_O_4_(OH); OH estimated by charge balance
Raman shift (cm-1)	intensity
182.707	0
185.6	76.7656
188.492	2.01318
191.385	122.077
194.278	321.455
197.17	360.251
200.063	651.224
202.956	1012.39
205.848	1227.35
208.741	949.916
211.634	571.746
214.526	432.672
217.419	384.461
220.312	300.519
223.205	276.049
226.097	169.121
228.99	149.66
231.883	85.2778
234.775	6.80469
237.668	41.6265
240.561	52.311
243.453	47.6025
246.346	66.1436
249.239	23.0859
252.132	29.3491
255.024	21.6641
257.917	139.133
260.81	85.9648
263.702	160.152
266.595	346.7
269.488	425.085
272.38	640.21
275.273	856.866
278.166	928.696
281.059	1020.54
283.951	1078.43
286.844	1134.14
289.737	961.898
292.629	605.018
295.522	400.488
298.415	306.791
301.308	252.622
304.2	363.486
307.093	506.021
309.986	884.571
312.878	1412.03
315.771	2132.6
318.664	2896.25
321.556	3716.53
324.449	4022.98
327.342	3570.42
330.235	2967.27
333.127	2704.19
336.02	2487.19
338.913	2039.65
341.805	1436.47
344.698	1145.84
347.591	1023.91
350.483	1070.18
353.376	1204.05
356.269	1296.9
359.161	1199.98
362.054	979.551
364.947	664.168
367.84	601.73
370.732	575.852
373.625	525.121
376.518	445.158
379.41	421.562
382.303	447.106
385.196	523.182
388.089	494.339
390.981	494.293
393.874	301.438
396.767	135.694
399.659	53.7051
402.552	125.439
405.445	140.204
408.337	23.4824
411.23	71.0713
414.123	209.273
417.016	492.543
419.908	713.955
422.801	1061.62
425.694	1429.33
428.586	1697.82
431.479	1516.87
434.372	1358.06
437.264	1496.94
440.157	1515.41
443.05	1747.75
445.943	1740.56
448.835	1676.49
451.728	1216.31
454.621	768.177
457.513	453.33
460.406	297.38
463.299	250.068
466.192	340.879
469.084	605.781
471.977	1171.1
474.87	2044.22
477.762	3243.89
480.655	4531.87
483.548	5702.74
486.44	6005
489.333	4089.34
492.226	1928.77
495.118	894.22
498.011	468.06
500.904	187.216
503.797	115.036
506.689	38.2119
509.582	27.3164
512.475	39.6514
515.367	20.7422
518.26	125.911
521.153	246.399
524.045	481.517
526.938	731.721
529.831	1089
532.724	1404.08
535.616	1440.61
538.509	1026.11
541.402	521.393
544.294	200.498
547.187	121.032
550.08	55.2119
552.972	28.6904
555.865	16.9883
558.758	20.9922
561.651	15.3135
564.543	76.0625
567.436	98.1289
570.329	73.0625
573.221	111.965
576.114	74.1016
579.007	69.0478
581.899	78.7725
584.792	141.154
587.685	69.3428
590.578	6.70019
593.47	67.5312
596.363	95.1592
599.256	17.6631
602.148	16.6445
605.041	80.1514
607.934	36.3867
610.827	15.8213
613.719	53.168
616.612	68.5156
619.505	38.5889
622.397	110.266
625.29	167.778
628.183	115.022
631.075	126.943
633.968	99.8711
636.861	124.588
639.754	161.119
642.646	148.292
645.539	140.696
648.432	213.48
651.324	168.285
654.217	190.448
657.11	213.567
660.002	220.045
662.895	196.423
665.788	218.102
668.681	175.207
671.573	114.206
674.466	147.148
677.359	87.9258
680.251	160.704
683.144	173.248
686.037	160.134
688.929	66.7764
691.822	6.41797
694.715	45.5928
697.608	77.0234
700.5	9.13281
703.393	2.5918
706.286	1.13574
709.178	22.6621
712.071	58.7559
714.964	32.2773
717.856	65.5781
720.749	65.7148
723.642	75.6475
726.535	17.4629
729.427	57.1953
732.32	8.18555
735.213	9.84277
738.105	58.8516
740.998	63.1279
743.891	167.834
746.784	279.478
749.676	314.794
752.569	439.004
755.462	472.844
758.354	415.255
761.247	327.282
764.14	449.022
767.032	747.704
769.925	1155.02
772.818	1756.46
775.711	2404.37
778.603	2966.2
781.496	3019.54
784.389	2270.59
787.281	1459.27
790.174	1078.28
793.067	896.502
795.959	1112.62
798.852	1982.73
801.745	3593.75
804.638	5948.23
807.53	8912.2
810.423	12510.2
813.316	14857
816.208	16426.2
819.101	19337.6
821.994	25426
824.886	30613.7
827.779	29502.5
830.672	31187.9
833.564	34362.5
836.457	19487.4
839.35	8239.54
842.243	4290.49
845.135	2792.5
848.028	1807.39
850.921	1160.96
853.813	871.665
856.706	571.987
859.599	621.992
862.492	640.652
865.384	623.39
868.277	631.175
871.17	558.623
874.062	354.377
876.955	324.338
879.848	93.1006
882.74	31.3867
885.633	13.585
888.526	170.618
891.419	111.525
894.311	76.0098
897.204	52.3897
900.097	21.0928
902.989	98.458
905.882	203.903
908.775	300.698
911.668	369.688
914.56	549.105
917.453	373.405
920.346	437.302
923.238	333.424
926.131	273.923
929.024	257.247
931.916	251.347
934.809	254.624
937.702	241.306
940.595	215.263
943.487	191.102
946.38	109.284
949.273	55.0039
952.165	100.132
955.058	31.9785
957.951	114.179
960.843	12.123
963.736	104.044
966.629	116.795
969.521	80.0078
972.414	105.942
975.307	106.031
978.2	119.867
981.092	47.1797
983.985	36.2275
986.878	85.4668
989.77	4.80078
992.663	66.3398
995.556	77.8945
998.448	87.5156
1001.34	22.6602
1004.23	25.79
1007.13	14.2315
1010.02	6.93066
1012.91	65.5449
1015.8	57.5156
1018.7	16.0508
1021.59	113.585
1024.48	101.024
1027.38	136.442
1030.27	31.5674
1033.16	127.865
1036.05	109.356
1038.95	112.953
1041.84	168.097
1044.73	257.238
1047.62	202.134
1050.52	274.236
1053.41	184.678
1056.3	202.978
1059.19	206.948
1062.09	134.607
1064.98	95.5312
1067.87	154.014
1070.77	168.036
1073.66	81.0322
1076.55	7.87695
1079.44	82.3057
1082.34	78.8018
1085.23	26.4688
1088.12	10.0127
1091.02	37.0732
1093.91	50.5742
1096.8	78.457
1099.69	111.533
1102.59	31.4639
1105.48	3.00391
1108.37	61.208
1111.26	104.061
1114.16	28.5918
1117.05	99.791
1119.94	131.747
1122.84	1.00195
1125.73	134.711
1128.62	22.7881
1131.51	72.9424
1134.41	135.546
1137.3	96.3691
1140.19	86.1025
1143.08	80.5
1145.98	109.081
1148.87	68.0693
1151.76	107.651
1154.65	90.2559
1157.55	101.904
1160.44	11.249
1163.33	87.5234
1166.22	118.922
1169.12	59.4111
1172.01	97.709
1174.9	63.2246
1177.8	93.3936
1180.69	1.90625
1183.58	61.9502
1186.47	0.701172
1189.37	64.4922
1192.26	83.543
1195.15	78.6602
1198.05	71.6758
1200.94	65.6269
1203.83	6.21875
1206.72	126.429
1209.62	61.1016
1212.51	72.3994
1215.4	45.627
1218.29	30.0283
1221.19	86.2607
1224.08	62.4785
1226.97	46.5244
1229.87	55.5947
1232.76	57.8565
1235.65	31.3965
1238.54	125.13
1241.43	33.0859
1244.33	76
1247.22	38.7344
1250.11	141.177
1253.01	29.8604
1255.9	23.5684
1258.79	49.4463
1261.68	76.0254
1264.58	118.179
1267.47	126.981
1270.36	31.9629
1273.26	86.415
1276.15	191.98
1279.04	136.047
1281.93	155.344
1284.83	175.435
1287.72	136.731
1290.61	74.1094
1293.5	22.8877
1296.4	85.2617
1299.29	41.3623
1302.18	89.8262
1305.08	19.3525
1307.97	62.3389
1310.86	66.6269
1313.75	54.0557
1316.65	53.9688
