Measurement: Raman, 785 nm, unoriented, Raman Data Processed
Mineral: Conichalcite
Rruff sample: R050028
Ideal chemistry: CaCu^2+^As^5+^O_4_(OH)
Locality: Mapimi, Durango, Mexico
Source: Eugene Schlepp
Description: Green botryoidal groups covering adamite
Measured chemistry: Ca_1.00_(Cu_0.70_Zn_0.30_)_Î£=1_(As_1.00_O_4_)(OH)
Raman shift (cm-1)	intensity
134.037	0
136.929	4.2439
139.822	10.933
142.715	19.9838
145.607	82.5366
148.5	106.657
151.393	160.303
154.286	172.598
157.178	190.508
160.071	218.403
162.964	233.16
165.856	207.785
168.749	220.856
171.642	221.54
174.534	214.594
177.427	215.241
180.32	213.266
183.212	214.225
186.105	193.553
188.998	176.509
191.891	201.977
194.783	226.165
197.676	263.773
200.569	324.816
203.461	367.313
206.354	410.625
209.247	416.539
212.139	381.192
215.032	320.572
217.925	266.157
220.818	209.196
223.71	165.663
226.603	98.5384
229.496	66.7321
232.388	41.8547
235.281	10.2701
238.174	17.7563
241.066	18.9496
243.959	3.25531
246.852	9.9827
249.745	24.3416
252.637	15.4232
255.53	7.83313
258.423	18.9825
261.315	7.38846
264.208	29.5112
267.101	56.8348
269.993	74.8866
272.886	98.7541
275.779	94.842
278.672	86.9264
281.564	58.8428
284.457	44.1612
287.35	36.7766
290.242	36.2724
293.135	16.4143
296.028	9.55987
298.921	50.5384
301.813	65.2243
304.706	99.4353
307.599	203.538
310.491	316.845
313.384	471.454
316.277	637.497
319.169	840.632
322.062	964.993
324.955	960.808
327.847	807.64
330.74	657.141
333.633	489.437
336.526	407.761
339.418	339.838
342.311	278.616
345.204	258.482
348.096	219.767
350.989	224.914
353.882	214.203
356.774	218.786
359.667	196.478
362.56	159.648
365.452	111.058
368.345	114.676
371.238	90.3419
374.131	88.6711
377.023	45.0095
379.916	20.6474
382.809	6.71509
385.701	11.6977
388.594	1.95758
391.487	12.3369
394.38	6.53571
397.272	1.72061
400.165	1.9989
403.058	3.65924
405.95	1.90677
408.843	48.7706
411.736	62.6422
414.628	107.66
417.521	156.401
420.414	205.834
423.307	251.183
426.199	304.759
429.092	344.599
431.985	364.894
434.877	364.562
437.77	350.706
440.663	286.796
443.555	223.643
446.448	231.68
449.341	223.192
452.234	248.612
455.126	256.235
458.019	278.698
460.912	307.593
463.804	339.088
466.697	354.752
469.59	336.417
472.483	314.98
475.375	252.067
478.268	231.028
481.161	194.143
484.053	187.852
486.946	137.259
489.839	113.784
492.731	86.6809
495.624	38.6532
498.517	36.6242
501.409	20.5832
504.302	12.9974
507.195	22.0827
510.088	18.6083
512.98	13.8249
515.873	27.1252
518.766	27.199
521.658	33.3727
524.551	35.7582
527.444	37.8142
530.337	26.5929
533.229	31.3369
536.122	19.2865
539.015	3.75796
541.907	4.7785
544.8	6.44385
547.693	0.46106
550.585	4.4372
553.478	10.6057
556.371	6.53168
559.263	8.3049
562.156	4.63367
565.049	8.82907
567.942	21.9631
570.834	18.1368
573.727	24.8648
576.62	21.7646
579.512	4.02142
582.405	25.2148
585.298	25.8809
588.19	21.2866
591.083	32.5437
593.976	25.582
596.869	10.0539
599.761	17.7368
602.654	21.1734
605.547	3.464
608.439	30.2414
611.332	38.6684
614.225	10.0435
617.117	32.2701
620.01	33.4309
622.903	18.0147
625.795	23.3628
628.688	24.175
631.581	24.1943
634.474	12.3777
637.366	20.9055
640.259	20.1148
643.152	33.889
646.044	24.9469
648.937	28.2683
651.83	23.5443
654.722	27.0666
657.615	37.7145
660.508	25.9583
663.401	34.501
666.293	41.7954
669.186	19.8893
672.079	29.4653
674.971	23.5073
677.864	17.6516
680.757	22.3068
683.649	27.6192
686.542	13.6608
689.435	9.87334
692.328	13.4085
695.22	9.92674
698.113	14.2148
701.006	12.0109
703.898	1.6615
706.791	3.81879
709.684	5.84988
712.577	3.42334
715.469	8.57065
718.362	2.93518
721.255	11.577
724.147	4.94223
727.04	8.7435
729.933	7.33343
732.825	2.32324
735.718	1.82086
738.611	22.2783
741.504	32.4696
744.396	37.7896
747.289	62.9776
750.182	74.4521
753.074	117.615
755.967	148.472
758.86	143.748
761.752	179.11
764.645	189.556
767.538	235.02
770.431	301.412
773.323	377.039
776.216	452.592
779.109	516.865
782.001	584.892
784.894	667.779
787.787	732.168
790.679	815.533
793.572	939.571
796.465	1028
799.357	1106.91
802.25	1190.5
805.143	1349.87
808.036	1534.21
810.928	1800.07
813.821	2172.5
816.714	2527.21
819.606	2997.84
822.499	3624.75
825.392	4612.52
828.284	5414.88
831.177	4673.19
834.07	2749.85
836.963	1452.11
839.855	793.163
842.748	513.9
845.641	301.355
848.533	212.397
851.426	171.425
854.319	134.301
857.212	125.22
860.104	108.87
862.997	102.71
865.89	82.7441
868.782	55.7341
871.675	13.8262
874.568	7.33749
877.46	12.5901
880.353	4.99023
883.246	3.3848
886.139	23.6106
889.031	9.03766
891.924	2.96728
894.817	1.03119
897.709	4.14099
900.602	7.7384
903.495	21.6469
906.388	32.5867
909.28	27.9204
912.173	43.7729
915.066	54.2786
917.958	72.4423
920.851	72.9471
923.744	62.4361
926.636	41.1436
929.529	32.8424
932.422	27.1761
935.314	40.5057
938.207	28.9991
941.1	22.776
943.993	31.5557
946.885	15.8385
949.778	1.84454
952.671	18.1271
955.563	19.9694
958.456	0.555893
961.349	14.5669
964.241	6.81256
967.134	21.9807
970.027	15.9771
972.92	19.2958
975.812	14.8382
978.705	0.636673
981.598	19.4359
984.49	19.8323
987.383	12.5557
990.276	5.30617
993.168	5.60095
996.061	2.28688
998.954	10.1164
1001.85	15.2906
1004.74	5.84605
1007.63	6.44176
1010.52	17.1792
1013.42	7.77609
1016.31	9.1806
1019.2	4.86847
1022.1	22.2463
1024.99	13.9629
1027.88	9.05414
1030.77	0.815277
1033.67	8.91933
1036.56	22.3808
1039.45	19.4953
1042.34	3.09454
1045.24	9.72386
1048.13	27.5237
1051.02	30.7934
1053.91	25.7907
1056.81	29.6927
1059.7	33.2521
1062.59	10.0189
1065.49	3.32336
1068.38	14.6994
1071.27	0.230301
1074.16	15.7572
1077.06	1.34166
1079.95	2.76202
1082.84	8.21874
1085.73	17.692
1088.63	23.1986
1091.52	11.2138
1094.41	5.6129
1097.31	9.90065
1100.2	1.06335
1103.09	3.37155
1105.98	8.5417
1108.88	10.521
1111.77	23.3639
1114.66	20.735
1117.56	21.518
1120.45	20.2924
1123.34	18.579
1126.23	37.2259
1129.12	18.1954
1132.02	9.76138
1134.91	4.09744
1137.8	11.2651
1140.7	11.032
1143.59	12.6189
1146.48	3.15831
1149.37	14.8622
1152.27	33.6103
1155.16	8.71828
1158.05	16.911
1160.94	7.35274
1163.84	13.4387
1166.73	7.82437
1169.62	3.82274
1172.52	11.3711
1175.41	10.6134
1178.3	17.6564
1181.19	10.8355
1184.09	4.16882
1186.98	11.4714
1189.87	10.057
1192.77	11.6875
1195.66	8.59688
1198.55	19.1281
1201.44	12.2617
1204.34	14.7589
1207.23	20.2486
1210.12	23.272
1213.01	24.7359
1215.91	11.6908
1218.8	23.9109
1221.69	0.640213
1224.58	29.0936
1227.48	32.0104
1230.37	0.070984
