Measurement: Raman, 532 nm, unoriented, Raman Data Processed
Mineral: Conichalcite
Rruff sample: R120017
Ideal chemistry: CaCu^2+^As^5+^O_4_(OH)
Locality: New Cornelia mine, Ajo, Arizona, USA
Source: Ron Gibbs
Description: Elongated tufts of yellowish-green crystals, associated with ajoite, R120018
Raman shift (cm-1)	intensity
172.934	0
175.827	1.92629
178.72	19.0531
181.612	45.2543
184.505	78.4518
187.398	93.3001
190.29	108.158
193.183	128.82
196.076	150.949
198.968	166.424
201.861	191.921
204.754	210.906
207.647	210.598
210.539	186.229
213.432	153.726
216.325	129.696
219.217	104.516
222.11	81.0216
225.003	60.2538
227.895	45.622
230.788	25.4072
233.681	11.0653
236.573	0.730194
239.466	4.75697
242.359	6.5994
245.252	9.28116
248.144	8.50501
251.037	5.86284
253.93	0.133972
256.822	8.6461
259.715	21.9574
262.608	37.8277
265.5	60.125
268.393	83.4994
271.286	112.351
274.179	139.731
277.071	160.731
279.964	167.916
282.857	174.466
285.75	161.823
288.642	135.159
291.535	87.6483
294.428	55.1628
297.32	32.5549
300.213	26.4755
303.106	33.7467
305.998	55.9387
308.891	97.2541
311.784	157.607
314.676	240.086
317.569	356.159
320.462	498.004
323.355	616.056
326.247	659.446
329.14	633.604
332.033	592.411
334.925	562.463
337.818	518.655
340.711	455.086
343.603	380.696
346.496	311.142
349.389	262.092
352.281	219.264
355.174	190.162
358.067	167.828
360.96	151.531
363.852	138.327
366.745	122.104
369.638	104.415
372.53	89.5055
375.423	72.0582
378.316	58.375
381.209	56.4297
384.101	53.5213
386.994	49.6153
389.887	44.1365
392.779	31.1498
395.672	14.0206
398.565	2.50156
401.457	9.60928
404.35	10.9322
407.243	8.34944
410.135	3.72736
413.028	4.1566
415.921	15.9727
418.814	27.791
421.706	44.2453
424.599	60.5957
427.492	71.4719
430.384	73.982
433.277	69.5872
436.17	66.2528
439.062	64.0505
441.955	66.2852
444.848	68.2824
447.741	67.7676
450.633	62.4008
453.526	50.8431
456.419	32.7681
459.311	18.0569
462.204	9.77187
465.097	9.6194
467.99	18.7308
470.882	51.6053
473.775	100.88
476.668	167.686
479.56	270.708
482.453	410.171
485.346	546.325
488.238	538.257
491.131	354.65
494.024	182.621
496.916	83.8349
499.809	36.0043
502.702	11.3519
505.595	2.12975
508.487	6.08043
511.38	3.81146
514.273	4.22157
517.165	18.3361
520.058	38.2959
522.951	66.0572
525.844	93.6551
528.736	117.82
531.629	138.574
534.522	146.218
537.414	128.528
540.307	83.2021
543.2	41.0438
546.092	20.1436
548.985	14.5654
551.878	13.9037
554.771	12.3685
557.663	6.91513
560.556	5.48622
563.449	5.02997
566.341	4.84149
569.234	2.3304
572.127	4.17161
575.019	6.1203
577.912	7.29658
580.805	8.1655
583.697	8.3216
586.59	11.1487
589.483	9.78944
592.376	8.23387
595.268	4.74384
598.161	3.40334
601.054	1.49087
603.946	0.945625
606.839	0.421146
609.732	0.425343
612.625	0.279755
615.517	0.899731
618.41	2.50233
621.303	4.38351
624.195	3.87307
627.088	4.67368
629.981	6.55237
632.873	7.90848
635.766	8.95091
638.659	9.33631
641.552	10.1938
644.444	10.7845
647.337	13.1675
650.23	13.2724
653.122	15.4291
656.015	16.9105
658.908	17.7873
661.8	19.1534
664.693	20.4328
667.586	21.0266
670.479	22.557
673.371	22.9761
676.264	22.3567
679.157	20.8647
682.049	20.1383
684.942	18.7218
687.835	16.8374
690.727	15.012
693.62	12.5749
696.513	10.8282
699.405	9.50555
702.298	8.00482
705.191	5.90731
708.084	4.24549
710.976	2.41235
713.869	0.53476
716.762	1.75101
719.654	3.5175
722.547	4.49557
725.44	5.17301
728.332	4.91335
731.225	4.25919
734.118	3.06494
737.011	2.65855
739.903	0.273247
742.796	0.283356
745.689	0.941704
748.581	4.05243
751.474	7.33517
754.367	13.6892
757.26	23.5855
760.152	34.499
763.045	45.6508
765.938	66.4812
768.83	94.85
771.723	134.772
774.616	184.042
777.508	222.525
780.401	233.901
783.294	193.439
786.187	138.428
789.079	109.672
791.972	122.785
794.865	167.011
797.757	242.12
800.65	339.561
803.543	468.878
806.435	639.583
809.328	883.182
812.221	1174.41
815.114	1446.81
818.006	1690.78
820.899	1990.88
823.792	2220.35
826.684	2218.07
829.577	2163.42
832.47	2330.58
835.362	2517.34
838.255	2167.54
841.148	1595.03
844.04	1146.69
846.933	864.531
849.826	671.174
852.719	509.113
855.611	382.476
858.504	288.704
861.397	230.258
864.289	192.569
867.182	158.783
870.075	135.991
872.967	107.054
875.86	84.3616
878.753	54.423
881.646	24.5404
884.538	0.246643
887.431	14.5137
890.324	16.2862
893.216	12.3019
896.109	5.06026
899.002	5.37692
901.894	16.2981
904.787	25.7671
907.68	31.7886
910.573	31.828
913.465	25.4039
916.358	19.6778
919.251	14.323
922.143	10.3439
925.036	8.12536
927.929	10.3836
930.822	11.1875
933.714	14.0771
936.607	18.1319
939.5	23.56
942.392	30.1024
945.285	35.4451
948.178	41.3689
951.07	43.8245
953.963	42.2144
956.856	35.3708
959.749	28.991
962.641	23.0837
965.534	18.3197
968.427	14.7936
971.319	10.2913
974.212	9.02032
977.105	5.58232
979.997	2.54616
982.89	0.664581
985.783	1.1384
988.676	1.76356
991.568	1.96671
994.461	0.22086
997.354	0.822216
1000.25	2.48563
1003.14	3.60817
1006.03	7.27676
1008.92	10.318
1011.82	14.9399
1014.71	17.379
1017.6	20.6992
1020.5	23.676
1023.39	26.6789
1026.28	28.5997
1029.17	30.599
1032.07	33.8296
1034.96	35.0979
1037.85	35.8361
1040.74	35.3655
1043.64	34.7599
1046.53	33.9144
1049.42	28.8695
1052.32	25.0817
1055.21	21.1305
1058.1	18.6946
1060.99	15.5003
1063.89	14.3066
1066.78	11.7135
1069.67	11.3277
1072.56	9.7596
1075.46	8.1492
1078.35	6.57203
1081.24	5.16474
1084.13	3.51535
1087.03	2.16343
1089.92	1.58239
1092.81	0.259033
1095.7	0.105022
1098.6	0.777199
1101.49	0.188011
1104.38	0.399235
1107.28	0.248444
1110.17	0.302578
1113.06	0.089993
1115.95	0.43277
1118.85	0.317734
1121.74	0.454964
1124.63	0.088211
1127.53	0.430853
1130.42	0.499331
1133.31	0.503391
1136.2	0.0569
1139.1	0.463943
1141.99	0.74453
1144.88	1.08437
1147.77	1.19361
1150.67	1.85039
1153.56	1.1663
1156.45	0.973194
1159.35	0.916651
1162.24	1.52443
1165.13	1.59009
1168.02	0.352434
1170.92	0.606422
1173.81	1.34724
1176.7	1.04703
1179.59	0.753714
1182.49	1.10034
1185.38	0.940084
1188.27	1.27488
1191.16	1.46356
1194.06	1.19198
1196.95	0.148212
1199.84	0.411045
1202.73	0.685511
1205.63	0.077513
1208.52	0.093599
1211.41	0.563236
1214.31	0.846056
1217.2	0.297659
1220.09	0.451239
1222.98	1.03248
1225.88	0.097748
1228.77	0.531548
1231.66	1.29809
1234.56	0.218946
1237.45	0.132059
1240.34	0.695499
1243.23	0.058268
1246.13	0.811975
1249.02	1.20726
1251.91	0.89259
1254.8	0.675449
1257.7	0.688051
1260.59	0.507832
1263.48	1.67413
1266.38	1.12115
1269.27	1.82871
1272.16	1.17137
1275.05	1.3501
1277.95	1.40455
1280.84	0.728945
1283.73	1.05362
1286.62	1.39422
1289.52	0.698326
1292.41	0.792646
1295.3	0.224518
1298.19	0.015223
1301.09	0.267693
