Measurement: Raman, 532 nm, unoriented, Raman Data Processed
Mineral: Conichalcite
Rruff sample: R050028
Ideal chemistry: CaCu^2+^As^5+^O_4_(OH)
Locality: Mapimi, Durango, Mexico
Source: Eugene Schlepp
Description: Green botryoidal groups covering adamite
Measured chemistry: Ca_1.00_(Cu_0.70_Zn_0.30_)_Î£=1_(As_1.00_O_4_)(OH)
Raman shift (cm-1)	intensity
137.609	0
140.984	6.84277
144.358	78.0908
147.733	280.239
151.108	555.088
154.483	972.409
157.858	1385.13
161.233	1535.24
164.607	1363.69
167.982	1152.12
171.357	1060.49
174.732	1156.32
178.107	1226.55
181.482	1205.14
184.856	1067.1
188.231	929.877
191.606	1014.19
194.981	1209.8
198.356	1586.48
201.731	2069.91
205.105	2633.84
208.48	2892.87
211.855	2573.15
215.23	2069.49
218.605	1686.21
221.979	1218.13
225.354	803.15
228.729	501.797
232.104	264.393
235.479	53.9121
238.853	7.13574
242.228	5.74121
245.603	54.0796
248.978	34.0112
252.353	28.1948
255.727	13.2402
259.102	90.0923
262.477	176.612
265.852	291.936
269.227	405.903
272.602	554.248
275.976	589.113
279.351	587.82
282.726	542.716
286.101	476.837
289.476	386.4
292.851	225.328
296.225	177.932
299.6	180.473
302.975	358.175
306.35	666.34
309.725	1346.69
313.099	2309.91
316.474	3585.74
319.849	5049.4
323.224	5964.84
326.599	5408.46
329.974	4230.84
333.348	3332.33
336.723	2615.73
340.098	2115.82
343.473	1634.2
346.848	1398.8
350.223	1290.04
353.597	1301.2
356.972	1244.52
360.347	1065.02
363.722	771.68
367.097	613.007
370.471	531.83
373.846	468.662
377.221	297.938
380.596	181.945
383.971	95.2563
387.346	22.2329
390.72	43.6792
394.095	15.0845
397.47	95.6773
400.845	93.0117
404.219	50.4019
407.594	61.9331
410.969	282.101
414.344	569.796
417.719	1018.62
421.094	1556.38
424.469	2130.18
427.843	2600.58
431.218	2990.99
434.593	3030.19
437.968	2729.26
441.343	2154.43
444.717	1942.02
448.092	1926.85
451.467	2057.6
454.842	2184.76
458.217	2289.93
461.591	2598.08
464.966	3007.51
468.341	3419.46
471.716	3405.66
475.091	3342.35
478.466	3068.95
481.84	2780.7
485.215	2369.68
488.59	1809.28
491.965	1229.89
495.34	848.715
498.714	517.636
502.089	396.684
505.464	304.866
508.839	258.406
512.214	324.006
515.589	386.438
518.963	468.099
522.338	574.133
525.713	627.487
529.088	712.585
532.463	537.328
535.837	322.482
539.212	74.2651
542.587	23.0469
545.962	72.4268
549.337	19.0727
552.712	44.6733
556.086	4.68506
559.461	21.7368
562.836	53.3164
566.211	57.2612
569.586	50.0239
572.96	131.936
576.335	59.5947
579.71	43.4961
583.085	77.834
586.46	83.7935
589.835	91.687
593.209	179.431
596.584	106.815
599.959	141.195
603.334	167.309
606.709	190.791
610.083	171.236
613.458	212.938
616.833	200.53
620.208	161.939
623.583	184.597
626.958	140.633
630.332	224.721
633.707	231.196
637.082	241.686
640.457	288.108
643.832	268.928
647.207	306.579
650.581	340.859
653.956	286.791
657.331	320.975
660.706	339.025
664.081	360.575
667.455	328.243
670.83	411.489
674.205	376.722
677.58	339.547
680.955	275.159
684.33	320.773
687.704	212.044
691.079	193.897
694.454	139.714
697.829	120.996
701.204	88.3452
704.578	18.398
707.953	9.43213
711.328	14.7036
714.703	37.3975
718.078	16.396
721.452	30.0464
724.827	86.9522
728.202	102.424
731.577	87.4214
734.952	25.4463
738.327	151.655
741.701	288.881
745.076	583.586
748.451	866.864
751.826	1149.34
755.201	1427.03
758.576	1616.42
761.95	1861
765.325	2272.62
768.7	2913.81
772.075	3786.06
775.45	4862.29
778.824	5724.67
782.199	6601.09
785.574	7407.92
788.949	8293.19
792.324	9211.97
795.698	10349.7
799.073	11260.6
802.448	12176
805.823	13743.9
809.198	16228.6
812.573	19144.8
815.947	22900.6
819.322	28870.4
822.697	36955.8
826.072	46113.1
829.447	51042.3
832.822	35769
836.196	16734.1
839.571	8025.28
842.946	4564.17
846.321	2748.12
849.696	1889.68
853.07	1399.22
856.445	1154.82
859.82	1084.7
863.195	976.188
866.57	765.689
869.944	372.5
873.319	76.8965
876.694	64.4248
880.069	18.6411
883.444	12.0488
886.819	57.5405
890.193	39.3481
893.568	104.207
896.943	135.875
900.318	134.427
903.693	19.3525
907.067	69.8018
910.442	155.878
913.817	234.673
917.192	350.669
920.567	304.481
923.942	295.267
927.316	277.286
930.691	202.357
934.066	255.999
937.441	221.043
940.816	172.271
944.191	189.281
947.565	207.998
950.94	192.169
954.315	206.083
957.69	141.343
961.065	40.8945
964.439	93.5186
967.814	102.739
971.189	98.1611
974.564	80.2168
977.939	90.1455
981.313	147.423
984.688	157.116
988.063	144.167
991.438	57.4683
994.813	66.1665
998.188	117.813
1001.56	49.3149
1004.94	110.816
1008.31	34.8135
1011.69	83.9326
1015.06	111.278
1018.44	76.1231
1021.81	104.272
1025.19	109.882
1028.56	66.7949
1031.94	164.123
1035.31	177.907
1038.68	205.92
1042.06	208.845
1045.43	248.032
1048.81	299.166
1052.18	323.306
1055.56	288.978
1058.93	226.02
1062.31	103.073
1065.68	82.4082
1069.06	88.7407
1072.43	44.5147
1075.81	34.1333
1079.18	53.9536
1082.56	19.0024
1085.93	34.4341
1089.31	38.1079
1092.68	7.60059
1096.06	42.4014
1099.43	1.20264
1102.81	30.3906
1106.18	62.1973
1109.56	19.3447
1112.93	27.2026
1116.31	49.1377
1119.68	75.8672
1123.06	73.5898
1126.43	147.234
1129.81	46.6245
1133.18	20.6914
1136.56	50.6016
1139.93	49.8032
1143.31	128.05
1146.68	111.651
1150.05	88.2827
1153.43	61.8906
1156.8	71.916
1160.18	109.752
1163.55	35.523
1166.93	92.0249
1170.3	29.9565
1173.68	135.467
1177.05	37.623
1180.43	5.74463
1183.8	67.3193
1187.18	10.373
1190.55	62.3101
1193.93	5.60352
1197.3	47.1982
1200.68	27.9175
1204.05	32.7461
1207.43	49.7437
1210.8	88.4375
1214.18	23.6997
1217.55	19.4219
1220.93	42.3555
1224.3	62.1201
1227.67	56.5952
1231.05	5.34229
1234.42	40.561
1237.8	23.064
1241.17	62.5234
1244.55	74.6201
1247.92	66.7827
1251.3	37.7974
1254.67	32.3037
1258.05	54.9077
1261.42	56.4893
1264.8	83.3062
1268.17	55.5415
1271.55	94.7554
1274.92	77.2124
1278.3	39.6899
1281.67	0.001465
1285.05	115.818
1288.42	101.171
1291.8	93.791
1295.17	3.00391
