Measurement: Raman, 514 nm, unoriented, Raman Data Processed
Mineral: Conichalcite
Rruff sample: R050028
Ideal chemistry: CaCu^2+^As^5+^O_4_(OH)
Locality: Mapimi, Durango, Mexico
Source: Eugene Schlepp
Description: Green botryoidal groups covering adamite
Measured chemistry: Ca_1.00_(Cu_0.70_Zn_0.30_)_Î£=1_(As_1.00_O_4_)(OH)
Raman shift (cm-1)	intensity
73.842	0
78.031	4.696
82.218	161.36
86.404	561.888
90.587	1321.01
94.768	1931.69
98.947	1722.38
103.124	1366.82
107.3	1660.91
111.473	2220.48
115.644	2721.82
119.813	2421.58
123.981	1805.44
128.146	1065.26
132.309	732.36
136.47	693.947
140.63	601.159
144.787	405.068
148.942	436.715
153.096	648.124
157.247	1067.06
161.396	1322.13
165.544	1085.47
169.689	875.713
173.833	838.892
177.974	1137.04
182.114	1048.15
186.251	893.203
190.387	737.164
194.52	753.003
198.652	784.689
202.782	1337.14
206.909	1937.26
211.035	1775.04
215.159	1270.46
219.281	939.497
223.4	654.484
227.518	399.059
231.634	179.049
235.748	18.701
239.86	121.401
243.97	144.649
248.079	170.717
252.185	66.604
256.289	41.994
260.391	46.876
264.492	164.844
268.59	290.781
272.687	449.555
276.781	587.046
280.874	706.187
284.964	687.879
289.053	630.043
293.14	486.645
297.225	330.711
301.308	286.167
305.389	369.054
309.468	755.356
313.545	1425.04
317.62	2744.07
321.693	4544.28
325.765	4980.99
329.834	4160.36
333.902	3495.97
337.967	2903.93
342.031	2215.22
346.093	1773.84
350.153	1431.74
354.21	1512.89
358.267	1479.27
362.321	1210.87
366.373	988.667
370.423	892.656
374.471	856.821
378.518	709.151
382.563	556.639
386.605	520.269
390.646	450.03
394.685	348.913
398.722	311.847
402.757	225.038
406.79	244.538
410.821	314.097
414.851	479.279
418.878	811.997
422.904	1221.28
426.927	1627.08
430.949	1911.74
434.969	2097.26
438.987	1860.1
443.003	1540.18
447.018	1426.91
451.03	1579.26
455.041	1520.89
459.049	1628.2
463.056	1915.74
467.061	2415.57
471.064	2837.36
475.065	2916.98
479.064	3042.32
483.062	2993.06
487.057	2526.55
491.051	1796.86
495.043	1313.91
499.032	924.475
503.02	659.485
507.007	538.729
510.991	612.596
514.973	630.399
518.954	708.913
522.933	885.734
526.91	1134.13
530.885	1215.2
534.858	951.058
538.829	613.171
542.799	287.721
546.766	196.109
550.732	129.329
554.696	91.378
558.658	139.249
562.618	26.033
566.576	73.827
570.533	12.632
574.488	41.391
578.44	18.027
582.391	0.345
586.341	29.733
590.288	26.627
594.233	39.426
598.177	82.923
602.119	20.896
606.059	20.365
609.997	35.669
613.933	15.79
617.868	16.267
621.801	65.074
625.731	16.95
629.66	61.266
633.588	10.052
637.513	11.792
641.437	57.311
645.358	52.537
649.278	43.471
653.196	5.035
657.113	6.546
661.027	11.174
664.94	46.159
668.851	68.623
672.76	71.869
676.667	20.911
680.572	39.742
684.476	62.38
688.378	117.824
692.278	136.081
696.176	72.144
700.072	141.019
703.967	157.716
707.86	162.238
711.751	175.589
715.64	242.205
719.527	346.072
723.413	314.844
727.297	359.285
731.179	434.345
735.059	522.154
738.937	676.41
742.814	798.846
746.689	1046.04
750.562	1412.51
754.433	1784.11
758.303	1960.06
762.17	2110.45
766.036	2413.77
769.901	2860.79
773.763	3664.2
777.624	4462.66
781.482	5225.39
785.339	5848.86
789.195	6255.15
793.048	6781.65
796.9	8002.35
800.75	9442.24
804.598	11605.2
808.445	13853.1
812.289	16511.9
816.132	20402.2
819.973	23418.9
823.813	25761.2
827.65	41301.8
831.486	47723.9
835.32	26642.9
839.152	12801.8
842.983	7639.1
846.812	5196.29
850.639	3845.21
854.464	3070.61
858.288	2526.15
862.11	2223.81
865.93	1984.57
869.748	1732.48
873.564	1457.49
877.379	1276.61
881.192	1435.9
885.004	1650.32
888.813	1651.89
892.621	1195.66
896.427	851.645
900.232	562.93
904.034	555.424
907.835	519.147
911.634	521.113
915.432	565.354
919.227	613.827
923.021	485.594
926.813	448.571
930.604	311.791
934.393	290.272
938.18	205.632
941.965	165.573
945.749	157.88
949.53	114.123
953.311	29.691
957.089	38.679
960.866	36.09
964.641	23.97
968.414	44.862
972.185	44.891
975.955	59.585
979.723	65.148
983.49	37.32
987.254	39.801
991.017	56.667
994.779	7.256
998.538	76.317
1002.3	13.924
1006.05	55.613
1009.81	20.895
1013.56	56.114
1017.31	59.887
1021.06	140.07
1024.81	135.564
1028.55	100.64
1032.3	121.07
1036.04	204.415
1039.78	173.241
1043.52	296.015
1047.26	236.112
1050.99	308.479
1054.73	401.464
1058.46	358.283
1062.19	212.438
1065.92	152.637
1069.65	120.366
1073.37	40.241
1077.1	33.271
1080.82	51.14
1084.54	59.795
1088.26	25.434
1091.97	16.044
1095.69	10.493
1099.4	1.892
1103.12	9.54
1106.83	39.668
1110.54	10.752
1114.24	2.033
1117.95	34.873
1121.65	80.467
1125.35	67.811
1129.06	11.04
1132.75	32.975
1136.45	34.715
1140.15	1.479
1143.84	12.528
1147.53	8.259
1151.22	67.799
1154.91	59.985
1158.6	83.898
1162.28	47.714
1165.97	6.832
1169.65	121.027
1173.33	15.205
1177.01	94.604
1180.69	10.612
1184.36	17.727
1188.04	73.073
1191.71	143.653
1195.38	46.286
1199.05	58.193
1202.71	157.197
1206.38	63.289
1210.04	101.966
1213.71	120.299
1217.37	103.532
1221.03	148.471
1224.68	83.231
1228.34	115.374
1231.99	100.925
1235.65	114.527
1239.3	86.562
1242.95	167.419
1246.59	96.938
1250.24	114.393
1253.88	150.737
1257.53	101.896
1261.17	68.46
1264.81	119.799
1268.45	113.254
1272.08	146.7
1275.72	29.102
1279.35	144.602
1282.98	80.35
1286.61	85.654
1290.24	43.677
1293.87	4.222
1297.49	9.95
1301.11	21.837
1304.73	75.197
1308.36	124.258
1311.97	31.816
1315.59	41.994
1319.2	90.974
1322.82	13.47
1326.43	4.629
1330.04	61.247
1333.65	31.936
1337.26	76.807
1340.86	16.708
1344.47	42.74
1348.07	17.209
1351.67	108.182
1355.27	116.171
1358.87	85.359
1362.46	109.959
1366.06	107.177
1369.65	100.621
1373.24	98.448
1376.83	51.248
1380.42	100.867
1384	88.438
1387.59	34.881
1391.17	114.823
1394.75	68.027
1398.33	64.785
1401.91	46.862
1405.49	22.865
1409.06	53.667
1412.64	8.908
1416.21	112.033
1419.78	150.067
1423.35	119.86
1426.91	48.652
1430.48	60.068
1434.05	119.527
1437.61	138.998
1441.17	61.529
1444.73	103.152
1448.29	105.052
1451.84	174.142
1455.4	104.796
1458.95	146.4
1462.5	126.554
1466.05	50.771
1469.6	153.34
1473.15	175.955
1476.69	55.933
1480.24	58.58
1483.78	40.393
1487.32	129.543
1490.86	53.059
1494.39	79.194
1497.93	17.051
1501.46	64.747
1505	11.668
1508.53	11.394
1512.06	7.004
1515.59	70.961
