Measurement: Raman, 780 nm, unoriented, Raman Data Processed
Mineral: Conichalcite
Rruff sample: R050506
Ideal chemistry: CaCu^2+^As^5+^O_4_(OH)
Locality: Higgins mine, Bisbee, Arizona, USA
Source: University of Arizona Mineral Museum
Description: Aggregate of green granules
Raman shift (cm-1)	intensity
144.154	0
147.047	1.33856
149.94	1.9005
152.832	1.7682
155.725	3.38748
158.618	8.29067
161.51	7.51979
164.403	3.4236
167.296	0.968439
170.189	0.010391
173.081	0.249834
175.974	2.37332
178.867	3.14038
181.759	3.75149
184.652	5.33479
187.545	6.12737
190.437	8.1183
193.33	9.84336
196.223	9.61802
199.115	8.5142
202.008	8.3177
204.901	9.86684
207.794	7.82468
210.686	4.94134
213.579	2.98093
216.472	1.53586
219.364	0.690757
222.257	1.24178
225.15	0.645403
228.042	0.133879
230.935	0.509338
233.828	0.640183
236.721	0.225867
239.613	0.021211
242.506	0.115423
245.399	0.508162
248.291	0.432677
251.184	1.34552
254.077	3.65582
256.969	4.22498
259.862	5.65756
262.755	7.86096
265.648	11.1707
268.54	14.4572
271.433	17.2782
274.326	16.9367
277.218	14.3472
280.111	10.7424
283.004	8.28242
285.897	7.39652
288.789	5.98454
291.682	5.17043
294.575	6.75928
297.467	8.62037
300.36	13.6068
303.253	19.7534
306.145	29.9682
309.038	37.9148
311.931	49.8943
314.824	65.2013
317.716	84.4083
320.609	100.817
323.502	95.838
326.394	73.4435
329.287	52.8142
332.18	40.3927
335.072	31.3046
337.965	24.1936
340.858	18.9331
343.75	15.392
346.643	13.3809
349.536	13.3289
352.429	14.0927
355.321	15.0464
358.214	13.2299
361.107	8.49855
364	6.09551
366.892	3.54194
369.785	1.78019
372.678	0.891443
375.57	0.237977
378.463	0.590665
381.356	0.000491
384.248	0.508666
387.141	0.083452
390.034	0.032475
392.926	0.153339
395.819	0.390915
398.712	0.352165
401.605	0.769662
404.497	1.91345
407.39	1.73882
410.283	2.99196
413.175	2.99798
416.068	4.20988
418.961	5.66059
421.853	7.83091
424.746	8.90661
427.639	8.20295
430.532	6.58319
433.424	6.99751
436.317	6.72922
439.21	7.43443
442.102	6.21969
444.995	7.08751
447.888	6.18616
450.781	3.41789
453.673	2.29539
456.566	0.174545
459.459	0.081267
462.351	0.734818
465.244	1.45965
468.137	2.2657
471.029	3.89183
473.922	6.19063
476.815	9.56687
479.707	11.752
482.6	13.689
485.493	11.8628
488.386	6.72278
491.278	3.9465
494.171	1.95909
497.064	0.758922
499.956	0.054209
502.849	0.194416
505.742	0.127263
508.635	0.316565
511.527	0.104825
514.42	0.758976
517.313	0.531426
520.205	0.665768
523.098	1.28767
525.991	2.35281
528.883	3.92681
531.776	4.95979
534.669	5.36976
537.562	4.16623
540.454	2.16569
543.347	1.19381
546.24	0.848307
549.132	0.927579
552.025	1.01625
554.918	0.783347
557.81	0.593445
560.703	0.413015
563.596	0.428035
566.489	0.234978
569.381	0.346572
572.274	0.311637
575.167	0.272842
578.059	0.094993
580.952	0.308293
583.845	0.38018
586.737	0.389443
589.63	1.14963
592.523	1.14413
595.415	0.654405
598.308	0.557988
601.201	0.42292
604.094	0.13956
606.986	0.370925
609.879	0.465528
612.772	0.95959
615.664	0.147924
618.557	0.431
621.45	0.18898
624.342	0.923255
627.235	0.21028
630.128	0.788889
633.021	0.528443
635.913	0.682002
638.806	0.739191
641.699	0.806602
644.591	0.973837
647.484	0.691883
650.377	0.441835
653.269	0.441516
656.162	0.628398
659.055	0.756694
661.948	0.746665
664.84	1.13924
667.733	0.15353
670.626	0.622272
673.518	0.717869
676.411	0.052312
679.304	0.368896
682.197	0.682186
685.089	0.497947
687.982	0.589555
690.875	0.487004
693.767	0.359492
696.66	0.235659
699.553	0.017594
702.445	0.090845
705.338	0.037738
708.231	0.542134
711.124	0.076859
714.016	0.109824
716.909	0.011841
719.802	0.383697
722.694	0.30439
725.587	0.04879
728.48	0.15234
731.372	0.065963
734.265	0.154982
737.158	0.303435
740.051	0.013099
742.943	0.423375
745.836	0.419388
748.729	0.033141
751.621	0.30044
754.514	0.303625
757.407	0.822902
760.299	1.19344
763.192	2.6272
766.085	3.43016
768.977	4.63207
771.87	6.70287
774.763	9.28992
777.656	11.6579
780.548	11.4393
783.441	9.86654
786.334	7.80861
789.226	7.55027
792.119	8.27582
795.012	10.6407
797.904	16.3445
800.797	24.7422
803.69	36.1243
806.583	55.8351
809.475	81.3932
812.368	95.4545
815.261	101.343
818.153	135.896
821.046	187.565
823.939	176.209
826.832	151.823
829.724	198.069
832.617	229.898
835.51	100.416
838.402	39.318
841.295	20.7725
844.188	13.191
847.08	9.81687
849.973	6.08536
852.866	4.69055
855.759	4.10637
858.651	3.48204
861.544	2.66248
864.437	2.70665
867.329	1.76822
870.222	1.50712
873.115	0.770908
876.007	0.471346
878.9	0.066015
881.793	0.150526
884.686	0.160635
887.578	0.238636
890.471	0.026857
893.364	0.107913
896.256	0.003641
899.149	0.206962
902.042	0.454432
904.934	0.297725
907.827	0.355519
910.72	0.470361
913.612	0.7492
916.505	0.76103
919.398	1.13175
922.291	1.04651
925.183	0.800414
928.076	0.85958
930.969	0.596416
933.861	0.902238
936.754	0.929353
939.647	0.974913
942.539	0.741648
945.432	1.07417
948.325	0.367864
951.218	0.097322
954.11	0.007159
957.003	0.332539
959.896	0.298101
962.788	0.538158
965.681	0.063447
968.574	0.144433
971.466	0.340329
974.359	0.518007
977.252	0.546619
980.145	0.386143
983.037	0.015595
985.93	0.594484
988.823	0.060665
991.715	0.711928
994.608	0.484002
997.501	0.74702
1000.39	0.283331
1003.29	0.745355
1006.18	0.824976
1009.07	0.633238
1011.96	0.800364
1014.86	0.237122
1017.75	0.909752
1020.64	0.558176
1023.53	0.550701
1026.43	0.628817
1029.32	0.595729
1032.21	0.591222
1035.11	0.593482
1038	0.780997
1040.89	0.288409
1043.78	0.941461
1046.68	0.759629
1049.57	0.461053
1052.46	0.440045
1055.36	0.837986
1058.25	0.854545
1061.14	0.409848
1064.03	0.750876
1066.93	0.692356
1069.82	0.602256
1072.71	0.54173
1075.6	0.602545
1078.5	0.078489
1081.39	0.32381
1084.28	0.70145
1087.17	0.242741
1090.07	0.171687
1092.96	0.307987
1095.85	0.555921
1098.74	0.05837
1101.64	0.268819
1104.53	0.093418
1107.42	0.469777
1110.32	0.031589
1113.21	0.937318
1116.1	0.388227
1118.99	0.371118
1121.89	0.523823
1124.78	0.392672
1127.67	0.273869
1130.57	0.498564
1133.46	0.476931
1136.35	0.116051
1139.24	0.581165
1142.14	0.392053
1145.03	0.21678
1147.92	0.577705
1150.81	0.028889
1153.71	0.527503
1156.6	0.561433
1159.49	0.091971
1162.38	0.455812
1165.28	0.59217
1168.17	0.141217
1171.06	0.43253
1173.96	0.544266
1176.85	0.37228
1179.74	0.623292
1182.63	0.540153
1185.53	0.244222
1188.42	0.501375
1191.31	0.447878
1194.2	0.780805
1197.1	0.992192
1199.99	0.476488
1202.88	0.580144
1205.78	0.632097
1208.67	0.354424
1211.56	0.371665
1214.45	0.468314
1217.35	0.670223
1220.24	0.030529
1223.13	0.599548
1226.02	0.279045
1228.92	0.486387
1231.81	0.164477
1234.7	0.481668
1237.6	0.674487
1240.49	0.546524
1243.38	0.35758
1246.27	0.200393
1249.17	0.369032
1252.06	0.443896
1254.95	0.634453
1257.84	0.412986
1260.74	0.403186
1263.63	0.068639
1266.52	0.612189
1269.41	0.486846
1272.31	0.77079
1275.2	0.350036
1278.09	0.322561
1280.98	0.017028
1283.88	0.282057
