Measurement: Raman, 514 nm, unoriented, Raman Data Processed
Mineral: Conichalcite
Rruff sample: R040167
Ideal chemistry: CaCu^2+^As^5+^O_4_(OH)
Locality: Ojuela mine, Mapimi, Durango, Mexico
Source: University of Arizona Mineral Museum
Description: Green druse
Measured chemistry: Ca_1.00_(Cu_0.70_Zn_0.30_)_Î£=1_(As_1.00_O_4_)(OH) ; OH estimated by difference and stoichiometry
Raman shift (cm-1)	intensity
54.266	0
58.464	37.38
62.661	12.437
66.856	37.248
71.048	142.281
75.239	332.233
79.427	521.473
83.614	756.567
87.798	946.127
91.981	1498.22
96.161	1760.27
100.34	1420.79
104.516	1048.51
108.691	970.288
112.864	1152.21
117.034	1017.25
121.203	758.372
125.369	588.568
129.534	518.806
133.696	441.061
137.857	472.276
142.016	358.756
146.172	359.427
150.327	339.788
154.48	470.85
158.63	637.832
162.779	592.635
166.926	574.092
171.07	571.218
175.213	652.018
179.354	758.491
183.493	767.63
187.63	597.418
191.765	452.831
195.898	482.857
200.029	740.485
204.158	1430.7
208.285	1920.48
212.41	1664.82
216.533	1134.69
220.654	828.096
224.773	539.948
228.891	307.27
233.006	80.673
237.119	35.873
241.231	71.547
245.34	62.489
249.448	56.78
253.553	62.459
257.657	19.459
261.758	46.992
265.858	141.115
269.956	217.777
274.052	262.667
278.146	338.699
282.237	362.94
286.327	340.688
290.416	257.918
294.502	197.597
298.586	144.691
302.668	168.18
306.749	254.064
310.827	466.326
314.903	945.818
318.978	1902.52
323.051	3127.53
327.121	3748.88
331.19	4031.56
335.257	3858.58
339.322	3051.89
343.385	2087.5
347.446	1517.83
351.505	1313.49
355.563	1359.86
359.618	1090.47
363.672	910.303
367.723	847.352
371.773	888.608
375.821	909.061
379.866	869.705
383.91	780.544
387.952	811.671
391.992	818.088
396.031	697.779
400.067	605.229
404.101	531.104
408.134	435.606
412.165	526.22
416.193	696.919
420.22	1036.3
424.245	1385.19
428.268	2018.08
432.289	2107.33
436.309	1588.02
440.326	1068.48
444.342	790.301
448.355	917.035
452.367	1156.26
456.377	1824.25
460.385	3203.93
464.391	4415.66
468.395	3960.61
472.398	2726.57
476.398	1922.65
480.397	1633.25
484.394	1469.13
488.389	1324.99
492.382	1136.8
496.373	1008.95
500.362	1010.71
504.349	1178.83
508.335	1182.59
512.319	1108.55
516.3	955.345
520.28	888.823
524.259	855.251
528.235	709.661
532.209	543.018
536.182	299.306
540.152	146.563
544.121	69.735
548.088	51.84
552.053	14.875
556.017	23.833
559.978	17.708
563.938	22.529
567.895	32.312
571.851	21.024
575.805	6.389
579.758	37.988
583.708	14.894
587.657	6.073
591.603	21.541
595.548	18.358
599.491	32.514
603.432	44.048
607.372	15.967
611.309	21.219
615.245	3.778
619.179	20.605
623.111	13.708
627.041	5.908
630.97	13.29
634.896	18.469
638.821	6.554
642.744	28.205
646.665	3.285
650.584	3.124
654.502	25.266
658.418	24.243
662.331	48.063
666.244	28.744
670.154	50.279
674.062	67.676
677.969	76.94
681.874	72.076
685.777	75.086
689.678	57.972
693.577	62.734
697.475	60.376
701.371	96.899
705.265	84.305
709.157	134.597
713.047	129.777
716.936	173.769
720.823	177.731
724.708	250.588
728.591	255.479
732.472	262.152
736.352	315.9
740.23	360.937
744.106	480.229
747.98	632.829
751.853	795.158
755.723	1044.72
759.592	1330.14
763.459	1597.21
767.325	2014.74
771.188	2382.03
775.05	2877.53
778.91	3495.5
782.768	4055.09
786.625	4633.81
790.479	5819.34
794.332	8026.02
798.183	9675.12
802.033	10044.1
805.88	10134
809.726	11903.3
813.57	16184.3
817.413	16768.3
821.253	19527.2
825.092	41175.3
828.929	56271.4
832.764	30121.8
836.598	12731.3
840.429	6478.9
844.259	3807.53
848.088	2524.26
851.914	1946.04
855.739	1700.91
859.562	1539.85
863.383	1340.87
867.203	1098.61
871.02	811.153
874.836	625.449
878.65	501.851
882.463	469.352
886.274	324.979
890.083	342.752
893.89	275.718
897.695	302.853
901.499	264.18
905.301	316.706
909.102	274.697
912.9	314.382
916.697	408.539
920.492	441.885
924.285	351.396
928.077	265.069
931.867	159.027
935.655	110.03
939.442	100.61
943.226	44.72
947.009	44.8
950.791	20.378
954.57	33.586
958.348	11.752
962.124	5.258
965.899	34.975
969.671	54.175
973.442	45.227
977.211	140.413
980.979	136.102
984.745	117.002
988.509	70.554
992.271	20.278
996.032	33.337
999.791	38.516
1003.55	24.216
1007.3	46.202
1011.06	11.946
1014.81	29.024
1018.56	35.142
1022.31	52.124
1026.06	65.486
1029.8	101.654
1033.55	62.929
1037.29	86.11
1041.03	116.661
1044.77	164.662
1048.5	111.021
1052.24	185.571
1055.97	405.903
1059.7	363.324
1063.43	165.816
1067.16	64.106
1070.89	53.39
1074.61	20.744
1078.34	23.224
1082.06	6.37
1085.78	11.568
1089.5	5.706
1093.21	7.543
1096.93	16.397
1100.64	40.332
1104.35	22.574
1108.06	9.558
1111.77	33.712
1115.48	3.064
1119.18	8.436
1122.89	66.211
1126.59	35.867
1130.29	3.335
1133.99	29.201
1137.68	0.944
1141.38	17.257
1145.07	5.417
1148.76	2.414
1152.45	10.352
1156.14	2.419
1159.83	13.752
1163.51	6.698
1167.19	4.322
1170.88	8.893
1174.56	6.25
1178.23	19.466
1181.91	9.839
1185.59	47.888
1189.26	2.856
1192.93	1.22
1196.6	45.556
1200.27	32.347
1203.94	64.987
1207.6	25.961
1211.27	66.441
1214.93	53.916
1218.59	42.279
1222.25	31.54
1225.9	42.76
1229.56	39.652
1233.21	76.562
1236.86	52.234
1240.51	46.183
1244.16	44.871
1247.81	60.945
1251.45	50.197
1255.1	43.143
1258.74	58.223
1262.38	51.722
1266.02	59.555
1269.66	27.477
1273.29	50.774
1276.93	41.473
1280.56	62.937
1284.19	32.544
1287.82	40.287
1291.45	41.911
1295.07	31.99
1298.7	29.038
1302.32	16.825
1305.94	19.495
1309.56	39.344
1313.18	40.53
1316.8	15.162
1320.41	35.123
1324.02	20.813
1327.63	33.678
1331.24	56.373
1334.85	15.43
1338.46	32.591
1342.06	43.772
1345.67	48.579
1349.27	34.757
1352.87	22.574
1356.47	32.614
1360.07	39.687
1363.66	23.774
1367.25	42.698
1370.85	27.635
1374.44	15.018
1378.03	43.005
1381.61	32.374
1385.2	35.43
1388.78	31.303
1392.37	31.174
1395.95	23.073
1399.53	41.749
1403.1	49.432
1406.68	51.242
1410.26	45.03
1413.83	49.714
1417.4	29.498
1420.97	59.137
1424.54	32.933
1428.1	26.607
1431.67	16.56
1435.23	26.619
1438.8	48.917
1442.36	34.75
1445.91	57.715
1449.47	36.579
1453.03	39.456
1456.58	49.455
1460.13	55.469
1463.68	45.496
1467.23	37.555
1470.78	50.622
1474.33	27.707
1477.87	10.963
1481.42	18.702
1484.96	28.661
1488.5	41.148
1492.04	27.741
1495.57	49.45
1499.11	16.311
1502.64	14.344
1506.17	9.619
1509.71	21.784
1513.23	3.384
1516.76	7.5
1520.29	11.983
1523.81	0.004
