Measurement: Raman, 780 nm, unoriented, Raman Data Processed
Mineral: Conichalcite
Rruff sample: R120017
Ideal chemistry: CaCu^2+^As^5+^O_4_(OH)
Locality: New Cornelia mine, Ajo, Arizona, USA
Source: Ron Gibbs
Description: Elongated tufts of yellowish-green crystals, associated with ajoite, R120018
Raman shift (cm-1)	intensity
94.0141	0
97.3889	9.63644
100.764	1.20981
104.138	3.56587
107.513	28.5242
110.888	39.4851
114.263	76.9368
117.638	115.47
121.013	141.137
124.388	150.61
127.762	83.5568
131.137	25.5823
134.512	0.802689
137.887	0.553711
141.262	2.58981
144.636	1.4007
148.011	9.21419
151.386	15.5282
154.761	27.2313
158.136	41.2078
161.51	55.2102
164.885	52.8608
168.26	38.6824
171.635	27.4943
175.01	27.633
178.385	31.2705
181.759	35.9839
185.134	39.3891
188.509	39.2777
191.884	42.5515
195.259	49.4822
198.633	57.5133
202.008	67.3035
205.383	74.8446
208.758	64.293
212.133	47.777
215.507	32.1773
218.882	24.6329
222.257	15.89
225.632	10.4575
229.007	6.4985
232.382	2.368
235.756	0.826065
239.131	0.692314
242.506	2.49637
245.881	2.12092
249.256	1.76127
252.631	0.395256
256.005	1.56413
259.38	3.80959
262.755	8.51395
266.13	13.7641
269.505	21.0077
272.879	27.4691
276.254	28.3897
279.629	24.1545
283.004	20.8793
286.379	17.0036
289.753	13.164
293.128	9.27729
296.503	7.98581
299.878	12.7935
303.253	22.8946
306.628	40.0999
310.002	61.1534
313.377	88.0988
316.752	127.707
320.127	172.982
323.502	205.27
326.877	190.089
330.251	148.842
333.626	112.863
337.001	86.8476
340.376	65.5164
343.75	49.2348
347.125	40.6024
350.5	34.8963
353.875	27.8129
357.25	28.1762
360.625	23.5889
364	22.1212
367.374	18.1807
370.749	12.1037
374.124	11.5446
377.499	6.20712
380.873	4.93243
384.248	3.0443
387.623	1.10023
390.998	0.610809
394.373	0.98069
397.748	0.091194
401.122	2.50279
404.497	0.268372
407.872	2.04946
411.247	5.56489
414.622	8.53953
417.997	14.6743
421.371	17.9142
424.746	22.689
428.121	26.8925
431.496	29.6262
434.871	29.5114
438.245	34.5184
441.62	36.6948
444.995	34.6286
448.37	33.1604
451.745	27.2196
455.12	19.2314
458.494	12.3834
461.869	8.3132
465.244	8.78788
468.619	12.724
471.994	20.2982
475.368	32.429
478.743	45.7532
482.118	66.6578
485.493	84.378
488.868	70.6068
492.243	37.3236
495.617	16.4801
498.992	7.77838
502.367	1.91394
505.742	3.93594
509.117	0.767063
512.491	0.393799
515.866	0.852932
519.241	2.14566
522.616	3.39154
525.991	4.51909
529.365	6.15172
532.74	8.30246
536.115	10.7671
539.49	5.54725
542.865	3.83959
546.24	2.45937
549.614	3.69244
552.989	3.32648
556.364	2.42766
559.739	5.1576
563.114	3.8213
566.489	2.92396
569.863	1.45668
573.238	1.66376
576.613	1.34038
579.988	1.72445
583.362	3.0432
586.737	2.00465
590.112	1.3463
593.487	1.70527
596.862	0.950394
600.237	0.173801
603.611	0.027443
606.986	1.20813
610.361	0.681221
613.736	0.969421
617.111	0.198925
620.486	0.473701
623.86	2.67624
627.235	1.80818
630.61	1.91069
633.985	1.8983
637.36	2.15877
640.734	3.16261
644.109	3.61007
647.484	3.11233
650.859	3.38729
654.234	4.53386
657.609	4.17009
660.983	5.60481
664.358	3.22521
667.733	3.29302
671.108	4.72746
674.483	4.82671
677.857	3.09813
681.232	4.04032
684.607	2.68025
687.982	3.25725
691.357	1.09145
694.731	2.22621
698.106	0.942375
701.481	0.09153
704.856	0.666519
708.231	0.178886
711.606	1.18398
714.98	1.58489
718.355	1.026
721.73	1.72236
725.105	1.94859
728.48	0.510906
731.855	0.162514
735.229	0.559982
738.604	0.077278
741.979	4.15057
745.354	3.76553
748.729	3.47851
752.103	4.44404
755.478	6.13368
758.853	8.23366
762.228	15.5858
765.603	21.6691
768.977	31.2251
772.352	46.5457
775.727	63.6024
779.102	75.7296
782.477	63.131
785.852	37.9788
789.226	23.7207
792.601	21.031
795.976	23.2829
799.351	39.3674
802.726	62.2319
806.101	104.027
809.475	160.621
812.85	219.322
816.225	262.772
819.6	320.161
822.975	389.726
826.349	402.297
829.724	430.078
833.099	516.179
836.474	447.269
839.849	274.251
843.223	166.679
846.598	114.706
849.973	84.3412
853.348	61.161
856.723	45.3227
860.097	34.9277
863.472	29.5558
866.847	25.8687
870.222	21.3037
873.597	18.9425
876.972	9.77502
880.346	3.9295
883.721	0.442703
887.096	3.05578
890.471	2.24442
893.846	0.608467
897.221	1.42789
900.595	2.62476
903.97	3.29231
907.345	2.96478
910.72	2.00338
914.095	1.26477
917.469	3.99651
920.844	2.32987
924.219	0.019096
927.594	1.06526
930.969	2.27174
934.343	3.58434
937.718	5.31135
941.093	4.72572
944.468	7.1981
947.843	7.07283
951.218	10.1226
954.592	10.3206
957.967	6.61231
961.342	6.48071
964.717	6.31319
968.092	3.46328
971.466	3.17171
974.841	3.85686
978.216	1.04881
981.591	0.0392
984.966	0.242531
988.341	0.010494
991.715	0.484776
995.09	0.326054
998.465	0.053028
1001.84	1.00021
1005.22	1.21795
1008.59	2.68405
1011.96	2.23747
1015.34	2.57553
1018.71	4.40369
1022.09	4.63448
1025.46	4.29073
1028.84	4.41556
1032.21	3.25375
1035.59	4.71669
1038.96	4.60007
1042.34	5.69589
1045.71	4.89719
1049.09	4.83643
1052.46	3.97
1055.84	3.0166
1059.21	1.82295
1062.59	3.15056
1065.96	2.90595
1069.34	3.03735
1072.71	3.10186
1076.09	0.887764
1079.46	0.869083
1082.84	1.01308
1086.21	0.897774
1089.59	2.74168
1092.96	0.909653
1096.34	1.45429
1099.71	0.887974
1103.08	1.76859
1106.46	0.225376
1109.83	1.71155
1113.21	1.24109
1116.58	1.48243
1119.96	1.12716
1123.33	0.948254
1126.71	0.830662
1130.08	1.13882
1133.46	0.423866
1136.83	0.418137
1140.21	1.55096
1143.58	1.00459
1146.96	0.760696
1150.33	0.178753
1153.71	0.235317
1157.08	2.06288
1160.46	0.546024
1163.83	1.44984
1167.21	0.815456
1170.58	2.65271
1173.96	3.38618
1177.33	2.29499
1180.7	2.47733
1184.08	2.71804
1187.45	1.89973
1190.83	2.56667
1194.2	1.73337
1197.58	1.56614
1200.95	2.87024
1204.33	3.01457
1207.7	2.3105
1211.08	1.04972
1214.45	1.26236
1217.83	1.62452
1221.2	1.67986
1224.58	0.855309
1227.95	1.00754
1231.33	1.51318
1234.7	3.43864
1238.08	0.69717
1241.45	0.145641
1244.83	1.8151
1248.2	2.52079
1251.58	0.674858
1254.95	1.79104
1258.33	2.76623
1261.7	1.68738
1265.08	1.24722
1268.45	1.08398
1271.83	1.45248
1275.2	0.871109
1278.58	2.16884
1281.95	0.556206
1285.32	0
