Measurement: Raman, 785 nm, unoriented, Raman Data Processed
Mineral: Conichalcite
Rruff sample: R040167
Ideal chemistry: CaCu^2+^As^5+^O_4_(OH)
Locality: Ojuela mine, Mapimi, Durango, Mexico
Source: University of Arizona Mineral Museum
Description: Green druse
Measured chemistry: Ca_1.00_(Cu_0.70_Zn_0.30_)_Î£=1_(As_1.00_O_4_)(OH) ; OH estimated by difference and stoichiometry
Raman shift (cm-1)	intensity
113.305	0
116.198	9.52556
119.091	8.81574
121.984	4.54234
124.876	39.7585
127.769	73.0371
130.662	154.839
133.554	213.56
136.447	229.706
139.34	205.983
142.232	158.615
145.125	237.02
148.018	400.992
150.911	479.571
153.803	435.177
156.696	341.744
159.589	369.906
162.481	399.623
165.374	405.439
168.267	374.957
171.16	334.434
174.052	311.418
176.945	300.799
179.838	274.825
182.73	269.136
185.623	238
188.516	227.219
191.408	224.206
194.301	270.3
197.194	364.471
200.087	432.632
202.979	552.868
205.872	705.032
208.765	864.584
211.657	908.051
214.55	785.727
217.443	588.065
220.335	444.841
223.228	379.347
226.121	312.574
229.013	176.66
231.906	112.568
234.799	47.918
237.692	46.9903
240.584	31.691
243.477	24.3198
246.37	12.6063
249.262	12.4513
252.155	22.3639
255.048	17.7684
257.941	22.5157
260.833	14.8965
263.726	14.2881
266.619	2.32703
269.511	22.4846
272.404	22.5478
275.297	17.6262
278.19	30.1764
281.082	3.50159
283.975	30.7743
286.868	21.665
289.76	10.9276
292.653	9.23419
295.546	8.82532
298.438	24.6499
301.331	20.7393
304.224	25.3123
307.116	31.4699
310.009	69.3822
312.902	140.649
315.795	207.151
318.687	336.702
321.58	454.19
324.473	558.957
327.365	608.714
330.258	558.077
333.151	475.733
336.043	429.22
338.936	390.396
341.829	303.174
344.721	212.639
347.614	176.626
350.507	119.785
353.4	79.5718
356.292	47.0533
359.185	65.0095
362.078	15.0887
364.97	1.76056
367.863	8.77356
370.756	1.29059
373.649	11.0548
376.541	8.1673
379.434	24.4895
382.327	38.0554
385.219	2.72272
388.112	26.3248
391.005	7.49188
393.897	13.3734
396.79	1.55676
399.683	5.5592
402.575	7.08289
405.468	62.4744
408.361	70.506
411.254	136.877
414.146	228.078
417.039	379.895
419.932	547.225
422.824	759.362
425.717	1006.29
428.61	1232.88
431.502	1370.35
434.395	1247.11
437.288	922.3
440.181	553.01
443.073	373.301
445.966	299.283
448.859	268.958
451.751	339.252
454.644	444.039
457.537	568.874
460.43	753.836
463.322	951.304
466.215	985.229
469.108	801.924
472	563.355
474.893	388.866
477.786	282.412
480.678	228.95
483.571	189.032
486.464	184.812
489.356	162.881
492.249	145.669
495.142	130.216
498.035	100.436
500.927	96.8617
503.82	82.2904
506.713	86.1354
509.605	67.1303
512.498	49.9044
515.391	58.0869
518.284	25.7094
521.176	15.774
524.069	22.0081
526.962	28.8284
529.854	25.6244
532.747	7.1853
535.64	14.881
538.533	2.70172
541.425	8.30023
544.318	9.8996
547.211	7.47656
550.103	6.01361
552.996	0.541382
555.889	25.4963
558.781	16.9132
561.674	12.2794
564.567	10.2033
567.459	11.2667
570.352	28.6873
573.245	42.3854
576.138	20.4059
579.03	24.3193
581.923	39.8758
584.816	31.2521
587.708	20.6174
590.601	33.0348
593.494	17.171
596.386	34.8216
599.279	24.0562
602.172	31.4711
605.064	22.6091
607.957	18.395
610.85	20.8708
613.743	24.1688
616.635	34.9062
619.528	35.2236
622.421	19.4078
625.313	37.5768
628.206	31.0014
631.099	25.7927
633.991	14.0065
636.884	16.5187
639.777	24.6205
642.67	34.0583
645.562	15.8386
648.455	40.9021
651.348	34.927
654.24	39.2254
657.133	18.2371
660.026	23.8992
662.918	26.1751
665.811	20.46
668.704	25.2144
671.597	30.2076
674.489	41.9429
677.382	41.354
680.275	19.5582
683.167	18.457
686.06	27.3093
688.953	15.2734
691.846	0.794312
694.738	10.928
697.631	14.0972
700.524	15.4267
703.416	29.6414
706.309	0.866455
709.202	0.669556
712.094	5.07806
714.987	3.97376
717.88	5.3595
720.773	4.09827
723.665	10.1898
726.558	23.5472
729.451	7.14777
732.343	3.82153
735.236	15.5956
738.129	3.12647
741.021	13.1915
743.914	36.2507
746.807	49.3613
749.699	84.8247
752.592	125.023
755.485	164.881
758.378	212.084
761.27	249.776
764.163	260.476
767.056	301.981
769.948	306.595
772.841	355.703
775.734	386.145
778.626	456.312
781.519	566.81
784.412	777.083
787.305	1032.87
790.197	1400.96
793.09	1859.51
795.983	2213.83
798.875	2176.14
801.768	2015
804.661	1786.06
807.553	1718.92
810.446	1953.9
813.339	2474.84
816.232	3395.69
819.124	4927.32
822.017	7333.42
824.91	11332.5
827.802	14253.2
830.695	10396.2
833.588	5150.98
836.481	2631.83
839.373	1433.7
842.266	859.132
845.159	510.778
848.051	369.172
850.944	261.938
853.837	209.56
856.729	181.252
859.622	152.085
862.515	92.5703
865.408	71.1
868.3	42.0953
871.193	19.8751
874.086	6.53497
876.978	4.39947
879.871	27.9617
882.764	5.01318
885.656	22.669
888.549	10.1032
891.442	0.435974
894.335	2.33246
897.227	8.2937
900.12	33.2944
903.013	30.9567
905.905	73.0531
908.798	39.5371
911.691	54.7649
914.583	84.7186
917.476	82.0905
920.369	93.9382
923.261	85.408
926.154	76.1384
929.047	46.1638
931.94	19.533
934.832	8.02759
937.725	17.2925
940.618	3.02753
943.51	6.7984
946.403	12.8803
949.296	6.4765
952.188	2.29688
955.081	2.216
957.974	5.53101
960.867	9.16156
963.759	19.0678
966.652	8.38757
969.545	23.3004
972.437	27.637
975.33	35.8086
978.223	49.3976
981.115	32.5265
984.008	19.6047
986.901	28.908
989.794	18.5571
992.686	4.02512
995.579	10.7002
998.472	27.8892
1001.36	25.2017
1004.26	25.7854
1007.15	18.9072
1010.04	14.7651
1012.93	14.5619
1015.83	10.1143
1018.72	15.5789
1021.61	10.8768
1024.51	28.6935
1027.4	26.2032
1030.29	31.528
1033.18	37.6839
1036.08	21.1723
1038.97	26.3865
1041.86	31.125
1044.76	23.7608
1047.65	32.0919
1050.54	37.6928
1053.43	69.1892
1056.33	76.7657
1059.22	53.6414
1062.11	26.7753
1065	8.44241
1067.9	1.6394
1070.79	9.47351
1073.68	13.8386
1076.58	16.8186
1079.47	9.0275
1082.36	4.47784
1085.25	2.64172
1088.14	0.449158
1091.04	5.96698
1093.93	11.8244
1096.82	12.372
1099.72	3.95981
1102.61	9.06888
1105.5	7.09464
1108.39	18.1584
1111.29	0.671051
1114.18	8.36624
1117.07	17.2518
1119.96	19.4473
1122.86	14.6309
1125.75	2.63882
1128.64	12.2243
1131.54	17.4849
1134.43	9.69971
1137.32	20.4997
1140.21	12.5763
1143.11	20.5291
1146	5.88669
1148.89	8.3858
1151.79	20.5178
1154.68	8.53415
1157.57	21.4941
1160.46	20.3764
1163.36	20.5296
1166.25	23.7578
1169.14	20.5022
1172.03	22.027
1174.93	2.75769
1177.82	17.6941
1180.71	11.141
1183.6	10.4033
1186.5	13.2295
1189.39	36.5005
1192.28	19.3224
1195.17	16.1276
1198.07	19.6201
1200.96	27.8672
1203.85	17.2599
1206.75	12.6294
1209.64	1.39835
1212.53	31.3624
1215.42	10.3318
1218.32	34.4558
1221.21	2.5885
1224.1	19.3188
1226.99	20.1521
1229.89	4.97879
1232.78	0.598022
