Measurement: Raman, 532 nm, unoriented, Raman Data Processed
Mineral: Conichalcite
Rruff sample: R040167
Ideal chemistry: CaCu^2+^As^5+^O_4_(OH)
Locality: Ojuela mine, Mapimi, Durango, Mexico
Source: University of Arizona Mineral Museum
Description: Green druse
Measured chemistry: Ca_1.00_(Cu_0.70_Zn_0.30_)_Î£=1_(As_1.00_O_4_)(OH) ; OH estimated by difference and stoichiometry
Raman shift (cm-1)	intensity
123.145	0
126.52	3.20349
129.895	39.5508
133.27	92.994
136.645	170.532
140.019	222.391
143.394	199.039
146.769	213.851
150.144	294.441
153.519	352.39
156.894	464.231
160.268	575.284
163.643	598.133
167.018	549.699
170.393	540.805
173.768	581.245
177.143	641.048
180.517	690.836
183.892	627.781
187.267	523.266
190.642	450.166
194.017	489.992
197.391	584.911
200.766	745.552
204.141	1015.8
207.516	1271.1
210.891	1430.54
214.266	1220.42
217.64	891.644
221.015	666.753
224.39	541.98
227.765	371.463
231.14	180.695
234.514	79.0918
237.889	30.5149
241.264	17.6841
244.639	30.7816
248.014	3.86688
251.388	14.6967
254.763	10.0016
258.138	21.0603
261.513	43.5508
264.888	79.1304
268.263	97.237
271.637	140.347
275.012	143.604
278.387	170.726
281.762	166.654
285.137	161.83
288.512	144.811
291.886	66.9742
295.261	29.1632
298.636	18.7489
302.011	8.03528
305.386	74.7811
308.76	214.388
312.135	493.64
315.51	838.984
318.885	1383.25
322.26	1937.27
325.635	2218.64
329.009	1966.68
332.384	1622.23
335.759	1440.3
339.134	1273
342.509	1092.12
345.883	966.178
349.258	846.13
352.633	760.991
356.008	709.613
359.383	603.419
362.757	461.481
366.132	321.145
369.507	197.365
372.882	135.945
376.257	113.437
379.632	52.4546
383.006	26.0254
386.381	21.9038
389.756	5.35046
393.131	3.45325
396.506	47.4176
399.88	29.4211
403.255	44.9287
406.63	56.7009
410.005	176.437
413.38	348.31
416.755	650.191
420.129	952.613
423.504	1234.75
426.879	1614.31
430.254	1972.28
433.629	1857.34
437.003	1349.59
440.378	826.831
443.753	540.169
447.128	515.601
450.503	690.591
453.878	976.873
457.252	1412.95
460.627	1954.92
464.002	2443.73
467.377	2410.63
470.752	1700.62
474.127	1153.09
477.501	834.31
480.876	700.695
484.251	581.902
487.626	474.528
491.001	387.962
494.375	321.012
497.75	257.427
501.125	230.871
504.5	246.504
507.875	277.621
511.25	278.704
514.624	250.162
517.999	249.531
521.374	268.86
524.749	252.9
528.124	230.075
531.498	167.565
534.873	65.3257
538.248	22.1716
541.623	25.2479
544.998	27.9999
548.372	14.0645
551.747	21.734
555.122	10.5203
558.497	11.3882
561.872	1.82025
565.247	21.7528
568.621	14.1375
571.996	44.9859
575.371	36.5958
578.746	50.4749
582.121	70.3362
585.495	58.4386
588.87	73.1782
592.245	60.6835
595.62	81.7153
598.995	91.1307
602.37	58.6149
605.744	67.3101
609.119	49.5767
612.494	46.7664
615.869	81.0529
619.244	65.7028
622.619	80.4894
625.993	87.5439
629.368	72.0569
632.743	81.2825
636.118	72.9972
639.493	104.327
642.867	87.1083
646.242	85.2763
649.617	110.246
652.992	105.851
656.367	103.911
659.741	118.665
663.116	114.177
666.491	111.789
669.866	135.093
673.241	142.899
676.616	112.86
679.99	128.381
683.365	112.056
686.74	96.3889
690.115	79.5999
693.49	64.8902
696.865	58.9001
700.239	30.8185
703.614	7.89966
706.989	5.97339
710.364	5.2876
713.739	17.8401
717.113	16.9653
720.488	9.40179
723.863	58.637
727.238	38.4675
730.613	36.8401
733.987	22.4441
737.362	18.5508
740.737	36.8567
744.112	114.105
747.487	222.892
750.862	428.204
754.236	625.538
757.611	901.356
760.986	1158.77
764.361	1376.09
767.736	1649.35
771.111	1942.99
774.485	2318.28
777.86	2754.4
781.235	3165.37
784.61	3482.46
787.985	4099.79
791.359	5284.37
794.734	6732.51
798.109	7904.65
801.484	8558.68
804.859	8876.3
808.234	9705.42
811.608	11940.1
814.983	14604.2
818.358	17809.2
821.733	23893.9
825.108	34063.2
828.482	41072
831.857	23989.9
835.232	10248
838.607	5003.09
841.982	2661.78
845.356	1550.82
848.731	991.903
852.106	762.673
855.481	564.418
858.856	489.536
862.231	354.407
865.605	232.992
868.98	120.688
872.355	15.86
875.73	19.1211
879.105	46.9719
882.48	64.3462
885.854	67.5839
889.229	39.3545
892.604	0.472656
895.979	22.6104
899.354	45.09
902.729	102.287
906.103	105.576
909.478	130.434
912.853	163.014
916.228	241.848
919.602	258.192
922.977	245.983
926.352	193.493
929.727	140.185
933.102	98.4196
936.477	88.5557
939.851	83.5986
943.226	58.858
946.601	13.4122
949.976	9.93549
953.351	11.2898
956.726	24.0846
960.1	40.454
963.475	29.477
966.85	57.828
970.225	108.045
973.6	108.752
976.974	149.355
980.349	130.861
983.724	119.73
987.099	93.7468
990.474	51.1521
993.848	55.9119
997.223	28.3135
1000.6	55.7355
1003.97	35.1329
1007.35	29.6828
1010.72	33.7188
1014.1	12.6075
1017.47	20.7808
1020.85	19.3576
1024.22	41.3649
1027.6	40.9132
1030.97	57.4299
1034.35	58.3297
1037.72	59.4537
1041.1	98.7261
1044.47	95.7892
1047.85	109.798
1051.22	152.285
1054.6	238.248
1057.97	217.531
1061.35	111.164
1064.72	51.3857
1068.09	37.3617
1071.47	14.0349
1074.84	10.0699
1078.22	10.5255
1081.59	18.8459
1084.97	4.51276
1088.34	7.29669
1091.72	7.87769
1095.09	8.27252
1098.47	7.72931
1101.84	18.7094
1105.22	17.1169
1108.59	14.4095
1111.97	12.2924
1115.34	10.3035
1118.72	8.75946
1122.09	14.6592
1125.47	4.42957
1128.84	21.1612
1132.22	25.1196
1135.59	28.5991
1138.97	3.87311
1142.34	34.3629
1145.71	39.7214
1149.09	13.6519
1152.46	21.6619
1155.84	17.5502
1159.21	14.624
1162.59	15.0889
1165.96	20.7058
1169.34	38.277
1172.71	18.1901
1176.09	23.1699
1179.46	3.87878
1182.84	7.24457
1186.21	0.761169
1189.59	26.1242
1192.96	25.951
1196.34	31.3671
1199.71	16.1008
1203.09	5.72089
1206.46	6.35217
1209.84	28.49
1213.21	21.5579
1216.59	21.0118
1219.96	6.88916
1223.34	11.5113
1226.71	3.64947
1230.09	14.0038
1233.46	12.5563
1236.84	24.6811
1240.21	7.13721
1243.59	53.4024
1246.96	10.7675
1250.34	10.8812
1253.71	17.1297
1257.08	11.7401
1260.46	39.9185
1263.83	24.8829
1267.21	14.9573
1270.58	24.4597
1273.96	19.6854
1277.33	15.7631
1280.71	16.3494
1284.08	31.0146
1287.46	28.6826
1290.83	1.59613
1294.21	37.7603
1297.58	4.63135
1300.96	12.3026
1304.33	0.726868
