Measurement: Raman, 532 nm, unoriented, Raman Data Processed
Mineral: Conichalcite
Rruff sample: R050506
Ideal chemistry: CaCu^2+^As^5+^O_4_(OH)
Locality: Higgins mine, Bisbee, Arizona, USA
Source: University of Arizona Mineral Museum
Description: Aggregate of green granules
Raman shift (cm-1)	intensity
168.113	0
171.006	0.532917
173.898	3.27059
176.791	8.71724
179.684	13.2479
182.577	22.0249
185.469	31.4464
188.362	31.8042
191.255	33.1635
194.147	37.5756
197.04	36.722
199.933	35.0926
202.825	39.2064
205.718	47.7161
208.611	44.634
211.504	33.4962
214.396	25.1469
217.289	21.4496
220.182	16.0254
223.074	13.5254
225.967	13.2244
228.86	11.2001
231.752	6.7623
234.645	3.10988
237.538	1.21425
240.43	1.06424
243.323	2.42189
246.216	2.72511
249.109	3.13983
252.001	2.23159
254.894	1.5326
257.787	1.13312
260.679	3.72426
263.572	8.15312
266.465	16.0783
269.358	26.1
272.25	39.0237
275.143	51.1657
278.036	61.502
280.928	69.3367
283.821	78.4415
286.714	79.0374
289.606	65.7868
292.499	45.3089
295.392	28.4457
298.284	18.8632
301.177	17.3959
304.07	22.8334
306.963	37.5575
309.855	56.0191
312.748	84.0052
315.641	124.593
318.533	186.062
321.426	253.11
324.319	275.507
327.212	241.437
330.104	215.677
332.997	211.517
335.89	190.406
338.782	135.7
341.675	85.2954
344.568	57.2553
347.46	45.0485
350.353	46.4583
353.246	55.1144
356.139	65.1907
359.031	61.2482
361.924	48.5583
364.817	42.4583
367.709	44.2376
370.602	39.8641
373.495	26.4186
376.387	14.4694
379.28	8.68375
382.173	11.1893
385.065	17.0374
387.958	23.2459
390.851	23.6109
393.744	15.7354
396.636	7.32293
399.529	1.18267
402.422	1.45676
405.314	4.15617
408.207	3.76132
411.1	2.60751
413.993	0.364426
416.885	2.52921
419.778	8.80706
422.671	19.5084
425.563	31.543
428.456	35.8579
431.349	29.6404
434.241	21.0953
437.134	19.9596
440.027	21.8851
442.92	24.0928
445.812	29.7279
448.705	34.0062
451.598	27.5099
454.49	16.1952
457.383	10.236
460.276	10.4978
463.168	17.47
466.061	30.76
468.954	53.1311
471.846	88.6317
474.739	139.375
477.632	207.519
480.525	293.757
483.417	357.093
486.31	345.641
489.203	238.443
492.095	124.233
494.988	63.9507
497.881	34.6411
500.774	17.5054
503.666	7.95878
506.559	3.75865
509.452	0.011494
512.344	0.534224
515.237	1.58159
518.13	6.46619
521.022	14.9666
523.915	25.761
526.808	39.8436
529.701	62.8431
532.593	86.3938
535.486	93.1389
538.379	63.1224
541.271	29.0042
544.164	11.1063
547.057	4.04531
549.949	1.13707
552.842	0.458895
555.735	1.24972
558.628	1.11813
561.52	0.786179
564.413	0.202976
567.306	0.789185
570.198	1.60733
573.091	1.4268
575.984	2.06228
578.876	1.94002
581.769	1.57892
584.662	1.70204
587.554	1.83358
590.447	1.4626
593.34	1.90114
596.232	2.01366
599.125	2.12703
602.018	2.47034
604.911	2.76038
607.803	3.40091
610.696	2.86053
613.589	3.05184
616.481	2.7785
619.374	2.25129
622.267	1.99047
625.159	2.5066
628.052	1.98861
630.945	2.63438
633.838	2.53131
636.73	2.63602
639.623	2.51323
642.516	2.54573
645.408	2.68416
648.301	2.21749
651.194	3.10648
654.087	2.06268
656.979	2.55325
659.872	2.65198
662.765	3.06201
665.657	3.17027
668.55	2.72862
671.443	2.95147
674.335	3.47958
677.228	3.89668
680.121	4.32823
683.014	4.59365
685.906	4.44682
688.799	5.45178
691.692	5.08657
694.584	3.96214
697.477	4.20421
700.37	2.90434
703.263	2.25851
706.155	1.55306
709.048	1.31112
711.941	0.759622
714.833	0.538097
717.726	0.161151
720.619	0.475888
723.511	0.504847
726.404	0.35059
729.297	1.11506
732.189	1.56092
735.082	1.04864
737.975	1.40435
740.868	1.08292
743.76	0.507132
746.653	0.140581
749.546	1.84612
752.438	4.19297
755.331	5.93905
758.224	7.5452
761.116	9.20397
764.009	13.4835
766.902	18.743
769.795	26.4765
772.687	37.3635
775.58	51.4836
778.473	65.9015
781.365	72.7851
784.258	64.8419
787.151	53.8501
790.043	47.3814
792.936	54.5313
795.829	74.599
798.722	119.595
801.614	192.145
804.507	290.751
807.4	440.938
810.292	654.166
813.185	792.226
816.078	814.994
818.971	1042.61
821.863	1501.11
824.756	1561.91
827.649	1234.87
830.541	1490.89
833.434	1955.13
836.327	1055.41
839.219	372.168
842.112	195.667
845.005	139.444
847.898	107.62
850.79	64.1521
853.683	41.3496
856.576	32.3818
859.468	29.2532
862.361	26.3468
865.254	22.4581
868.146	16.4337
871.039	12.8486
873.932	7.61315
876.824	4.26392
879.717	0.24168
882.61	1.28142
885.503	2.23457
888.395	2.3616
891.288	2.20488
894.181	1.64973
897.073	0.279074
899.966	1.67451
902.859	4.91765
905.751	8.94988
908.644	13.5981
911.537	18.1593
914.43	22.5401
917.322	26.4003
920.215	26.1704
923.108	19.677
926	14.7405
928.893	11.4439
931.786	8.84271
934.678	7.66832
937.571	6.1954
940.464	5.48264
943.357	3.97187
946.249	2.24318
949.142	1.31859
952.035	0.770967
954.927	0.297481
957.82	0.10888
960.713	0.884046
963.606	0.310829
966.498	0.431501
969.391	0.079895
972.284	0.062857
975.176	0.092699
978.069	0.371026
980.962	0.361731
983.854	0.720592
986.747	0.293386
989.64	0.609091
992.533	0.633887
995.425	1.70964
998.318	1.55902
1001.21	1.36788
1004.1	1.86246
1007	2.07854
1009.89	1.92048
1012.78	2.37297
1015.67	2.61122
1018.57	3.081
1021.46	3.88012
1024.35	3.52665
1027.24	4.26494
1030.14	4.14216
1033.03	4.28353
1035.92	5.05911
1038.82	5.47652
1041.71	6.33693
1044.6	6.76805
1047.49	7.34354
1050.39	7.54061
1053.28	7.3171
1056.17	6.16528
1059.07	5.28011
1061.96	5.31586
1064.85	4.41458
1067.74	3.80037
1070.63	3.33202
1073.53	2.60763
1076.42	1.9201
1079.31	0.947897
1082.21	0.971008
1085.1	0.394008
1087.99	0.309166
1090.88	0.127128
1093.78	0.407141
1096.67	0.48454
1099.56	0.41758
1102.45	0.216374
1105.35	0.30847
1108.24	0.581988
1111.13	0.180517
1114.03	0.216508
1116.92	0.082143
1119.81	0.25145
1122.7	0.386946
1125.6	0.073885
1128.49	0.094861
1131.38	0.410307
1134.28	0.190874
1137.17	0.314092
1140.06	0.556362
1142.95	0.903868
1145.85	0.927351
1148.74	1.02874
1151.63	1.64135
1154.52	1.51021
1157.42	1.15507
1160.31	1.37037
1163.2	1.15804
1166.09	1.2114
1168.99	0.865187
1171.88	0.534736
1174.77	0.70208
1177.66	0.948575
1180.56	0.349886
1183.45	0.485521
1186.34	0.347497
1189.24	0.129994
1192.13	0.240606
1195.02	0.351549
1197.91	0.425221
1200.81	0.281815
1203.7	0.6667
1206.59	0.517635
1209.48	0.171474
1212.38	0.817153
1215.27	0.269956
1218.16	0.374553
1221.06	0.237376
1223.95	0.215742
1226.84	0.587349
1229.73	0.153197
1232.63	0.559149
1235.52	0.143604
1238.41	0.073778
1241.31	0.011985
1244.2	0.114572
1247.09	0.187785
1249.98	0.143821
1252.88	0.51499
1255.77	0.538272
1258.66	0.380102
1261.55	0.447031
1264.45	0.492589
1267.34	0.029311
1270.23	0.437144
1273.12	0.75849
1276.02	0.448583
1278.91	0.582092
1281.8	0.114472
1284.69	0.428698
1287.59	0.573287
1290.48	0.470497
1293.37	0.235685
1296.27	0.618174
1299.16	0.645874
1302.05	0.082469
