Measurement: Raman, 785 nm, unoriented, Raman Data Processed
Mineral: Conichalcite
Rruff sample: R070447
Ideal chemistry: CaCu^2+^As^5+^O_4_(OH)
Locality: Copper Creek District, Mammoth, Arizona, USA
Source: Bob Jenkins
Description: Green prismatic crystals scattered over quartz
Measured chemistry: Ca_1.00_(Cu_0.99_Fe_0.01_)(As_0.94_V_0.03_S_0.02_Al_0.01_)_Î£=1_O_4_(OH); OH estimated by charge balance
Raman shift (cm-1)	intensity
159.599	0
162.491	85.9512
165.384	3.13672
168.277	50.6653
171.169	27.1072
174.062	54.8533
176.955	163.883
179.847	222.288
182.74	308.368
185.633	260.763
188.525	319.493
191.418	374.323
194.311	496.157
197.204	642.819
200.096	804.997
202.989	1037.66
205.882	1160.28
208.774	933.625
211.667	620.567
214.56	415.991
217.452	267.521
220.345	210.965
223.238	135.387
226.131	112.768
229.023	61.5835
231.916	56.7607
234.809	2.42627
237.701	4.65479
240.594	0.285645
243.487	12.3215
246.38	12.832
249.272	38.6062
252.165	15.7271
255.058	22.6218
257.95	24.8306
260.843	61.1091
263.736	86.2808
266.628	192.743
269.521	285.177
272.414	337.106
275.307	389.776
278.199	357.754
281.092	377.425
283.985	345.406
286.877	295.13
289.77	269.417
292.663	215.836
295.555	124.267
298.448	79.6926
301.341	164.856
304.233	217.482
307.126	377.544
310.019	538.121
312.912	784.566
315.804	1011.06
318.697	1339.73
321.59	1644.22
324.482	1664
327.375	1525.27
330.268	1306.01
333.161	1185.97
336.053	1009.59
338.946	783.489
341.839	584.421
344.731	430.295
347.624	374.217
350.517	321.446
353.409	372.689
356.302	349.465
359.195	306.24
362.087	293.404
364.98	252.719
367.873	182.749
370.766	140.121
373.658	139.788
376.551	129.087
379.444	88.8294
382.336	70.2046
385.229	62.2839
388.122	46.1482
391.014	58.189
393.907	25.155
396.8	13.9585
399.693	21.9231
402.585	17.552
405.478	19.9265
408.371	53.4731
411.263	86.1943
414.156	165.438
417.049	244.348
419.942	341.846
422.834	499.427
425.727	632.455
428.62	731.169
431.512	825.906
434.405	929.401
437.298	1038.44
440.19	1188.05
443.083	1262.68
445.976	1325.82
448.868	1173.1
451.761	834.467
454.654	504.263
457.547	328.172
460.439	241.278
463.332	199.621
466.225	260.753
469.117	355.685
472.01	537.646
474.903	797.912
477.796	1091.22
480.688	1492.87
483.581	1827.35
486.474	1631.62
489.366	1011.61
492.259	519.183
495.152	241.944
498.044	105.416
500.937	75.687
503.83	55.3105
506.723	0.62207
509.615	3.20019
512.508	6.96729
515.401	17.1567
518.293	35.5789
521.186	32.8186
524.079	73.366
526.971	148.811
529.864	191.184
532.757	278.517
535.649	237.952
538.542	172.789
541.435	79.4424
544.328	48.5825
547.22	53.7456
550.113	46.9795
553.006	6.49805
555.898	29.0427
558.791	53.438
561.684	42.1592
564.577	30.9748
567.469	24.115
570.362	14.3594
573.255	29.7153
576.147	1.13379
579.04	53.8955
581.933	36.6316
584.825	66.3091
587.718	32.3015
590.611	39.7437
593.504	18.1482
596.396	60.5967
599.289	55.5664
602.182	7.95361
605.074	38.2971
607.967	43.6892
610.86	66.988
613.752	32.9187
616.645	23.958
619.538	57.1323
622.431	19.3513
625.323	9.59839
628.216	65.1758
631.109	68.4336
634.001	68.675
636.894	66.3716
639.787	46.188
642.679	37.8689
645.572	55.1907
648.465	36.846
651.357	87.3508
654.25	65.2566
657.143	37.2065
660.036	70.2605
662.928	70.217
665.821	74.8997
668.714	98.9639
671.606	37.9524
674.499	91.54
677.392	69.154
680.284	37.0588
683.177	47.2117
686.07	45.9209
688.963	18.8655
691.855	29.7331
694.748	27.5959
697.641	40.8804
700.533	0.512207
703.426	15.4463
706.319	25.6443
709.212	11.8523
712.104	3.79077
714.997	15.7339
717.89	6.78906
720.782	3.9082
723.675	17.8064
726.568	31.748
729.46	3.83643
732.353	54.1045
735.246	13.5537
738.139	3.44409
741.031	54.9263
743.924	50.6792
746.817	87.1462
749.709	144.595
752.602	148.988
755.495	180.438
758.387	191.93
761.28	252.872
764.173	362.792
767.066	583.655
769.958	882.161
772.851	1236.96
775.744	1702.25
778.636	2019.93
781.529	1968.05
784.422	1568.68
787.314	1083.84
790.207	787.395
793.1	639.793
795.992	628.704
798.885	842.558
801.778	1354.45
804.671	2117.5
807.563	3158.63
810.456	4218.73
813.349	4512.57
816.241	4739.65
819.134	5678.19
822.027	7707.5
824.919	9343.84
827.812	10742.6
830.705	13941.8
833.598	13769
836.49	7509.03
839.383	3380.85
842.276	1766.07
845.168	1120.41
848.061	676.704
850.954	453.875
853.846	303.777
856.739	308.407
859.632	266.577
862.525	309.971
865.417	238.804
868.31	240.918
871.203	198.014
874.095	144.382
876.988	58.1018
879.881	7.88306
882.774	8.54858
885.666	44.1179
888.559	57.0772
891.452	2.51807
894.344	7.53882
897.237	8.7417
900.13	4.1709
903.022	22.0938
905.915	32.9722
908.808	123.427
911.701	117.141
914.593	72.8074
917.486	51.4546
920.379	60.6724
923.271	119.67
926.164	84.1853
929.057	65.3059
931.949	105.685
934.842	82.0188
937.735	104.923
940.628	85.5566
943.52	87.0417
946.413	67.9172
949.306	88.5215
952.198	33.427
955.091	52.029
957.984	54.8879
960.876	5.76025
963.769	28.4627
966.662	5.104
969.554	9.39526
972.447	5.49243
975.34	28.9182
978.233	49.7529
981.125	47.6851
984.018	38.7947
986.911	38.1323
989.803	70.8084
992.696	28.5632
995.589	22.167
998.481	2.67896
1001.37	11.6355
1004.27	2.37353
1007.16	36.9529
1010.05	15.2656
1012.95	4.74268
1015.84	52.9085
1018.73	38.5667
1021.62	62.0339
1024.52	56.7922
1027.41	55.355
1030.3	40.8935
1033.19	39.8745
1036.09	20.8738
1038.98	16.2398
1041.87	55.9822
1044.77	38.7625
1047.66	97.3997
1050.55	62.6694
1053.44	59.5181
1056.34	54.8015
1059.23	77.0863
1062.12	70.3989
1065.01	11.7048
1067.91	71.7527
1070.8	21.9281
1073.69	43.2124
1076.58	14.8164
1079.48	14.6318
1082.37	33.4755
1085.26	0.171631
1088.15	20.7081
1091.05	3.15991
1093.94	18.7009
1096.83	22.5142
1099.73	42.7352
1102.62	4.13513
1105.51	43.3068
1108.4	12.8903
1111.3	10.0156
1114.19	6.44324
1117.08	74.3643
1119.97	6.2605
1122.87	46.2959
1125.76	40.6099
1128.65	42.611
1131.55	26.6612
1134.44	34.0907
1137.33	36.9336
1140.22	41.9706
1143.12	57.1326
1146.01	32.5104
1148.9	81.4228
1151.8	52.7861
1154.69	34.4811
1157.58	46.5219
1160.47	57.2391
1163.37	68.3568
1166.26	22.7245
1169.15	37.1781
1172.04	52.1819
1174.94	21.2844
1177.83	11.7488
1180.72	81.8496
1183.61	14.2311
1186.51	20.5018
1189.4	24.5093
1192.29	61.4511
1195.18	12.7675
1198.08	32.719
1200.97	43.7767
1203.86	56.5863
1206.76	64.5
1209.65	46.9594
1212.54	74.3023
1215.43	37.2269
1218.33	16.0403
1221.22	73.4198
1224.11	19.1321
1227.01	17.639
1229.9	64.4152
1232.79	4.04773
1235.68	38.0582
1238.58	59.2369
1241.47	18.3728
