Measurement: Raman, 532 nm, unoriented, Raman Data Processed
Mineral: Conichalcite
Rruff sample: R070430
Ideal chemistry: CaCu^2+^As^5+^O_4_(OH)
Locality: Maria Catalina mine, Pampa Larga Mining District, Tierra Amarilla, Chile
Source: Bob Jenkins
Description: Apple-green prismatic crystals, associated with pale blue blocky rruffite (R070431), and pale blue granular barahonite-(Al)
Measured chemistry: Ca_1.00_(Cu_0.99_Zn_0.01_)_Î£=1_As_1.00_O_4_(OH); OH estimated by charge balance
Raman shift (cm-1)	intensity
150.887	0
154.262	108.553
157.637	472.992
161.012	735.568
164.386	571.402
167.761	264.185
171.136	153.338
174.511	236.683
177.886	403.915
181.26	372.036
184.635	371.117
188.01	435.634
191.385	532.022
194.76	700.901
198.135	964.999
201.509	1352.7
204.884	1786.05
208.259	1669.17
211.634	1127.6
215.009	767.68
218.383	532.889
221.758	365.879
225.133	206.886
228.508	173.391
231.883	122.478
235.257	48.7332
238.632	34.214
242.007	34.756
245.382	38.8317
248.757	38.0629
252.132	35.0844
255.506	21.3557
258.881	35.2817
262.256	86.0973
265.631	175.583
269.006	321.198
272.38	483.176
275.755	582.143
279.13	666.461
282.505	731.151
285.88	710.313
289.255	651.429
292.629	473.172
296.004	332.781
299.379	277.354
302.754	320.228
306.129	491.154
309.503	825.463
312.878	1352.39
316.253	2087.38
319.628	2977.17
323.003	3783.93
326.378	3574.85
329.752	2893.13
333.127	2405.16
336.502	1994.24
339.877	1491.22
343.252	1067.55
346.627	821.217
350.001	639.151
353.376	664.707
356.751	671.575
360.126	642.355
363.501	530.305
366.875	513.513
370.25	470.428
373.625	368.943
377	311.586
380.375	253.056
383.75	209.762
387.124	135.804
390.499	78.6472
393.874	36.8132
397.249	55.1375
400.624	54.5708
403.998	38.3816
407.373	1.13379
410.748	121.478
414.123	214.792
417.498	472.443
420.873	842.217
424.247	1212.48
427.622	1541.21
430.997	1679.73
434.372	1972.64
437.747	2337.31
441.121	2608.9
444.496	2735.35
447.871	2668.57
451.246	2180.64
454.621	1396.8
457.995	951.713
461.37	703.302
464.745	703.353
468.12	894.135
471.495	1301.85
474.87	2029.2
478.244	3006.03
481.619	3994.67
484.994	4522.67
488.369	3769.27
491.744	2117.51
495.118	945.972
498.493	438.608
501.868	171.291
505.243	25.8203
508.618	7.05591
511.993	19.1257
515.367	6.82129
518.742	68.5039
522.117	209.957
525.492	432.788
528.867	748.659
532.241	1023.23
535.616	1093.98
538.991	762.87
542.366	309.987
545.741	93.1205
549.116	33.802
552.49	17.6197
555.865	7.39673
559.24	2.71997
562.615	19.1804
565.99	25.1548
569.365	10.1276
572.739	12.7272
576.114	4.44873
579.489	28.0258
582.864	23.8102
586.239	35.8649
589.613	48.7584
592.988	43.2679
596.363	77.839
599.738	62.7053
603.113	85.7956
606.487	113.869
609.862	126.427
613.237	159.209
616.612	143.155
619.987	198.059
623.362	213.173
626.736	203.89
630.111	238.058
633.486	223.967
636.861	262.198
640.236	213.669
643.611	256.8
646.985	249.321
650.36	249.989
653.735	245.151
657.11	288.003
660.485	263.358
663.859	281.467
667.234	259.458
670.609	277.358
673.984	260.379
677.359	230.548
680.734	216.49
684.108	194.153
687.483	166.856
690.858	107.199
694.233	109.605
697.608	91.7975
700.982	56.5731
704.357	59.0873
707.732	8.70642
711.107	4.04517
714.482	58.3118
717.856	2.52124
721.231	61.355
724.606	52.0447
727.981	50.9187
731.356	39.469
734.731	26.3867
738.105	45.7075
741.48	114.333
744.855	267.445
748.23	418.614
751.605	561.081
754.98	678.954
758.354	699.67
761.729	836.932
765.104	1199.92
768.479	1898.43
771.854	2997.38
775.228	4050.49
778.603	4901.95
781.978	4601.45
785.353	3355.84
788.728	2262.71
792.102	1753.26
795.477	1866.07
798.852	2741.02
802.227	4534.54
805.602	7236.02
808.977	10826.8
812.351	13670
815.726	14925.2
819.101	17427.7
822.476	22689.1
825.851	27351.3
829.226	29929.5
832.6	32945.5
835.975	22811.6
839.35	10234.7
842.725	5566.69
846.1	3566.21
849.474	2371.36
852.849	1553.5
856.224	1177.64
859.599	908.099
862.974	782.026
866.348	643.637
869.723	567.064
873.098	454.765
876.473	256.519
879.848	147.055
883.223	93.1113
886.597	63.5645
889.972	21.563
893.347	57.419
896.722	109.672
900.097	151.58
903.471	115.183
906.846	41.6533
910.221	2.24536
913.596	27.9797
916.971	76.4419
920.346	75.512
923.72	67.4705
927.095	72.938
930.47	81.0934
933.845	100.543
937.22	94.0117
940.595	88.7961
943.969	116.263
947.344	107.685
950.719	82.0731
954.094	129.264
957.469	118.212
960.843	101.271
964.218	95.3668
967.593	134.02
970.968	153.632
974.343	238.897
977.717	304.016
981.092	397.027
984.467	404.046
987.842	401.679
991.217	282.084
994.592	188.546
997.966	152.996
1001.34	109.474
1004.72	91.9984
1008.09	93.2896
1011.47	72.6258
1014.84	64.6174
1018.22	56.7181
1021.59	67.7575
1024.96	82.8456
1028.34	82.3774
1031.71	77.433
1035.09	97.1295
1038.46	107.727
1041.84	109.312
1045.21	83.3878
1048.59	103.385
1051.96	120.355
1055.34	100.552
1058.71	109.048
1062.09	102.349
1065.46	117.629
1068.84	69.3038
1072.21	53.547
1075.59	54.4429
1078.96	34.5761
1082.34	33.4479
1085.71	8.15686
1089.09	2.94104
1092.46	2.02039
1095.84	1.30493
1099.21	2.39148
1102.59	1.14343
1105.96	5.64343
1109.34	7.46716
1112.71	5.90503
1116.09	15.6986
1119.46	5.50732
1122.84	5.11267
1126.21	5.92798
1129.58	11.6628
1132.96	19.6448
1136.33	21.5328
1139.71	39.0129
1143.08	33.7965
1146.46	10.551
1149.83	23.6469
1153.21	24.5209
1156.58	29.2452
1159.96	37.7131
1163.33	26.2883
1166.71	33.3451
1170.08	14.8569
1173.46	29.7602
1176.83	34.1807
1180.21	5.38965
1183.58	13.7117
1186.96	14.0142
1190.33	0.805908
1193.71	29.9631
1197.08	31.8706
1200.45	36.9838
1203.83	24.6676
1207.2	22.8274
1210.58	35.1549
1213.95	48.7655
1217.33	19.8822
1220.7	24.254
1224.08	15.2109
1227.45	19.6375
1230.83	46.7777
1234.2	31.287
1237.58	3.24683
1240.95	17.9699
1244.33	11.3002
1247.7	25.1918
1251.08	29.0359
1254.45	17.5597
1257.83	24.0668
1261.2	29.4569
1264.58	16.4093
1267.95	19.1997
1271.33	41.5471
1274.7	36.6492
1278.08	25.9376
1281.45	23.9469
1284.83	40.2434
1288.2	24.7952
1291.58	26.538
1294.95	20.0135
1298.33	17.6493
1301.7	36.3844
1305.08	18.192
1308.45	39.1893
1311.82	41.911
1315.2	21.833
