Measurement: Raman, 785 nm, unoriented, Raman Data Processed
Mineral: Conichalcite
Rruff sample: R070430
Ideal chemistry: CaCu^2+^As^5+^O_4_(OH)
Locality: Maria Catalina mine, Pampa Larga Mining District, Tierra Amarilla, Chile
Source: Bob Jenkins
Description: Apple-green prismatic crystals, associated with pale blue blocky rruffite (R070431), and pale blue granular barahonite-(Al)
Measured chemistry: Ca_1.00_(Cu_0.99_Zn_0.01_)_Î£=1_As_1.00_O_4_(OH); OH estimated by charge balance
Raman shift (cm-1)	intensity
157.188	0
160.081	60.4273
162.973	116.736
165.866	33.2528
168.759	19.6876
171.651	14.2782
174.544	41.7362
177.437	93.7178
180.329	84.8646
183.222	108.208
186.115	155.951
189.008	225.674
191.9	248.861
194.793	349.077
197.686	494.671
200.578	578.592
203.471	677.016
206.364	635.001
209.256	527.315
212.149	375.656
215.042	275.806
217.935	184.954
220.827	123.814
223.72	89.2606
226.613	55.6209
229.505	32.7418
232.398	9.97565
235.291	37.0154
238.184	14.2726
241.076	11.6127
243.969	6.43646
246.862	10.4567
249.754	18.2431
252.647	50.3165
255.54	89.9349
258.432	92.5593
261.325	138.284
264.218	184.556
267.111	263.073
270.003	328.21
272.896	366.633
275.789	401.553
278.681	464.807
281.574	454.108
284.467	450.564
287.359	401.098
290.252	322.67
293.145	275.088
296.038	235.931
298.93	219.611
301.823	269.339
304.716	369.384
307.608	475.291
310.501	681.657
313.394	905.24
316.286	1187.56
319.179	1468.12
322.072	1632.87
324.964	1637.64
327.857	1530.55
330.75	1388.76
333.643	1205.21
336.535	997.137
339.428	792.891
342.321	577.41
345.213	430.162
348.106	318.343
350.999	300.731
353.892	267.538
356.784	279.801
359.677	270.875
362.57	293.409
365.462	283.816
368.355	244.989
371.248	216.595
374.14	180.652
377.033	113.929
379.926	92.3909
382.818	62.5491
385.711	97.2892
388.604	22.956
391.497	18.2518
394.389	5.58002
397.282	31.86
400.175	25.3201
403.067	32.9061
405.96	40.7613
408.853	21.2248
411.745	57.9205
414.638	123.583
417.531	214.924
420.424	270.521
423.316	354.384
426.209	446.612
429.102	487.583
431.994	475.151
434.887	547.732
437.78	628.062
440.673	682.676
443.565	727.859
446.458	686.342
449.351	622.382
452.243	475.547
455.136	365.154
458.029	299.083
460.921	291.198
463.814	361.76
466.707	454.194
469.599	683.53
472.492	949.656
475.385	1197.51
478.278	1542.93
481.17	1776.38
484.063	1737.9
486.956	1383.36
489.848	866.325
492.741	488.67
495.634	263.151
498.526	153.059
501.419	66.2653
504.312	60.2536
507.205	8.54688
510.097	18.8537
512.99	6.37207
515.883	11.6006
518.775	17.4412
521.668	79.0393
524.561	139.792
527.454	183.157
530.346	225.973
533.239	215.029
536.132	179.448
539.024	102.129
541.917	52.4535
544.81	3.11853
547.702	5.94464
550.595	5.50928
553.488	1.56805
556.38	5.4035
559.273	4.15579
562.166	20.2707
565.059	9.58902
567.951	2.35046
570.844	17.9571
573.737	14.9541
576.629	10.6353
579.522	19.7097
582.415	31.7498
585.308	12.8744
588.2	24.7216
591.093	27.5072
593.986	23.6882
596.878	42.5151
599.771	35.7984
602.664	46.2336
605.556	66.6479
608.449	43.383
611.342	50.4434
614.235	58.6571
617.127	63.8346
620.02	42.6011
622.913	60.6768
625.805	83.6082
628.698	71.1483
631.591	78.8975
634.483	78.9079
637.376	69.5939
640.269	67.6021
643.162	69.2892
646.054	77.7779
648.947	62.1683
651.84	74.0439
654.732	81.7424
657.625	56.4395
660.518	68.002
663.41	65.9957
666.303	66.9341
669.196	69.8995
672.088	69.886
674.981	61.0042
677.874	59.9358
680.767	36.742
683.659	44.9163
686.552	37.6021
689.445	24.614
692.337	19.0191
695.23	11.175
698.123	17.7073
701.015	25.0511
703.908	3.3385
706.801	3.54016
709.694	9.36029
712.586	36.9777
715.479	14.562
718.372	26.4874
721.264	4.01959
724.157	1.32489
727.05	10.6382
729.942	16.1984
732.835	5.80884
735.728	26.6207
738.621	43.4877
741.513	72.2599
744.406	90.6148
747.299	172.857
750.191	158.108
753.084	202.387
755.977	216.031
758.87	243.54
761.762	264.982
764.655	371.566
767.548	461.406
770.44	656.222
773.333	833.358
776.226	1035.55
779.118	1066.94
782.011	973.93
784.904	705.947
787.797	572.89
790.689	542.757
793.582	577.075
796.475	767.313
799.367	1118.05
802.26	1713.46
805.153	2426.3
808.045	3286.8
810.938	3969.5
813.831	4498.06
816.723	5039.84
819.616	6248.02
822.509	7649.02
825.402	8665.92
828.294	9805.63
831.187	10428.4
834.08	7963.24
836.972	4654.48
839.865	2633.26
842.758	1696.46
845.65	1169.61
848.543	840.844
851.436	599.994
854.329	473.137
857.221	351.575
860.114	263.904
863.007	240.943
865.899	177.265
868.792	170.349
871.685	124.9
874.577	74.9485
877.47	36.8854
880.363	6.04962
883.256	20.2302
886.148	34.2785
889.041	10.5917
891.934	17.9293
894.826	15.9615
897.719	19.746
900.612	11.9766
903.505	25.9805
906.397	25.3528
909.29	54.6013
912.183	52.4921
915.075	56.5306
917.968	44.2141
920.861	61.8583
923.753	57.8579
926.646	53.5322
929.539	64.7842
932.432	39.1632
935.324	33.343
938.217	47.2891
941.11	50.5826
944.002	21.6698
946.895	31.7703
949.788	26.681
952.68	25.5516
955.573	25.7314
958.466	38.9659
961.359	23.7025
964.251	28.2435
967.144	38.7071
970.037	68.4199
972.929	79.7602
975.822	102.465
978.715	121.562
981.607	123.001
984.5	89.1218
987.393	86.4543
990.285	67.4731
993.178	39.9227
996.071	46.2502
998.964	38.7359
1001.86	16.7416
1004.75	31.849
1007.64	21.6137
1010.53	4.45102
1013.43	2.53567
1016.32	5.57184
1019.21	14.7006
1022.11	21.366
1025	26.4331
1027.89	23.2264
1030.78	11.391
1033.68	29.4811
1036.57	18.4565
1039.46	14.4272
1042.35	30.2627
1045.25	33.8294
1048.14	28.9737
1051.03	30.0344
1053.92	36.8674
1056.82	8.87079
1059.71	30.8844
1062.6	26.1208
1065.5	6.45847
1068.39	10.5386
1071.28	14.1406
1074.17	26.0268
1077.07	5.8396
1079.96	14.346
1082.85	5.92038
1085.74	14.8624
1088.64	7.91089
1091.53	5.95422
1094.42	3.57892
1097.32	2.03635
1100.21	14.0585
1103.1	13.0965
1105.99	28.1854
1108.89	22.7748
1111.78	7.55862
1114.67	11.238
1117.56	30.8731
1120.46	17.7061
1123.35	33.4427
1126.24	31.3514
1129.13	37.8858
1132.03	12.4252
1134.92	11.4398
1137.81	17.9483
1140.71	30.8864
1143.6	40.7038
1146.49	41.7778
1149.38	33.3938
1152.28	26.6174
1155.17	8.62457
1158.06	14.2744
1160.95	9.35806
1163.85	14.3765
1166.74	40.9701
1169.63	21.7633
1172.53	31.4014
1175.42	20.0093
1178.31	25.0822
1181.2	21.2149
1184.1	21.8356
1186.99	37.5874
1189.88	1.07541
1192.78	48.4761
1195.67	14.9438
1198.56	0.78241
1201.45	19.7167
1204.35	12.873
1207.24	28.0096
1210.13	33.9954
1213.02	16.1199
1215.92	25.9223
1218.81	22.1299
1221.7	33.6905
1224.59	33.6713
1227.49	27.3372
1230.38	3.74939
1233.27	28.9506
1236.16	24.4029
1239.06	16.8955
1241.95	0.075684
