Measurement: Raman, 532 nm, unoriented, Raman Data Processed
Mineral: Connellite
Rruff sample: R060503
Ideal chemistry: Cu_36_(SO_4_)(OH)_62_Cl_8_6H_2_O
Locality: Shattuck mine, Bisbee, Cochise County, Arizona, USA
Source: University of Arizona Mineral Museum
Description: Blue thin prismatic crystals
Raman shift (cm-1)	intensity
103.685	0
107.06	85.251
110.434	247.498
113.809	862.46
117.184	1843.24
120.559	2413.37
123.934	2831.31
127.308	3215.49
130.683	3804.07
134.058	3734.47
137.433	3567.57
140.808	3182.41
144.182	2920.23
147.557	2756.4
150.932	2297.51
154.307	2049.4
157.682	1765.12
161.057	1671.76
164.431	1394.12
167.806	1120.9
171.181	1082.4
174.556	1171.11
177.931	1445.51
181.305	1652.43
184.68	1815.55
188.055	2015.3
191.43	1944.3
194.805	1019.77
198.18	351.825
201.554	106.723
204.929	4.144
208.304	24.517
211.679	77.434
215.054	90.639
218.428	30.449
221.803	14.328
225.178	77.543
228.553	192.479
231.928	235.245
235.303	235.61
238.677	253.453
242.052	335.071
245.427	404.28
248.802	530.208
252.177	682.585
255.551	755.439
258.926	670.999
262.301	498.037
265.676	329.052
269.051	249.405
272.426	91.888
275.8	66.215
279.175	18.359
282.55	0.939
285.925	58.545
289.3	14.906
292.674	96.523
296.049	89.011
299.424	135.827
302.799	235.165
306.174	340.746
309.548	432.87
312.923	588.928
316.298	708.393
319.673	754.626
323.048	776.002
326.422	743.734
329.797	697.744
333.172	818.899
336.547	960.472
339.922	1208.9
343.297	1307.94
346.671	1300.59
350.046	903.689
353.421	425.539
356.796	97.528
360.171	75.905
363.546	67.125
366.92	59.28
370.295	168.983
373.67	405.108
377.045	743.569
380.42	1090.4
383.794	1840.96
387.169	2992.87
390.544	4626.14
393.919	6615.8
397.294	8641.76
400.668	9724.95
404.043	8673.04
407.418	6046.09
410.793	3761.48
414.168	2179.76
417.543	1342.57
420.917	892.132
424.292	671.866
427.667	582.894
431.042	591.172
434.417	650.491
437.791	740.146
441.166	822.837
444.541	860.417
447.916	786.638
451.291	600.966
454.665	424.189
458.04	242.118
461.415	126.495
464.79	148.475
468.165	118.33
471.54	151.199
474.914	161.081
478.289	216.364
481.664	291.24
485.039	211.092
488.414	206.748
491.789	91.512
495.163	41.642
498.538	12.546
501.913	14.823
505.288	24.704
508.663	47.015
512.037	101.651
515.412	190.955
518.787	299.951
522.162	438.648
525.537	464.359
528.911	441.102
532.286	380.55
535.661	167.399
539.036	36.381
542.411	12.838
545.786	30.985
549.16	24.406
552.535	26.4
555.91	17.575
559.285	74.175
562.66	172.774
566.034	312.803
569.409	449.59
572.784	661.959
576.159	875.008
579.534	1045.8
582.909	1219.13
586.283	1158.05
589.658	1003.55
593.033	735.296
596.408	586.235
599.783	459.644
603.157	357.392
606.532	404.757
609.907	390.23
613.282	394.313
616.657	289.621
620.031	178.141
623.406	116.747
626.781	37.464
630.156	82.05
633.531	30.907
636.906	87.235
640.28	51.972
643.655	54.583
647.03	3.268
650.405	33.127
653.78	33.026
657.154	34.536
660.529	72.249
663.904	5.821
667.279	50.546
670.654	16.88
674.029	62.034
677.403	55.529
680.778	44.565
684.153	62.448
687.528	45.692
690.903	65.826
694.277	25.604
697.652	101.93
701.027	9.971
704.402	73.728
707.777	109.247
711.151	93.856
714.526	58.754
717.901	26.689
721.276	68.504
724.651	25.199
728.026	2.653
731.4	71.254
734.775	2.788
738.15	80.915
741.525	88.94
744.9	102.295
748.274	29.5
751.649	91.211
755.024	62.523
758.399	64.874
761.774	7.189
765.148	67.03
768.523	45.147
771.898	26.32
775.273	45.185
778.648	47.946
782.023	0.963
785.397	36.327
788.772	61.226
792.147	31.889
795.522	66.26
798.897	19.599
802.271	56.802
805.646	74.865
809.021	1.6
812.396	78.444
815.771	82.749
819.146	83.995
822.52	21.732
825.895	76.989
829.27	75.708
832.645	50.789
836.02	81.814
839.394	30.142
842.769	44.403
846.144	72.48
849.519	96.105
852.894	50.766
856.269	49.321
859.643	67.551
863.018	60.282
866.393	78.85
869.768	74.36
873.143	76.71
876.518	48.91
879.892	52.436
883.267	37.337
886.642	56.075
890.017	38.082
893.391	13.828
896.766	67.198
900.141	47.234
903.516	58.947
906.891	65.405
910.266	78.522
913.64	5.957
917.015	3.604
920.39	51.507
923.765	42.031
927.14	26.135
930.515	65.358
933.889	4.651
937.264	12.286
940.639	39.456
944.014	86.583
947.388	37.837
950.763	63.271
954.138	52.988
957.513	87.88
960.888	138.193
964.263	194.284
967.638	359.93
971.012	519.687
974.387	871.589
977.762	1588.66
981.137	2445.44
984.511	2550.36
987.886	1438.38
991.261	608.095
994.636	231.964
998.011	119.382
1001.39	113.161
1004.76	33.505
1008.13	6.224
1011.51	51.877
1014.88	70.987
1018.26	134.18
1021.63	246.831
1025.01	263.613
1028.38	364.909
1031.76	359.666
1035.13	428.277
1038.51	505.261
1041.88	339.055
1045.26	308.326
1048.63	225.268
1052.01	243.74
1055.38	175.527
1058.76	149.47
1062.13	44.72
1065.51	7.102
1068.88	18.32
1072.26	21.468
1075.63	5.403
1079.01	11.473
1082.38	12.72
1085.76	51.38
1089.13	180.671
1092.51	100.637
1095.88	55.752
1099.26	173.776
1102.63	137.168
1106.01	130.792
1109.38	138.062
1112.76	153.74
1116.13	135.661
1119.5	127.761
1122.88	105.603
1126.25	109.563
1129.63	104.788
1133	14.272
1136.38	82.765
1139.75	53.206
1143.13	131.759
1146.5	47.959
1149.88	49.452
1153.25	3.176
1156.63	75.492
1160	15.967
1163.38	14.894
1166.75	2.83
1170.13	45.652
1173.5	37.4
1176.88	50.054
1180.25	22.681
1183.63	21.226
1187	37.684
1190.38	16.788
1193.75	37.222
1197.12	41.012
1200.5	16.979
1203.88	30.859
1207.25	65.525
1210.62	29.952
1214	65.866
1217.37	127.84
1220.75	57.932
1224.12	53.355
1227.5	84.734
1230.87	84.813
1234.25	69.709
1237.62	103.884
1241	78.169
1244.37	70.589
1247.75	67.058
1251.12	70.457
1254.5	52.821
1257.87	69.839
1261.25	85.248
1264.62	39.143
1268	94.762
1271.37	77.086
1274.75	59.037
1278.12	106.43
1281.49	86.196
1284.87	32.981
1288.24	53.171
1291.62	47.823
1294.99	47.551
1298.37	89.592
