Measurement: Raman, 785 nm, unoriented, Raman Data Processed
Mineral: Copiapite
Rruff sample: R060821
Ideal chemistry: Fe^2+^Fe^3+^_4_(SO_4_)_6_(OH)_2_20H_2_O
Locality: Alcaparrosa mine, Tierra Amarilla, Chile
Source: Bob Jenkins
Description: Yellowish-brown platy aggregates associated with romerite, R060820
Raman shift (cm-1)	intensity
138.884	0
141.777	69.9224
144.669	269.794
147.562	450.019
150.455	441.37
153.347	308.919
156.24	265.824
159.133	270.034
162.025	337.872
164.918	283.041
167.811	231.231
170.704	155.378
173.596	27.8469
176.489	25.7428
179.382	32.127
182.274	43.4973
185.167	13.92
188.06	168.112
190.952	272.367
193.845	445.92
196.738	374.187
199.631	248.059
202.523	123.897
205.416	75.9944
208.309	42.974
211.201	111.902
214.094	164.841
216.987	287.185
219.88	378.132
222.772	380.803
225.665	456.153
228.558	530.333
231.45	552.214
234.343	712.326
237.236	830.429
240.128	963.944
243.021	989.944
245.914	1010.12
248.806	912.403
251.699	902.652
254.592	894.384
257.485	1064.19
260.377	1384.15
263.27	1827.26
266.163	2335.79
269.055	2701.12
271.948	2649.22
274.841	2101.07
277.734	1439.1
280.626	1012.17
283.519	693.3
286.412	546.729
289.304	340.009
292.197	346.425
295.09	446.406
297.983	517.364
300.875	640.124
303.768	664.924
306.661	617.297
309.553	543.389
312.446	331.755
315.339	258.279
318.231	147.088
321.124	49.2094
324.017	10.9825
326.909	33.1558
329.802	8.99597
332.695	0.54187
335.588	27.8267
338.48	15.3928
341.373	17.6528
344.266	14.8369
347.158	11.0702
350.051	11.8346
352.944	24.7173
355.837	5.5415
358.729	9.62317
361.622	16.9435
364.515	5.15247
367.407	31.046
370.3	32.2583
373.193	18.8479
376.085	42.8622
378.978	109.121
381.871	66.859
384.764	63.88
387.656	88.4329
390.549	113.936
393.442	112.296
396.334	129.565
399.227	133.341
402.12	139.533
405.012	138.896
407.905	153.887
410.798	185.829
413.69	176.045
416.583	219.597
419.476	218.577
422.369	304.094
425.261	321.71
428.154	349.329
431.047	381.066
433.939	413.105
436.832	479.741
439.725	514.398
442.618	552.271
445.51	635.026
448.403	742.937
451.296	813.015
454.188	811.149
457.081	826.563
459.974	945.207
462.866	1061.4
465.759	1218.35
468.652	1388.39
471.545	1507.4
474.437	1726.87
477.33	1759.88
480.223	1717.31
483.115	1479.69
486.008	1195.14
488.901	863.517
491.793	583.024
494.686	433.036
497.579	304.235
500.471	230.4
503.364	136.341
506.257	121.577
509.15	78.7826
512.042	50.5177
514.935	45.939
517.828	7.00183
520.72	13.5469
523.613	7.55383
526.506	18.3418
529.399	7.72314
532.291	11.4291
535.184	58.9554
538.077	25.6683
540.969	70.0041
543.862	106.782
546.755	113.774
549.647	154.753
552.54	169.975
555.433	167.746
558.326	186.909
561.218	97.0065
564.111	139.91
567.004	105.413
569.896	2.74512
572.789	74.6871
575.682	59.3811
578.574	39.162
581.467	80.5361
584.36	73.6063
587.253	95.1973
590.145	136.713
593.038	154.851
595.931	188.419
598.823	229.022
601.716	191.034
604.609	223.393
607.501	223.218
610.394	355.942
613.287	440.379
616.18	402.167
619.072	283.34
621.965	221.656
624.858	174.467
627.75	112.43
630.643	101.219
633.536	80.5636
636.428	81.7632
639.321	98.3491
642.214	90.158
645.107	68.0265
647.999	50.9839
650.892	53.4264
653.785	15.4663
656.677	27.5533
659.57	34.4419
662.463	35.7004
665.356	11.2259
668.248	29.5026
671.141	13.7584
674.034	7.91418
676.926	3.7301
679.819	6.09155
682.712	19.0574
685.604	13.743
688.497	36.7633
691.39	30.8887
694.283	45.5408
697.175	23.8201
700.068	21.2383
702.961	12.0957
705.853	1.69971
708.746	30.3367
711.639	20.8581
714.531	48.4348
717.424	28.7902
720.317	48.8261
723.21	46.354
726.102	47.2705
728.995	42.9177
731.888	35.2488
734.78	71.8679
737.673	62.5203
740.566	78.838
743.458	46.5778
746.351	28.9088
749.244	64.4266
752.136	32.6752
755.029	38.6521
757.922	52.471
760.815	70.8143
763.707	70.3364
766.6	62.7112
769.493	19.047
772.385	49.6918
775.278	55.4495
778.171	15.1608
781.063	77.8223
783.956	35.6589
786.849	89.148
789.742	50.1024
792.634	53.8363
795.527	43.9292
798.42	3.47906
801.312	0.572021
804.205	7.43512
807.098	12.1359
809.99	94.5529
812.883	46.7953
815.776	37.1888
818.669	60.2896
821.561	25.4164
824.454	30.13
827.347	36.5735
830.239	85.6278
833.132	72.6837
836.025	58.4259
838.918	68.5186
841.81	78.6365
844.703	72.5813
847.596	52.5923
850.488	48.5371
853.381	51.2561
856.274	41.1193
859.166	72.9282
862.059	42.8127
864.952	25.7507
867.845	36.7543
870.737	40.9438
873.63	65.9509
876.523	41.0694
879.415	27.117
882.308	30.6959
885.201	42.0529
888.093	33.2124
890.986	15.4542
893.879	41.8618
896.771	43.7512
899.664	54.7988
902.557	55.6629
905.45	55.1185
908.342	28.0618
911.235	35.3335
914.128	52.336
917.02	6.36292
919.913	19.9741
922.806	19.9653
925.698	41.3937
928.591	11.077
931.484	30.6906
934.377	61.3308
937.269	2.43317
940.162	0.973022
943.055	18.4961
945.947	45.6971
948.84	13.4471
951.733	10.5202
954.625	33.2437
957.518	42.477
960.411	36.2493
963.304	81.1656
966.196	59.5202
969.089	86.098
971.982	76.9741
974.875	141.111
977.767	243.922
980.66	337.001
983.553	461.363
986.445	606.663
989.338	839.234
992.231	1043.36
995.123	1154.63
998.016	1310.01
1000.91	1266.31
1003.8	1257.67
1006.69	1159.94
1009.59	974.448
1012.48	879.613
1015.37	935.267
1018.26	1103.19
1021.16	1259.32
1024.05	1375.14
1026.94	1556.02
1029.84	1590.14
1032.73	1476.88
1035.62	1246.12
1038.51	881.479
1041.41	582.966
1044.3	330.957
1047.19	231.644
1050.09	151.304
1052.98	91.1876
1055.87	25.2207
1058.76	51.8579
1061.65	7.5791
1064.55	7.68079
1067.44	29.1299
1070.33	18.4114
1073.23	0.611084
1076.12	2.96606
1079.01	69.5038
1081.9	76.8837
1084.8	102.823
1087.69	121.02
1090.58	225.223
1093.47	255.89
1096.37	244.023
1099.26	323.576
1102.15	391.502
1105.05	420.698
1107.94	513.425
1110.83	529.972
1113.72	576.404
1116.62	508.605
1119.51	495.283
1122.4	463.309
1125.3	392.325
1128.19	395.337
1131.08	297.02
1133.97	320.902
1136.87	310.06
1139.76	295.853
1142.65	252.747
1145.54	244.259
1148.44	179.531
1151.33	176.085
1154.22	177.74
1157.12	171.94
1160.01	118.387
1162.9	72.4579
1165.79	56.8331
1168.68	13.5481
1171.58	17.0584
1174.47	25.6094
1177.36	0.656006
1180.26	29.7111
1183.15	14.6327
1186.04	14.4264
1188.93	67.7876
1191.83	55.2524
1194.72	48.9508
1197.61	84.9962
1200.51	61.4381
1203.4	69.326
1206.29	95.8588
1209.18	110.276
1212.08	104.719
1214.97	126.132
1217.86	137.811
1220.75	170.53
1223.65	140.411
1226.54	117.92
1229.43	81.8016
1232.33	95.9008
1235.22	84.168
1238.11	28.5974
1241	45.8124
1243.9	86.3994
1246.79	42.7753
1249.68	57.5233
1252.57	39.8301
1255.47	0.595703
1258.36	29.9217
1261.25	6.76331
1264.14	8.56165
1267.04	10.0101
1269.93	17.5623
1272.82	0.111877
