Measurement: Raman, 532 nm, unoriented, Raman Data Processed
Mineral: Copiapite
Rruff sample: R060821
Ideal chemistry: Fe^2+^Fe^3+^_4_(SO_4_)_6_(OH)_2_20H_2_O
Locality: Alcaparrosa mine, Tierra Amarilla, Chile
Source: Bob Jenkins
Description: Yellowish-brown platy aggregates associated with romerite, R060820
Raman shift (cm-1)	intensity
121.041	0
124.415	227.884
127.79	320.688
131.165	376.234
134.54	482.269
137.915	632.35
141.29	670.683
144.664	692.935
148.039	822.963
151.414	893.186
154.789	1052.74
158.164	1173.47
161.538	1320.88
164.913	1190.11
168.288	923.473
171.663	744.46
175.038	660.131
178.413	696.353
181.787	760.713
185.162	927.217
188.537	1133.75
191.912	1418.34
195.286	1527.33
198.661	1343.05
202.036	1089.38
205.411	1072.12
208.786	1226.93
212.161	1388.12
215.535	1628.76
218.91	1878.97
222.285	2002.86
225.66	2079.24
229.035	2285.42
232.41	2523.06
235.784	2755.37
239.159	2933.4
242.534	3031.08
245.909	2932.8
249.284	2796.64
252.658	2726.01
256.033	2972.49
259.408	3515.43
262.783	4407.02
266.158	5154.83
269.532	5471.38
272.907	4940.99
276.282	3814.33
279.657	2796.16
283.032	2118.22
286.406	1715.51
289.781	1636.02
293.156	1735.05
296.531	1933.64
299.906	2167.17
303.281	2191.25
306.655	1969.04
310.03	1458.73
313.405	1021.85
316.78	697.973
320.155	469.617
323.53	305.156
326.904	180.291
330.279	66.681
333.654	37.014
337.029	11.39
340.404	19.509
343.778	32.374
347.153	68.888
350.528	71.942
353.903	67.6
357.278	67.401
360.652	96.457
364.027	61.965
367.402	82.287
370.777	105.621
374.152	45.72
377.526	31.129
380.901	3.073
384.276	35.445
387.651	94.298
391.026	115.029
394.401	190.343
397.775	205.98
401.15	242.715
404.525	318.342
407.9	350.542
411.275	403.471
414.65	480.541
418.024	605.255
421.399	680.782
424.774	796.449
428.149	849.665
431.524	922.96
434.898	1094.92
438.273	1281.36
441.648	1435.31
445.023	1603.12
448.398	1768.05
451.772	1980.68
455.147	2109.51
458.522	2294.88
461.897	2620.11
465.272	3063.97
468.647	3555.78
472.021	3892.59
475.396	4064.52
478.771	3947.24
482.146	3485.5
485.521	2718.36
488.895	1919.02
492.27	1304.41
495.645	943.475
499.02	625.7
502.395	436.673
505.77	299.325
509.144	202.549
512.519	128.742
515.894	66.648
519.269	20.516
522.644	40.068
526.018	13.983
529.393	24.693
532.768	48.316
536.143	76.424
539.518	180.691
542.892	237.73
546.267	320.753
549.642	380.781
553.017	377.202
556.392	344.951
559.766	315.731
563.141	230.15
566.516	172.835
569.891	119.467
573.266	107.451
576.641	116.472
580.015	162.61
583.39	222.942
586.765	372.814
590.14	480.129
593.515	600.114
596.89	642.2
600.264	640.062
603.639	534.905
607.014	574.889
610.389	645.377
613.763	739.499
617.138	651.861
620.513	560.741
623.888	496.645
627.263	383.911
630.638	337.669
634.012	308.819
637.387	304.404
640.762	297.533
644.137	222.625
647.512	150.509
650.886	103.653
654.261	73.688
657.636	53.393
661.011	59.94
664.386	66.433
667.761	52.655
671.135	69.432
674.51	9.7
677.885	31.856
681.26	10.426
684.635	3.927
688.01	10.99
691.384	5.767
694.759	14.366
698.134	7.057
701.509	31.744
704.883	9.602
708.258	31.581
711.633	8.399
715.008	12.833
718.383	5.248
721.758	15.885
725.132	25.333
728.507	27.243
731.882	20.315
735.257	17.541
738.632	38.422
742.006	27.464
745.381	48.794
748.756	33.735
752.131	25.714
755.506	32.086
758.881	11.757
762.255	19.646
765.63	17.493
769.005	35.476
772.38	26.343
775.755	2.831
779.13	5.615
782.504	3.378
785.879	18.132
789.254	25.369
792.629	11.24
796.003	9.769
799.378	21.447
802.753	0.304
806.128	13.738
809.503	3.095
812.878	8.025
816.252	50.766
819.627	29.426
823.002	35.922
826.377	15.755
829.752	19.218
833.127	31.406
836.501	13.219
839.876	37.848
843.251	33.982
846.626	13.738
850	26.538
853.375	34.555
856.75	2.793
860.125	5.159
863.5	14.272
866.875	55.136
870.249	21.902
873.624	31.764
876.999	15.189
880.374	27.732
883.749	32.871
887.123	14.829
890.498	45.367
893.873	20.811
897.248	55.337
900.623	51.463
903.998	23.594
907.372	29.231
910.747	32.529
914.122	16.724
917.497	12.418
920.872	33.325
924.247	36.178
927.621	20.712
930.996	26.556
934.371	31.059
937.746	59.002
941.12	31.886
944.495	5.743
947.87	25.05
951.245	47.997
954.62	38.97
957.995	111.957
961.369	173.485
964.744	241.559
968.119	355.004
971.494	536.684
974.869	799.878
978.244	1183.49
981.618	1693.18
984.993	2276.89
988.368	2920.55
991.743	3488.47
995.118	3925.59
998.492	4089.93
1001.87	3885.83
1005.24	3624.54
1008.62	3097.74
1011.99	2603.22
1015.37	2555.1
1018.74	3023.06
1022.12	3519.03
1025.49	3840.58
1028.87	3765.75
1032.24	3301.05
1035.62	2547.23
1038.99	1734.26
1042.37	1098.14
1045.74	740.681
1049.12	506.953
1052.49	393.677
1055.86	305.927
1059.24	260.605
1062.61	248.344
1065.99	214.455
1069.36	306.829
1072.74	347.136
1076.11	456.327
1079.49	578.442
1082.86	734.763
1086.24	940.16
1089.61	1140.57
1092.99	1367.68
1096.36	1558.64
1099.74	1804.33
1103.11	2039.3
1106.49	2238.8
1109.86	2396.4
1113.24	2387.47
1116.61	2296.53
1119.99	2204.93
1123.36	2083.29
1126.73	1934.51
1130.11	1835.34
1133.48	1790.31
1136.86	1778.19
1140.23	1742.43
1143.61	1652.21
1146.98	1487.65
1150.36	1340.01
1153.73	1158.58
1157.11	1005.37
1160.48	915.556
1163.86	792.714
1167.23	677.478
1170.61	597.405
1173.98	497.888
1177.36	400.942
1180.73	306.103
1184.11	265.655
1187.48	279.702
1190.86	205.192
1194.23	235.53
1197.61	208.023
1200.98	222.286
1204.36	189.77
1207.73	173.176
1211.11	142.499
1214.48	123.542
1217.86	106.227
1221.23	114.38
1224.61	103.078
1227.98	103.789
1231.36	119.693
1234.73	137.758
1238.1	120.532
1241.48	135.713
1244.85	116.922
1248.23	140.51
1251.6	94.153
1254.98	67.572
1258.35	28.577
1261.73	10.746
1265.1	2.263
1268.48	7.045
1271.85	8.979
1275.23	1.499
1278.6	18.456
1281.98	0.418
1285.35	18.705
