Measurement: Raman, 532 nm, unoriented, Raman Data Processed
Mineral: Copper(II) tetraammine nitrate
Rruff sample: R060941
Ideal chemistry: Cu(NH_3_)_4_(NO_3_)_2_
Locality: mine floor near explosive storage, Quebrada Blanca mine, Iquique, Chile
Source: Bob Jenkins
Description: Purple transparent
Raman shift (cm-1)	intensity
128.969	0
132.344	37.9143
135.718	83.7112
139.093	115.742
142.468	71.2084
145.843	107.811
149.218	119.85
152.593	134.498
155.967	141.274
159.342	120.596
162.717	89.2966
166.092	99.4568
169.467	88.8754
172.841	83.321
176.216	55.4344
179.591	54.8591
182.966	52.5747
186.341	45.5967
189.715	35.2372
193.09	49.2011
196.465	28.0721
199.84	26.5373
203.215	3.35385
206.589	7.05576
209.964	6.71054
213.339	8.86481
216.714	3.90564
220.089	0.049469
223.464	9.5347
226.838	8.71869
230.213	0.412292
233.588	10.7876
236.963	18.8554
240.338	12.4714
243.713	24.5669
247.087	34.4881
250.462	51.4603
253.837	68.243
257.212	89.2239
260.587	106.615
263.961	123.395
267.336	148.478
270.711	172.576
274.086	178.516
277.461	214.099
280.835	272.918
284.21	326.413
287.585	347.222
290.96	375.154
294.335	403.567
297.709	426.778
301.084	415.84
304.459	369.418
307.834	299.648
311.209	220.276
314.584	146.566
317.958	113.966
321.333	65.037
324.708	58.153
328.083	40.7107
331.458	25.4744
334.832	0.411163
338.207	18.8072
341.582	1.19504
344.957	14.5825
348.332	13.7727
351.707	10.4842
355.081	4.6301
358.456	20.7211
361.831	4.11267
365.206	3.19492
368.581	4.89362
371.955	26.5157
375.33	23.2703
378.705	23.5095
382.08	10.4384
385.455	18.1219
388.829	26.1606
392.204	27.7508
395.579	51.4967
398.954	67.1548
402.329	82.111
405.704	105.428
409.078	142.418
412.453	190.53
415.828	275.199
419.203	359.326
422.578	410.253
425.952	436.638
429.327	436.858
432.702	286.518
436.077	198.31
439.452	113.725
442.827	72.769
446.201	61.4839
449.576	24.7687
452.951	24.7588
456.326	3.97043
459.701	4.0285
463.075	8.97345
466.45	0.800049
469.825	26.2313
473.2	26.8871
476.575	14.3202
479.95	6.13727
483.324	6.81885
486.699	7.49799
490.074	14.7695
493.449	9.87891
496.824	5.71466
500.198	5.77933
503.573	5.68301
506.948	20.7128
510.323	1.44534
513.698	9.58481
517.072	1.43414
520.447	11.5369
523.822	17.0495
527.197	8.94727
530.572	8.43445
533.947	28.7778
537.321	12.9928
540.696	22.9737
544.071	8.94916
547.446	5.28925
550.821	34.7034
554.195	5.97729
557.57	9.17993
560.945	20.2588
564.32	12.7432
567.695	31.6063
571.069	25.0545
574.444	21.0148
577.819	11.0153
581.194	1.83835
584.569	3.4679
587.944	0.695862
591.318	8.30533
594.693	11.9833
598.068	11.7462
601.443	21.9809
604.818	20.4848
608.192	14.7758
611.567	26.7963
614.942	25.1488
618.317	7.76346
621.692	3.26801
625.067	14.5073
628.441	24.4758
631.816	12.625
635.191	12.7543
638.566	41.2712
641.941	20.0639
645.315	5.46213
648.69	8.71344
652.065	6.93933
655.44	17.1012
658.815	30.8398
662.189	2.44009
665.564	24.8965
668.939	8.36484
672.314	8.46674
675.689	9.39654
679.064	9.32254
682.438	8.20178
685.813	3.21945
689.188	29.4647
692.563	38.5262
695.938	40.0093
699.312	83.4579
702.687	110.216
706.062	203.772
709.437	277.167
712.812	234.497
716.187	291.147
719.561	240.566
722.936	67.3154
726.311	45.6912
729.686	51.5213
733.061	2.57907
736.435	0.247375
739.81	21.592
743.185	7.76154
746.56	28.1034
749.935	20.4946
753.309	14.9533
756.684	16.6864
760.059	15.3272
763.434	32.0275
766.809	17.2578
770.184	9.12543
773.558	10.8109
776.933	1.12997
780.308	7.14801
783.683	11.6212
787.058	16.0688
790.432	11.525
793.807	10.1352
797.182	2.22073
800.557	2.73529
803.932	1.49625
807.307	0.693451
810.681	18.101
814.056	14.6337
817.431	5.01721
820.806	16.3768
824.181	5.88281
827.555	5.22324
830.93	13.2658
834.305	5.46466
837.68	1.6579
841.055	38.2649
844.429	27.6576
847.804	25.8711
851.179	23.8196
854.554	4.56342
857.929	10.9829
861.304	33.5682
864.678	11.1474
868.053	30.5214
871.428	2.18485
874.803	9.1029
878.178	11.1724
881.552	22.6666
884.927	6.5339
888.302	3.50983
891.677	15.5272
895.052	22.6896
898.427	18.9368
901.801	4.48035
905.176	27.1555
908.551	13.1848
911.926	23.6879
915.301	38.7532
918.675	0.632263
922.05	10.2142
925.425	10.3569
928.8	35.5388
932.175	14.4255
935.549	25.1618
938.924	20.1663
942.299	26.389
945.674	10.8666
949.049	12.4374
952.424	23.6778
955.798	15.7907
959.173	24.5948
962.548	16.1741
965.923	10.6317
969.298	29.3242
972.672	5.06439
976.047	0.318237
979.422	8.16046
982.797	6.33728
986.172	13.2386
989.547	20.5828
992.921	3.39606
996.296	18.7475
999.671	17.8893
1003.05	22.972
1006.42	31.883
1009.79	25.4778
1013.17	21.8943
1016.54	42.7371
1019.92	22.9987
1023.29	55.7312
1026.67	80.3843
1030.04	81.9394
1033.42	146.767
1036.79	259.063
1040.17	857.811
1043.54	2075.32
1046.92	4331.28
1050.29	5602.81
1053.67	3479.88
1057.04	538.428
1060.42	165.697
1063.79	103.531
1067.17	38.6995
1070.54	37.1936
1073.92	34.144
1077.29	13.9295
1080.67	18.741
1084.04	25.4313
1087.42	18.1429
1090.79	8.90723
1094.17	1.20264
1097.54	0.994385
1100.91	14.1234
1104.29	24.3665
1107.66	23.3755
1111.04	14.6213
1114.41	32.1322
1117.79	11.3918
1121.16	15.3189
1124.54	18.7748
1127.91	16.7295
1131.29	7.06311
1134.66	12.744
1138.04	1.14313
1141.41	26.6486
1144.79	27.3963
1148.16	10.2039
1151.54	10.8461
1154.91	29.2871
1158.29	7.37799
1161.66	22.9004
1165.04	15.9797
1168.41	20.4305
1171.79	27.2885
1175.16	19.2642
1178.54	9.31317
1181.91	31.8982
1185.29	4.42743
1188.66	8.61298
1192.04	2.22327
1195.41	24.4854
1198.79	7.14935
1202.16	33.1484
1205.54	42.4892
1208.91	54.9973
1212.28	83.2462
1215.66	108.154
1219.03	105.493
1222.41	118.531
1225.78	114.616
1229.16	104.24
1232.53	43.0545
1235.91	51.3771
1239.28	39.3467
1242.66	11.6543
1246.03	42.8149
1249.41	35.6454
1252.78	40.63
1256.16	11.3088
1259.53	29.7126
1262.91	39.353
1266.28	23.4044
1269.66	48.9377
1273.03	29.2798
1276.41	22.9766
1279.78	18.5309
1283.15	7.36572
1286.53	30.2905
1289.9	22.6893
1293.28	27.5441
1296.65	32.4958
1300.03	10.8475
1303.4	21.0128
1306.78	20.4288
1310.15	8.69763
