Measurement: Raman, 785 nm, unoriented, Raman Data Processed
Mineral: Copper(II) tetraammine nitrate
Rruff sample: R060941
Ideal chemistry: Cu(NH_3_)_4_(NO_3_)_2_
Locality: mine floor near explosive storage, Quebrada Blanca mine, Iquique, Chile
Source: Bob Jenkins
Description: Purple transparent
Raman shift (cm-1)	intensity
140.594	0
143.487	6.53406
146.38	59.7281
149.273	88.4581
152.165	107.323
155.058	108.186
157.951	103.406
160.843	106.353
163.736	101.66
166.629	117.319
169.521	124.966
172.414	94.7126
175.307	80.5611
178.2	83.2384
181.092	54.4404
183.985	44.0705
186.878	50.2804
189.77	37.607
192.663	33.7242
195.556	30.7221
198.448	35.0372
201.341	38.7718
204.234	12.8198
207.127	8.96738
210.019	2.77905
212.912	10.767
215.805	5.43811
218.697	5.09241
221.59	2.56546
224.483	6.99286
227.375	6.21518
230.268	2.28201
233.161	10.9863
236.054	12.2488
238.946	12.9424
241.839	1.77875
244.732	7.82291
247.624	13.8365
250.517	25.4129
253.41	30.3746
256.303	39.9676
259.195	45.0798
262.088	59.6892
264.981	75.9338
267.873	106.251
270.766	117.254
273.659	135.226
276.551	164.823
279.444	181.095
282.337	218.125
285.229	263.937
288.122	285.995
291.015	300.152
293.908	300.597
296.8	326.555
299.693	335.614
302.586	315.062
305.478	281.397
308.371	230.936
311.264	155.756
314.156	118.961
317.049	74.2599
319.942	84.4697
322.835	45.1786
325.727	33.0061
328.62	39.6013
331.513	24.5568
334.405	42.2118
337.298	3.83015
340.191	24.6419
343.084	30.2497
345.976	27.3823
348.869	14.2665
351.762	0.022186
354.654	19.5046
357.547	8.4196
360.44	2.55231
363.332	4.51498
366.225	7.87492
369.118	8.4326
372.01	14.153
374.903	12.0082
377.796	32.829
380.689	23.3327
383.581	32.7213
386.474	18.2012
389.367	40.8858
392.259	42.0926
395.152	42.4115
398.045	41.3085
400.938	64.7668
403.83	84.7507
406.723	122.836
409.616	131.347
412.508	200.872
415.401	230.557
418.294	328.493
421.186	408.966
424.079	468.536
426.972	448.165
429.865	414.81
432.757	314.581
435.65	223.429
438.543	136.848
441.435	96.6995
444.328	64.7186
447.221	47.7313
450.113	36.2666
453.006	33.7501
455.899	15.9898
458.791	16.8603
461.684	18.5429
464.577	5.57841
467.47	13.4438
470.362	23.016
473.255	17.9169
476.148	1.50563
479.04	11.3789
481.933	13.2724
484.826	16.6335
487.719	12.1863
490.611	1.00913
493.504	5.1743
496.397	6.43071
499.289	5.87608
502.182	13.3534
505.075	12.8434
507.967	23.0364
510.86	21.5739
513.753	18.099
516.645	8.55443
519.538	8.94229
522.431	2.09224
525.324	7.60509
528.216	29.2708
531.109	2.08034
534.002	9.75917
536.894	9.98256
539.787	8.33545
542.68	21.9396
545.572	12.9838
548.465	17.4757
551.358	11.425
554.251	23.5342
557.143	32.3879
560.036	17.9414
562.929	5.56523
565.822	0.212204
568.714	19.5462
571.607	11.3982
574.5	9.36955
577.392	5.19299
580.285	23.6342
583.178	27.7901
586.07	21.7153
588.963	20.1151
591.856	17.4159
594.749	2.17596
597.641	8.32007
600.534	28.3666
603.427	11.1269
606.319	3.117
609.212	13.8002
612.105	21.753
614.997	14.5423
617.89	23.0976
620.783	15.8161
623.676	22.6141
626.568	26.8589
629.461	15.4899
632.354	10.9153
635.246	11.3657
638.139	12.0084
641.032	6.35324
643.924	22.5482
646.817	0.644333
649.71	0.337509
652.602	10.0977
655.495	17.0201
658.388	30.2839
661.281	4.19348
664.173	3.89137
667.066	3.61272
669.959	4.35887
672.851	8.04233
675.744	7.33566
678.637	11.6681
681.529	3.92189
684.422	10.6266
687.315	9.78928
690.208	21.0404
693.1	48.7009
695.993	38.7621
698.886	57.8445
701.778	91.3543
704.671	158.18
707.564	255.267
710.457	207.15
713.349	203.046
716.242	274.009
719.135	237.661
722.027	103.893
724.92	44.0847
727.813	9.75217
730.705	5.83719
733.598	13.4214
736.491	22.7634
739.384	21.0576
742.276	9.86943
745.169	14.7695
748.062	1.03647
750.954	26.2862
753.847	19.2761
756.74	16.5703
759.632	11.2336
762.525	23.7768
765.418	4.00052
768.311	21.3846
771.203	12.2902
774.096	5.72275
776.989	5.32224
779.881	7.49797
782.774	14.1215
785.667	6.28113
788.559	16.003
791.452	13.059
794.345	1.8689
797.237	3.8649
800.13	17.4418
803.023	10.4805
805.916	19.4591
808.808	6.30583
811.701	6.06938
814.594	2.94614
817.486	13.1802
820.379	3.61618
823.272	29.3692
826.164	12.5876
829.057	10.1083
831.95	18.0713
834.843	0.1082
837.735	12.6847
840.628	0.980072
843.521	7.85084
846.413	13.236
849.306	19.3822
852.199	8.55888
855.091	12.5759
857.984	24.8127
860.877	11.8415
863.77	1.11525
866.662	15.8004
869.555	22.557
872.448	0.959274
875.34	10.8963
878.233	3.77675
881.126	16.9501
884.019	31.3088
886.911	16.9418
889.804	18.507
892.697	15.9783
895.589	12.8281
898.482	7.38098
901.375	12.9763
904.268	10.9085
907.16	25.9002
910.053	5.21493
912.946	10.5659
915.838	6.40118
918.731	19.5406
921.624	10.8557
924.516	16.6675
927.409	15.9018
930.302	8.35675
933.194	14.2259
936.087	13.6898
938.98	22.8206
941.873	22.2
944.765	12.0691
947.658	9.57771
950.551	12.9373
953.443	3.2581
956.336	10.2612
959.229	18.5618
962.121	23.1234
965.014	5.04163
967.907	2.76177
970.8	5.8008
973.692	19.4723
976.585	16.2891
979.478	19.7595
982.37	11.908
985.263	17.1959
988.156	9.19647
991.048	2.69511
993.941	1.47734
996.834	10.1032
999.727	17.1429
1002.62	10.2279
1005.51	10.0975
1008.4	16.7812
1011.3	18.0153
1014.19	5.73439
1017.08	9.62416
1019.98	24.9473
1022.87	6.57004
1025.76	45.9644
1028.65	56.5899
1031.55	73.0841
1034.44	128.335
1037.33	317.426
1040.22	785.758
1043.12	1543.44
1046.01	3008.36
1048.9	4553.08
1051.8	4754.11
1054.69	1706.81
1057.58	321.86
1060.47	105.177
1063.37	64.9071
1066.26	42.6021
1069.15	39.9537
1072.04	14.4638
1074.94	2.39191
1077.83	18.7333
1080.72	14.2539
1083.62	16.7344
1086.51	20.1391
1089.4	1.13277
1092.29	22.4385
1095.19	8.15717
1098.08	5.77113
1100.97	3.032
1103.86	16.5422
1106.76	9.84351
1109.65	7.36766
1112.54	24.7739
1115.43	14.6774
1118.33	17.6452
1121.22	21.13
1124.11	17.6892
1127.01	21.6505
1129.9	8.02367
1132.79	39.2271
1135.68	10.5933
1138.58	30.0033
1141.47	23.9227
1144.36	8.23958
1147.25	24.5872
1150.15	13.3251
1153.04	11.4043
1155.93	2.98949
1158.83	5.60565
1161.72	4.50059
1164.61	13.5618
1167.5	5.70538
1170.4	4.7945
1173.29	25.3004
1176.18	9.436
1179.07	4.25021
1181.97	5.83078
1184.86	6.34274
1187.75	5.05025
1190.64	9.81737
1193.54	13.2077
1196.43	14.8197
1199.32	8.13693
1202.22	10.513
1205.11	8.96947
1208	13.623
1210.89	10.5679
1213.79	38.2657
1216.68	31.4973
1219.57	28.2706
1222.46	42.6864
1225.36	60.5678
1228.25	48.2627
1231.14	42.7881
1234.04	20.026
1236.93	10.6556
1239.82	2.07256
