Measurement: Raman, 532 nm, unoriented, Raman Data Processed
Mineral: Coquimbite
Rruff sample: R060638
Ideal chemistry: Fe^3+^_2_(SO_4_)_3_9H_2_O
Locality: Dexter no. 7 mine, Calf Mesa, San Rafael Swell, Emery County, Utah, USA
Source: University of Arizona Mineral Museum
Description: Purple blocky crystals
Measured chemistry: (Fe^3+^_1.43_Al_0.57_)_Σ=2_(S_1.00_O_4_)_3_·9H_2_O; trace amounts of As; H_2_O estimated by difference
Raman shift (cm-1)	intensity
150.414	0
153.307	13.2342
156.2	2.26053
159.092	0.010393
161.985	9.46958
164.878	21.4518
167.77	15.6475
170.663	11.5624
173.556	5.78862
176.448	0.55208
179.341	1.01146
182.234	1.1566
185.127	13.0101
188.019	28.0851
190.912	38.8733
193.805	55.1076
196.697	78.3987
199.59	112.704
202.483	141.095
205.375	144.27
208.268	162.427
211.161	183.833
214.054	148.558
216.946	75.134
219.839	31.5036
222.732	9.20328
225.624	0.054059
228.517	1.59022
231.41	1.46643
234.303	0.972739
237.195	1.98319
240.088	8.2455
242.981	16.2358
245.873	24.2415
248.766	35.0205
251.659	43.4471
254.551	57.6296
257.444	76.3304
260.337	94.8972
263.229	109.593
266.122	120.78
269.015	149.269
271.908	187.858
274.8	241.993
277.693	306.447
280.586	373.272
283.478	420.046
286.371	402.676
289.264	333.855
292.156	264.271
295.049	203.375
297.942	157.516
300.835	122.206
303.727	92.882
306.62	72.8038
309.513	57.3336
312.405	44.0185
315.298	35.8207
318.191	26.4131
321.084	22.0468
323.976	18.9688
326.869	13.9142
329.762	9.37509
332.654	5.60902
335.547	1.30889
338.44	0.899819
341.332	0.683219
344.225	0.098853
347.118	0.05455
350.01	0.758728
352.903	0.659686
355.796	0.429268
358.689	0.339545
361.581	0.216695
364.474	0.2857
367.367	1.05205
370.259	1.37734
373.152	0.919786
376.045	2.13613
378.938	1.99668
381.83	2.45254
384.723	1.72149
387.616	3.34487
390.508	4.34884
393.401	6.11584
396.294	5.99883
399.186	6.46963
402.079	6.06975
404.972	4.75711
407.865	5.01892
410.757	3.54147
413.65	2.802
416.543	1.71656
419.435	0.063097
422.328	0.153038
425.221	0.372647
428.113	0.324094
431.006	0.843069
433.899	0.764555
436.791	2.18218
439.684	5.32489
442.577	7.54425
445.469	13.3962
448.362	20.0448
451.255	24.6938
454.148	26.0334
457.04	24.676
459.933	23.4978
462.826	24.2206
465.718	22.3404
468.611	21.026
471.504	17.5533
474.397	16.6034
477.289	18.3512
480.182	24.0758
483.075	31.249
485.967	42.1198
488.86	55.8169
491.753	74.2876
494.645	95.4459
497.538	114.669
500.431	132.47
503.324	144.435
506.216	146.456
509.109	131.334
512.002	103.161
514.894	74.0298
517.787	51.3856
520.68	36.0097
523.572	26.5373
526.465	20.2821
529.358	14.6844
532.25	10.5735
535.143	8.75935
538.036	5.21293
540.929	3.22303
543.821	3.08686
546.714	1.02231
549.607	0.262773
552.5	0.752819
555.392	0.688324
558.285	0.369387
561.178	0.702455
564.07	0.398188
566.963	0.051548
569.856	0.200517
572.748	0.845592
575.641	2.13102
578.534	4.1915
581.427	7.51288
584.319	13.4131
587.212	20.2832
590.105	29.5616
592.997	39.6449
595.89	49.4411
598.783	54.9208
601.675	55.7748
604.568	48.8128
607.461	41.8517
610.353	32.9026
613.246	24.7017
616.139	20.7416
619.032	17.03
621.924	14.269
624.817	12.7613
627.71	11.5531
630.602	9.53094
633.495	8.73246
636.388	8.82097
639.28	8.87223
642.173	6.99809
645.066	7.2292
647.958	6.19097
650.851	5.06015
653.744	4.33284
656.637	3.93467
659.529	4.40583
662.422	4.92795
665.315	4.88683
668.207	3.94476
671.1	4.36861
673.993	3.80128
676.885	2.83501
679.778	1.04809
682.671	0.462923
685.564	0.339101
688.456	0.417783
691.349	0.232781
694.242	0.739747
697.134	0.134367
700.027	0.204994
702.92	0.237751
705.812	0.526116
708.705	0.36717
711.598	1.57693
714.491	2.38086
717.383	3.4973
720.276	4.02537
723.169	3.88328
726.061	4.25427
728.954	3.917
731.847	4.81236
734.74	4.62282
737.632	5.0197
740.525	5.16556
743.418	4.4548
746.31	3.95115
749.203	4.29709
752.096	2.02765
754.988	2.5737
757.881	1.71778
760.774	0.412687
763.667	1.67687
766.559	0.128234
769.452	0.863291
772.345	0.113274
775.237	0.228015
778.13	0.639951
781.023	0.497988
783.915	0.172257
786.808	0.201086
789.701	0.117804
792.593	0.288979
795.486	0.202698
798.379	0.064613
801.271	0.669767
804.164	0.99859
807.057	0.639481
809.95	0.941875
812.842	1.79976
815.735	1.77335
818.628	1.48677
821.52	2.11872
824.413	1.42756
827.306	2.377
830.198	2.36473
833.091	2.07735
835.984	2.02287
838.877	1.56066
841.769	2.89508
844.662	2.18415
847.555	2.4032
850.447	1.91117
853.34	3.5979
856.233	3.77199
859.125	3.30664
862.018	3.63782
864.911	3.65358
867.804	3.7108
870.696	2.5265
873.589	2.62513
876.482	4.08087
879.375	2.89355
882.267	3.39578
885.16	3.39212
888.053	2.18395
890.945	2.59532
893.838	2.03928
896.731	1.39537
899.623	0.974381
902.516	0.762544
905.409	0.945977
908.302	0.480958
911.194	1.32371
914.087	0.675981
916.98	0.437426
919.872	0.709081
922.765	0.273392
925.658	0.206239
928.55	0.291818
931.443	0.148401
934.336	0.057793
937.229	0.038003
940.121	0.60226
943.014	0.025055
945.907	0.291088
948.799	0.072319
951.692	0.088798
954.585	0.330143
957.477	0.377642
960.37	0.052941
963.263	0.226994
966.155	1.3071
969.048	1.97122
971.941	2.22797
974.834	2.45961
977.726	4.76555
980.619	6.23206
983.512	9.91328
986.404	11.5684
989.297	16.2156
992.19	19.8684
995.082	24.1356
997.975	32.8183
1000.87	45.554
1003.76	65.4173
1006.65	101.123
1009.55	158.113
1012.44	250.943
1015.33	385.331
1018.22	539.519
1021.12	714.939
1024.01	918.445
1026.9	870.858
1029.8	490.042
1032.69	282.107
1035.58	213.234
1038.47	157.72
1041.37	94.3351
1044.26	54.4531
1047.15	33.8833
1050.04	21.693
1052.94	13.7404
1055.83	8.26596
1058.72	4.67167
1061.62	2.38403
1064.51	0.564344
1067.4	0.531028
1070.29	0.960414
1073.18	0.958797
1076.08	0.350376
1078.97	2.20038
1081.86	5.32175
1084.76	11.6362
1087.65	20.2318
1090.54	27.6993
1093.43	35.9751
1096.33	39.0578
1099.22	37.7024
1102.11	32.8223
1105.01	28.4074
1107.9	27.1114
1110.79	27.3174
1113.68	24.7124
1116.58	20.1634
1119.47	13.4029
1122.36	7.36949
1125.25	2.7349
1128.15	0.511191
1131.04	0.512293
1133.93	0.343032
1136.83	0.353206
1139.72	0.739022
1142.61	1.33581
1145.5	2.04052
1148.4	2.92173
1151.29	8.20519
1154.18	11.8406
1157.07	15.4685
1159.97	19.3331
1162.86	23.9336
1165.75	26.6715
1168.64	27.4093
1171.54	27.1185
1174.43	24.8632
1177.32	21.2921
1180.21	21.1914
1183.11	22.06
1186	25.3002
1188.89	32.8426
1191.79	45.0667
1194.68	65.8548
1197.57	94.7729
1200.46	123.195
1203.36	132.962
1206.25	103.213
1209.14	64.3366
1212.04	38.5824
1214.93	24.0089
1217.82	15.9759
1220.71	11.134
1223.61	7.91089
1226.5	6.08801
1229.39	3.70257
1232.28	2.03542
1235.18	2.73006
1238.07	1.15395
1240.96	1.0049
1243.86	0.764918
1246.75	0.002566
1249.64	0.171734
1252.53	0.453404
1255.42	0.145269
1258.32	0.056346
1261.21	0.517594
1264.1	0.497744
1267	2.28514
1269.89	3.02087
1272.78	2.73202
1275.67	2.45339
1278.57	1.567
1281.46	0.304848
1284.35	0.259925
1287.24	0.572082
1290.14	1.39896
1293.03	1.14509
1295.92	0.232724
1298.82	0.443075
1301.71	0.84287
