Measurement: Raman, 780 nm, unoriented, Raman Data Processed
Mineral: Coquimbite
Rruff sample: R110210
Ideal chemistry: Fe^3+^_2_(SO_4_)_3_9H_2_O
Locality: Mina Alcaparrosa, Cerritos Bayos, Calama, Atacama, II Region, Chile
Source: Gunnar Farber
Description: Purple hexagonal prisms with incomplete pyramidal terminations, associated with pertlikite R110209 and krausite R110211
Raman shift (cm-1)	intensity
163.921	2.31679
166.814	10.9976
169.706	35.0483
172.599	47.3226
175.492	32.4145
178.385	21.2498
181.277	38.895
184.17	61.0146
187.063	66.2814
189.955	58.3837
192.848	57.7129
195.741	74.5795
198.633	114.694
201.526	148.769
204.419	137.66
207.311	158.688
210.204	194.032
213.097	149.711
215.99	66.8521
218.882	16.9418
221.775	1.8837
224.668	5.91791
227.56	1.60272
230.453	3.17876
233.346	13.2087
236.238	25.6047
239.131	40.835
242.024	56.5337
244.917	75.0066
247.809	90.2185
250.702	102.657
253.595	111.547
256.487	132.864
259.38	148.551
262.273	151.129
265.166	151.342
268.058	173.733
270.951	205.796
273.844	264.764
276.736	341.718
279.629	433.307
282.522	494.888
285.414	464.491
288.307	380.257
291.2	285.951
294.092	219.537
296.985	170.854
299.878	140.252
302.771	115.95
305.663	97.8255
308.556	84.1429
311.449	65.9425
314.341	54.5269
317.234	44.2748
320.127	34.6443
323.019	27.5386
325.912	21.9735
328.805	15.1562
331.698	13.6669
334.59	5.54486
337.483	3.96123
340.376	3.76533
343.268	0.844009
346.161	1.41234
349.054	0.515594
351.947	0.345299
354.839	1.41177
357.732	0.267056
360.625	1.25433
363.517	0.475273
366.41	1.427
369.303	1.01709
372.195	0.037239
375.088	1.1485
377.981	1.91514
380.873	0.786968
383.766	0.37532
386.659	0.593109
389.552	1.31462
392.444	0.217865
395.337	1.61151
398.23	1.63737
401.122	2.14318
404.015	0.556843
406.908	2.78159
409.8	5.00752
412.693	5.5965
415.586	4.93273
418.479	2.4547
421.371	0.728371
424.264	0.620129
427.157	0.296364
430.049	1.69488
432.942	5.09274
435.835	9.20906
438.728	17.2669
441.62	28.8802
444.513	40.9019
447.406	68.4964
450.298	85.9958
453.191	86.057
456.084	79.3039
458.976	81.6809
461.869	86.1343
464.762	85.1414
467.654	76.0251
470.547	69.0963
473.44	62.2629
476.333	60.7681
479.225	64.1701
482.118	73.2398
485.011	89.1423
487.903	111.417
490.796	133.81
493.689	159.027
496.582	180.54
499.474	197.65
502.367	220.508
505.26	227.721
508.152	206.087
511.045	165.097
513.938	118.926
516.83	80.2523
519.723	58.2164
522.616	42.102
525.509	33.2286
528.401	27.5473
531.294	17.0129
534.187	10.7033
537.079	7.20099
539.972	3.28248
542.865	0.463737
545.757	1.19687
548.65	0.377674
551.543	0.578491
554.436	1.59713
557.328	5.10043
560.221	0.08625
563.114	0.03006
566.006	1.12878
568.899	1.64553
571.792	1.41327
574.684	9.6876
577.577	12.9532
580.47	20.3599
583.362	31.5933
586.255	42.6767
589.148	60.0488
592.041	80.5317
594.933	97.4127
597.826	102.539
600.719	95.4304
603.611	85.1729
606.504	71.7739
609.397	53.5991
612.29	43.7154
615.182	32.5445
618.075	25.1367
620.968	22.575
623.86	16.6563
626.753	16.8519
629.646	19.1613
632.538	17.0001
635.431	18.699
638.324	15.6119
641.217	16.1891
644.109	12.9883
647.002	11.0468
649.895	12.5337
652.787	10.8626
655.68	12.8616
658.573	9.6678
661.466	10.1275
664.358	7.70779
667.251	9.66089
670.144	8.95603
673.036	8.1742
675.929	7.18931
678.822	5.61642
681.714	3.71731
684.607	3.52942
687.5	0.744686
690.393	2.12185
693.285	1.49721
696.178	0.647572
699.071	0.257874
701.963	1.43053
704.856	0.322197
707.749	0.099785
710.641	0.978863
713.534	0.804901
716.427	0.131702
719.319	0.352318
722.212	0.145512
725.105	0.59536
727.998	1.72266
730.89	0.606377
733.783	0.227367
736.676	0.394127
739.568	0.642712
742.461	0.050426
745.354	1.57721
748.246	1.91895
751.139	0.844921
754.032	2.46807
756.925	1.48617
759.817	2.72278
762.71	4.93857
765.603	2.7399
768.495	3.47087
771.388	2.40573
774.281	2.76539
777.173	2.28989
780.066	2.05005
782.959	0.050205
785.852	2.09164
788.744	2.12993
791.637	3.05355
794.53	2.4841
797.422	2.17461
800.315	3.74625
803.208	7.13784
806.101	4.33655
808.993	5.85183
811.886	3.39005
814.779	4.33559
817.671	4.0555
820.564	4.91999
823.457	4.28954
826.349	5.10976
829.242	5.69252
832.135	5.38409
835.028	6.60652
837.92	5.90062
840.813	5.3119
843.706	3.66575
846.598	6.69301
849.491	5.45918
852.384	6.52626
855.276	5.9512
858.169	6.57079
861.062	6.85811
863.955	5.42287
866.847	6.71746
869.74	5.72158
872.633	4.47303
875.525	5.8246
878.418	4.8276
881.311	5.59147
884.203	2.09989
887.096	2.58168
889.989	1.74666
892.881	1.42392
895.774	1.21884
898.667	3.51994
901.56	1.20839
904.452	1.77778
907.345	0.295116
910.238	0.277863
913.13	0.32148
916.023	0.070576
918.916	0.388195
921.808	1.14143
924.701	1.32812
927.594	1.24236
930.487	0.345875
933.379	0.558758
936.272	0.667465
939.165	0.76786
942.057	0.814873
944.95	1.17781
947.843	1.79926
950.736	0.582626
953.628	0.246635
956.521	0.738823
959.414	1.94859
962.306	0.953049
965.199	0.891254
968.092	0.029114
970.984	2.37272
973.877	2.33612
976.77	2.63093
979.663	2.9635
982.555	8.69269
985.448	12.3725
988.341	10.7451
991.233	14.2489
994.126	17.2048
997.019	22.3972
999.911	31.6676
1002.8	48.592
1005.7	73.0851
1008.59	117.229
1011.48	203.402
1014.38	322.772
1017.27	445.099
1020.16	632.949
1023.05	1005.32
1025.95	1101.24
1028.84	577.924
1031.73	310.158
1034.62	210.437
1037.52	157.798
1040.41	90.599
1043.3	44.2364
1046.19	25.1974
1049.09	12.9169
1051.98	8.45031
1054.87	0.773464
1057.77	1.71148
1060.66	1.22646
1063.55	3.35926
1066.44	1.4452
1069.34	0.269653
1072.23	0.570072
1075.12	2.52724
1078.01	5.3312
1080.91	13.9602
1083.8	23.968
1086.69	37.3337
1089.59	57.2855
1092.48	72.2904
1095.37	80.5154
1098.26	79.124
1101.16	67.3289
1104.05	58.7938
1106.94	58.8817
1109.83	64.1315
1112.73	61.4872
1115.62	47.3967
1118.51	31.0416
1121.4	18.1353
1124.3	8.76524
1127.19	3.27074
1130.08	0.345554
1132.98	1.14254
1135.87	2.51561
1138.76	2.37939
1141.65	1.75683
1144.55	7.11166
1147.44	13.2008
1150.33	19.9755
1153.22	28.1486
1156.12	38.5076
1159.01	45.2982
1161.9	53.818
1164.8	56.1973
1167.69	56.4832
1170.58	53.1472
1173.47	45.945
1176.37	40.4733
1179.26	35.4807
1182.15	36.2306
1185.04	38.7319
1187.94	45.838
1190.83	63.9294
1193.72	88.1445
1196.62	126.866
1199.51	166.466
1202.4	173.942
1205.29	124.945
1208.19	76.4045
1211.08	47.1119
1213.97	28.6484
1216.86	17.4347
1219.76	13.2555
1222.65	8.05661
1225.54	6.14555
1228.43	2.05545
1231.33	2.49006
1234.22	1.23696
1237.11	0.537746
1240.01	1.01295
1242.9	0.228848
1245.79	0.183357
1248.68	0.182137
1251.58	0.31731
1254.47	0.620834
1257.36	2.32233
1260.25	2.53411
1263.15	4.25429
1266.04	4.89345
1268.93	1.75536
1271.83	2.59774
1274.72	2.23324
1277.61	2.87872
1280.5	2.91844
1283.4	0.77227
