Measurement: Raman, 780 nm, unoriented, Raman Data Processed
Mineral: Coquimbite
Rruff sample: R070666
Ideal chemistry: Fe^3+^_2_(SO_4_)_3_9H_2_O
Locality: United Verde Mine, Jerome, Verde District, Black Hills (Black Hill Range), Yavapai County, Arizona, USA
Source: Michael Scott
Description: Massive, globular, chalky-white; associated with yellow copiapite
Raman shift (cm-1)	intensity
153.062	0
155.954	78.3643
158.847	17.8057
161.74	15.9004
164.632	148.224
167.525	359.613
170.418	694.061
173.31	746.235
176.203	672.344
179.096	674.964
181.989	612.582
184.881	558.319
187.774	421.274
190.667	388.623
193.559	650.056
196.452	1027.69
199.345	1195.86
202.238	1215.29
205.13	1049.81
208.023	1227.63
210.916	993.434
213.808	479.85
216.701	128.792
219.594	57.2022
222.486	58.0547
225.379	20.5088
228.272	51.4805
231.165	224.179
234.057	418.948
236.95	509.142
239.843	742.55
242.735	911.363
245.628	1029.54
248.521	1138.44
251.413	1323.72
254.306	1363.54
257.199	1519.55
260.092	1781.19
262.984	1975.36
265.877	2361.53
268.77	2891.49
271.662	3608
274.555	4352.89
277.448	5267.1
280.341	5849.47
283.233	5730.82
286.126	4811.16
289.019	4010.46
291.911	3104.89
294.804	2325
297.697	1826.7
300.589	1449.19
303.482	1176.83
306.375	976.009
309.267	749.24
312.16	682.195
315.053	491.791
317.946	385.275
320.838	275.478
323.731	171.972
326.624	126.084
329.516	132.64
332.409	97.4238
335.302	17.1416
338.195	63.5176
341.087	17.332
343.98	14.331
346.873	47.8574
349.765	41.4385
352.658	83.6377
355.551	19.4756
358.443	86.6768
361.336	52.0801
364.229	16.0244
367.122	61.8984
370.014	45.8984
372.907	4.69629
375.8	16.8203
378.692	4.68945
381.585	87.1973
384.478	31.1377
387.37	70.0596
390.263	26.5918
393.156	2.66797
396.048	0.842773
398.941	54.0918
401.834	95.1397
404.727	41.1963
407.619	24.1475
410.512	84.7588
413.405	50.5312
416.297	18.0918
419.19	75.7109
422.083	142.832
424.976	164.338
427.868	130.486
430.761	103.247
433.654	259.474
436.546	251.558
439.439	358.297
442.332	532.335
445.224	603.709
448.117	825.855
451.01	916.67
453.902	968.962
456.795	1019.15
459.688	991.452
462.581	1068.39
465.473	973.394
468.366	913.262
471.259	1020.94
474.151	941.821
477.044	1107.88
479.937	1241.9
482.83	1571.16
485.722	1890.69
488.615	2109.79
491.508	2341.13
494.4	2551.61
497.293	2606.14
500.186	2606.85
503.079	2497
505.971	2100.66
508.864	1649.27
511.757	1183.47
514.649	831.962
517.542	739.91
520.435	490.569
523.327	319.652
526.22	279.733
529.113	228.2
532.005	169.56
534.898	56.4551
537.791	27.2564
540.684	74.7642
543.576	22.5684
546.469	34.4341
549.362	11.5117
552.254	38.4834
555.147	71.1416
558.04	1.87549
560.933	12.8818
563.825	17.5767
566.718	11.4678
569.611	82.3755
572.503	91.938
575.396	172.728
578.289	295.681
581.181	353.005
584.074	529.704
586.967	622.257
589.86	810.412
592.752	1038.44
595.645	1074.85
598.538	1199.23
601.43	1160.17
604.323	941.757
607.216	816.585
610.108	699.722
613.001	488.796
615.894	386.565
618.787	308.004
621.679	288.708
624.572	130.855
627.465	244.117
630.357	190.648
633.25	216.851
636.143	123.09
639.035	162.318
641.928	224.429
644.821	221.212
647.713	242.065
650.606	172.409
653.499	143.197
656.392	154.001
659.284	148.32
662.177	145.727
665.07	134.882
667.962	144.779
670.855	98.0415
673.748	155.6
676.641	100.272
679.533	88.8281
682.426	71.9033
685.319	13.4102
688.211	33.1152
691.104	15.3745
693.997	23.0005
696.889	51.4761
699.782	34.7256
702.675	16.8716
705.568	6.77832
708.46	51.2119
711.353	23.2446
714.246	2.45947
717.138	39.5869
720.031	31.6001
722.924	61.873
725.817	87.9795
728.709	34.3682
731.602	40.5815
734.495	137.44
737.387	65.1235
740.28	88.9604
743.173	30.9521
746.065	29.5664
748.958	73.1943
751.851	122.672
754.744	38.8701
757.636	14.9028
760.529	42.5576
763.422	26.7349
766.314	60.2734
769.207	40.0449
772.1	38.3574
774.992	18.4639
777.885	25.4888
780.778	32.1582
783.67	16.6655
786.563	23.1206
789.456	38.4009
792.349	8.68213
795.241	55.1904
798.134	3.68945
801.027	90.5644
803.919	76.0596
806.812	51.606
809.705	72.79
812.597	65.9805
815.49	48.7227
818.383	13.2427
821.276	81.5352
824.168	34.2427
827.061	30.0664
829.954	4.14062
832.846	88.4224
835.739	80.2197
838.632	67.8545
841.524	111.515
844.417	152.202
847.31	90.2168
850.203	67.144
853.095	68.0688
855.988	81.395
858.881	2.3916
861.773	126.048
864.666	67.3452
867.559	43.7954
870.452	64.9263
873.344	110.532
876.237	9.79785
879.13	17.4233
882.022	73.4766
884.915	29.1118
887.808	82.4683
890.7	1.53272
893.593	68.7017
896.486	9.82715
899.379	31.1831
902.271	55.9492
905.164	46.794
908.057	21.5742
910.949	25.52
913.842	0.250977
916.735	51.3242
919.627	101.981
922.52	61.6084
925.413	40.1777
928.306	69.8687
931.198	74.7964
934.091	7.02539
936.984	4.0708
939.876	56.959
942.769	10.081
945.662	11.2666
948.554	14.0601
951.447	56.5044
954.34	14.1138
957.232	54.1929
960.125	8.79102
963.018	28.9273
965.911	48.0923
968.803	13.7114
971.696	47.8398
974.589	21.9497
977.481	83.9541
980.374	89.958
983.267	99.7539
986.159	81.9609
989.052	116.715
991.945	214.625
994.838	245.069
997.73	327.662
1000.62	458.873
1003.52	650.36
1006.41	1095.31
1009.3	1714.1
1012.19	2492.11
1015.09	3622.16
1017.98	5505.13
1020.87	7961.65
1023.76	10196.3
1026.66	8579.4
1029.55	4756.94
1032.44	2625.2
1035.34	1784.07
1038.23	1124.98
1041.12	668.958
1044.01	373.711
1046.91	188.556
1049.8	70.7109
1052.69	64.125
1055.58	78.9951
1058.48	35.043
1061.37	5.04248
1064.26	21.8335
1067.15	10.9815
1070.05	8.75537
1072.94	29.7788
1075.83	61.5044
1078.73	196.459
1081.62	367.443
1084.51	512.244
1087.4	736.827
1090.3	905.94
1093.19	1026.86
1096.08	1028.81
1098.97	991.958
1101.87	827.498
1104.76	789.962
1107.65	799.123
1110.55	826.982
1113.44	694.567
1116.33	527.431
1119.22	315.927
1122.12	173.161
1125.01	94.2188
1127.9	72.2827
1130.8	14.8628
1133.69	70.2451
1136.58	24.083
1139.47	20.0615
1142.37	7.47607
1145.26	25.9712
1148.15	129.853
1151.04	220.931
1153.94	335.74
1156.83	360.897
1159.72	374.824
1162.61	460.428
1165.51	511.915
1168.4	526.408
1171.29	533.701
1174.18	472.809
1177.08	441.872
1179.97	414.568
1182.86	380.172
1185.76	532.384
1188.65	647.67
1191.54	890.579
1194.43	1322.4
1197.33	1691.74
1200.22	1884.96
1203.11	1609.35
1206.01	1128.37
1208.9	676.457
1211.79	459.132
1214.68	286.219
1217.58	230.268
1220.47	158.326
1223.36	51.4492
1226.25	81.6958
1229.15	36.6455
1232.04	25.6196
1234.93	12.5669
1237.83	19.4517
1240.72	49.5244
1243.61	1.08154
1246.5	1.61572
1249.39	54.9019
1252.29	13.395
1255.18	28.0581
1258.07	57.8389
1260.97	29.7485
1263.86	107.494
1266.75	46.1065
1269.64	78.3438
1272.54	48.5259
1275.43	50.8057
1278.32	121.279
1281.21	16.998
1284.11	92.5747
1287	69.209
1289.89	69.1894
