Measurement: Raman, 532 nm, unoriented, Raman Data Processed
Mineral: Coquimbite
Rruff sample: R070666
Ideal chemistry: Fe^3+^_2_(SO_4_)_3_9H_2_O
Locality: United Verde Mine, Jerome, Verde District, Black Hills (Black Hill Range), Yavapai County, Arizona, USA
Source: Michael Scott
Description: Massive, globular, chalky-white; associated with yellow copiapite
Raman shift (cm-1)	intensity
158.823	0
161.716	5.85083
164.609	45.1807
167.502	169.849
170.394	445.827
173.287	495.669
176.18	544.401
179.072	511.883
181.965	580.682
184.858	459.312
187.75	322.063
190.643	380.038
193.536	569.906
196.429	857.019
199.321	1192.58
202.214	1259.95
205.107	1151.27
207.999	1295.75
210.892	1188.59
213.785	640.542
216.677	168.316
219.57	46.959
222.463	56.3938
225.356	7.85498
228.248	55.1318
231.141	116.584
234.034	209.468
236.926	325.539
239.819	445.933
242.712	616.598
245.604	826.857
248.497	980.121
251.39	1154.15
254.282	1209.83
257.175	1485.9
260.068	1773.48
262.961	2064.43
265.853	2427.78
268.746	2998.99
271.639	3519.13
274.531	4265.63
277.424	5002.14
280.317	5764.19
283.209	6117.45
286.102	5396.09
288.995	4417.07
291.888	3362.71
294.78	2603.64
297.673	1981.78
300.566	1571.76
303.458	1306.74
306.351	1050.67
309.244	788.89
312.137	647.472
315.029	519.517
317.922	393.236
320.815	242.946
323.707	203.312
326.6	165.931
329.493	119.477
332.385	57.887
335.278	6.96533
338.171	18.4707
341.063	18.531
343.956	30.2539
346.849	2.6543
349.742	9.11523
352.634	8.08472
355.527	52.2434
358.42	18.8035
361.312	1.24829
364.205	4.21118
367.098	34.1379
369.99	29.833
372.883	27.0979
375.776	9.57275
378.669	12.49
381.561	78.4622
384.454	1.32959
387.347	86.2629
390.239	28.1384
393.132	15.5684
396.025	5.28271
398.918	37.8267
401.81	9.42065
404.703	36.1668
407.596	30.1018
410.488	39.0813
413.381	34.5544
416.274	41.5398
419.166	38.4917
422.059	23.6377
424.952	16.2727
427.844	78.0505
430.737	75.2317
433.63	103.352
436.523	200.64
439.415	235.797
442.308	348.265
445.201	519.967
448.093	690.663
450.986	780.561
453.879	798.551
456.772	839.688
459.664	842.616
462.557	868.565
465.45	876.912
468.342	794.061
471.235	841.848
474.128	925.339
477.02	981.876
479.913	1235.74
482.806	1518.02
485.699	1835.04
488.591	2166.38
491.484	2482.47
494.377	2748.08
497.269	2891.62
500.162	3035.37
503.055	2983.01
505.947	2657.68
508.84	2096.02
511.733	1532.64
514.625	1091.37
517.518	764.795
520.411	583.862
523.303	425.387
526.196	298.2
529.089	202.192
531.982	155.141
534.874	142.071
537.767	88.5063
540.66	46.3897
543.552	17.7898
546.445	31.6721
549.338	1.99487
552.231	20.0139
555.123	30.0239
558.016	24.9492
560.909	49.1174
563.801	4.42627
566.694	3.22022
569.587	41.5356
572.479	46.7373
575.372	72.9473
578.265	143.51
581.158	198.917
584.05	362.089
586.943	508.459
589.836	703.963
592.728	844.11
595.621	1008.23
598.514	1025.36
601.406	1010.29
604.299	922.019
607.192	784.51
610.085	581.765
612.977	469.944
615.87	457.085
618.763	347.234
621.655	237.375
624.548	259.139
627.441	220.51
630.333	213.901
633.226	157.785
636.119	136.805
639.011	197.384
641.904	189.398
644.797	171.848
647.69	172.768
650.582	158.208
653.475	100.49
656.368	125.318
659.26	124.471
662.153	119.873
665.046	145.701
667.938	199.712
670.831	141.31
673.724	113.619
676.617	77.5024
679.509	80.1343
682.402	10.8457
685.295	2.6582
688.187	35.9307
691.08	2.05762
693.973	52.4795
696.865	41.7944
699.758	45.1802
702.651	36.7827
705.544	22.4775
708.436	16.77
711.329	17.4868
714.222	13.8677
717.114	99.6709
720.007	71.1655
722.9	20.606
725.793	103.115
728.685	55.666
731.578	41.8887
734.471	58.0688
737.363	28.0747
740.256	45.3525
743.149	52.3105
746.041	74.0147
748.934	26.6011
751.827	75.3198
754.72	22.2285
757.612	14.1167
760.505	58.0205
763.398	27.4683
766.29	73.1636
769.183	11.9053
772.076	41.1924
774.968	53.0523
777.861	24.5645
780.754	51.8726
783.646	24.4204
786.539	43.667
789.432	33.6875
792.325	49.5488
795.217	5.19775
798.11	47.956
801.003	89.0654
803.895	15.2344
806.788	72.0405
809.681	65.397
812.573	53.248
815.466	47.1582
818.359	61.4805
821.252	36.9629
824.144	0.285645
827.037	82.4346
829.93	67.293
832.822	54.0523
835.715	51.6094
838.608	66.4268
841.5	44.5669
844.393	66.9228
847.286	62.5098
850.178	43.8574
853.071	51.6919
855.964	72.8809
858.857	84.1372
861.749	39.3506
864.642	67.3687
867.535	33.8696
870.427	112.972
873.32	63.291
876.213	54.1548
879.106	64.0488
881.998	49.3809
884.891	58.9805
887.784	68.9351
890.676	44.6055
893.569	1.271
896.462	96.0879
899.354	21.855
902.247	83.1562
905.14	61.6558
908.033	44.6406
910.925	66.0093
913.818	60.8232
916.711	4.30615
919.603	4.44434
922.496	32.7769
925.389	53.5845
928.281	75.687
931.174	44.2222
934.067	34.895
936.96	16.2363
939.852	4.28613
942.745	26.3296
945.638	47.249
948.53	3.67529
951.423	13.3066
954.316	18.1138
957.208	15.8013
960.101	21.4468
962.994	6.5293
965.886	11.209
968.779	21.9468
971.672	29.1948
974.565	14.5669
977.457	81.0376
980.35	106.291
983.243	96.0493
986.135	230.333
989.028	263.56
991.921	288.765
994.813	357.933
997.706	554.979
1000.6	762.615
1003.49	1015.85
1006.38	1649.05
1009.28	2484.81
1012.17	3737.04
1015.06	5371.03
1017.96	7142.22
1020.85	9115.73
1023.74	11288.9
1026.63	10523.3
1029.53	5612.98
1032.42	3298.11
1035.31	2500.33
1038.2	1687.07
1041.1	963.848
1043.99	514.49
1046.88	306.926
1049.78	204.164
1052.67	138.586
1055.56	96.1074
1058.45	6.9917
1061.35	28.7505
1064.24	13.4375
1067.13	7.73877
1070.02	12.7778
1072.92	71.5566
1075.81	189.898
1078.7	332.918
1081.59	541.009
1084.49	791.894
1087.38	1013.3
1090.27	1199.66
1093.16	1334.59
1096.06	1397.17
1098.95	1274.2
1101.84	1131.73
1104.74	1046.62
1107.63	1016.97
1110.52	993.349
1113.41	869.736
1116.31	712.449
1119.2	512.922
1122.09	325.427
1124.98	100.584
1127.88	107.879
1130.77	56.4375
1133.66	13.8599
1136.56	1.37647
1139.45	50.4087
1142.34	70.7534
1145.23	38.5195
1148.13	145.299
1151.02	218.391
1153.91	303.851
1156.81	379.897
1159.7	499.859
1162.59	599.958
1165.48	612.357
1168.38	587.878
1171.27	600.14
1174.16	567.661
1177.05	553.658
1179.95	610.254
1182.84	658.818
1185.73	874.718
1188.62	1185.74
1191.52	1646.24
1194.41	2194.53
1197.3	2800.76
1200.19	3158.77
1203.09	2906.44
1205.98	2129.87
1208.87	1291.33
1211.77	837.284
1214.66	554.646
1217.55	378.827
1220.44	285.784
1223.34	229.114
1226.23	116.957
1229.12	114.984
1232.02	35.9648
1234.91	30.6025
1237.8	45.5962
1240.69	49.4819
1243.59	1.59033
1246.48	0.248535
1249.37	35.7725
1252.26	20.1396
1255.16	4.7417
1258.05	10.4263
1260.94	59.3892
1263.83	26.1133
1266.73	45.8565
1269.62	72.5259
1272.51	44.5767
1275.4	87.6577
1278.3	98.688
1281.19	118.743
1284.08	57.1397
1286.98	53.9639
1289.87	89.73
1292.76	79.9053
1295.65	46.1826
1298.55	47.0225
1301.44	47.9233
1304.33	0.070313
