Measurement: Raman, 780 nm, unoriented, Raman Data Processed
Mineral: Coquimbite
Rruff sample: R060638
Ideal chemistry: Fe^3+^_2_(SO_4_)_3_9H_2_O
Locality: Dexter no. 7 mine, Calf Mesa, San Rafael Swell, Emery County, Utah, USA
Source: University of Arizona Mineral Museum
Description: Purple blocky crystals
Measured chemistry: (Fe^3+^_1.43_Al_0.57_)_Σ=2_(S_1.00_O_4_)_3_·9H_2_O; trace amounts of As; H_2_O estimated by difference
Raman shift (cm-1)	intensity
143.414	0
146.306	1.61209
149.199	7.96382
152.092	8.40172
154.984	1.67236
157.877	0.561715
160.77	8.90019
163.662	12.3295
166.555	8.7067
169.448	5.03792
172.341	0.891359
175.233	1.29253
178.126	0.697178
181.019	3.92558
183.911	12.4296
186.804	18.5906
189.697	23.8833
192.589	36.2153
195.482	45.9313
198.375	59.4599
201.268	65.0197
204.16	63.0636
207.053	66.3312
209.946	65.7826
212.838	47.4844
215.731	21.1123
218.624	6.46687
221.517	0.772376
224.409	1.42653
227.302	0.561308
230.195	0.09627
233.087	3.80071
235.98	0.13336
238.873	5.02553
241.765	6.1696
244.658	8.63063
247.551	13.6691
250.444	17.7015
253.336	21.9189
256.229	28.6663
259.122	37.2451
262.014	48.4073
264.907	58.2894
267.8	71.556
270.692	85.0024
273.585	104.262
276.478	124.789
279.37	146.912
282.263	152.153
285.156	134.751
288.049	108.926
290.941	86.2146
293.834	66.9532
296.727	49.9521
299.619	38.6677
302.512	27.8454
305.405	24.8051
308.298	19.0707
311.19	13.0957
314.083	10.3167
316.976	9.92795
319.868	6.51618
322.761	7.6494
325.654	7.19692
328.546	5.02838
331.439	1.25104
334.332	0.547395
337.224	2.16193
340.117	0.046094
343.01	0.388569
345.903	0.108573
348.795	0.140743
351.688	0.942923
354.581	0.090256
357.473	0.742014
360.366	0.580669
363.259	0.131087
366.151	1.70545
369.044	3.18543
371.937	2.51656
374.83	3.48017
377.722	1.92849
380.615	3.65013
383.508	4.04388
386.4	3.60895
389.293	4.32902
392.186	2.77728
395.079	3.84918
397.971	3.41138
400.864	4.50646
403.757	3.14449
406.649	4.52143
409.542	1.33549
412.435	0.555951
415.327	0.310252
418.22	0.786963
421.113	0.340319
424.005	0.39901
426.898	1.9602
429.791	2.27566
432.684	3.59493
435.576	4.86809
438.469	5.26493
441.362	4.01156
444.254	9.58202
447.147	11.6945
450.04	12.5277
452.933	12.8232
455.825	11.9373
458.718	8.50202
461.611	12.7219
464.503	11.5295
467.396	9.71007
470.289	8.86467
473.181	11.4077
476.074	10.4191
478.967	11.3709
481.86	17.502
484.752	24.9623
487.645	27.9155
490.538	30.6209
493.43	39.6269
496.323	46.5929
499.216	49.6489
502.108	47.6215
505.001	47.1833
507.894	39.2976
510.786	32.4071
513.679	21.8111
516.572	17.0367
519.465	8.5932
522.357	7.38617
525.25	4.99103
528.143	2.97255
531.035	2.11112
533.928	2.42703
536.821	1.04045
539.713	1.16801
542.606	0.684826
545.499	0.292855
548.392	0.294045
551.284	0.260034
554.177	2.58117
557.07	0.038036
559.962	0.478074
562.855	0.415013
565.748	0.139709
568.64	0.349145
571.533	1.03339
574.426	2.6358
577.319	2.94528
580.211	6.09171
583.104	7.32241
585.997	12.7341
588.889	14.6673
591.782	16.6263
594.675	19.6305
597.567	22.0626
600.46	19.4125
603.353	22.6238
606.246	19.1211
609.138	15.0792
612.031	11.9884
614.924	9.88365
617.816	8.54138
620.709	9.36254
623.602	8.02767
626.495	7.36683
629.387	5.29713
632.28	4.75147
635.173	3.93494
638.065	4.95491
640.958	5.26408
643.851	3.73624
646.743	4.28292
649.636	4.4196
652.529	3.41167
655.422	2.56679
658.314	2.5022
661.207	3.56411
664.1	3.10678
666.992	1.2824
669.885	4.01097
672.778	1.40034
675.67	0.157339
678.563	3.07658
681.456	0.51138
684.348	0.890088
687.241	0.055601
690.134	0.761482
693.027	1.55332
695.919	0.226436
698.812	0.098091
701.705	0.23328
704.597	0.271267
707.49	1.14075
710.383	1.48517
713.275	1.05053
716.168	1.4562
719.061	2.37703
721.954	0.122851
724.846	1.28383
727.739	0.68532
730.632	2.87473
733.524	2.24361
736.417	1.44435
739.31	2.64853
742.202	3.52993
745.095	1.45266
747.988	2.4228
750.881	4.32967
753.773	1.04547
756.666	0.350176
759.559	0.253337
762.451	0.385396
765.344	1.60069
768.237	2.70295
771.13	0.693414
774.022	1.307
776.915	1.956
779.808	1.20487
782.7	0.413127
785.593	0.185744
788.486	0.684927
791.378	4.8688
794.271	3.08474
797.164	1.75586
800.057	1.42726
802.949	1.43664
805.842	2.32506
808.735	2.20827
811.627	3.46602
814.52	1.33631
817.413	2.51442
820.305	1.26934
823.198	1.68107
826.091	0.7376
828.984	1.44798
831.876	2.21403
834.769	0.10882
837.662	3.23528
840.554	1.69826
843.447	3.30639
846.34	1.21549
849.232	1.57153
852.125	3.82315
855.018	2.79969
857.91	1.71463
860.803	2.33924
863.696	3.53145
866.589	4.93584
869.481	2.58032
872.374	3.18723
875.267	2.98317
878.159	2.15814
881.052	2.38274
883.945	2.60732
886.837	6.01805
889.73	1.3098
892.623	1.13325
895.516	1.23713
898.408	1.2542
901.301	2.463
904.194	0.086834
907.086	0.079452
909.979	0.111761
912.872	1.97924
915.764	0.091637
918.657	2.21319
921.55	0.257525
924.443	0.828757
927.335	0.034408
930.228	0.673035
933.121	0.255744
936.013	3.00212
938.906	0.465496
941.799	0.608044
944.692	0.126114
947.584	0.029948
950.477	0.023703
953.37	0.068443
956.262	0.429836
959.155	0.175141
962.048	0.257171
964.94	0.336506
967.833	1.38035
970.726	1.37383
973.619	0.895754
976.511	1.5573
979.404	1.02162
982.297	6.91431
985.189	6.08667
988.082	6.86764
990.975	10.7554
993.867	12.7438
996.76	20.0251
999.653	26.208
1002.54	38.1389
1005.44	54.0082
1008.33	78.9278
1011.22	119.801
1014.12	172.748
1017.01	215.019
1019.9	267.832
1022.79	337.106
1025.69	289.153
1028.58	150.497
1031.47	94.5595
1034.37	70.2199
1037.26	52.7569
1040.15	32.743
1043.04	19.2417
1045.94	10.9315
1048.83	9.18052
1051.72	3.39203
1054.61	4.69004
1057.51	2.77652
1060.4	2.23512
1063.29	0.73999
1066.18	0.669446
1069.08	0.208846
1071.97	1.57882
1074.86	0.747737
1077.76	0.94441
1080.65	1.80143
1083.54	7.26419
1086.43	7.8863
1089.33	11.8054
1092.22	11.5
1095.11	13.9423
1098.01	9.90731
1100.9	8.50729
1103.79	6.07385
1106.68	4.50275
1109.58	8.79105
1112.47	3.96383
1115.36	1.52396
1118.25	2.44638
1121.15	0.862091
1124.04	0.695887
1126.93	0.601347
1129.82	0.949069
1132.72	0.148914
1135.61	0.680452
1138.5	0.356837
1141.39	2.11298
1144.29	2.47393
1147.18	3.65662
1150.07	3.17117
1152.97	4.42062
1155.86	6.17793
1158.75	6.12008
1161.64	8.05611
1164.54	8.69919
1167.43	8.68661
1170.32	7.98657
1173.21	8.49074
1176.11	7.15048
1179	6.17478
1181.89	6.02096
1184.79	5.27656
1187.68	7.05751
1190.57	11.1308
1193.46	12.9128
1196.36	17.4742
1199.25	20.7359
1202.14	19.8025
1205.03	16.0021
1207.93	8.95486
1210.82	6.72145
1213.71	4.90631
1216.61	3.64301
1219.5	2.35477
1222.39	3.19739
1225.28	6.50469
1228.18	4.47138
1231.07	0.171353
1233.96	0.89622
1236.85	0.789004
1239.75	0.70777
1242.64	0.40613
1245.53	1.8317
1248.42	0.141474
1251.32	0.173684
1254.21	0.058881
1257.1	0.029257
1260	1.03039
1262.89	0.88979
1265.78	2.36011
1268.67	2.28652
1271.57	0.052093
1274.46	2.24602
1277.35	0.714714
1280.24	2.28401
1283.14	1.56481
