Measurement: Raman, 532 nm, unoriented, Raman Data Processed
Mineral: Coquimbite
Rruff sample: R110210
Ideal chemistry: Fe^3+^_2_(SO_4_)_3_9H_2_O
Locality: Mina Alcaparrosa, Cerritos Bayos, Calama, Atacama, II Region, Chile
Source: Gunnar Farber
Description: Purple hexagonal prisms with incomplete pyramidal terminations, associated with pertlikite R110209 and krausite R110211
Raman shift (cm-1)	intensity
158.953	0
161.845	2.24318
164.738	0.600018
167.631	4.22053
170.524	9.58337
173.416	14.9335
176.309	15.1849
179.202	20.7435
182.094	33.9263
184.987	52.3166
187.88	61.9141
190.773	55.3157
193.665	51.3513
196.558	64.1739
199.451	92.0225
202.343	108.963
205.236	105.955
208.129	119.816
211.021	138.42
213.914	103.643
216.807	46.5263
219.699	16.5086
222.592	2.82741
225.485	1.00658
228.377	0.873245
231.27	3.10078
234.163	7.56337
237.056	13.7719
239.948	24.3502
242.841	36.8466
245.734	50.3759
248.626	61.0072
251.519	72.1668
254.412	86.2439
257.305	107.562
260.197	122.507
263.09	114.795
265.983	114.39
268.875	131.666
271.768	166.356
274.661	217.909
277.553	294.833
280.446	384.456
283.339	444.24
286.232	419.068
289.124	338.356
292.017	258.385
294.91	195.188
297.802	147.545
300.695	113.962
303.588	94.5975
306.481	76.9847
309.373	62.436
312.266	48.5894
315.159	37.3428
318.051	27.5155
320.944	20.2244
323.837	16.5412
326.729	12.2525
329.622	8.35277
332.515	3.38599
335.408	2.40165
338.3	0.001312
341.193	0.086563
344.086	0.975681
346.978	0.51133
349.871	1.39975
352.764	2.20861
355.656	1.1903
358.549	0.685694
361.442	1.15636
364.334	0.467682
367.227	0.337473
370.12	0.073252
373.012	0.201719
375.905	0.551689
378.798	0.985964
381.691	0.77944
384.583	1.35589
387.476	1.67244
390.369	1.39897
393.261	1.77309
396.154	2.10471
399.047	2.25935
401.94	2.5743
404.832	2.78511
407.725	3.95963
410.618	4.03177
413.51	3.68916
416.403	2.96266
419.296	2.04348
422.188	1.41228
425.081	0.960245
427.974	1.13083
430.866	1.18787
433.759	2.88689
436.652	5.98176
439.545	11.8385
442.437	18.7394
445.33	31.5788
448.223	48.3021
451.115	60.3941
454.008	57.9781
456.901	51.7433
459.793	52.9512
462.686	52.9774
465.579	51.7152
468.472	46.2766
471.364	40.6586
474.257	37.0773
477.15	36.1202
480.042	41.2561
482.935	49.3119
485.828	64.0439
488.721	82.9973
491.613	105.651
494.506	131.345
497.399	156.692
500.291	179.768
503.184	199.062
506.077	208.568
508.969	194.413
511.862	153.97
514.755	108.583
517.648	75.3196
520.54	55.6044
523.433	40.9579
526.326	32.2836
529.218	24.025
532.111	16.5014
535.004	11.7414
537.896	7.73662
540.789	4.99321
543.682	2.6474
546.575	1.26596
549.467	1.28785
552.36	0.506872
555.253	0.392857
558.145	1.626
561.038	1.36748
563.931	1.51572
566.823	1.17182
569.716	0.307922
572.609	0.451166
575.502	2.03019
578.394	5.84003
581.287	11.795
584.18	18.9596
587.072	29.6963
589.965	42.9096
592.858	58.0932
595.75	70.9579
598.643	75.8313
601.536	70.8905
604.428	62.0801
607.321	52.3749
610.214	41.9273
613.107	30.833
615.999	24.3554
618.892	20.6913
621.785	17.4553
624.677	14.9068
627.57	14.5424
630.463	13.8055
633.356	12.5841
636.248	13.217
639.141	12.3142
642.034	11.3777
644.926	10.71
647.819	10.3127
650.712	9.92618
653.604	9.67558
656.497	8.68982
659.39	8.28175
662.283	8.10925
665.175	8.11453
668.068	8.2059
670.961	7.83011
673.853	7.23033
676.746	6.78482
679.639	5.32054
682.531	4.09911
685.424	2.17634
688.317	1.43708
691.21	0.709919
694.102	0.240948
696.995	0.964109
699.888	0.409843
702.78	0.437206
705.673	0.228535
708.566	0.505312
711.458	0.735359
714.351	0.123058
717.244	0.095018
720.136	0.793491
723.029	0.27212
725.922	0.209208
728.815	0.559599
731.707	0.120714
734.6	0.612894
737.493	0.290468
740.385	0.353834
743.278	0.42886
746.171	0.880463
749.063	0.076057
751.956	1.36334
754.849	1.24718
757.742	1.19672
760.634	1.46414
763.527	1.29194
766.42	1.90202
769.312	0.607708
772.205	0.780413
775.098	0.46314
777.99	0.86655
780.883	0.708693
783.776	0.555786
786.669	0.053968
789.561	0.55229
792.454	0.029057
795.347	0.406839
798.239	0.60269
801.132	0.686457
804.025	1.06548
806.918	2.8573
809.81	5.88642
812.703	3.7135
815.596	1.79292
818.488	1.59345
821.381	0.902107
824.274	0.787874
827.166	1.78034
830.059	1.65129
832.952	1.42813
835.845	1.75935
838.737	1.62237
841.63	1.76603
844.523	1.99413
847.415	2.16676
850.308	2.40812
853.201	2.7858
856.093	2.7679
858.986	3.13173
861.879	2.65513
864.771	2.75586
867.664	2.60321
870.557	2.12228
873.45	1.555
876.342	1.71514
879.235	1.63612
882.128	1.50427
885.02	1.57821
887.913	1.32931
890.806	1.20196
893.698	0.457726
896.591	0.089186
899.484	0.593748
902.377	0.37649
905.269	0.872725
908.162	0.573465
911.055	0.763762
913.947	0.341095
916.84	0.688614
919.733	0.464817
922.625	0.15485
925.518	1.336
928.411	1.22254
931.304	0.662737
934.196	0.582561
937.089	0.310167
939.982	0.332266
942.875	0.092188
945.767	0.118952
948.66	0.209513
951.553	0.336466
954.445	0.543251
957.338	0.004139
960.231	0.043753
963.123	0.647984
966.016	0.513252
968.909	0.939222
971.802	1.44817
974.694	1.56854
977.587	2.83911
980.48	3.82941
983.372	5.90138
986.265	7.23387
989.158	10.4482
992.05	12.8739
994.943	16.9677
997.836	20.6542
1000.73	29.4347
1003.62	43.9444
1006.51	69.0699
1009.41	110.197
1012.3	182.55
1015.19	297.318
1018.09	430.841
1020.98	661.764
1023.87	1053.09
1026.76	1079.26
1029.66	520.464
1032.55	285.022
1035.44	204.791
1038.33	149.82
1041.23	85.4659
1044.12	42.2699
1047.01	22.1004
1049.9	12.1646
1052.8	5.55402
1055.69	1.79565
1058.58	0.590664
1061.47	0.670807
1064.37	0.358379
1067.26	0.132359
1070.15	0.847149
1073.05	0.25708
1075.94	1.87466
1078.83	7.07793
1081.72	14.4436
1084.62	25.9631
1087.51	42.9682
1090.4	60.7754
1093.3	78.5309
1096.19	87.3202
1099.08	82.1412
1101.97	69.3182
1104.87	59.134
1107.76	59.5538
1110.65	65.2402
1113.54	63.8042
1116.44	51.161
1119.33	34.9993
1122.22	19.9823
1125.12	10.3738
1128.01	3.69822
1130.9	0.338409
1133.79	1.40947
1136.68	1.14286
1139.58	0.25964
1142.47	1.91029
1145.36	5.48401
1148.26	9.54465
1151.15	15.0923
1154.04	21.351
1156.93	29.005
1159.83	36.6082
1162.72	44.4245
1165.61	47.7313
1168.51	47.2116
1171.4	43.9798
1174.29	39.9882
1177.18	36.2589
1180.08	35.8542
1182.97	36.3022
1185.86	43.2799
1188.75	55.443
1191.65	78.1569
1194.54	115.412
1197.43	170.68
1200.33	230.913
1203.22	237.353
1206.11	173.248
1209	104.831
1211.9	64.0888
1214.79	40.5558
1217.68	27.2669
1220.57	18.8078
1223.47	14.2324
1226.36	11.4565
1229.25	7.44491
1232.14	4.64507
1235.04	3.40468
1237.93	1.6127
1240.82	0.97876
1243.71	0.034292
1246.61	0.086176
1249.5	0.220028
1252.39	0.352396
1255.29	0.020105
1258.18	0.186441
1261.07	0.229223
1263.96	0.789587
1266.86	1.49189
1269.75	1.88435
1272.64	2.42452
1275.54	2.81387
1278.43	2.27625
1281.32	1.54316
1284.21	1.56465
1287.11	1.30277
1290	1.05563
1292.89	1.38503
1295.78	0.500988
1298.68	0.434753
1301.57	0.269372
