Measurement: Raman, 532 nm, unoriented, Raman Data Processed
Mineral: Cordierite
Rruff sample: R040081
Ideal chemistry: Mg_2_Al_4_Si_5_O_18_
Locality: Laramie Range, Wyoming, USA
Source: University of Arizona Mineral Museum
Description: Blue to purple coarsely crystalline
Measured chemistry: (Mg_1.80_Fe^2+^_0.20_)_Σ=2_Al_4.00_(Si_4.96_Al_0.04_)_Σ=5_O_18_·0.86H_2_O·Na_0.04_ ; H_2_O estimated by difference and verified by Raman spectroscopy
Raman shift (cm-1)	intensity
148.035	0
150.928	5.5708
153.82	19.5764
156.713	43.2654
159.606	43.1257
162.498	27.0997
165.391	9.84741
168.284	1.45282
171.177	6.05432
174.069	1.01562
176.962	1.39215
179.855	3.72302
182.747	4.54889
185.64	5.6026
188.533	5.34222
191.425	4.9165
194.318	1.24719
197.211	3.73352
200.103	7.02911
202.996	5.961
205.889	2.31323
208.782	3.50854
211.674	0.359375
214.567	4.15869
217.46	1.83655
220.352	5.74085
223.245	15.1558
226.138	22.5299
229.03	30.3158
231.923	41.4102
234.816	67.9607
237.709	111.224
240.601	129.393
243.494	106.267
246.387	100.594
249.279	105.98
252.172	125.253
255.065	177.482
257.957	258.999
260.85	287.213
263.743	136.739
266.636	54.2165
269.528	34.434
272.421	18.1956
275.314	10.7588
278.206	8.96497
281.099	9.72546
283.992	12.8789
286.885	17.2423
289.777	29.9154
292.67	36.4836
295.563	41.0148
298.455	32.5658
301.348	29.9061
304.241	26.3724
307.133	21.5249
310.026	14.608
312.919	0.34729
315.812	6.18909
318.704	0.394165
321.597	3.33362
324.49	14.5089
327.382	18.6028
330.275	12.7573
333.168	3.59412
336.06	5.65979
338.953	1.41309
341.846	9.021
344.738	15.6976
347.631	15.236
350.524	37.7583
353.417	46.6455
356.309	48.9542
359.202	60.7572
362.095	78.1566
364.987	100.522
367.88	108.31
370.773	69.316
373.666	36.5723
376.558	19.9681
379.451	13.4428
382.344	6.99512
385.236	4.95386
388.129	3.42053
391.022	2.1759
393.914	2.12695
396.807	0.748169
399.7	1.15393
402.592	0.393188
405.485	3.3219
408.378	4.20654
411.271	2.40393
414.163	6.87378
417.056	16.3156
419.949	13.0309
422.841	16.4633
425.734	27.2394
428.627	30.7712
431.519	24.0654
434.412	16.4618
437.305	2.30798
440.198	4.96436
443.09	10.8372
445.983	9.24878
448.876	15.2253
451.768	14.3402
454.661	17.86
457.554	25.631
460.447	19.2627
463.339	13.2168
466.232	17.4156
469.125	19.6494
472.017	24.8396
474.91	28.8229
477.803	30.748
480.695	28.885
483.588	44.4602
486.481	36.9706
489.373	30.4899
492.266	18.5598
495.159	8.35693
498.052	3.48047
500.944	3.24805
503.837	1.15527
506.73	0.016846
509.622	2.65491
512.515	0.482788
515.408	0.525391
518.301	2.08118
521.193	1.68298
524.086	7.73169
526.979	15.1029
529.871	16.9562
532.764	14.9949
535.657	30.9725
538.549	46.01
541.442	69.3959
544.335	98.5503
547.227	141.505
550.12	199.418
553.013	258.287
555.906	278.432
558.798	246.089
561.691	228.833
564.584	226.058
567.476	227.052
570.369	261.875
573.262	308.647
576.154	338.617
579.047	312.949
581.94	222.791
584.833	140.468
587.725	87.0922
590.618	64.6124
593.511	39.037
596.403	30.8854
599.296	18.7651
602.189	17.3129
605.082	16.0596
607.974	10.6952
610.867	9.08728
613.76	8.93628
616.652	8.29492
619.545	14.6506
622.438	18.2048
625.33	14.082
628.223	10.1775
631.116	5.89539
634.009	1.33887
636.901	1.77295
639.794	1.03552
642.687	2.52124
645.579	1.41858
648.472	3.05847
651.365	11.4543
654.257	18.5547
657.15	32.1967
660.043	43.589
662.936	58.8762
665.828	83.5844
668.721	105.15
671.614	107.212
674.506	77.736
677.399	42.9707
680.292	17.6206
683.184	8.54004
686.077	4.79224
688.97	2.7572
691.862	4.19202
694.755	3.31274
697.648	9.88989
700.541	3.11963
703.433	1.98169
706.326	10.8632
709.219	16.5847
712.111	17.3317
715.004	15.999
717.897	13.4241
720.79	14.3263
723.682	7.04895
726.575	7.90613
729.468	8.45215
732.36	9.13574
735.253	9.17602
738.146	12.8794
741.038	13.5178
743.931	7.30737
746.824	3.96655
749.717	2.06726
752.609	4.39197
755.502	1.21777
758.395	7.48816
761.287	3.54748
764.18	3.63647
767.073	5.05603
769.966	3.22424
772.858	2.24646
775.751	5.09009
778.644	4.77539
781.536	12.4745
784.429	4.92261
787.322	13.1525
790.214	4.69226
793.107	2.56116
796	6.66956
798.893	7.52478
801.785	2.76733
804.678	5.34778
807.571	7.68982
810.463	9.89221
813.356	8.66687
816.249	4.27087
819.141	2.71179
822.034	6.96655
824.927	3.32312
827.819	10.456
830.712	5.50781
833.605	3.12842
836.498	7.13135
839.39	4.00415
842.283	2.15454
845.176	0.168823
848.068	5.2854
850.961	5.90771
853.854	1.54492
856.746	9.8512
859.639	0.891602
862.532	0.593018
865.425	1.20667
868.317	4.23889
871.21	6.52368
874.103	4.66443
876.995	1.24573
879.888	1.14539
882.781	3.67932
885.673	0.630737
888.566	2.55408
891.459	2.76794
894.352	9.02075
897.244	19.7806
900.137	21.1171
903.03	18.0043
905.922	11.0905
908.815	8.2406
911.708	17.0664
914.601	19.8126
917.493	24.2502
920.386	25.7767
923.279	15.6156
926.171	6.86548
929.064	4.33301
931.957	1.03796
934.849	1.10767
937.742	3.66272
940.635	8.66565
943.528	16.1481
946.42	21.9462
949.313	32.312
952.206	38.5438
955.098	32.7311
957.991	47.2008
960.884	72.4603
963.776	110.073
966.669	158.275
969.562	227.864
972.455	274.673
975.347	201.242
978.24	97.2177
981.133	50.025
984.025	25.3744
986.918	18.6593
989.811	12.5552
992.703	7.64062
995.596	9.02734
998.489	9.42664
1001.38	9.17248
1004.27	14.57
1007.17	17.8761
1010.06	28.6258
1012.95	32.054
1015.85	17.6928
1018.74	12.5713
1021.63	5.68921
1024.52	3.51013
1027.42	5.41016
1030.31	5.89746
1033.2	0.643433
1036.09	5.98669
1038.99	5.93677
1041.88	1.14087
1044.77	0.852783
1047.66	1.02844
1050.56	1.88879
1053.45	0.873047
1056.34	0.91394
1059.23	5.65869
1062.13	0.675293
1065.02	3.0564
1067.91	0.873047
1070.81	4.4187
1073.7	1.28345
1076.59	4.45459
1079.48	2.03406
1082.38	1.54443
1085.27	3.94214
1088.16	3.59741
1091.06	5.59253
1093.95	4.14148
1096.84	3.15833
1099.73	6.01611
1102.63	14.616
1105.52	19.8972
1108.41	20.8604
1111.3	19.8843
1114.2	16.8304
1117.09	4.67224
1119.98	4.64111
1122.88	2.77917
1125.77	2.61194
1128.66	11.1864
1131.55	3.77087
1134.45	7.04834
1137.34	4.17676
1140.23	8.00598
1143.12	8.69568
1146.02	8.60217
1148.91	18.2188
1151.8	14.0608
1154.69	26.5604
1157.59	23.6212
1160.48	26.2959
1163.37	33.0282
1166.27	36.7388
1169.16	51.4622
1172.05	76.0765
1174.94	111.719
1177.84	157.095
1180.73	193.537
1183.62	219.463
1186.51	175.476
1189.41	110.506
1192.3	67.5332
1195.19	45.8983
1198.09	29.2698
1200.98	17.1504
1203.87	6.94141
1206.76	13.9302
1209.66	1.09375
1212.55	1.45618
1215.44	7.60181
1218.33	2.68213
1221.23	1.49622
1224.12	7.2041
1227.01	9.16882
1229.9	3.82764
1232.8	6.35059
1235.69	4.42297
1238.58	2.76587
1241.48	0.359741
1244.37	7.21228
1247.26	13.063
1250.15	10.9326
1253.05	6.30261
1255.94	4.2594
1258.83	0.978394
1261.72	14.1742
1264.62	17.2828
1267.51	26.5432
1270.4	34.212
1273.3	22.5354
1276.19	17.2754
1279.08	6.37354
1281.97	0.539185
1284.87	0.26123
1287.76	1.72827
1290.65	7.98474
1293.54	4.02002
1296.44	0.214844
1299.33	1.71081
1302.22	1.47583
