Measurement: Raman, 532 nm, unoriented, Raman Data Processed
Mineral: Cordierite
Rruff sample: R040082
Ideal chemistry: Mg_2_Al_4_Si_5_O_18_
Locality: Madagascar
Source: University of Arizona Mineral Museum
Description: Dark gray coarsely crystalline massive
Measured chemistry: (Mg_1.60_Fe^2+^_0.39_Mn_0.01_)_Σ=2_Al_4.00_(Si_4.95_Al_0.05_)_Σ=5_O_18_·1.05H_2_O·Na_0.05_ ; H_2_O estimated by difference and verified by Raman spectroscopy
Raman shift (cm-1)	intensity
140.803	0
144.178	17.0586
147.553	32.5175
150.928	41.0213
154.302	66.0266
157.677	93.8311
161.052	56.5576
164.427	23.161
167.802	7.31625
171.177	0.370056
174.551	0.297455
177.926	4.5322
181.301	7.82779
184.676	6.5741
188.051	5.42615
191.425	2.9628
194.8	4.09299
198.175	0.307373
201.55	3.54346
204.925	3.68558
208.299	2.11487
211.674	3.11966
215.049	3.29111
218.424	3.64371
221.799	1.69354
225.174	13.0411
228.548	22.2759
231.923	39.4366
235.298	76.0717
238.673	109.573
242.048	105.379
245.423	95.9537
248.797	105.437
252.172	142.464
255.547	230.825
258.922	371.095
262.297	245.715
265.671	74.7324
269.046	27.5331
272.421	11.124
275.796	5.34076
279.171	9.61578
282.546	21.8331
285.92	22.5286
289.295	45.2605
292.67	69.0764
296.045	70.0776
299.42	49.8055
302.794	39.096
306.169	34.4462
309.544	19.4605
312.919	3.32959
316.294	1.62946
319.668	1.55316
323.043	9.27252
326.418	25.0614
329.793	9.39716
333.168	2.59766
336.543	2.99475
339.917	1.82324
343.292	6.89075
346.667	15.6928
350.042	26.4748
353.417	28.7974
356.791	37.8341
360.166	51.8671
363.541	81.0538
366.916	109.59
370.291	57.7831
373.666	26.6042
377.04	16.0837
380.415	11.4739
383.79	2.02533
387.165	0.802002
390.54	2.06787
393.914	1.33319
397.289	3.42786
400.664	0.569214
404.039	0.955505
407.414	1.80395
410.788	6.74554
414.163	12.6492
417.538	21.4967
420.913	32.408
424.288	53.9085
427.663	64.9816
431.037	42.1492
434.412	19.2502
437.787	10.0635
441.162	9.88654
444.537	10.6705
447.911	11.1414
451.286	19.4742
454.661	21.8315
458.036	13.7658
461.411	12.2545
464.786	13.2764
468.16	19.0564
471.535	24.2328
474.91	24.3213
478.285	34.0313
481.66	31.9264
485.034	33.3763
488.409	34.1744
491.784	22.8283
495.159	9.35407
498.534	5.69592
501.909	2.63251
505.283	1.05408
508.658	2.65881
512.033	1.96356
515.408	1.83289
518.783	0.493347
522.158	4.31519
525.532	10.3024
528.907	13.1633
532.282	21.0939
535.657	37.017
539.032	62.6466
542.406	97.2625
545.781	152.359
549.156	249.857
552.531	371.263
555.906	394.263
559.28	319.889
562.655	284.348
566.03	263.826
569.405	281.389
572.78	353.578
576.154	422.906
579.529	372.907
582.904	232.286
586.279	133.079
589.654	83.8771
593.029	56.3262
596.403	38.7064
599.778	25.701
603.153	23.5981
606.528	16.2278
609.903	15.0095
613.278	11.9814
616.652	16.0639
620.027	17.3318
623.402	13.4122
626.777	10.9827
630.152	4.77991
633.526	0.951843
636.901	6.36841
640.276	0.933899
643.651	1.98987
647.026	1.01654
650.4	6.33423
653.775	14.9976
657.15	28.4937
660.525	50.0269
663.9	84.3084
667.274	127.727
670.649	154.324
674.024	101.923
677.399	51.3991
680.774	23.0727
684.149	16.0797
687.523	7.74237
690.898	4.79987
694.273	4.1864
697.648	1.64319
701.023	4.11792
704.398	10.9924
707.772	17.6739
711.147	24.0655
714.522	19.7742
717.897	18.4803
721.272	17.7666
724.646	16.4689
728.021	10.1316
731.396	6.06683
734.771	6.45972
738.146	6.40814
741.52	6.50971
744.895	2.8385
748.27	2.24316
751.645	1.62598
755.02	1.74567
758.395	2.40253
761.769	1.20557
765.144	2.41296
768.519	0.355225
771.894	2.04126
775.269	0.301514
778.644	3.32507
782.018	2.63769
785.393	6.96967
788.768	0.41687
792.143	4.43487
795.518	0.58667
798.892	2.67426
802.267	3.23901
805.642	2.97504
809.017	3.36957
812.392	1.29712
815.766	3.5921
819.141	3.14789
822.516	3.05292
825.891	2.61883
829.266	4.12738
832.641	2.37152
836.015	1.89948
839.39	2.02924
842.765	1.95325
846.14	0.877625
849.515	2.14038
852.889	0.781555
856.264	2.63464
859.639	0.574402
863.014	3.43408
866.389	1.5639
869.764	0.430481
873.138	0.124634
876.513	1.15912
879.888	0.319153
883.263	0.205994
886.638	0.062439
890.013	3.29926
893.387	2.81873
896.762	14.5923
900.137	19.3961
903.512	18.9741
906.886	11.6092
910.261	11.0507
913.636	13.9367
917.011	23.861
920.386	31.2112
923.761	20.2286
927.135	11.4443
930.51	9.05945
933.885	3.81885
937.26	5.68561
940.635	7.21698
944.01	20.0685
947.384	33.917
950.759	48.6637
954.134	57.0678
957.509	53.4998
960.884	81.2691
964.258	127.771
967.633	208.391
971.008	313.618
974.383	236.627
977.758	98.9611
981.133	45.2841
984.507	20.3867
987.882	7.59576
991.257	5.92303
994.632	5.41528
998.007	7.7558
1001.38	6.45996
1004.76	12.142
1008.13	28.1843
1011.51	40.0331
1014.88	30.7816
1018.25	18.1406
1021.63	9.5285
1025.01	6.67169
1028.38	3.2074
1031.76	4.05933
1035.13	2.86725
1038.5	3.60687
1041.88	1.20508
1045.25	1.07593
1048.63	1.39478
1052	2.02258
1055.38	0.85437
1058.75	2.30444
1062.13	0.006226
1065.5	5.16107
1068.88	0.865173
1072.25	2.05701
1075.63	3.2417
1079	0.290649
1082.38	0.403137
1085.75	2.41516
1089.13	4.82257
1092.5	3.4267
1095.88	8.84039
1099.25	10.8099
1102.63	23.2259
1106	29.0384
1109.38	31.5037
1112.75	24.5894
1116.12	14.1703
1119.5	5.52216
1122.88	2.97882
1126.25	4.06665
1129.62	6.20898
1133	3.36163
1136.37	5.49463
1139.75	4.00397
1143.12	7.50549
1146.5	8.79523
1149.87	10.8294
1153.25	11.9919
1156.62	17.4863
1160	21.4417
1163.37	29.7503
1166.75	37.6899
1170.12	62.2899
1173.5	95.8092
1176.87	158.987
1180.25	227.47
1183.62	251.456
1187	173.074
1190.37	98.2946
1193.75	55.3767
1197.12	32.426
1200.5	19.4789
1203.87	10.826
1207.24	6.87012
1210.62	2.03906
1213.99	1.85992
1217.37	0.055359
1220.74	3.18262
1224.12	1.94684
1227.49	0.313843
1230.87	1.57819
1234.24	1.3092
1237.62	0.687744
1240.99	4.03436
1244.37	0.851807
1247.74	3.68097
1251.12	1.82843
1254.49	0.943542
1257.87	0.265015
1261.24	3.8703
1264.62	4.83673
1267.99	5.69049
1271.37	16.324
1274.74	7.82812
1278.12	8.30341
1281.49	4.00317
1284.87	0.10614
1288.24	1.66119
1291.62	3.64197
1294.99	3.49115
1298.37	2.07977
1301.74	4.42767
