Measurement: Raman, 532 nm, unoriented, Raman Data Processed
Mineral: Cordylite-(Ce)
Rruff sample: R110181
Ideal chemistry: (Na,Ca,[box])BaCe_2_(CO_3_)_4_(F,O)
Locality: Demix Quarry, Mont St-Hilaire, Quebec, Canada
Source: Donald Doell
Description: Tan colored hexagonal prism associated with albite and siderite (Raman people, check the ID of these associated minerals).The cordylite may be mixed with parisite. Need to check this carefully!
Raman shift (cm-1)	intensity
180.166	0
183.059	2.85794
185.951	0.6651
188.844	1.85712
191.737	0.418549
194.629	5.3974
197.522	12.8312
200.415	13.5907
203.308	17.5913
206.2	19.1654
209.093	21.8001
211.986	21.3553
214.878	24.4536
217.771	27.8112
220.664	32.7894
223.556	37.1262
226.449	41.1195
229.342	44.0796
232.234	52.4621
235.127	63.5735
238.02	72.148
240.913	83.2309
243.805	96.802
246.698	114.694
249.591	129.719
252.483	146.707
255.376	160.639
258.269	173.689
261.161	177.441
264.054	173.828
266.947	163.342
269.84	149.158
272.732	130.222
275.625	111.859
278.518	96.6633
281.41	80.8407
284.303	66.4629
287.196	54.2531
290.089	46.2477
292.981	41.4017
295.874	34.3974
298.767	28.5196
301.659	23.641
304.552	18.2334
307.445	15.2974
310.337	14.1342
313.23	8.76706
316.123	8.70203
319.015	6.54715
321.908	4.28647
324.801	2.008
327.694	1.37799
330.586	0.421783
333.479	1.45364
336.372	0.432312
339.264	1.47278
342.157	1.24979
345.05	0.852081
347.942	1.18515
350.835	0.386963
353.728	0.198334
356.621	1.10178
359.513	2.121
362.406	0.258362
365.299	1.46524
368.191	4.035
371.084	3.88901
373.977	4.29886
376.87	3.42276
379.762	5.39587
382.655	4.89789
385.548	5.85901
388.44	8.17221
391.333	7.35843
394.226	8.33402
397.118	6.51504
400.011	6.91998
402.904	6.31598
405.796	6.29645
408.689	6.15375
411.582	3.45813
414.475	5.72452
417.367	6.11798
420.26	2.99484
423.153	1.99075
426.045	2.01196
428.938	3.64066
431.831	3.28928
434.724	0.733704
437.616	2.54028
440.509	2.71783
443.402	3.37814
446.294	4.07352
449.187	2.75662
452.08	3.15628
454.972	2.93338
457.865	2.69241
460.758	2.89883
463.651	5.64371
466.543	1.50244
469.436	2.1001
472.329	1.7254
475.221	2.72671
478.114	2.0224
481.007	3.32071
483.899	2.07425
486.792	3.42087
489.685	0.219238
492.577	2.87021
495.47	2.71787
498.363	2.80835
501.256	3.27072
504.148	4.12021
507.041	4.0387
509.934	2.40671
512.826	1.64096
515.719	2.28244
518.612	1.75198
521.505	1.1189
524.397	0.394989
527.29	1.98425
530.183	2.7551
533.075	1.37421
535.968	1.99286
538.861	0.90564
541.753	0.029938
544.646	0.106903
547.539	1.35397
550.432	1.97128
553.324	2.13376
556.217	1.492
559.11	1.71945
562.002	2.00009
564.895	1.4249
567.788	1.2876
570.68	0.440308
573.573	2.14142
576.466	3.0032
579.359	5.74136
582.251	5.81732
585.144	5.65201
588.037	8.46213
590.929	12.4266
593.822	15.294
596.715	14.6555
599.607	21.1852
602.5	20.766
605.393	21.6666
608.285	24.7484
611.178	32.5325
614.071	37.0476
616.964	41.0124
619.856	45.0739
622.749	48.4671
625.642	47.762
628.534	45.4196
631.427	42.3498
634.32	35.2281
637.212	26.6182
640.105	18.6743
642.998	12.3351
645.891	8.28519
648.783	5.99234
651.676	3.62076
654.569	3.91577
657.461	1.54059
660.354	2.00635
663.247	0.088837
666.139	0.529785
669.032	1.65427
671.925	1.22366
674.818	0.096924
677.71	3.0946
680.603	5.86038
683.496	12.8647
686.388	17.3041
689.281	22.6135
692.174	29.838
695.067	18.2423
697.959	14.9244
700.852	9.79285
703.745	9.45642
706.637	12.4598
709.53	16.8334
712.423	22.5273
715.315	23.7344
718.208	27.8891
721.101	20.7521
723.994	13.9692
726.886	15.1608
729.779	12.4733
732.672	13.1877
735.564	9.91589
738.457	8.14258
741.35	2.7583
744.242	2.40759
747.135	1.27991
750.028	2.46991
752.92	2.47748
755.813	3.62189
758.706	3.31653
761.599	1.33533
764.491	2.05353
767.384	2.69885
770.277	2.25159
773.169	1.78558
776.062	1.04913
778.955	1.31348
781.847	3.51898
784.74	1.7226
787.633	0.232727
790.526	0.142944
793.418	5.31012
796.311	2.25543
799.204	2.18347
802.096	1.75421
804.989	1.52759
807.882	3.21124
810.774	1.79755
813.667	2.85742
816.56	7.58563
819.453	5.59827
822.345	3.89087
825.238	1.88019
828.131	2.44086
831.023	6.36072
833.916	0.178894
836.809	3.10889
839.702	0.344055
842.594	0.544128
845.487	2.06018
848.38	1.19232
851.272	0.053467
854.165	0.888367
857.058	4.67596
859.95	6.64368
862.843	5.83551
865.736	5.28412
868.629	6.11383
871.521	5.06116
874.414	7.46161
877.307	7.90778
880.199	7.83649
883.092	2.26856
885.985	2.99249
888.877	2.97321
891.77	3.88879
894.663	2.68805
897.556	0.322998
900.448	0.994446
903.341	2.16919
906.234	6.0163
909.126	3.08704
912.019	0.518066
914.912	2.94342
917.804	2.19946
920.697	3.47223
923.59	3.94958
926.482	3.07507
929.375	3.45874
932.268	0.275696
935.161	0.814697
938.053	2.18188
940.946	2.44421
943.839	0.270691
946.731	2.53851
949.624	1.5235
952.517	1.1637
955.409	2.12921
958.302	0.241943
961.195	0.413513
964.088	0.605835
966.98	1.9837
969.873	1.92792
972.766	1.11645
975.658	0.393494
978.551	4.25665
981.444	2.0871
984.337	1.50806
987.229	1.69995
990.122	2.95606
993.015	3.14856
995.907	1.51178
998.8	1.59345
1001.69	0.183533
1004.59	1.11493
1007.48	1.96143
1010.37	2.04211
1013.26	0.352295
1016.16	0.540771
1019.05	1.60278
1021.94	1.30646
1024.83	1.30048
1027.73	2.59363
1030.62	2.42816
1033.51	1.3103
1036.4	3.27521
1039.3	3.06061
1042.19	4.2179
1045.08	5.05987
1047.98	2.88074
1050.87	4.24103
1053.76	7.79224
1056.65	9.63861
1059.55	14.3776
1062.44	17.5737
1065.33	20.9797
1068.22	31.6311
1071.12	44.666
1074.01	61.7774
1076.9	91.9536
1079.8	139.032
1082.69	197.531
1085.58	243.37
1088.47	196.891
1091.37	109.627
1094.26	60.6432
1097.15	31.6375
1100.04	19.3984
1102.94	13.6141
1105.83	4.36188
1108.72	4.37634
1111.62	4.41931
1114.51	5.23077
1117.4	2.49817
1120.29	3.78565
1123.19	3.81073
1126.08	0.660461
1128.97	0.338928
1131.86	0.529114
1134.76	1.56238
1137.65	3.45294
1140.54	1.28857
1143.43	0.359009
1146.33	3.98669
1149.22	3.80115
1152.11	1.93646
1155.01	1.08466
1157.9	2.16144
1160.79	1.25592
1163.68	3.55048
1166.58	0.332764
1169.47	0.820374
1172.36	3.90131
1175.26	2.4079
1178.15	2.1582
1181.04	5.76056
1183.93	3.70636
1186.83	5.55511
1189.72	4.69861
1192.61	3.57678
1195.5	3.52576
1198.4	4.54504
1201.29	4.23566
1204.18	1.34253
1207.07	5.36707
1209.97	5.36218
1212.86	7.47168
1215.75	5.37396
1218.64	1.89368
1221.54	1.86939
1224.43	4.17493
1227.32	1.14618
1230.22	1.86334
1233.11	2.02582
1236	0.855286
1238.89	1.11261
1241.79	2.77325
1244.68	1.64966
1247.57	1.56891
1250.46	0.668823
1253.36	2.37537
1256.25	2.94751
1259.14	5.17157
1262.04	4.23395
1264.93	3.54486
1267.82	1.70032
1270.71	2.21484
1273.61	0.194458
1276.5	3.12634
1279.39	2.55408
1282.29	0.06781
1285.18	0.112
1288.07	1.64661
1290.96	1.39587
1293.86	0.739624
1296.75	2.33124
1299.64	3.87457
1302.53	0.573792
