Measurement: Raman, 785 nm, unoriented, Raman Data Processed
Mineral: Cordierite
Rruff sample: R040084
Ideal chemistry: Mg_2_Al_4_Si_5_O_18_
Locality: Norway
Source: University of Arizona Mineral Museum
Description: Purple coarsely crystalline massive
Measured chemistry: (Mg_1.88_Fe^2+^_0.11_Ca_0.01_)_Σ=2_(Al_3.95_Fe^3+^_0.05_)_Σ=4_(Si_4.96_Al_0.04_)_Σ=5_O_18_·0.90H_2_O·Na_0.04_ ; H_2_O estimated by difference and verified by Raman spectroscopy
Raman shift (cm-1)	intensity
149.11	0
152.003	25.655
154.895	48.7874
157.788	65.6601
160.681	28.6724
163.573	12.2693
166.466	35.1711
169.359	25.4357
172.252	19.9084
175.144	7.06967
178.037	13.4246
180.93	0.677795
183.822	9.86166
186.715	11.8589
189.608	3.1261
192.5	21.3434
195.393	16.7885
198.286	5.53622
201.179	27.9218
204.071	59.1022
206.964	83.0845
209.857	38.5945
212.749	24.3212
215.642	5.53088
218.535	10.7412
221.428	15.6439
224.32	1.35138
227.213	10.8942
230.106	24.9903
232.998	34.7482
235.891	99.0053
238.784	154.439
241.676	115.224
244.569	70.89
247.462	113.958
250.355	172.324
253.247	327.776
256.14	519.856
259.033	643.929
261.925	375.287
264.818	117.21
267.711	57.9115
270.603	43.1371
273.496	15.982
276.389	13.2026
279.281	19.0673
282.174	18.7096
285.067	37.4248
287.96	31.5378
290.852	76.7469
293.745	100.996
296.638	110.845
299.53	123.567
302.423	121.513
305.316	125.196
308.209	93.9358
311.101	29.4208
313.994	18.477
316.887	1.78522
319.779	7.65305
322.672	42.5349
325.565	60.5776
328.457	19.6483
331.35	2.2948
334.243	6.00006
337.135	9.0033
340.028	4.25668
342.921	4.62134
345.814	15.4141
348.706	6.57443
351.599	20.0406
354.492	24.8364
357.384	45.1706
360.277	64.7706
363.17	101.706
366.062	113.901
368.955	82.3027
371.848	45.2584
374.741	12.0497
377.633	21.7905
380.526	10.1613
383.419	24.1856
386.311	1.08389
389.204	10.5402
392.097	0.549255
394.99	0.016754
397.882	5.09949
400.775	11.9821
403.668	7.02921
406.56	8.16663
409.453	5.9277
412.346	6.5538
415.238	0.703369
418.131	4.12732
421.024	4.672
423.916	9.39722
426.809	6.66199
429.702	23.7167
432.595	4.74081
435.487	3.90103
438.38	13.6798
441.273	11.9663
444.165	7.70075
447.058	5.94235
449.951	15.0549
452.844	13.6204
455.736	21.2862
458.629	31.0656
461.522	37.197
464.414	55.7392
467.307	66.4471
470.2	74.038
473.092	66.2906
475.985	78.3114
478.878	89.4606
481.771	98.0019
484.663	107.706
487.556	133.216
490.449	124.425
493.341	72.1515
496.234	54.4993
499.127	22.4886
502.019	20.3931
504.912	7.80197
507.805	10.914
510.697	0.774017
513.59	0.237915
516.483	3.78549
519.376	2.05496
522.268	11.1878
525.161	12.2336
528.054	13.4689
530.946	9.93164
533.839	14.571
536.732	35.593
539.625	75.6836
542.517	108.956
545.41	183.295
548.303	300.287
551.195	452.533
554.088	544.808
556.981	448.791
559.873	309.928
562.766	244.641
565.659	240.927
568.552	259.731
571.444	352.356
574.337	462.575
577.23	474.997
580.122	380.592
583.015	242.333
585.908	146.136
588.8	101.808
591.693	70.9209
594.586	39.6079
597.479	29.3278
600.371	8.29645
603.264	11.2094
606.157	11.8219
609.049	2.64606
611.942	15.5894
614.835	13.5597
617.727	22.9741
620.62	32.7142
623.513	31.6251
626.405	21.9759
629.298	33.2951
632.191	13.431
635.084	3.99063
637.976	8.71564
640.869	11.2472
643.762	8.73721
646.654	2.70462
649.547	14.299
652.44	13.0255
655.332	17.3906
658.225	33.2115
661.118	72.656
664.011	119.493
666.903	190.071
669.796	232.792
672.689	195.156
675.581	123.804
678.474	67.5431
681.367	33.6259
684.26	23.8145
687.152	22.2335
690.045	10.3237
692.938	18.3309
695.83	5.86551
698.723	6.09241
701.616	11.6661
704.508	12.0867
707.401	25.2317
710.294	54.5888
713.187	51.5778
716.079	33.8261
718.972	21.6456
721.865	32.3339
724.757	20.2674
727.65	24.3694
730.543	32.8609
733.435	48.0701
736.328	54.4471
739.221	46.5831
742.114	35.9188
745.006	17.7906
747.899	12.6218
750.792	20.7831
753.684	30.3885
756.577	2.5909
759.47	10.2113
762.362	21.8353
765.255	4.89775
768.148	6.4988
771.04	0.803192
773.933	2.69559
776.826	3.95967
779.719	12.624
782.611	15.7396
785.504	19.5271
788.397	23.8858
791.289	11.6384
794.182	15.5304
797.075	9.90622
799.967	7.09018
802.86	13.0022
805.753	5.41493
808.646	15.1269
811.538	21.5749
814.431	18.6626
817.324	13.5316
820.216	9.87797
823.109	7.16908
826.002	10.8132
828.894	6.78123
831.787	6.81636
834.68	8.91834
837.573	11.1115
840.465	4.40971
843.358	13.1224
846.251	7.63576
849.143	13.3094
852.036	1.96271
854.929	1.15736
857.822	1.02209
860.714	6.40489
863.607	7.36905
866.5	3.08505
869.392	12.3855
872.285	16.3892
875.178	6.63979
878.07	14.5965
880.963	17.6508
883.856	20.0403
886.749	17.3159
889.641	24.743
892.534	39.1607
895.427	61.873
898.319	103.771
901.212	97.4185
904.105	51.996
906.997	34.1757
909.89	35.9644
912.783	20.8554
915.675	35.7596
918.568	25.3194
921.461	31.914
924.354	15.2033
927.246	6.93094
930.139	14.5962
933.032	4.61398
935.924	9.2561
938.817	1.45097
941.71	3.82507
944.602	19.2077
947.495	12.6914
950.388	19.0722
953.28	18.0926
956.173	41.6496
959.066	60.685
961.959	95.5948
964.851	169.391
967.744	252.566
970.637	340.859
973.529	306.216
976.422	147.301
979.315	68.2984
982.207	52.403
985.1	26.2776
987.993	15.1699
990.886	10.5573
993.778	38.1763
996.671	39.5938
999.564	76.2628
1002.46	108.07
1005.35	209.61
1008.24	340.284
1011.13	344.557
1014.03	217.234
1016.92	117.671
1019.81	69.3202
1022.71	17.6427
1025.6	13.449
1028.49	17.1101
1031.38	0.821579
1034.28	4.22017
1037.17	5.80225
1040.06	2.29457
1042.95	6.03413
1045.85	1.83231
1048.74	7.64084
1051.63	6.84586
1054.53	4.37645
1057.42	3.49611
1060.31	4.75693
1063.2	11.0891
1066.1	6.00533
1068.99	13.9367
1071.88	11.4662
1074.77	13.3419
1077.67	7.42996
1080.56	15.5453
1083.45	8.08302
1086.35	7.44098
1089.24	4.58806
1092.13	5.30235
1095.02	5.17912
1097.92	10.1527
1100.81	6.74464
1103.7	20.3654
1106.59	16.4517
1109.49	15.8751
1112.38	10.1354
1115.27	17.0509
1118.16	0.456909
1121.06	6.05202
1123.95	27.7952
1126.84	7.47838
1129.73	8.43227
1132.63	15.452
1135.52	3.9675
1138.41	2.9785
1141.31	4.55028
1144.2	25.4286
1147.09	13.6684
1149.98	5.50938
1152.88	20.3483
1155.77	17.2464
1158.66	16.9003
1161.56	24.9968
1164.45	33.1226
1167.34	37.1556
1170.23	39.5947
1173.13	55.8774
1176.02	78.1206
1178.91	118.24
1181.8	135.932
1184.7	126.349
1187.59	78.5284
1190.48	44.0255
1193.38	46.2899
1196.27	24.7505
1199.16	27.4076
1202.05	12.9041
1204.94	6.67639
1207.84	10.9071
1210.73	15.0045
1213.62	10.7314
1216.52	9.59515
1219.41	0.561539
1222.3	18.8346
1225.19	18.1378
1228.09	11.9922
1230.98	15.787
1233.87	4.57254
1236.77	9.616
1239.66	4.49793
1242.55	16.6141
1245.44	23.27
1248.34	15.5769
1251.23	20.8381
1254.12	11.7837
1257.01	14.8842
1259.91	0.676849
1262.8	15.8476
