Measurement: Raman, 780 nm, unoriented, Raman Data Processed
Mineral: Cordierite
Rruff sample: R040081
Ideal chemistry: Mg_2_Al_4_Si_5_O_18_
Locality: Laramie Range, Wyoming, USA
Source: University of Arizona Mineral Museum
Description: Blue to purple coarsely crystalline
Measured chemistry: (Mg_1.80_Fe^2+^_0.20_)_Σ=2_Al_4.00_(Si_4.96_Al_0.04_)_Σ=5_O_18_·0.86H_2_O·Na_0.04_ ; H_2_O estimated by difference and verified by Raman spectroscopy
Raman shift (cm-1)	intensity
94.1345	0
97.5093	0.622665
100.884	2.38419
104.259	1.29257
107.634	5.78216
111.009	10.7302
114.383	20.0343
117.758	34.0444
121.133	47.2839
124.508	21.2737
127.883	10.4534
131.257	2.2779
134.632	0.211296
138.007	2.67926
141.382	5.51003
144.757	6.74855
148.131	10.8291
151.506	15.1443
154.881	24.0771
158.256	24.5115
161.631	11.1063
165.006	3.16532
168.38	1.38985
171.755	0.310356
175.13	1.16798
178.505	0.455345
181.88	1.68193
185.255	3.16975
188.629	2.9053
192.004	3.82638
195.379	0.783104
198.754	0.827126
202.129	0.28878
205.503	0.211266
208.878	0.441452
212.253	0.598892
215.628	0.153214
219.003	2.61089
222.377	3.06925
225.752	6.38596
229.127	8.57814
232.502	14.8644
235.877	26.2541
239.251	39.3827
242.626	34.7636
246.001	30.8633
249.376	36.2127
252.751	48.0062
256.126	67.5139
259.5	70.4544
262.875	32.6962
266.25	11.74
269.625	7.07035
273	6.82861
276.375	14.5527
279.749	22.8777
283.124	27.5478
286.499	34.5187
289.874	49.243
293.249	60.5048
296.623	50.2528
299.998	30.3644
303.373	17.9503
306.748	11.3711
310.123	5.20484
313.498	0.978806
316.872	1.25199
320.247	3.68557
323.622	4.74026
326.997	7.45289
330.372	6.52488
333.746	1.56152
337.121	0.914154
340.496	0.542526
343.871	1.43037
347.246	2.48362
350.62	5.04724
353.995	7.17669
357.37	6.70681
360.745	9.50539
364.12	7.66099
367.495	10.6174
370.869	5.75414
374.244	3.30647
377.619	2.67993
380.994	0.440735
384.369	0.512627
387.743	1.17366
391.118	0.215096
394.493	0.30344
397.868	0.147224
401.243	0.086586
404.617	2.04262
407.992	3.86473
411.367	7.58284
414.742	8.86111
418.117	13.3262
421.491	18.9318
424.866	27.0717
428.241	30.9252
431.616	16.6681
434.991	10.2609
438.366	7.69158
441.74	6.41367
445.115	6.51164
448.49	7.34682
451.865	7.85149
455.24	9.50946
458.615	6.70081
461.989	4.86842
465.364	5.06518
468.739	6.50667
472.114	6.26631
475.489	6.24767
478.863	6.37825
482.238	7.54077
485.613	8.24592
488.988	7.6592
492.363	5.07785
495.737	1.05457
499.112	0.095425
502.487	0.727356
505.862	1.14917
509.237	0.496475
512.611	0.038338
515.986	0.523102
519.361	2.30963
522.736	3.8433
526.111	5.00884
529.486	8.43543
532.86	13.7472
536.235	27.019
539.61	42.3081
542.985	58.1733
546.36	80.3568
549.734	110.706
553.109	137.469
556.484	125.845
559.859	95.0708
563.234	76.3619
566.609	68.5307
569.983	67.3764
573.358	73.1001
576.733	76.8518
580.108	58.7509
583.483	34.268
586.857	19.1141
590.232	12.6399
593.607	7.40311
596.982	4.34125
600.357	3.47476
603.731	1.18651
607.106	1.3843
610.481	1.38766
613.856	2.89877
617.231	5.44029
620.606	3.84755
623.98	3.98107
627.355	2.29316
630.73	0.342251
634.105	0.479778
637.48	0.987942
640.854	0.420124
644.229	0.247852
647.604	2.12915
650.979	5.02103
654.354	10.4959
657.729	16.3086
661.103	23.3481
664.478	32.7655
667.853	44.0376
671.228	42.9756
674.603	26.4266
677.977	11.826
681.352	5.69723
684.727	4.57524
688.102	3.01922
691.477	1.57271
694.851	2.56639
698.226	2.78225
701.601	3.39564
704.976	6.41286
708.351	7.77486
711.726	9.60635
715.1	9.38885
718.475	7.32223
721.85	8.70211
725.225	7.87824
728.6	4.9596
731.974	4.83514
735.349	4.1493
738.724	5.41694
742.099	3.33016
745.474	4.80041
748.848	3.91338
752.223	5.47618
755.598	2.22167
758.973	2.03384
762.348	1.271
765.723	0.583366
769.097	0.743645
772.472	0.654877
775.847	0.163219
779.222	0.612167
782.597	0.098423
785.971	0.99556
789.346	0.950279
792.721	1.81411
796.096	2.37487
799.471	1.16563
802.846	1.00543
806.22	1.47187
809.595	0.896694
812.97	1.54961
816.345	1.03585
819.72	0.033611
823.094	1.60748
826.469	0.771782
829.844	0.601265
833.219	1.03117
836.594	1.17797
839.968	0.40052
843.343	1.07555
846.718	1.02394
850.093	0.65802
853.468	1.92633
856.843	0.577217
860.217	0.490749
863.592	0.165039
866.967	1.33995
870.342	1.06933
873.717	0.82729
877.091	0.832298
880.466	1.64465
883.841	1.7557
887.216	1.9113
890.591	3.9323
893.966	5.058
897.34	6.18679
900.715	6.14452
904.09	4.31436
907.465	0.937004
910.84	0.213139
914.214	2.10686
917.589	1.6084
920.964	0.573376
924.339	0.58403
927.714	0.013153
931.088	0.070351
934.463	2.02151
937.838	1.03599
941.213	1.63243
944.588	3.89411
947.963	6.37243
951.337	8.07546
954.712	8.86481
958.087	12.8341
961.462	19.7067
964.837	28.8229
968.211	39.5686
971.586	49.9086
974.961	34.3615
978.336	15.4266
981.711	7.56069
985.086	3.81443
988.46	2.6644
991.835	1.43056
995.21	3.4177
998.585	5.68916
1001.96	5.95458
1005.33	9.37662
1008.71	12.9864
1012.08	12.7185
1015.46	7.7476
1018.83	3.70155
1022.21	3.336
1025.58	1.36349
1028.96	1.09104
1032.33	0.266363
1035.71	0.122925
1039.08	0.351999
1042.46	1.01844
1045.83	0.119972
1049.21	1.67459
1052.58	0.461588
1055.96	0.622168
1059.33	0.296669
1062.71	1.08314
1066.08	1.59539
1069.46	0.046122
1072.83	1.14506
1076.21	0.219461
1079.58	1.3785
1082.95	0.342295
1086.33	0.740454
1089.7	1.61339
1093.08	3.10652
1096.45	1.19992
1099.83	2.59072
1103.2	4.63186
1106.58	4.95603
1109.95	5.02567
1113.33	3.18815
1116.7	2.64705
1120.08	0.379036
1123.45	0.540226
1126.83	0.135366
1130.2	0.219755
1133.58	1.8471
1136.95	0.148727
1140.33	0.443708
1143.7	0.544765
1147.08	0.401161
1150.45	0.663301
1153.83	2.5607
1157.2	2.21302
1160.58	3.69115
1163.95	2.89154
1167.33	4.47489
1170.7	9.63071
1174.08	12.8295
1177.45	17.1861
1180.83	20.833
1184.2	20.6078
1187.57	13.8275
1190.95	7.80962
1194.32	4.73602
1197.7	3.12828
1201.07	2.53185
1204.45	1.0426
1207.82	0.29081
1211.2	0.717583
1214.57	0.576111
1217.95	0.623737
1221.32	0.596807
1224.7	0.447327
1228.07	0.443554
1231.45	1.1217
1234.82	0.340033
1238.2	0.674587
1241.57	0.451447
1244.95	1.89107
1248.32	0.872561
1251.7	1.04174
1255.07	1.42004
1258.44	1.72911
1261.82	2.40212
1265.19	2.66026
1268.57	2.21865
1271.94	2.74996
1275.32	0.452457
1278.69	1.03303
1282.07	1.1501
1285.44	0.505386
