Measurement: Raman, 514 nm, unoriented, Raman Data Processed
Mineral: Cordierite
Rruff sample: R040084
Ideal chemistry: Mg_2_Al_4_Si_5_O_18_
Locality: Norway
Source: University of Arizona Mineral Museum
Description: Purple coarsely crystalline massive
Measured chemistry: (Mg_1.88_Fe^2+^_0.11_Ca_0.01_)_Σ=2_(Al_3.95_Fe^3+^_0.05_)_Σ=4_(Si_4.96_Al_0.04_)_Σ=5_O_18_·0.90H_2_O·Na_0.04_ ; H_2_O estimated by difference and verified by Raman spectroscopy
Raman shift (cm-1)	intensity
136.47	0
140.63	334.058
144.787	74.081
148.942	362.657
153.096	822.021
157.247	1800.77
161.396	1862.24
165.544	757.828
169.689	208.454
173.833	88.359
177.974	210.894
182.114	262.23
186.251	429.088
190.387	320.691
194.52	584.661
198.652	471.652
202.782	526.185
206.909	602.295
211.035	365.763
215.159	106.299
219.281	122.172
223.4	179.709
227.518	57.992
231.634	300.294
235.748	1145.17
239.86	3080.21
243.97	2211.34
248.079	1169.06
252.185	1069.83
256.289	2358.41
260.391	5260.73
264.492	3394.25
268.59	1253.08
272.687	952.165
276.781	614.356
280.874	881.872
284.964	1861.16
289.053	3632.15
293.14	7768.82
297.225	8713.2
301.308	4969.58
305.389	2618.59
309.468	1387.66
313.545	991.341
317.62	864.657
321.693	911.556
325.765	1521.89
329.834	1145.69
333.902	742.036
337.967	152.354
342.031	90.295
346.093	171.855
350.153	215.052
354.21	438.798
358.267	391.206
362.321	543.73
366.373	1095.32
370.423	886.551
374.471	151.301
378.518	49.434
382.563	17.174
386.605	151.172
390.646	233.264
394.685	6.533
398.722	41.541
402.757	33.994
406.79	28.934
410.821	38.482
414.851	181.764
418.878	1092.27
422.904	2365.55
426.927	5958.49
430.949	6434.5
434.969	2881.77
438.987	1095.71
443.003	452.529
447.018	451.242
451.03	535.861
455.041	763.543
459.049	841.375
463.056	916.896
467.061	717.25
471.064	676.426
475.065	818.436
479.064	600.246
483.062	688.746
487.057	800.352
491.051	812.227
495.043	479.623
499.032	222.984
503.02	17.928
507.007	65.047
510.991	78.666
514.973	38.639
518.954	237.59
522.933	280.635
526.91	364.705
530.885	463.674
534.858	571.533
538.829	1451.01
542.799	2532.48
546.766	5033.16
550.732	10897.4
554.696	19639.4
558.658	16997
562.618	9885.34
566.576	6934.07
570.533	5826.17
574.488	6599.48
578.44	8325.34
582.391	6704.05
586.341	3520.61
590.288	2170.02
594.233	1141.29
598.177	831.436
602.119	511.438
606.059	465.928
609.997	146.408
613.933	149.916
617.868	485.617
621.801	629.18
625.731	478.061
629.66	648.191
633.588	538.287
637.513	92.559
641.437	281.979
645.358	415.832
649.278	397.23
653.196	216.256
657.113	923.662
661.027	1653.36
664.94	3112.48
668.851	6504.18
672.76	7618.58
676.667	4403.52
680.572	2316.85
684.476	1212.38
688.378	918.555
692.278	871.74
696.176	804.496
700.072	626.061
703.967	907.855
707.86	1705.62
711.751	2363.19
715.64	2274.38
719.527	1798.43
723.413	2279.8
727.297	2149.72
731.179	1460.25
735.059	894.656
738.937	937.982
742.814	593.963
746.689	667.596
750.562	834.879
754.433	574.811
758.303	340.391
762.17	442.617
766.036	237.348
769.901	44.568
773.763	84.729
777.624	452.529
781.482	58.385
785.339	0.25
789.195	15.613
793.048	60.391
796.9	173.955
800.75	131.113
804.598	138.721
808.445	200.822
812.289	70.41
816.132	48.311
819.973	159.816
823.813	97.795
827.65	71.76
831.486	192.141
835.32	181.184
839.152	228.637
842.983	410.238
846.812	302.537
850.639	18.398
854.464	25.133
858.288	336.852
862.11	200.373
865.93	543.373
869.748	414.975
873.564	401.158
877.379	210.914
881.192	590.25
885.004	378.207
888.813	535.775
892.621	500.971
896.427	934.82
900.232	1470.29
904.034	1072.41
907.835	837.332
911.634	652.549
915.432	713.631
919.227	841.809
923.021	1057.27
926.813	851.605
930.604	508.76
934.393	638.164
938.18	533.383
941.965	861.797
945.749	812.273
949.53	1552.41
953.311	1951.91
957.089	1604.12
960.866	1482.88
964.641	1972.4
968.414	4131.15
972.185	8706.43
975.955	7256.94
979.723	3291.41
983.49	1647.25
987.254	1198.5
991.017	915.533
994.779	730.814
998.538	806.48
1002.3	1006.73
1006.05	1055.45
1009.81	1477.34
1013.56	1990.54
1017.31	1216.33
1021.06	765.492
1024.81	619.535
1028.55	531.312
1032.3	739.145
1036.04	823.148
1039.78	580.023
1043.52	290.332
1047.26	606.516
1050.99	686.453
1054.73	590.387
1058.46	206.637
1062.19	219.262
1065.92	462.711
1069.65	686.676
1073.37	516.93
1077.1	590.277
1080.82	511.172
1084.54	377.527
1088.26	356.043
1091.97	357.695
1095.69	335.094
1099.4	574.711
1103.12	634.848
1106.83	1268.83
1110.54	1756.35
1114.24	1313.04
1117.95	777.188
1121.65	74.641
1125.35	446.707
1129.06	295.898
1132.75	205.598
1136.45	7.5
1140.15	452.301
1143.84	148.699
1147.53	259.129
1151.22	73.672
1154.91	244.723
1158.6	69.281
1162.28	501.945
1165.97	301.645
1169.65	562.812
1173.33	472.531
1177.01	1034.66
1180.69	1832.64
1184.36	2868.73
1188.04	2638.02
1191.71	1872.45
1195.38	803.738
1199.05	977.914
1202.71	272.102
1206.38	607.145
1210.04	94.008
1213.71	482.691
1217.37	257.797
1221.03	202.523
1224.68	197.855
1228.34	264.93
1231.99	236.441
1235.65	249.945
1239.3	534.539
1242.95	350.227
1246.59	208.586
1250.24	742.398
1253.88	235.98
1257.53	223.789
1261.17	73.059
1264.81	374.562
1268.45	536.551
1272.08	67.281
1275.72	233.262
1279.35	105.898
1282.98	287.035
1286.61	56.5
1290.24	161.898
1293.87	193.398
1297.49	137.98
1301.11	125.703
1304.73	87.656
1308.36	253.219
1311.97	551.109
1315.59	112.102
1319.2	78.598
1322.82	155.23
1326.43	6.145
1330.04	186.336
1333.65	119.703
1337.26	175.934
1340.86	11.148
1344.47	22.449
1348.07	280.266
1351.67	352.457
1355.27	369.594
1358.87	509.516
1362.46	549.059
1366.06	526.059
1369.65	531.695
1373.24	409.32
1376.83	629.039
1380.42	869.449
1384	2698.47
1387.59	845.707
1391.17	684.945
1394.75	393.535
1398.33	670.453
1401.91	652.719
1405.49	489.938
1409.06	237.973
1412.64	24.539
1416.21	193.633
1419.78	226.906
1423.35	325.52
1426.91	394.426
1430.48	191.523
1434.05	404.566
1437.61	647.621
1441.17	271.652
1444.73	229.453
1448.29	465.918
1451.84	74.996
1455.4	246.148
1458.95	441.168
1462.5	726.988
1466.05	612.906
1469.6	60.828
1473.15	575.383
1476.69	513.379
1480.24	596.848
1483.78	114.383
1487.32	245.062
1490.86	44.883
1494.39	475.117
1497.93	348.297
