Measurement: Raman, 780 nm, unoriented, Raman Data Processed
Mineral: Cordierite
Rruff sample: R040082
Ideal chemistry: Mg_2_Al_4_Si_5_O_18_
Locality: Madagascar
Source: University of Arizona Mineral Museum
Description: Dark gray coarsely crystalline massive
Measured chemistry: (Mg_1.60_Fe^2+^_0.39_Mn_0.01_)_Σ=2_Al_4.00_(Si_4.95_Al_0.05_)_Σ=5_O_18_·1.05H_2_O·Na_0.05_ ; H_2_O estimated by difference and verified by Raman spectroscopy
Raman shift (cm-1)	intensity
115.83	0
119.205	109.247
122.579	49.5374
125.954	47.8313
129.329	23.7116
132.704	0.285858
136.079	2.53757
139.453	2.89545
142.828	1.26619
146.203	8.84087
149.578	17.209
152.953	33.887
156.327	58.5355
159.702	39.5808
163.077	15.4691
166.452	3.72479
169.827	1.15291
173.202	1.6487
176.576	4.83572
179.951	7.37325
183.326	7.93954
186.701	9.64828
190.076	10.9316
193.451	8.93284
196.825	4.7965
200.2	8.05243
203.575	9.78633
206.95	7.7783
210.325	1.59945
213.699	0.226822
217.074	0.905769
220.449	2.52017
223.824	7.06028
227.199	11.6385
230.573	17.401
233.948	32.794
237.323	51.1266
240.698	51.1275
244.073	42.6583
247.447	45.1937
250.822	67.5954
254.197	109.523
257.572	182.481
260.947	131.184
264.322	38.9922
267.696	9.4735
271.071	5.32685
274.446	2.67021
277.821	7.39313
281.196	12.0758
284.57	20.976
287.945	36.4815
291.32	52.3736
294.695	56.0386
298.07	39.5466
301.445	26.3148
304.819	21.638
308.194	11.5774
311.569	2.44584
314.944	0.728882
318.319	0.034256
321.693	4.31531
325.068	15.1113
328.443	11.01
331.818	3.30488
335.193	0.172058
338.567	0.05719
341.942	1.83254
345.317	7.85187
348.692	10.1905
352.067	14.4618
355.442	14.4089
358.816	20.523
362.191	34.0073
365.566	46.9861
368.941	30.864
372.316	14.3275
375.69	9.48483
379.065	4.11026
382.44	2.65484
385.815	1.09655
389.19	1.58256
392.565	0.644821
395.939	0.282677
399.314	0.155937
402.689	0.038292
406.064	1.34532
409.439	5.46896
412.813	7.05621
416.188	12.045
419.563	19.6956
422.938	30.6859
426.313	40.0945
429.688	28.482
433.062	14.7643
436.437	8.46348
439.812	5.80714
443.187	6.71857
446.562	5.4338
449.936	8.60476
453.311	12.5613
456.686	11.7322
460.061	9.04229
463.436	9.15561
466.81	14.3312
470.185	17.4726
473.56	15.8731
476.935	18.1897
480.31	17.7776
483.685	23.4647
487.059	26.5906
490.434	18.7443
493.809	11.0699
497.184	3.79227
500.559	1.25984
503.933	0.130798
507.308	0.103333
510.683	1.58447
514.058	0.375832
517.433	0.775383
520.808	0.624374
524.182	5.00993
527.557	7.02492
530.932	11.413
534.307	21.638
537.682	36.6615
541.056	54.9641
544.431	77.9535
547.806	126.258
551.181	193.658
554.556	222.708
557.93	180.169
561.305	151.991
564.68	135.978
568.055	131.459
571.43	159.683
574.804	200.378
578.179	191.132
581.554	124.515
584.929	70.6753
588.304	45.2595
591.679	27.4694
595.053	17.8156
598.428	13.0443
601.803	9.1499
605.178	6.31491
608.553	6.6045
611.928	6.97879
615.302	7.11772
618.677	6.11439
622.052	7.33165
625.427	3.99953
628.802	0.263157
632.176	0.309303
635.551	1.37949
638.926	0.930687
642.301	0.201668
645.676	1.03669
649.05	3.28181
652.425	11.568
655.8	13.6896
659.175	24.5042
662.55	38.3957
665.924	64.4211
669.299	83.8062
672.674	62.4901
676.049	29.9963
679.424	15.0435
682.799	8.22388
686.173	6.43767
689.548	2.91885
692.923	1.36998
696.298	0.853657
699.673	1.89667
703.048	4.92535
706.422	8.08212
709.797	13.2075
713.172	13.7789
716.547	9.11762
719.922	8.92067
723.296	9.77867
726.671	7.2319
730.046	7.15509
733.421	7.25756
736.796	8.26895
740.17	6.4126
743.545	5.09082
746.92	3.06142
750.295	3.09762
753.67	1.64194
757.044	0.03463
760.419	0.69566
763.794	0.939575
767.169	0.117451
770.544	0.446243
773.919	0.264584
777.293	0.986794
780.668	2.29907
784.043	0.821064
787.418	1.40859
790.793	1.32072
794.167	0.146168
797.542	1.23632
800.917	0.727188
804.292	2.06482
807.667	1.33212
811.042	1.03682
814.416	0.813946
817.791	1.1784
821.166	0.537434
824.541	0.860264
827.916	0.168743
831.29	0.477123
834.665	1.1168
838.04	0.972729
841.415	0.933018
844.79	1.88791
848.164	1.40185
851.539	1.34706
854.914	0.514019
858.289	0.424812
861.664	2.14439
865.039	0.160995
868.413	0.032623
871.788	1.29155
875.163	0.314018
878.538	0.222725
881.913	0.946358
885.287	0.804333
888.662	1.0602
892.037	4.33096
895.412	8.65002
898.787	12.3474
902.162	13.4546
905.536	7.92408
908.911	5.09981
912.286	6.17821
915.661	8.34182
919.036	11.7896
922.41	9.0212
925.785	5.12943
929.16	0.138615
932.535	2.33954
935.91	1.80743
939.284	4.67487
942.659	7.28247
946.034	13.171
949.409	21.5418
952.784	23.7957
956.159	25.6112
959.533	35.8598
962.908	53.6427
966.283	83.8179
969.658	131.442
973.033	119.407
976.407	53.0568
979.782	21.4709
983.157	9.92495
986.532	4.18803
989.907	2.89177
993.282	0.605907
996.656	2.49332
1000.03	4.46829
1003.41	8.70681
1006.78	15.7395
1010.16	23.4238
1013.53	17.6362
1016.9	10.89
1020.28	6.53249
1023.65	2.21045
1027.03	2.2564
1030.4	0.729658
1033.78	0.368931
1037.15	0.883196
1040.53	1.51104
1043.9	1.37995
1047.28	0.161222
1050.65	0.069771
1054.03	0.188263
1057.4	0.297049
1060.78	1.46292
1064.15	0.614878
1067.53	0.28031
1070.9	0.741526
1074.28	1.20628
1077.65	1.41622
1081.03	0.382313
1084.4	1.44332
1087.78	0.768412
1091.15	1.9364
1094.53	1.7014
1097.9	4.23756
1101.28	7.8022
1104.65	11.8299
1108.03	15.6496
1111.4	11.9092
1114.78	6.87028
1118.15	2.90535
1121.52	1.88253
1124.9	1.29033
1128.27	0.971125
1131.65	0.031013
1135.02	1.32965
1138.4	2.4426
1141.77	1.86253
1145.15	2.54841
1148.52	4.07554
1151.9	5.3934
1155.27	6.95174
1158.65	9.70164
1162.02	12.9545
1165.4	18.0562
1168.77	24.9612
1172.15	40.7256
1175.52	59.8245
1178.9	87.4528
1182.27	100.223
1185.65	75.0028
1189.02	43.5754
1192.4	24.0468
1195.77	14.5058
1199.14	7.9895
1202.52	4.9364
1205.89	3.31748
1209.27	1.03182
1212.64	2.2189
1216.02	1.95981
1219.39	0.506767
1222.77	0.773497
1226.14	1.7922
1229.52	0.043447
1232.89	0.335863
1236.27	0.381416
1239.64	0.243483
1243.02	0.532898
1246.39	0.45569
1249.77	0.960148
1253.14	1.45512
1256.52	1.27264
1259.89	1.21835
1263.27	2.64537
1266.64	1.93881
1270.02	2.92287
1273.39	2.057
1276.77	0.519228
1280.14	1.21307
1283.52	1.38288
