Measurement: Raman, 532 nm, unoriented, Raman Data Processed
Mineral: Cordierite
Rruff sample: R040084
Ideal chemistry: Mg_2_Al_4_Si_5_O_18_
Locality: Norway
Source: University of Arizona Mineral Museum
Description: Purple coarsely crystalline massive
Measured chemistry: (Mg_1.88_Fe^2+^_0.11_Ca_0.01_)_Σ=2_(Al_3.95_Fe^3+^_0.05_)_Σ=4_(Si_4.96_Al_0.04_)_Σ=5_O_18_·0.90H_2_O·Na_0.04_ ; H_2_O estimated by difference and verified by Raman spectroscopy
Raman shift (cm-1)	intensity
128.314	0
131.689	8.8197
135.064	42.0486
138.439	34.5795
141.813	1.69727
145.188	46.864
148.563	81.8544
151.938	117.917
155.313	223.64
158.688	170.996
162.062	69.8823
165.437	23.403
168.812	56.4047
172.187	24.4022
175.561	22.5409
178.936	6.53784
182.311	27.1432
185.686	3.50208
189.061	52.946
192.436	42.5392
195.81	41.6982
199.185	76.1792
202.56	96.6746
205.935	139.418
209.31	118.579
212.685	29.7144
216.059	3.51355
219.434	6.36755
222.809	1.74133
226.184	2.71021
229.559	87.7165
232.933	116.929
236.308	268.18
239.683	304.466
243.058	196.35
246.433	201.877
249.808	376.521
253.182	649.467
256.557	1125.26
259.932	1267.08
263.307	425.798
266.682	158.077
270.056	60.4574
273.431	49.9988
276.806	32.3021
280.181	33.9417
283.556	30.9153
286.93	50.6135
290.305	106.07
293.68	137.933
297.055	156.443
300.43	137.43
303.805	176.848
307.179	159.364
310.554	44.365
313.929	5.61426
317.304	10.2754
320.679	34.1111
324.053	55.3019
327.428	72.7942
330.803	10.5802
334.178	15.3638
337.553	14.2562
340.928	4.34119
344.302	17.8812
347.677	70.553
351.052	57.5427
354.427	104.672
357.801	141.649
361.176	205.934
364.551	278.918
367.926	255.02
371.301	174.729
374.676	90.5686
378.05	73.1279
381.425	60.043
384.8	50.7082
388.175	14.6422
391.55	31.6112
394.925	31.9194
398.299	4.24963
401.674	0.716064
405.049	8.66895
408.424	17.5507
411.799	3.03137
415.173	20.7911
418.548	26.204
421.923	25.1263
425.298	36.0223
428.673	34.343
432.048	14.2701
435.422	12.7557
438.797	28.1136
442.172	42.3915
445.547	17.5135
448.922	48.352
452.296	51.1288
455.671	54.8099
459.046	95.2686
462.421	130.343
465.796	213.348
469.171	225.931
472.545	218.246
475.92	206.049
479.295	272.176
482.67	316.021
486.045	406.987
489.419	441.537
492.794	258.721
496.169	115.721
499.544	59.6381
502.919	27.7255
506.293	4.25269
509.668	11.9429
513.043	9.33325
516.418	15.1705
519.793	21.884
523.168	22.5081
526.542	17.4724
529.917	30.9236
533.292	14.2539
536.667	68.0854
540.042	109.024
543.416	235.376
546.791	385.79
550.166	619.228
553.541	878.228
556.916	773.93
560.29	542.428
563.665	463.602
567.04	514.228
570.415	662.363
573.79	856.588
577.165	1009.04
580.539	755.875
583.914	439.673
587.289	251.541
590.664	139.227
594.039	122.451
597.413	68.8859
600.788	67.5494
604.163	68.1988
607.538	49.1654
610.913	67.3497
614.288	37.0322
617.662	68.2751
621.037	98.2775
624.412	74.2551
627.787	68.3972
631.162	45.599
634.536	20.6388
637.911	8.39612
641.286	1.46387
644.661	30.3628
648.036	4.60889
651.41	35.8098
654.785	68.1356
658.16	98.705
661.535	169.925
664.91	259.474
668.284	378.534
671.659	408.534
675.034	231.413
678.409	120.875
681.784	37.5929
685.159	31.8925
688.533	20.9069
691.908	15.9437
695.283	41.5295
698.658	48.2247
702.033	48.7513
705.408	39.9582
708.782	82.0992
712.157	57.2941
715.532	67.4616
718.907	28.2114
722.282	22.7068
725.656	55.3138
729.031	95.276
732.406	113.355
735.781	149.933
739.156	160.603
742.53	78.8776
745.905	80.0082
749.28	46.6414
752.655	37.5731
756.03	34.9735
759.404	24.7441
762.779	22.8911
766.154	49.6427
769.529	43.1929
772.904	33.8261
776.279	25.3535
779.653	14.2106
783.028	15.2622
786.403	19.6128
789.778	22.2472
793.153	28.6854
796.528	3.68713
799.902	1.09595
803.277	13.35
806.652	6.24976
810.027	5.86597
813.402	9.85852
816.776	4.66931
820.151	25.6256
823.526	54.9895
826.901	64.8545
830.276	47.7527
833.65	58.8372
837.025	62.5667
840.4	54.5885
843.775	76.1768
847.15	34.9159
850.525	13.3468
853.899	59.7312
857.274	42.6355
860.649	61.4447
864.024	41.2854
867.399	35.029
870.774	32.398
874.148	5.72632
877.523	37.8879
880.898	58.943
884.273	61.2231
887.648	99.697
891.022	142.922
894.397	241.505
897.772	359.83
901.147	342.683
904.522	212.864
907.896	113.852
911.271	87.5037
914.646	101.695
918.021	98.9221
921.396	70.874
924.77	53.9026
928.145	23.5859
931.52	25.4585
934.895	5.38403
938.27	14.7803
941.645	26.7849
945.019	65.529
948.394	54.5623
951.769	53.3931
955.144	112.607
958.519	219.829
961.894	386.053
965.268	582.034
968.643	779.971
972.018	980.937
975.393	544.533
978.768	245.185
982.142	150.575
985.517	47.0994
988.892	72.8657
992.267	54.0459
995.642	87.6384
999.016	115.816
1002.39	183.712
1005.77	343.846
1009.14	506.346
1012.52	464.079
1015.89	236.8
1019.26	89.8525
1022.64	72.2031
1026.02	43.509
1029.39	28.8145
1032.77	14.8821
1036.14	18.6643
1039.51	1.86645
1042.89	8.42969
1046.26	0.422607
1049.64	3.66553
1053.01	14.4504
1056.39	6.32739
1059.76	58.293
1063.14	7.31934
1066.51	21.9829
1069.89	47.5518
1073.26	11.8242
1076.64	8.68213
1080.01	3.61499
1083.39	24.3618
1086.76	30.8042
1090.14	3.61182
1093.51	17.7908
1096.89	24.2607
1100.26	39.6445
1103.64	33.706
1107.01	42.1089
1110.38	49.154
1113.76	46.4602
1117.13	42.832
1120.51	37.3474
1123.88	23.165
1127.26	6.10644
1130.63	57.0388
1134.01	24.6692
1137.38	6.88403
1140.76	46.3489
1144.13	38.4207
1147.51	69.9312
1150.88	27.7415
1154.26	65.1084
1157.63	57.5342
1161.01	90.1274
1164.38	107.905
1167.76	156.722
1171.13	207.749
1174.51	339.537
1177.88	458.033
1181.26	644.764
1184.63	585.921
1188.01	359.021
1191.38	192.629
1194.76	134.73
1198.13	68.8213
1201.51	36.3882
1204.88	45.3188
1208.26	24.7009
1211.63	8.81372
1215.01	10.1487
1218.38	13.3464
1221.75	43.3071
1225.13	16.6548
1228.5	35.7515
1231.88	39.1448
1235.25	16.5149
1238.63	0.652344
1242	15.7371
1245.38	31.6797
1248.75	12.9429
1252.13	39.6794
1255.5	41.365
1258.88	41.2627
1262.25	58.7051
1265.63	58.2622
1269	73.7898
1272.38	48.6887
1275.75	54.05
1279.13	56.4697
1282.5	24.2463
1285.88	44.4761
1289.25	1.01538
