Measurement: Raman, 532 nm, unoriented, Raman Data Processed
Mineral: Cordierite
Rruff sample: R100150
Ideal chemistry: Mg_2_Al_4_Si_5_O_18_
Locality: India
Source: William W. Pinch
Description: Royal blue cut gemstone
Raman shift (cm-1)	intensity
137.318	0.051357
140.693	5.41074
144.068	15.1927
147.443	23.2471
150.818	31.1269
154.192	61.0444
157.567	90.5716
160.942	72.8327
164.317	45.7972
167.692	42.5327
171.067	45.0244
174.441	37.3888
177.816	36.0916
181.191	31.7937
184.566	29.1936
187.941	28.5411
191.315	24.2782
194.69	20.4627
198.065	15.3621
201.44	11.672
204.815	13.8225
208.19	12.835
211.565	5.32931
214.939	2.25694
218.314	1.62534
221.689	0.837685
225.064	5.82073
228.439	14.6217
231.813	28.2133
235.188	53.5459
238.563	93.6706
241.938	92.325
245.313	76.9398
248.688	84.9129
252.062	115.963
255.437	189.189
258.812	276.409
262.187	220.6
265.562	55.5621
268.936	15.9472
272.311	6.99259
275.686	12.8542
279.061	26.6986
282.436	44.7288
285.81	58.8411
289.185	93.3459
292.56	143.057
295.935	142.881
299.31	93.7381
302.685	57.3278
306.059	40.1468
309.434	15.1897
312.809	1.04992
316.184	2.14896
319.559	0.517052
322.933	5.6605
326.308	16.8462
329.683	21.2724
333.058	8.86091
336.433	0.647064
339.808	0.847237
343.183	1.3364
346.557	9.387
349.932	21.1806
353.307	24.9587
356.682	26.3408
360.057	31.8197
363.431	47.1704
366.806	64.7669
370.181	39.7843
373.556	16.8057
376.931	8.36852
380.305	7.22251
383.68	2.8411
387.055	0.066574
390.43	0.490559
393.805	1.13731
397.18	1.97836
400.554	1.23516
403.929	1.87464
407.304	2.82878
410.679	7.81673
414.054	16.3895
417.428	25.5915
420.803	39.4069
424.178	63.4681
427.553	86.0014
430.928	67.6122
434.303	31.8766
437.677	20.0852
441.052	17.4699
444.427	15.2506
447.802	18.3736
451.177	20.9323
454.551	28.5503
457.926	22.4671
461.301	15.9502
464.676	17.0126
468.051	21.7813
471.426	25.8357
474.8	28.3751
478.175	29.3008
481.55	30.4972
484.925	35.9883
488.3	41.2298
491.675	34.2263
495.049	17.3743
498.424	5.67137
501.799	1.7754
505.174	0.062611
508.549	0.848492
511.923	2.65579
515.298	0.797283
518.673	1.35813
522.048	1.00072
525.423	6.48496
528.798	11.1891
532.172	23.1006
535.547	42.8799
538.922	79.0375
542.297	132.118
545.672	199.895
549.047	305.501
552.421	440.377
555.796	473.853
559.171	354.737
562.546	274.221
565.921	238.813
569.295	226.401
572.67	251.839
576.045	298.442
579.42	285.572
582.795	186.979
586.17	107.603
589.544	64.9662
592.919	39.9609
596.294	25.7362
599.669	17.5946
603.044	12.6686
606.418	10.3165
609.793	9.24287
613.168	10.0314
616.543	11.8079
619.918	14.3379
623.293	13.9903
626.667	11.3937
630.042	4.2718
633.417	0.447029
636.792	2.7715
640.167	1.75598
643.542	0.769169
646.916	0.601093
650.291	5.6689
653.666	16.9302
657.041	35.7728
660.416	58.3686
663.79	93.8006
667.165	142.455
670.54	173.566
673.915	126.361
677.29	62.0247
680.664	26.6426
684.039	14.1757
687.414	9.48251
690.789	4.575
694.164	2.58974
697.539	1.08208
700.913	2.63153
704.288	9.5641
707.663	19.4252
711.038	31.2793
714.413	35.456
717.788	24.6564
721.162	24.8119
724.537	25.2595
727.912	17.3569
731.287	11.5874
734.662	11.3649
738.036	13.998
741.411	14.1726
744.786	11.8775
748.161	13.2386
751.536	14.3791
754.91	9.77071
758.285	5.79274
761.66	1.37189
765.035	0.490517
768.41	0.349693
771.785	0.068649
775.159	0.06847
778.534	0.61285
781.909	2.05608
785.284	2.30579
788.659	1.64106
792.034	2.56511
795.408	2.95558
798.783	0.959846
802.158	1.66426
805.533	1.52761
808.908	2.30441
812.283	1.97651
815.657	0.54323
819.032	1.13074
822.407	2.0343
825.782	0.863478
829.157	0.9352
832.531	0.412859
835.906	0.308409
839.281	0.393456
842.656	1.11948
846.031	0.322002
849.405	0.051834
852.78	2.28055
856.155	0.095015
859.53	0.075356
862.905	0.184984
866.28	0.357128
869.654	0.98864
873.029	2.09164
876.404	2.71569
879.779	4.39839
883.154	4.85023
886.529	7.27888
889.903	12.7207
893.278	17.4171
896.653	28.337
900.028	35.329
903.403	26.3617
906.778	14.8866
910.152	8.93345
913.527	10.119
916.902	12.7541
920.277	14.9659
923.652	8.68477
927.026	3.67364
930.401	0.245934
933.776	0.426422
937.151	2.80015
940.526	6.77423
943.9	14.0899
947.275	24.5964
950.65	43.005
954.025	43.4028
957.4	44.6073
960.775	63.6827
964.149	105.854
967.524	164.383
970.899	245.767
974.274	212.108
977.649	93.9508
981.024	39.5635
984.398	17.5541
987.773	8.129
991.148	7.96395
994.523	7.31533
997.898	11.1148
1001.27	18.5343
1004.65	28.9257
1008.02	50.5885
1011.4	61.7934
1014.77	43.329
1018.15	26.3735
1021.52	14.2231
1024.9	8.10689
1028.27	3.48152
1031.65	2.63189
1035.02	1.32031
1038.4	1.62746
1041.77	1.84884
1045.14	1.49318
1048.52	0.269024
1051.89	2.13088
1055.27	0.402634
1058.64	1.95304
1062.02	0.789494
1065.39	1.55835
1068.77	2.42511
1072.14	0.296696
1075.52	1.21078
1078.89	0.300312
1082.27	0.081474
1085.64	2.59302
1089.02	2.51019
1092.39	3.89843
1095.77	5.24357
1099.14	11.9035
1102.52	19.3865
1105.89	28.9681
1109.27	35.5781
1112.64	29.8552
1116.02	19.3498
1119.39	8.45113
1122.77	5.1088
1126.14	4.13794
1129.52	3.86347
1132.89	3.55265
1136.27	2.38184
1139.64	3.01463
1143.02	4.59055
1146.39	4.11959
1149.77	5.99176
1153.14	8.64473
1156.51	9.9793
1159.89	12.2101
1163.26	13.1242
1166.64	16.2027
1170.01	24.9238
1173.39	40.7227
1176.76	65.6826
1180.14	104.373
1183.51	145.422
1186.89	134.885
1190.26	79.6761
1193.64	44.8476
1197.01	25.0567
1200.39	16.3479
1203.76	9.31873
1207.14	6.55907
1210.51	3.31075
1213.89	3.10797
1217.26	0.232086
1220.64	2.04666
1224.01	1.26927
1227.38	0.663679
1230.76	2.92206
1234.13	1.62205
1237.51	0.297644
1240.88	0.201048
1244.26	1.04902
1247.63	0.965771
1251.01	1.61346
1254.38	1.44047
1257.76	2.8557
1261.13	3.80026
1264.51	6.22401
1267.88	5.79752
1271.26	3.24357
1274.63	2.31676
1278.01	2.59137
1281.38	0.978373
1284.76	0.292753
1288.13	1.65565
1291.51	2.01491
1294.88	0.961876
1298.26	0.67709
1301.63	0.046078
