Measurement: Raman, 780 nm, unoriented, Raman Data Processed
Mineral: Cordierite
Rruff sample: R100141
Ideal chemistry: Mg_2_Al_4_Si_5_O_18_
Locality: Madagascar
Source: William W. Pinch
Description: Blue cut gemstone
Raman shift (cm-1)	intensity
108.444	0
111.819	1.79233
115.193	6.41886
118.568	27.3923
121.943	61.9761
125.318	53.0195
128.693	79.0302
132.067	27.4133
135.442	5.38904
138.817	0.641342
142.192	0.132374
145.567	0.059891
148.941	3.03542
152.316	11.4802
155.691	29.3062
159.066	36.1155
162.441	12.3756
165.816	3.35415
169.19	0.266659
172.565	0.848665
175.94	0.854034
179.315	0.244843
182.69	0.259846
186.065	1.02029
189.439	1.17061
192.814	1.30625
196.189	1.64899
199.564	1.99784
202.939	3.56031
206.313	6.32368
209.688	6.6472
213.063	1.779
216.438	0.291262
219.813	0.857901
223.188	1.44302
226.562	2.24113
229.937	4.61312
233.312	14.608
236.687	45.0648
240.061	73.382
243.436	37.6795
246.811	23.9889
250.186	26.1605
253.561	46.2325
256.936	116.412
260.31	203.379
263.685	72.344
267.06	21.3535
270.435	8.48791
273.81	4.1273
277.185	2.0985
280.559	1.79673
283.934	1.67294
287.309	2.38742
290.684	5.26876
294.059	9.03013
297.433	8.71869
300.808	9.21291
304.183	10.8947
307.558	10.4813
310.933	2.00739
314.308	1.54902
317.682	0.067368
321.057	1.30669
324.432	9.10226
327.807	8.77168
331.182	2.41025
334.556	1.50774
337.931	0.46393
341.306	0.15461
344.681	1.62309
348.056	3.7212
351.43	8.40806
354.805	11.8831
358.18	16.1266
361.555	25.7514
364.93	53.6514
368.305	56.583
371.679	24.4386
375.054	11.548
378.429	6.77864
381.804	4.08371
385.179	2.15274
388.553	1.07361
391.928	0.003892
395.303	0.983642
398.678	0.897327
402.053	0.658611
405.427	0.359938
408.802	0.359576
412.177	0.65796
415.552	0.963883
418.927	1.59405
422.301	2.63742
425.676	8.42001
429.051	12.5345
432.426	6.49184
435.801	3.17845
439.176	1.58906
442.55	1.80091
445.925	1.5654
449.3	1.11855
452.675	2.6147
456.05	4.06264
459.425	2.08536
462.799	3.16377
466.174	5.09486
469.549	6.30079
472.924	7.30206
476.299	9.39591
479.673	9.99458
483.048	8.71128
486.423	11.5125
489.798	12.5095
493.173	8.16705
496.547	3.10792
499.922	1.08961
503.297	0.603353
506.672	0.17836
510.047	0.321131
513.422	0.54264
516.796	0.236769
520.171	0.218276
523.546	1.73473
526.921	1.99061
530.296	2.76819
533.67	4.67182
537.045	7.50078
540.42	11.5343
543.795	19.4717
547.17	33.445
550.544	62.6105
553.919	98.5249
557.294	93.331
560.669	70.6021
564.044	62.1851
567.418	60.9804
570.793	76.763
574.168	113.553
577.543	143.469
580.918	114.057
584.293	65.7574
587.667	36.689
591.042	21.6947
594.417	13.7896
597.792	8.50777
601.167	5.82954
604.542	4.4856
607.916	2.46914
611.291	2.86354
614.666	2.68261
618.041	4.08827
621.416	4.91099
624.79	6.96034
628.165	4.62914
631.54	2.40027
634.915	0.237847
638.29	0.054933
641.664	0.837457
645.039	0.659939
648.414	0.094931
651.789	1.94285
655.164	2.3112
658.538	5.60121
661.913	11.2356
665.288	22.7534
668.663	42.2847
672.038	46.0222
675.413	27.009
678.787	12.7434
682.162	6.42006
685.537	3.79855
688.912	2.82192
692.287	0.614158
695.662	1.14786
699.036	0.376669
702.411	1.04803
705.786	2.45973
709.161	5.11282
712.535	6.09686
715.91	4.4901
719.285	3.21768
722.66	2.26605
726.035	1.9973
729.41	1.52811
732.784	1.81602
736.159	3.46309
739.534	3.44209
742.909	2.1357
746.284	1.31051
749.659	0.23816
753.033	1.14512
756.408	0.334261
759.783	0.419186
763.158	0.259371
766.533	0.308868
769.907	0.43046
773.282	0.246128
776.657	0.258698
780.032	0.502333
783.407	0.797677
786.782	0.428127
790.156	1.23928
793.531	0.92361
796.906	0.458912
800.281	0.762417
803.655	0.706985
807.03	1.28963
810.405	0.075505
813.78	0.851027
817.155	0.016137
820.53	0.747021
823.904	0.776422
827.279	0.743738
830.654	0.721102
834.029	0.154952
837.404	0.764351
840.779	0.107656
844.153	0.776178
847.528	1.00219
850.903	0.106826
854.278	0.323998
857.653	0.217939
861.027	0.994302
864.402	1.21944
867.777	0.913961
871.152	1.30466
874.527	0.611913
877.901	0.278694
881.276	0.037181
884.651	0.1474
888.026	0.846374
891.401	1.66802
894.775	2.7911
898.15	5.60251
901.525	7.10419
904.9	2.97951
908.275	1.93714
911.65	2.80286
915.024	4.65903
918.399	8.81143
921.774	7.33891
925.149	3.43785
928.524	1.5278
931.899	0.017816
935.273	0.319813
938.648	0.50488
942.023	0.845765
945.398	4.29209
948.773	7.66952
952.147	10.428
955.522	8.26694
958.897	8.57399
962.272	13.7504
965.647	25.8057
969.021	55.2505
972.396	98.8179
975.771	55.5182
979.146	20.4995
982.521	9.36723
985.895	4.52316
989.27	1.73998
992.645	1.18898
996.02	1.20808
999.395	1.12368
1002.77	1.7552
1006.14	6.22101
1009.52	10.9235
1012.89	11.048
1016.27	6.56803
1019.64	4.30967
1023.02	1.88502
1026.39	0.871084
1029.77	0.10278
1033.14	0.895274
1036.52	0.443542
1039.89	0.035686
1043.27	0.005863
1046.64	0.655066
1050.02	0.179112
1053.39	0.212936
1056.77	0.105268
1060.14	0.520143
1063.52	0.635386
1066.89	0.44404
1070.27	0.607126
1073.64	0.449433
1077.02	0.353121
1080.39	0.892928
1083.77	0.143526
1087.14	0.435996
1090.52	0.737159
1093.89	1.19783
1097.26	1.52617
1100.64	2.05373
1104.01	2.1902
1107.39	5.09987
1110.76	5.29677
1114.14	4.05406
1117.51	1.82337
1120.89	1.80285
1124.26	0.539182
1127.64	0.189009
1131.01	0.436351
1134.39	0.424799
1137.76	0.648052
1141.14	0.482757
1144.51	1.86507
1147.89	2.00473
1151.26	1.61001
1154.64	3.89398
1158.01	3.57433
1161.39	4.80227
1164.76	5.27491
1168.13	7.31207
1171.51	12.8554
1174.88	20.2529
1178.26	33.7676
1181.63	53.3147
1185.01	55.9918
1188.38	34.6536
1191.76	18.2404
1195.13	10.4017
1198.51	6.5811
1201.88	3.68787
1205.26	2.27129
1208.63	1.47837
1212.01	1.42349
1215.38	1.29085
1218.76	0.603829
1222.13	0.467263
1225.51	0.24203
1228.88	0.482065
1232.26	0.043566
1235.63	0.061073
1239.01	0.609263
1242.38	0.927503
1245.76	0.565489
1249.13	0.953488
1252.51	0.711059
1255.88	1.571
1259.26	1.06568
1262.63	2.15706
1266.01	2.67823
1269.38	4.68095
1272.76	3.32497
1276.13	1.3009
1279.5	0.508283
1282.88	0.095342
