Measurement: Raman, 532 nm, unoriented, Raman Data Processed
Mineral: Cordierite
Rruff sample: R100141
Ideal chemistry: Mg_2_Al_4_Si_5_O_18_
Locality: Madagascar
Source: William W. Pinch
Description: Blue cut gemstone
Raman shift (cm-1)	intensity
167.21	0
170.102	3.76688
172.995	6.76511
175.888	5.65985
178.78	0.961868
181.673	0.137878
184.566	1.1227
187.459	3.31946
190.351	3.63774
193.244	7.06476
196.137	3.63326
199.029	3.25403
201.922	3.16589
204.815	2.94012
207.708	4.73668
210.6	3.43499
213.493	0.032425
216.386	2.09349
219.278	1.3839
222.171	1.16797
225.064	4.44179
227.956	9.34602
230.849	16.2332
233.742	28.4487
236.635	56.2478
239.527	90.8526
242.42	74.8428
245.313	46.9323
248.205	40.9291
251.098	47.7317
253.991	65.105
256.884	104.736
259.776	157.683
262.669	121.658
265.562	39.0029
268.454	11.8288
271.347	7.21288
274.24	3.90752
277.132	7.39805
280.025	12.0732
282.918	18.0342
285.81	29.4264
288.703	48.693
291.596	79.026
294.489	106.011
297.381	89.0348
300.274	53.4771
303.167	32.2703
306.059	22.0955
308.952	13.4498
311.845	7.08269
314.738	5.04689
317.63	3.23098
320.523	5.29899
323.416	9.94412
326.308	18.497
329.201	8.49667
332.094	2.43771
334.986	0.912834
337.879	0.254753
340.772	0.291817
343.665	0.671761
346.557	4.45627
349.45	10.5892
352.343	16.4153
355.235	20.0287
358.128	20.149
361.021	25.9083
363.913	33.7388
366.806	48.3597
369.699	36.8144
372.592	15.9005
375.484	6.81665
378.377	3.91935
381.27	1.81061
384.162	0.069771
387.055	0.979172
389.948	1.51575
392.841	1.11432
395.733	0.326012
398.626	0.891586
401.519	0.469597
404.411	1.37878
407.304	2.61268
410.197	2.35899
413.089	6.6489
415.982	11.1651
418.875	18.7341
421.767	31.3177
424.66	50.8514
427.553	72.5785
430.446	68.6028
433.338	37.7191
436.231	17.8637
439.124	11.1144
442.017	8.79478
444.909	7.77555
447.802	5.86209
450.695	6.56978
453.587	7.94338
456.48	9.02126
459.373	6.55949
462.265	4.59657
465.158	4.33393
468.051	6.59624
470.943	8.05308
473.836	7.87349
476.729	8.92615
479.622	10.6544
482.514	11.4015
485.407	9.71269
488.3	12.6991
491.192	10.2878
494.085	7.6183
496.978	4.08148
499.87	0.558235
502.763	0.158806
505.656	1.60604
508.549	1.98711
511.441	0.100685
514.334	0.477585
517.227	0.51931
520.119	1.99772
523.012	3.12058
525.905	6.38035
528.798	7.14662
531.69	11.7539
534.583	18.6315
537.476	30.2827
540.368	47.0513
543.261	69.6676
546.154	97.6293
549.047	147.382
551.939	217.973
554.832	266.815
557.725	237.483
560.617	180.65
563.51	153.296
566.403	134.341
569.295	127.311
572.188	139.57
575.081	160.376
577.973	175.244
580.866	144.119
583.759	93.5803
586.652	58.3772
589.544	36.8354
592.437	24.737
595.33	17.5808
598.222	12.7685
601.115	6.1583
604.008	6.70289
606.901	3.99281
609.793	2.49672
612.686	3.97974
615.579	5.3146
618.471	5.68398
621.364	5.92485
624.257	8.72148
627.149	7.32572
630.042	5.49815
632.935	1.69174
635.828	0.769646
638.72	1.74908
641.613	1.78525
644.506	0.734177
647.398	0.263382
650.291	4.452
653.184	5.58997
656.077	11.1164
658.969	19.0753
661.862	32.0557
664.755	48.8471
667.647	74.8417
670.54	93.2941
673.433	79.502
676.325	49.5304
679.218	26.0608
682.111	13.3704
685.004	8.69512
687.896	6.82909
690.789	5.11175
693.682	5.36565
696.574	2.4071
699.467	3.8839
702.36	7.07289
705.253	10.7701
708.145	15.6685
711.038	19.0542
713.931	21.0193
716.823	17.7543
719.716	17.3015
722.609	18.327
725.501	20.3956
728.394	13.5102
731.287	7.8667
734.179	6.67268
737.072	5.90394
739.965	6.01984
742.858	4.30357
745.75	1.79246
748.643	1.9075
751.536	1.80138
754.428	0.698128
757.321	0.619659
760.214	0.150192
763.107	0.439186
765.999	0.432312
768.892	0.826118
771.785	0.473427
774.677	0.316208
777.57	0.054176
780.463	0.565826
783.356	2.26833
786.248	0.11792
789.141	0.832321
792.034	0.095703
794.926	1.28931
797.819	1.22972
800.712	0.834541
803.604	1.45546
806.497	0.293625
809.39	1.11955
812.283	2.62228
815.175	2.68397
818.068	1.09936
820.961	0.993004
823.853	2.28322
826.746	0.517288
829.639	1.82966
832.531	1.02146
835.424	1.16386
838.317	0.427567
841.21	0.048187
844.102	0.384918
846.995	0.103226
849.888	0.52729
852.78	0.754372
855.673	0.151375
858.566	0.261963
861.458	0.385101
864.351	0.895401
867.244	1.60812
870.136	1.37279
873.029	0.673828
875.922	0.253609
878.815	1.77254
881.707	1.30605
884.6	1.40907
887.493	0.750061
890.385	2.35207
893.278	4.2401
896.171	6.57557
899.064	9.71943
901.956	8.24757
904.849	4.5711
907.742	3.52972
910.634	4.37547
913.527	4.36315
916.42	7.58107
919.312	13.076
922.205	7.72166
925.098	3.18938
927.991	1.75192
930.883	0.12339
933.776	1.86702
936.669	1.98222
939.562	3.14603
942.454	4.89828
945.347	9.60773
948.24	18.8085
951.132	22.896
954.025	22.6253
956.918	16.0565
959.81	21.2927
962.703	34.9754
965.596	55.1496
968.489	89.4073
971.381	135.442
974.274	128.889
977.167	63.2413
980.059	29.7977
982.952	15.2715
985.845	6.21652
988.737	2.12451
991.63	2.33462
994.523	2.25264
997.415	3.32149
1000.31	4.47895
1003.2	6.60703
1006.09	10.5847
1008.99	12.6138
1011.88	17.9225
1014.77	15.3528
1017.66	10.1692
1020.56	7.76747
1023.45	3.92365
1026.34	3.6486
1029.23	1.23534
1032.13	0.082733
1035.02	2.21694
1037.91	0.15377
1040.81	1.71522
1043.7	0.343956
1046.59	0.232857
1049.48	0.183289
1052.38	1.40335
1055.27	0.067047
1058.16	1.06099
1061.06	1.05477
1063.95	0.746597
1066.84	0.567261
1069.73	1.67374
1072.63	0.870583
1075.52	1.26089
1078.41	1.30627
1081.3	0.922676
1084.2	1.50332
1087.09	1.00568
1089.98	1.52163
1092.88	2.5335
1095.77	3.10894
1098.66	5.33272
1101.55	8.83719
1104.45	12.6035
1107.34	18.3884
1110.23	18.4902
1113.12	14.5395
1116.02	8.32355
1118.91	4.83199
1121.8	1.45395
1124.69	1.56002
1127.59	1.97038
1130.48	0.313538
1133.37	1.83163
1136.27	1.62738
1139.16	0.97419
1142.05	0.320244
1144.94	2.11047
1147.84	1.43565
1150.73	4.16704
1153.62	4.16568
1156.51	5.38985
1159.41	7.62971
1162.3	9.36546
1165.19	9.29069
1168.09	12.6097
1170.98	18.1198
1173.87	30.1171
1176.76	46.3243
1179.66	62.3997
1182.55	77.7066
1185.44	75.771
1188.33	52.0128
1191.23	30.6081
1194.12	19.2287
1197.01	11.4864
1199.9	7.93562
1202.8	5.4649
1205.69	2.13374
1208.58	1.92172
1211.48	2.76946
1214.37	1.31341
1217.26	1.38904
1220.15	0.989014
1223.05	0.158752
1225.94	0.175301
1228.83	0.983032
1231.72	0.409729
1234.62	1.06788
1237.51	1.07819
1240.4	0.255249
1243.3	1.27388
1246.19	0.809464
1249.08	0.261108
1251.97	1.83011
1254.87	1.75
1257.76	0.815186
1260.65	3.55145
1263.54	5.22183
1266.44	5.55211
1269.33	6.95288
1272.22	5.86993
1275.12	5.00301
1278.01	1.9088
1280.9	3.96257
1283.79	1.24087
1286.69	3.04308
1289.58	0.115189
1292.47	1.80934
1295.36	2.78241
1298.26	1.99617
1301.15	0.029343
