Measurement: Raman, 514 nm, unoriented, Raman Data Processed
Mineral: Cordierite
Rruff sample: R040082
Ideal chemistry: Mg_2_Al_4_Si_5_O_18_
Locality: Madagascar
Source: University of Arizona Mineral Museum
Description: Dark gray coarsely crystalline massive
Measured chemistry: (Mg_1.60_Fe^2+^_0.39_Mn_0.01_)_Σ=2_Al_4.00_(Si_4.95_Al_0.05_)_Σ=5_O_18_·1.05H_2_O·Na_0.05_ ; H_2_O estimated by difference and verified by Raman spectroscopy
Raman shift (cm-1)	intensity
133.696	0
137.857	366.655
142.016	309.141
146.172	411.131
150.327	588.296
154.48	1309.41
158.63	2212.3
162.779	1330.17
166.926	337.9
171.07	82.975
175.213	120.853
179.354	85.835
183.493	158.239
187.63	315.65
191.765	323.312
195.898	280.079
200.029	180.244
204.158	315.307
208.285	273.367
212.41	156.424
216.533	5.76
220.654	21.289
224.773	132.396
228.891	248.039
233.006	833.125
237.119	1542.2
241.231	1940.07
245.34	1635.34
249.448	1503.42
253.553	2710.45
257.657	4165.95
261.758	4636.59
265.858	2359.72
269.956	1160.92
274.052	887.43
278.146	992.215
282.237	1617.4
286.327	2674.3
290.416	5064.91
294.502	7420.08
298.586	6517.31
302.668	4165.75
306.749	2350.33
310.827	1362.9
314.903	731.217
318.978	739.805
323.051	1149.98
327.121	1145.79
331.19	696.271
335.257	253.307
339.322	257.557
343.385	205.191
347.446	153.281
351.505	382.975
355.563	213.865
359.618	348.105
363.672	616.018
367.723	920.295
371.773	408.271
375.821	5.355
379.866	166.918
383.91	1.963
387.952	5.371
391.992	72.324
396.031	33.916
400.067	113.002
404.101	44.586
408.134	87.637
412.165	290.973
416.193	670.391
420.22	1501.47
424.245	3541.8
428.268	5641.32
432.289	3252.11
436.309	1477.38
440.326	544.363
444.342	355.611
448.355	301.625
452.367	369.58
456.377	374.496
460.385	384.379
464.391	374.201
468.395	465.824
472.398	476.254
476.398	79.547
480.397	587.76
484.394	466.859
488.389	628.781
492.382	579.65
496.373	292.293
500.362	169.738
504.349	91.135
508.335	94.305
512.319	200.783
516.3	317.355
520.28	395.043
524.259	218.098
528.235	488.4
532.209	696.518
536.182	1230.77
540.152	1793.58
544.121	3695.91
548.088	7320.28
552.053	14207.5
556.017	18037.4
559.978	13639
563.938	9221.79
567.895	7114.34
571.851	7233.7
575.805	8583.25
579.758	8379.06
583.708	5574.8
587.657	3235.47
591.603	2291.08
595.548	1416.64
599.491	1170.85
603.432	779.781
607.372	640.758
611.309	550.057
615.245	809.75
619.179	1103.75
623.111	817.604
627.041	950.355
630.97	200.537
634.896	259.568
638.821	430.318
642.744	462.609
646.665	417.492
650.584	407.104
654.502	908.982
658.418	1046.97
662.331	2244.82
666.244	4326.74
670.154	6437.73
674.062	5420.03
677.969	2839.03
681.874	1373.36
685.777	973.586
689.678	519.162
693.577	690.803
697.475	314.348
701.371	641.176
705.265	528.684
709.157	1628.69
713.047	1831.02
716.936	1990.31
720.823	1934.15
724.708	2139.88
728.591	1754.33
732.472	1187.19
736.352	885.881
740.23	852.268
744.106	709.303
747.98	760.098
751.853	442.65
755.723	568.951
759.592	622.002
763.459	128.789
767.325	34.689
771.188	336.455
775.05	436.225
778.91	326.562
782.768	243.627
786.625	43.354
790.479	144.688
794.332	515.564
798.183	137.104
802.033	163.309
805.88	268.922
809.726	75.643
813.57	146.814
817.413	241.375
821.253	2.314
825.092	157.574
828.929	94.531
832.764	43.893
836.598	99.729
840.429	101.949
844.259	142.027
848.088	156.199
851.914	208.338
855.739	102.002
859.562	187.553
863.383	129.227
867.203	13.785
871.02	458.965
874.836	250.846
878.65	227.434
882.463	454.738
886.274	408.779
890.083	603.559
893.89	830.08
897.695	915.348
901.499	1147.66
905.301	1174.42
909.102	1228.93
912.9	934.074
916.697	1142.23
920.492	1454.5
924.285	989.133
928.077	774.719
931.867	787.875
935.655	797.164
939.442	1262.38
943.226	1047.6
947.009	1449.31
950.791	2051.6
954.57	2326.47
958.348	1985.69
962.124	2604.12
965.899	3905.07
969.671	7031.14
973.442	9012.07
977.211	5432.4
980.979	2852.25
984.745	1801.86
988.509	1302.06
992.271	776.617
996.032	1056.91
999.791	976.254
1003.55	553.598
1007.3	1159.41
1011.06	1950.94
1014.81	1837.42
1018.56	1367.74
1022.31	864.719
1026.06	833.734
1029.8	596.117
1033.55	392.223
1037.29	319.094
1041.03	564.07
1044.77	526.883
1048.5	203.602
1052.24	337.098
1055.97	318.441
1059.7	447.238
1063.43	256.07
1067.16	335.453
1070.89	356.641
1074.61	343.445
1078.34	350.527
1082.06	307.152
1085.78	294.82
1089.5	320.539
1093.21	331.383
1096.93	444.176
1100.64	629.898
1104.35	1081.48
1108.06	1246.67
1111.77	1569.95
1115.48	1083.84
1119.18	565.617
1122.89	411.129
1126.59	431.988
1130.29	194.242
1133.99	123.77
1137.68	544.824
1141.38	77.859
1145.07	238.566
1148.76	346.66
1152.45	207.059
1156.14	578.645
1159.83	613.535
1163.51	499.348
1167.19	933.805
1170.88	1058.79
1174.56	1401.54
1178.23	2559.77
1181.91	3762.72
1185.59	4580.85
1189.26	3160.09
1192.93	2260.32
1196.6	1372.17
1200.27	748.52
1203.94	1181.43
1207.6	850.23
1211.27	346.297
1214.93	448.031
1218.59	346.551
1222.25	421.492
1225.9	436.746
1229.56	547.57
1233.21	405.547
1236.86	312.855
1240.51	82.559
1244.16	221.164
1247.81	340.289
1251.45	465.73
1255.1	363.422
1258.74	34.418
1262.38	43.195
1266.02	309.113
1269.66	285.164
1273.29	330.184
1276.93	419.832
1280.56	285.734
1284.19	173.781
1287.82	67.793
1291.45	217.688
1295.07	66.039
1298.7	204.715
1302.32	121.73
1305.94	265.941
1309.56	389.387
1313.18	170.516
1316.8	247.969
1320.41	39.953
1324.02	266.227
1327.63	593.16
1331.24	8.383
1334.85	345.578
1338.46	27.418
1342.06	248.676
1345.67	335.473
1349.27	396.41
1352.87	535.684
1356.47	553.535
1360.07	618.648
1363.66	444.359
1367.25	358.262
1370.85	702.844
1374.44	695.094
1378.03	556.938
1381.61	835.918
1385.2	1182.19
1388.78	330.836
1392.37	554.77
1395.95	687.047
1399.53	489.793
1403.1	556.316
1406.68	546.773
1410.26	589.203
1413.83	558.973
1417.4	349.855
1420.97	578.012
1424.54	175.402
1428.1	402.625
1431.67	374.27
1435.23	522.289
1438.8	723.215
1442.36	582.117
1445.91	809.855
1449.47	479.824
1453.03	1016.82
1456.58	993.832
1460.13	835.699
1463.68	431.73
1467.23	285.543
1470.78	395.906
1474.33	704.219
1477.87	191.164
1481.42	251.891
1484.96	168.891
1488.5	108.164
1492.04	451.129
1495.57	462.023
1499.11	102.34
