Measurement: Raman, 514 nm, unoriented, Raman Data Processed
Mineral: Cordierite
Rruff sample: R040081
Ideal chemistry: Mg_2_Al_4_Si_5_O_18_
Locality: Laramie Range, Wyoming, USA
Source: University of Arizona Mineral Museum
Description: Blue to purple coarsely crystalline
Measured chemistry: (Mg_1.80_Fe^2+^_0.20_)_Σ=2_Al_4.00_(Si_4.96_Al_0.04_)_Σ=5_O_18_·0.86H_2_O·Na_0.04_ ; H_2_O estimated by difference and verified by Raman spectroscopy
Raman shift (cm-1)	intensity
137.857	0
142.016	70.536
146.172	421.654
150.327	1412.82
154.48	3230.36
158.63	4570.32
162.779	2121.69
166.926	572.058
171.07	171.875
175.213	143.423
179.354	238.69
183.493	555.076
187.63	869.704
191.765	1193.07
195.898	1130.87
200.029	481.17
204.158	522.922
208.285	560.24
212.41	219.538
216.533	8.325
220.654	42.149
224.773	102.816
228.891	97.083
233.006	921.711
237.119	3014.97
241.231	4305.16
245.34	2728.51
249.448	2997.34
253.553	6703.62
257.657	13927.8
261.758	12809.4
265.858	4961.23
269.956	2398.22
274.052	1938.62
278.146	2704.56
282.237	3796.04
286.327	4316.46
290.416	8177.7
294.502	13476.7
298.586	11429.6
302.668	7474.22
306.749	5391.41
310.827	2830.6
314.903	1189.87
318.978	872.883
323.051	1408.48
327.121	2630.4
331.19	3466.66
335.257	1122.42
339.322	578.355
343.385	388.841
347.446	409.727
351.505	604.153
355.563	759.758
359.618	913.229
363.672	968.596
367.723	1096.82
371.773	511.783
375.821	233.468
379.866	208.396
383.91	132.599
387.952	33.472
391.992	135.13
396.031	133.229
400.067	250.955
404.101	57.397
408.134	164.373
412.165	120.21
416.193	331.629
420.22	971.927
424.245	3017.03
428.268	5849.5
432.289	3606.82
436.309	1661.98
440.326	1127.79
444.342	780.636
448.355	935.536
452.367	1351.49
456.377	1774.51
460.385	867.585
464.391	483.709
468.395	628.774
472.398	717.742
476.398	483.611
480.397	674.383
484.394	796.076
488.389	1028.71
492.382	824.355
496.373	371.1
500.362	139.929
504.349	93.74
508.335	45.023
512.319	170.447
516.3	275.098
520.28	340.924
524.259	596.018
528.235	968.904
532.209	1517.8
536.182	2336.4
540.152	3801.89
544.121	7318.98
548.088	14950.5
552.053	30831.3
556.017	38387.8
559.978	26547.6
563.938	16993.1
567.895	13106.4
571.851	14263.6
575.805	18771.8
579.758	18189.4
583.708	11045.1
587.657	5932.92
591.603	3855.86
595.548	2420.95
599.491	1757.17
603.432	1389.54
607.372	1294.06
611.309	1335.71
615.245	1447.51
619.179	1996.44
623.111	2099.51
627.041	2069.71
630.97	1133.16
634.896	748.632
638.821	590.234
642.744	702.287
646.665	966.64
650.584	916.651
654.502	1658.62
658.418	2233.3
662.331	4579.11
666.244	9558.84
670.154	15905
674.062	13450.4
677.969	6805.29
681.874	3482.85
685.777	2212.59
689.678	1652.51
693.577	1325.19
697.475	1246.21
701.371	1620.46
705.265	2413.7
709.157	3523.29
713.047	4181.51
716.936	4112.15
720.823	3309.93
724.708	3653.08
728.591	2785.39
732.472	1967.69
736.352	1735.94
740.23	1796.16
744.106	1790.32
747.98	2442.44
751.853	2907.5
755.723	2535.5
759.592	1598.44
763.459	671.324
767.325	435.135
771.188	402.874
775.05	368.538
778.91	219.126
782.768	247.632
786.625	285.054
790.479	165.389
794.332	311.635
798.183	43.742
802.033	78.285
805.88	70.343
809.726	4.554
813.57	42.638
817.413	97.434
821.253	42.887
825.092	87.062
828.929	11.434
832.764	28.421
836.598	430.874
840.429	100.178
844.259	103.672
848.088	75.588
851.914	124.107
855.739	57.464
859.562	14.631
863.383	41.469
867.203	20.094
871.02	267.592
874.836	246.975
878.65	300.236
882.463	603.379
886.274	522.4
890.083	1081.31
893.89	1612.1
897.695	2433.78
901.499	2958.34
905.301	2095.8
909.102	1382.16
912.9	1138.8
916.697	1097.58
920.492	1057.66
924.285	873.654
928.077	828.562
931.867	855.418
935.655	939.215
939.442	1149.85
943.226	1413.6
947.009	1689.42
950.791	2343.75
954.57	2378.51
958.348	2393.91
962.124	3395.27
965.899	6014.89
969.671	12628.9
973.442	19340
977.211	12208.8
980.979	5934.92
984.745	3443.55
988.509	2239.9
992.271	2002.32
996.032	2280.34
999.791	2907.46
1003.55	3428.9
1007.3	6623
1011.06	11515.9
1014.81	8730.11
1018.56	4858.44
1022.31	2818.34
1026.06	1737.41
1029.8	1070.58
1033.55	778.85
1037.29	845.285
1041.03	753.895
1044.77	712.582
1048.5	629.338
1052.24	628.174
1055.97	658.07
1059.7	645.473
1063.43	566.393
1067.16	534.506
1070.89	551.924
1074.61	507.193
1078.34	391.756
1082.06	370.508
1085.78	347.66
1089.5	355.166
1093.21	406.941
1096.93	669.51
1100.64	607.803
1104.35	1281.82
1108.06	1789.49
1111.77	2144.09
1115.48	1465.51
1119.18	705.738
1122.89	908.758
1126.59	509.279
1130.29	110.418
1133.99	140.32
1137.68	106.633
1141.38	45.363
1145.07	39.516
1148.76	127.902
1152.45	110.416
1156.14	304.723
1159.83	365.826
1163.51	412.168
1167.19	769.205
1170.88	599.002
1174.56	895.869
1178.23	1547.05
1181.91	2589.11
1185.59	3074.12
1189.26	2315.72
1192.93	1410.91
1196.6	836.045
1200.27	405.01
1203.94	460.637
1207.6	194.246
1211.27	432.539
1214.93	16.1
1218.59	27.783
1222.25	24.324
1225.9	300.156
1229.56	49.277
1233.21	28.986
1236.86	96.795
1240.51	91.801
1244.16	44.924
1247.81	154.242
1251.45	88.287
1255.1	5.051
1258.74	125.977
1262.38	217.973
1266.02	133.922
1269.66	288.16
1273.29	273.555
1276.93	28.203
1280.56	150.182
1284.19	38.361
1287.82	78.531
1291.45	126.09
1295.07	11.75
1298.7	14.869
1302.32	118.027
1305.94	69.488
1309.56	229.52
1313.18	126.135
1316.8	184.291
1320.41	3.064
1324.02	54.115
1327.63	44.697
1331.24	2.945
1334.85	77.84
1338.46	60.268
1342.06	129.34
1345.67	48.09
1349.27	178.531
1352.87	277.287
1356.47	307.531
1360.07	319.59
1363.66	217.953
1367.25	282.395
1370.85	432.215
1374.44	300.994
1378.03	524.381
1381.61	2258.26
1385.2	4477.67
1388.78	681.17
1392.37	500.773
1395.95	462.42
1399.53	469.238
1403.1	399.514
1406.68	265.322
1410.26	273.18
1413.83	274.307
1417.4	357.666
1420.97	378.84
1424.54	204.359
1428.1	297.648
1431.67	162.102
1435.23	131.871
1438.8	526.213
1442.36	364.838
1445.91	359.162
1449.47	390.25
1453.03	511.693
1456.58	511.826
1460.13	495.246
1463.68	378.104
1467.23	136.541
1470.78	336.783
1474.33	231.027
1477.87	294.764
1481.42	138.152
1484.96	354.521
1488.5	95.539
1492.04	170.887
1495.57	277.637
1499.11	83.779
1502.64	160.996
1506.17	246.043
1509.71	50.137
