Measurement: Raman, 780 nm, unoriented, Raman Data Processed
Mineral: Cordierite
Rruff sample: R100150
Ideal chemistry: Mg_2_Al_4_Si_5_O_18_
Locality: India
Source: William W. Pinch
Description: Royal blue cut gemstone
Raman shift (cm-1)	intensity
107.962	0
111.337	4.10217
114.711	37.8449
118.086	150.935
121.461	228.971
124.836	88.3433
128.21	43.7752
131.585	10.0543
134.96	1.68947
138.335	1.52907
141.71	1.30634
145.085	4.25842
148.459	7.26153
151.834	19.4233
155.209	42.2269
158.584	42.7314
161.959	19.5314
165.333	4.15054
168.708	3.84427
172.083	1.44419
175.458	1.19714
178.833	3.2034
182.208	3.05529
185.582	5.50109
188.957	5.58057
192.332	5.43182
195.707	3.15291
199.082	1.56738
202.457	3.94014
205.831	11.2497
209.206	5.47013
212.581	0.840103
215.956	0.431519
219.331	1.18023
222.705	2.56671
226.08	3.23077
229.455	6.71745
232.83	16.9916
236.205	43.159
239.579	59.8154
242.954	39.6901
246.329	32.5514
249.704	38.9957
253.079	73.4444
256.454	141.591
259.828	172.81
263.203	63.4146
266.578	16.9639
269.953	5.94939
273.328	3.37577
276.702	9.05788
280.077	20.1708
283.452	22.2262
286.827	38.2809
290.202	75.0654
293.576	116.625
296.951	92.6032
300.326	54.1537
303.701	37.4837
307.076	23.063
310.45	5.58613
313.825	0.01144
317.2	0.294891
320.575	0.440052
323.95	6.13722
327.325	18.3948
330.699	18.6738
334.074	5.74064
337.449	0.47374
340.824	1.28955
344.199	2.70906
347.574	8.95916
350.948	13.2864
354.323	12.2664
357.698	11.1148
361.073	12.0376
364.447	21.1655
367.822	20.1003
371.197	8.97196
374.572	4.41393
377.947	3.41131
381.322	2.01648
384.696	1.74054
388.071	0.749901
391.446	0.610756
394.821	0.332279
398.196	0.687714
401.57	0.979343
404.945	0.186295
408.32	1.2477
411.695	3.03192
415.07	8.64075
418.445	15.0291
421.819	28.3602
425.194	55.8469
428.569	66.766
431.944	35.1044
435.319	17.9403
438.693	11.6652
442.068	7.51809
445.443	8.80153
448.818	10.255
452.193	16.649
455.567	23.0242
458.942	14.3052
462.317	10.8822
465.692	13.3988
469.067	16.8895
472.442	17.4355
475.816	16.2624
479.191	17.3709
482.566	23.1427
485.941	30.9116
489.316	34.905
492.69	21.3256
496.065	8.26569
499.44	3.75845
502.815	1.01312
506.19	1.21492
509.565	0.851963
512.939	0.773079
516.314	0.749226
519.689	0.396976
523.064	2.37897
526.439	3.59507
529.813	8.77473
533.188	14.9915
536.563	27.5213
539.938	45.4363
543.313	70.2398
546.688	117.973
550.062	222.221
553.437	328.522
556.812	287.228
560.187	195.101
563.562	153.145
566.936	117.319
570.311	106.875
573.686	134.376
577.061	156.711
580.436	124.997
583.811	73.4241
587.185	42.1973
590.56	26.4965
593.935	16.9678
597.31	11.8371
600.685	7.1791
604.059	5.92216
607.434	5.94147
610.809	4.57679
614.184	5.37893
617.559	6.50827
620.933	9.77543
624.308	10.0443
627.683	4.15089
631.058	1.37288
634.433	1.73815
637.808	1.02366
641.182	0.064289
644.557	1.57577
647.932	2.32824
651.307	6.32501
654.682	11.1454
658.056	18.4537
661.431	33.9598
664.806	63.6003
668.181	109.128
671.556	111.805
674.931	60.4094
678.305	26.8754
681.68	14.5242
685.055	7.03346
688.43	5.40028
691.805	4.06085
695.179	1.19307
698.554	0.760361
701.929	3.59856
705.304	7.99609
708.679	15.4754
712.053	23.8512
715.428	20.2881
718.803	17.6354
722.178	20.2142
725.553	20.2611
728.928	11.6555
732.302	8.68391
735.677	9.48638
739.052	11.0431
742.427	9.33683
745.802	8.84595
749.176	12.4376
752.551	12.7563
755.926	7.88847
759.301	3.38311
762.676	2.48286
766.051	0.367985
769.425	0.940454
772.8	0.246719
776.175	0.902254
779.55	1.03171
782.925	0.499413
786.299	1.37023
789.674	0.244486
793.049	1.00714
796.424	2.08547
799.799	1.05128
803.173	0.279449
806.548	1.43536
809.923	0.363613
813.298	0.738567
816.673	0.927073
820.048	0.612278
823.422	1.10508
826.797	0.897583
830.172	0.650925
833.547	0.684467
836.922	0.892014
840.296	0.008472
843.671	1.33739
847.046	0.599308
850.421	1.63521
853.796	1.13346
857.17	0.559275
860.545	0.445765
863.92	1.25965
867.295	1.65439
870.67	0.086498
874.044	0.758945
877.419	2.06446
880.794	1.86471
884.169	4.03558
887.544	5.06975
890.919	6.30167
894.293	12.9752
897.668	20.0299
901.043	22.9363
904.418	13.0699
907.793	4.36759
911.168	2.01355
914.542	2.10368
917.917	4.19
921.292	2.74217
924.667	0.173094
928.042	0.292339
931.416	0.566051
934.791	1.15955
938.166	0.68899
941.541	3.91416
944.916	8.51364
948.29	16.6339
951.665	24.2724
955.04	20.6161
958.415	20.8318
961.79	30.3935
965.164	47.6783
968.539	82.0958
971.914	127.971
975.289	77.0902
978.664	32.8681
982.039	16.393
985.413	7.18121
988.788	4.02792
992.163	3.65268
995.538	5.92276
998.913	9.51607
1002.29	9.85332
1005.66	18.85
1009.04	36.9389
1012.41	37.7642
1015.79	23.517
1019.16	13.3532
1022.54	5.35323
1025.91	4.02182
1029.29	1.7466
1032.66	0.586023
1036.04	0.13818
1039.41	0.101557
1042.79	0.375292
1046.16	0.296553
1049.54	0.441763
1052.91	0.938221
1056.29	0.540014
1059.66	0.21171
1063.03	1.09395
1066.41	0.763275
1069.78	0.075155
1073.16	0.798937
1076.53	0.947363
1079.91	0.053228
1083.28	0.821712
1086.66	1.40995
1090.03	1.54228
1093.41	1.97872
1096.78	2.56648
1100.16	5.16086
1103.53	11.8972
1106.91	16.9525
1110.28	21.6923
1113.66	15.072
1117.03	8.42793
1120.41	3.58162
1123.78	2.49655
1127.16	3.25058
1130.53	2.3313
1133.9	0.840769
1137.28	2.82966
1140.65	2.65594
1144.03	0.203634
1147.4	1.33398
1150.78	2.43203
1154.15	3.2351
1157.53	3.2487
1160.9	4.80667
1164.28	4.52621
1167.65	5.29896
1171.03	6.51594
1174.4	11.1863
1177.78	16.7751
1181.15	28.5294
1184.53	39.032
1187.9	29.8325
1191.28	20.27
1194.65	10.8203
1198.03	6.46021
1201.4	3.0553
1204.78	2.61447
1208.15	1.99687
1211.53	2.32391
1214.9	2.50922
1218.28	2.65148
1221.65	0.66423
1225.03	0.748783
1228.4	1.5985
1231.78	1.3015
1235.15	1.55246
1238.53	1.74123
1241.9	0.795984
1245.27	1.43381
1248.65	1.72215
1252.02	0.25421
1255.4	1.61086
1258.77	0.012771
1262.15	1.74691
1265.52	1.8031
1268.9	1.41746
1272.27	0.486324
1275.65	0.251833
1279.02	0.681377
1282.4	1.26474
