Measurement: Raman, 785 nm, unoriented, Raman Data Processed
Mineral: Corkite
Rruff sample: R070491
Ideal chemistry: PbFe^3+^_3_(SO_4_)(PO_4_)(OH)_6_
Locality: Iron Crag, Roughton Gill, Caldbeck Fells, Cumbria (Cumberland), England, United Kingdom
Source: Bob Jenkins
Description: Sharp bright yellow prismatic crystals associated with quartz
Raman shift (cm-1)	intensity
142.13	0
145.023	589.096
147.916	1506.53
150.809	1896.77
153.701	1825.67
156.594	1909.72
159.487	2267.68
162.379	2509.75
165.272	2254.61
168.165	1733.03
171.057	1026.79
173.95	601.97
176.843	223.036
179.736	75.7852
182.628	26.9609
185.521	25.3555
188.414	56.0684
191.306	108.558
194.199	362.451
197.092	700.906
199.984	1111.43
202.877	1460.85
205.77	1856.17
208.662	2341.37
211.555	2665.18
214.448	2926.73
217.341	3143.34
220.233	3340.73
223.126	3183.35
226.019	2992.09
228.911	2658.06
231.804	2229.7
234.697	1888.98
237.589	1671.28
240.482	1221.11
243.375	982.014
246.268	762.202
249.16	520.629
252.053	405.958
254.946	309.085
257.838	200.232
260.731	90.2695
263.624	42.4121
266.517	40.0815
269.409	32.2559
272.302	54.2642
275.195	11.8276
278.087	41.7798
280.98	63.3789
283.873	16.2051
286.765	25.2358
289.658	36.7954
292.551	2.2417
295.443	19.1074
298.336	28.3355
301.229	52.0557
304.122	89.4673
307.014	80.1929
309.907	62.0947
312.8	125.96
315.692	155.417
318.585	265.09
321.478	283.839
324.37	413.364
327.263	554.32
330.156	563.865
333.049	597.223
335.941	730.004
338.834	740.611
341.727	707.487
344.619	771.65
347.512	677.256
350.405	563.59
353.298	503.997
356.19	324.75
359.083	312.018
361.976	186.239
364.868	62.7529
367.761	56.7026
370.654	1.45166
373.546	18.6011
376.439	16.8945
379.332	4.47363
382.224	31.1357
385.117	17.7065
388.01	68.6885
390.903	154.572
393.795	237.439
396.688	332.126
399.581	428.8
402.473	594.184
405.366	745.491
408.259	991.917
411.151	1128.02
414.044	1495.85
416.937	1750.45
419.83	1873.61
422.722	2106.11
425.615	2157.42
428.508	2247.51
431.4	2311.46
434.293	2402.24
437.186	2518.31
440.079	2604.5
442.971	2542.79
445.864	2617.6
448.757	2440.36
451.649	2303.45
454.542	2225.49
457.435	2026.76
460.327	1770.14
463.22	1580.19
466.113	1334.48
469.005	1113.56
471.898	901.646
474.791	726.916
477.684	600.834
480.576	460.032
483.469	319.668
486.362	151.404
489.254	149.95
492.147	118.163
495.04	2.09766
497.933	27.3389
500.825	5.94287
503.718	20.396
506.611	27.7383
509.503	41.7622
512.396	29.5254
515.289	9.80176
518.181	36.0986
521.074	95.9453
523.967	165.761
526.86	261.925
529.752	343.668
532.645	340.669
535.538	447.567
538.43	573.629
541.323	680.398
544.216	802.388
547.108	907.471
550.001	981.501
552.894	1003.12
555.787	987.023
558.679	963
561.572	901.422
564.465	943.723
567.357	901.817
570.25	879.773
573.143	924.143
576.035	811.355
578.928	676.928
581.821	649.198
584.713	543.669
587.606	449.342
590.499	393.9
593.391	368.504
596.284	361.285
599.177	340.384
602.07	296.131
604.962	306.832
607.855	268.357
610.748	273.648
613.64	272.837
616.533	295.094
619.426	349.023
622.318	378.005
625.211	318.457
628.104	259.69
630.997	156.22
633.889	104.159
636.782	66.7876
639.675	40.7153
642.567	1.69287
645.46	47.4307
648.353	54.5215
651.245	36.4678
654.138	21.1724
657.031	8.19922
659.924	3.31543
662.816	17.2002
665.709	1.08106
668.602	26.7568
671.494	44.0933
674.387	25.957
677.28	52.4273
680.173	41.6123
683.065	45.4263
685.958	59.1631
688.851	63.4741
691.743	109.384
694.636	70.9302
697.529	96.6113
700.421	71.5811
703.314	87.1973
706.207	89.751
709.1	79.2769
711.992	70.3445
714.885	33.6633
717.778	71.9702
720.67	70.906
723.563	71.8501
726.456	37.127
729.348	38.562
732.241	76.8801
735.134	27.6023
738.027	27.9888
740.919	89.3313
743.812	34.8286
746.705	58.417
749.597	27.5832
752.49	9.94604
755.383	39.1543
758.275	73.6736
761.168	26.7053
764.061	39.7031
766.954	18.6084
769.846	3.2937
772.739	32.8057
775.632	31.9182
778.524	34.4473
781.417	65.2368
784.31	44.4629
787.202	20.6201
790.095	27.4382
792.988	37.9988
795.881	73.4795
798.773	116.395
801.666	80.8242
804.559	86.0076
807.451	114.826
810.344	119.414
813.237	164.24
816.13	179.951
819.022	195.459
821.915	180.272
824.808	235.16
827.7	224.86
830.593	267.2
833.486	341.735
836.378	286.619
839.271	303.342
842.164	303.816
845.057	365.252
847.949	299.186
850.842	358.688
853.735	309.891
856.627	326.832
859.52	353.391
862.413	330.075
865.305	270.059
868.198	248.909
871.091	190.061
873.984	192.178
876.876	187.511
879.769	160.994
882.662	134.831
885.554	140.241
888.447	116.638
891.34	74.5181
894.232	78.2539
897.125	41.49
900.018	15.9031
902.91	11.4702
905.803	11.0222
908.696	17.2085
911.589	5.15991
914.481	15.0139
917.374	12.4836
920.267	2.47803
923.159	19.9644
926.052	2.33447
928.945	4.27344
931.837	3.07397
934.73	55.5996
937.623	39.3242
940.516	114.918
943.408	119.953
946.301	175.328
949.194	216.3
952.086	237.239
954.979	297.219
957.872	326.697
960.764	343.699
963.657	383.8
966.55	368.051
969.443	390.027
972.335	386.144
975.228	447.646
978.121	415.363
981.013	492.473
983.906	505.186
986.799	539.999
989.692	590.221
992.584	791.312
995.477	982.877
998.37	1268.9
1001.26	1345.07
1004.15	1404.96
1007.05	968.112
1009.94	764.412
1012.83	502.964
1015.73	372.498
1018.62	285.721
1021.51	196.291
1024.4	142.659
1027.3	82.3809
1030.19	70.7212
1033.08	11.9331
1035.97	1.53369
1038.87	0.694824
1041.76	13.2354
1044.65	16.4473
1047.55	19.4529
1050.44	6.85107
1053.33	40.6697
1056.22	90.582
1059.12	163.348
1062.01	225.368
1064.9	238.391
1067.79	313.888
1070.69	308.868
1073.58	365.367
1076.47	302.654
1079.37	317.582
1082.26	307.609
1085.15	271.979
1088.04	201.319
1090.94	224.717
1093.83	233.892
1096.72	158.97
1099.61	194.328
1102.51	178.292
1105.4	172.829
1108.29	164.311
1111.18	154.006
1114.08	239.381
1116.97	168.647
1119.86	179.111
1122.76	147.682
1125.65	135.567
1128.54	105.895
1131.43	110.665
1134.33	153.058
1137.22	104.879
1140.11	75.1873
1143.01	73.7019
1145.9	69.9228
1148.79	37.2134
1151.68	38.5164
1154.58	82.8333
1157.47	4.0647
1160.36	24.356
1163.25	17.3098
1166.15	18.8962
1169.04	5.42871
1171.93	3.94067
1174.82	4.78686
1177.72	6.40015
1180.61	3.29419
1183.5	9.94531
1186.39	52.6296
1189.29	39.6365
1192.18	16.0222
1195.07	47.8415
1197.97	35.0625
1200.86	40.99
1203.75	25.8743
1206.64	10.3706
1209.54	36.7664
1212.43	45.3828
1215.32	66.4954
1218.21	49.6492
1221.11	82.2007
1224	74.654
1226.89	35.2881
1229.79	63.2944
1232.68	73.1352
1235.57	35.0049
1238.46	77.3162
1241.36	48.2749
1244.25	67.7954
1247.14	12.9575
1250.03	61.5569
1252.93	39.2307
1255.82	67.9954
1258.71	14.502
1261.61	9.64331
1264.5	0
