Measurement: Raman, 785 nm, unoriented, Raman Data Processed
Mineral: Corkite
Rruff sample: R050522
Ideal chemistry: PbFe^3+^_3_(SO_4_)(PO_4_)(OH)_6_
Locality: near Dernbach, Nassau, Germany
Source: University of Arizona Mineral Museum
Description: Black pseudo-cubo-octahedral single crystals, associated with reniform goethite balls
Measured chemistry: Pb_1.00_(Fe^3+^_2.80_Fe^2+^_0.15_Al_0.05_)_Σ=3_[(S_0.58_P_0.42_)_Σ=1_O_4_]_2_(OH)_6_
Raman shift (cm-1)	intensity
152.647	0
155.54	18.1768
158.433	2.9353
161.325	106.144
164.218	133.223
167.111	24.731
170.004	4.18433
172.896	19.9067
175.789	102.455
178.682	312.75
181.574	588.34
184.467	956.135
187.36	1447.11
190.252	1964.21
193.145	2583.47
196.038	3157.96
198.93	3708.67
201.823	4025.21
204.716	3895
207.609	3596.03
210.501	3198.61
213.394	2739.38
216.287	2395.09
219.179	2104.91
222.072	1923.18
224.965	1661.5
227.857	1364.43
230.75	1154.96
233.643	850.489
236.536	692.993
239.428	533.547
242.321	407.353
245.214	335.117
248.106	244.531
250.999	204.531
253.892	154.345
256.784	125.23
259.677	89.7844
262.57	52.9515
265.463	67.3269
268.355	40.8554
271.248	58.3704
274.141	17.3612
277.033	36.3966
279.926	10.0584
282.819	1.59778
285.712	0.361572
288.604	23.7008
291.497	20.6321
294.39	3.48022
297.282	26.8737
300.175	39.4471
303.068	89.085
305.96	92.6773
308.853	126.908
311.746	118.118
314.639	155.312
317.531	151.701
320.424	155.44
323.317	166.917
326.209	217.367
329.102	244.06
331.995	312.124
334.887	366.676
337.78	410.473
340.673	489.908
343.565	536.327
346.458	573.072
349.351	592.768
352.244	557.893
355.136	571.402
358.029	501.569
360.922	413.946
363.814	357.905
366.707	275.4
369.6	170.043
372.493	117.131
375.385	83.3136
378.278	37.3887
381.171	6.703
384.063	20.7664
386.956	17.3013
389.849	9.90625
392.741	65.7872
395.634	120.542
398.527	227.985
401.419	336.151
404.312	509.955
407.205	731.057
410.098	973.138
412.99	1298.34
415.883	1630.91
418.776	1942.95
421.668	2086.28
424.561	2153.83
427.454	2214.74
430.346	2357.03
433.239	2454.6
436.132	2476.68
439.024	2415.81
441.917	2159.5
444.81	1973.29
447.703	1754.51
450.595	1584.06
453.488	1354.31
456.381	1089.37
459.273	855.628
462.166	592.883
465.059	419.25
467.952	251.078
470.844	201.05
473.737	95.2601
476.63	60.5922
479.522	0.452515
482.415	8.04504
485.308	12.7467
488.2	23.3893
491.093	1.31689
493.986	13.9607
496.878	13.4825
499.771	23.6705
502.664	4.03809
505.557	22.4303
508.449	36.6102
511.342	70.8284
514.235	138.628
517.127	167.43
520.02	215.543
522.913	278.435
525.806	385.138
528.698	440.751
531.591	578.81
534.484	642.432
537.376	737.045
540.269	774.499
543.162	871.602
546.054	823.667
548.947	815.953
551.84	746.075
554.732	735.371
557.625	743.222
560.518	795.66
563.411	787.043
566.303	767.415
569.196	676.57
572.089	562.746
574.981	459.583
577.874	388.572
580.767	295.154
583.659	250.59
586.552	239
589.445	188.571
592.338	174.475
595.23	176.546
598.123	168.363
601.016	192.872
603.908	249.966
606.801	298.1
609.694	338.753
612.587	457.499
615.479	599.516
618.372	681.132
621.265	709.823
624.157	583.231
627.05	413.214
629.943	267.916
632.835	146.463
635.728	84.5725
638.621	66.2344
641.514	24.3445
644.406	7.64893
647.299	11.246
650.192	1.79565
653.084	7.91931
655.977	2.83008
658.87	12.2686
661.762	13.2255
664.655	2.90643
667.548	6.49695
670.441	0.82428
673.333	4.91284
676.226	3.69958
679.119	28.5053
682.011	44.4747
684.904	41.8426
687.797	22.9362
690.689	29.7694
693.582	44.9442
696.475	51.4182
699.367	40.2969
702.26	36.7618
705.153	28.9047
708.046	31.3398
710.938	37.0822
713.831	31.5472
716.724	27.2007
719.616	36.7667
722.509	34.1512
725.402	23.2701
728.294	19.3189
731.187	2.72296
734.08	28.6551
736.973	1.12189
739.865	2.80792
742.758	9.17401
745.651	31.6775
748.543	18.5087
751.436	25.5026
754.329	25.9655
757.221	2.56989
760.114	4.57428
763.007	0.04187
765.899	18.7056
768.792	8.91791
771.685	35.4747
774.578	8.51721
777.47	6.75067
780.363	7.05603
783.256	7.10675
786.148	18.5248
789.041	11.5487
791.934	12.8808
794.827	9.16211
797.719	21.405
800.612	19.4817
803.505	26.5137
806.397	40.273
809.29	27.2613
812.183	46.423
815.075	34.074
817.968	27.9778
820.861	36.8935
823.754	28.5063
826.646	35.3896
829.539	40.8033
832.432	50.1591
835.324	33.4761
838.217	47.6195
841.11	51.1845
844.002	66.3004
846.895	55.8273
849.788	55.6191
852.681	45.041
855.573	40.8674
858.466	40.595
861.359	36.4176
864.251	35.6107
867.144	39.5734
870.037	56.6907
872.929	19.9928
875.822	44.6434
878.715	15.4797
881.607	21.0152
884.5	27.8596
887.393	19.506
890.286	13.4661
893.178	10.8886
896.071	17.2585
898.964	9.86206
901.856	0.730896
904.749	8.48181
907.642	3.63733
910.534	17.8537
913.427	14.7089
916.32	1.65753
919.213	1.37903
922.105	13.7372
924.998	0.244141
927.891	19.2154
930.783	51.9685
933.676	54.1405
936.569	44.5804
939.462	75.7414
942.354	114.551
945.247	135.352
948.14	187.592
951.032	178.944
953.925	187.807
956.818	227.317
959.71	219.9
962.603	214.508
965.496	195.889
968.389	171.082
971.281	192.855
974.174	190.833
977.067	230.093
979.959	266.131
982.852	400.355
985.745	543.169
988.637	751.673
991.53	1021.52
994.423	1249.88
997.316	1363.23
1000.21	1108.56
1003.1	816.119
1005.99	493.07
1008.89	267.016
1011.78	131.381
1014.67	73.8967
1017.56	45.1099
1020.46	9.10248
1023.35	3.55096
1026.24	32.0824
1029.13	0.625854
1032.03	17.7162
1034.92	15.3127
1037.81	0.386963
1040.71	32.8589
1043.6	13.2061
1046.49	58.1956
1049.38	66.2199
1052.28	85.5446
1055.17	174.728
1058.06	182.381
1060.95	234.898
1063.85	287.062
1066.74	358.552
1069.63	413.297
1072.53	418.512
1075.42	447.241
1078.31	453.762
1081.2	487.052
1084.1	436.995
1086.99	455.818
1089.88	445.244
1092.78	423.272
1095.67	397.69
1098.56	364.602
1101.45	308.856
1104.35	315.5
1107.24	228.701
1110.13	184.671
1113.02	167.951
1115.92	109.382
1118.81	81.1119
1121.7	68.7518
1124.59	68.0459
1127.49	43.6668
1130.38	19.6303
1133.27	25.3385
1136.16	10.2676
1139.06	36.8325
1141.95	78.6152
1144.84	81.6639
1147.74	23.8826
1150.63	35.5305
1153.52	48.2962
1156.41	28.5805
1159.31	28.5909
1162.2	15.3922
1165.09	8.96478
1167.98	2.03589
1170.88	14.9559
1173.77	0.96637
1176.66	13.1893
1179.56	9.55408
1182.45	4.31024
1185.34	14.5914
1188.23	20.4885
1191.13	15.3036
1194.02	25.6674
1196.91	11.0276
1199.8	31.5013
1202.7	11.8774
1205.59	52.8719
1208.48	38.8635
1211.38	57.5039
1214.27	33.6025
1217.16	40.2662
1220.05	32.6603
1222.95	21.5978
1225.84	30.4285
1228.73	28.2219
1231.62	7.24805
1234.52	25.238
1237.41	24.5631
1240.3	21.217
