Measurement: Raman, 532 nm, unoriented, Raman Data Processed
Mineral: Corkite
Rruff sample: R050522
Ideal chemistry: PbFe^3+^_3_(SO_4_)(PO_4_)(OH)_6_
Locality: near Dernbach, Nassau, Germany
Source: University of Arizona Mineral Museum
Description: Black pseudo-cubo-octahedral single crystals, associated with reniform goethite balls
Measured chemistry: Pb_1.00_(Fe^3+^_2.80_Fe^2+^_0.15_Al_0.05_)_Σ=3_[(S_0.58_P_0.42_)_Σ=1_O_4_]_2_(OH)_6_
Raman shift (cm-1)	intensity
153.074	0
156.449	77.5015
159.824	273.147
163.199	286.079
166.573	110.763
169.948	14.7427
173.323	7.96094
176.698	130.87
180.073	412.081
183.448	802.929
186.822	1395.51
190.197	2119.73
193.572	2918.96
196.947	3723.97
200.322	4210.93
203.696	4258.52
207.071	3922.16
210.446	3476.17
213.821	2837.67
217.196	2379.95
220.571	1955.63
223.945	1533.66
227.32	1182.72
230.695	848.38
234.07	579.62
237.445	422.834
240.82	300.283
244.194	225.727
247.569	126.25
250.944	100.362
254.319	77.9241
257.693	10.7302
261.068	25.0115
264.443	20.3811
267.818	25.2466
271.193	8.30566
274.568	30.0454
277.942	45.491
281.317	1.04565
284.692	2.80347
288.067	39.2458
291.442	140.968
294.817	230.559
298.191	406.272
301.566	541.115
304.941	738.651
308.316	906.835
311.691	1125.86
315.065	1382.67
318.44	1681.84
321.815	2058.53
325.19	2446.87
328.565	2879.9
331.939	3324.47
335.314	3735.05
338.689	4020.35
342.064	4219.8
345.439	4285.43
348.813	4138.32
352.188	3963.4
355.563	3622.41
358.938	3214.64
362.313	2661.61
365.688	2160.23
369.062	1651.04
372.437	1086.79
375.812	764.438
379.187	388.9
382.562	175.207
385.936	13.377
389.311	37.2175
392.686	28.3184
396.061	68.21
399.436	265.755
402.81	611.109
406.185	999.857
409.56	1578.81
412.935	2240.8
416.31	2934.47
419.685	3616.14
423.059	4070.09
426.434	4584.93
429.809	5050.49
433.184	5393.15
436.559	5158.11
439.933	4574.12
443.308	3913.67
446.683	3216.88
450.058	2575.7
453.433	1956.2
456.808	1421.63
460.182	959.74
463.557	602.067
466.932	364.671
470.307	187.46
473.682	65.405
477.056	15.5498
480.431	29.6687
483.806	62.5205
487.181	47.6624
490.556	36.7837
493.93	12.9155
497.305	41.366
500.68	98.0154
504.055	132.496
507.43	205.869
510.805	334.697
514.179	434.186
517.554	537.842
520.929	690.351
524.304	847.537
527.679	1019.03
531.053	1183.57
534.428	1331.06
537.803	1469.58
541.178	1437.53
544.553	1379.87
547.928	1331.22
551.302	1225.29
554.677	1176.71
558.052	1104.8
561.427	1201.07
564.802	1225.75
568.176	1130.44
571.551	1002.06
574.926	828.413
578.301	668.252
581.676	568.859
585.051	485.668
588.425	387.718
591.8	357.547
595.175	323.32
598.55	352.065
601.924	302.516
605.299	363.328
608.674	434.498
612.049	524.909
615.424	624.54
618.799	706.919
622.173	630.069
625.548	429.497
628.923	258.073
632.298	107.621
635.673	53.5662
639.048	12.3671
642.422	3.56567
645.797	0.036865
649.172	34.6807
652.547	5.38147
655.922	20.5786
659.296	15.9239
662.671	5.55518
666.046	14.4863
669.421	15.0408
672.796	22.1378
676.17	18.8103
679.545	35.6118
682.92	41.6661
686.295	49.2407
689.67	31.5997
693.044	51.0243
696.419	57.2565
699.794	63.6742
703.169	71.8851
706.544	67.4716
709.919	51.0851
713.293	40.1952
716.668	49.9426
720.043	53.6047
723.418	55.5151
726.793	11.0626
730.167	32.1926
733.542	20.3824
736.917	12.1278
740.292	22.5785
743.667	18.5903
747.042	1.21954
750.416	34.9083
753.791	23.6395
757.166	29.0526
760.541	19.6404
763.916	7.03589
767.29	4.5144
770.665	1.99719
774.04	23.6986
777.415	5.47199
780.79	10.1727
784.164	7.56207
787.539	1.93176
790.914	25.6996
794.289	11.0934
797.664	16.2913
801.038	29.3284
804.413	50.8775
807.788	49.0161
811.163	43.5299
814.538	57.8276
817.913	54.8836
821.287	74.3888
824.662	68.7163
828.037	104.065
831.412	121.075
834.787	115.106
838.162	106.157
841.536	99.1859
844.911	113.212
848.286	99.2128
851.661	109.124
855.036	106.546
858.41	79.9847
861.785	88.4853
865.16	82.103
868.535	61.4003
871.91	58.8247
875.284	63.8508
878.659	43.4952
882.034	24.2382
885.409	44.6529
888.784	53.7264
892.159	31.4669
895.533	23.8133
898.908	33.4738
902.283	5.23853
905.658	102.93
909.033	13.6842
912.407	12.5399
915.782	3.06091
919.157	3.09607
922.532	8.49768
925.907	25.2449
929.281	17.2076
932.656	32.7398
936.031	71.7257
939.406	110.89
942.781	135.738
946.155	197.118
949.53	214.878
952.905	247.08
956.28	289.097
959.655	253.21
963.03	243.503
966.404	232.94
969.779	274.676
973.154	320.596
976.529	403.349
979.904	525.466
983.279	853.077
986.653	1393.79
990.028	2086.82
993.403	2774.2
996.778	3099.61
1000.15	2579.41
1003.53	1686.77
1006.9	917.085
1010.28	456.761
1013.65	223.274
1017.03	136.031
1020.4	16.5605
1023.78	26.4778
1027.15	1.8446
1030.53	21.752
1033.9	12.3798
1037.28	5.85889
1040.65	7.10034
1044.03	34.9298
1047.4	110.352
1050.78	161.588
1054.15	245.34
1057.52	420.913
1060.9	571.007
1064.27	735.746
1067.65	937.866
1071.02	1080.79
1074.4	1196.36
1077.77	1268.4
1081.15	1325.68
1084.52	1267.16
1087.9	1240.32
1091.27	1181.6
1094.65	1063.73
1098.02	966.805
1101.4	843.048
1104.77	719.532
1108.15	613.597
1111.52	496.04
1114.9	450.688
1118.27	337.465
1121.65	316.456
1125.02	289.051
1128.4	309.263
1131.77	350.56
1135.14	390.323
1138.52	422.081
1141.89	446.584
1145.27	449.776
1148.64	396.486
1152.02	390.764
1155.39	324.518
1158.77	218.153
1162.14	197.615
1165.52	146.706
1168.89	88.8761
1172.27	73.473
1175.64	50.6548
1179.02	44.7262
1182.39	18.0413
1185.77	10.5892
1189.14	8.25854
1192.52	10.6194
1195.89	5.2981
1199.27	3.68738
1202.64	11.1526
1206.02	0.973267
1209.39	1.00598
1212.77	12.3233
1216.14	4.20373
1219.52	18.8987
1222.89	57.1605
1226.27	33.7534
1229.64	56.7498
1233.02	78.7455
1236.39	72.1458
1239.76	84.7264
1243.14	101.188
1246.51	74.9713
1249.89	83.8823
1253.26	75.0794
1256.64	73.3409
1260.01	70.6532
1263.39	48.1538
1266.76	41.6259
1270.14	45.2893
1273.51	31.7614
1276.89	42.9482
1280.26	45.7846
1283.64	66.2905
1287.01	36.6191
1290.39	35.1414
1293.76	24.0533
1297.14	40.9656
1300.51	37.644
1303.89	10.0998
1307.26	37.8447
1310.63	29.4022
1314.01	4.7572
