Measurement: Raman, 532 nm, unoriented, Raman Data Processed
Mineral: Corkite
Rruff sample: R070491
Ideal chemistry: PbFe^3+^_3_(SO_4_)(PO_4_)(OH)_6_
Locality: Iron Crag, Roughton Gill, Caldbeck Fells, Cumbria (Cumberland), England, United Kingdom
Source: Bob Jenkins
Description: Sharp bright yellow prismatic crystals associated with quartz
Raman shift (cm-1)	intensity
142.924	0
145.816	394.258
148.709	810.148
151.602	1381.53
154.494	2256.02
157.387	2848.91
160.28	2722.64
163.173	2252.96
166.065	1904.58
168.958	1630.51
171.851	1281.54
174.743	745.314
177.636	393.292
180.529	93.5527
183.421	102.134
186.314	135.54
189.207	93.0635
192.1	39.2764
194.992	328.386
197.885	653.391
200.778	1107.54
203.67	1668.89
206.563	2043.43
209.456	2462.74
212.348	2807.12
215.241	3186.64
218.134	3377.22
221.026	3471.76
223.919	3394.45
226.812	3175.66
229.705	2816.39
232.597	2365.63
235.49	1923.66
238.383	1437.64
241.275	1192.41
244.168	904.393
247.061	567.153
249.954	482.567
252.846	374.246
255.739	316.032
258.632	162.797
261.524	164.241
264.417	135.525
267.31	233.115
270.202	171.911
273.095	213.152
275.988	179.39
278.881	232.984
281.773	172.145
284.666	86.8379
287.559	9.58008
290.451	3.09375
293.344	22.3408
296.237	16.6348
299.13	53.5928
302.022	27.7822
304.915	154.237
307.808	256.233
310.7	429.94
313.593	695.015
316.486	791.312
319.378	1010.44
322.271	1310.24
325.164	1615.17
328.057	1875.79
330.949	2090.92
333.842	2403.88
336.735	2556.66
339.627	2589.69
342.52	2320.9
345.413	2045.03
348.305	1765.79
351.198	1565.48
354.091	1164.06
356.983	858.083
359.876	631.347
362.769	469.691
365.662	218.029
368.554	94.8154
371.447	76.1904
374.34	34.8955
377.232	41.0762
380.125	73.9981
383.018	56.8213
385.911	29.0713
388.803	115.799
391.696	138.648
394.589	258.949
397.481	381.006
400.374	633.05
403.267	942.467
406.159	1247.45
409.052	1562.04
411.945	2031.97
414.837	2392.13
417.73	2871.7
420.623	3127.45
423.516	3369.11
426.408	3465.01
429.301	3575.29
432.194	3569.01
435.086	3705.28
437.979	3890.9
440.872	3809.76
443.764	3774.84
446.657	3703.56
449.55	3528.59
452.443	3298.26
455.335	3066.83
458.228	2734.33
461.121	2434.61
464.014	2005.12
466.906	1782.51
469.799	1408.13
472.692	1050.59
475.584	873.321
478.477	600.146
481.37	435.616
484.262	397.164
487.155	205.988
490.048	126.314
492.94	46.4453
495.833	22.1143
498.726	1.8457
501.619	52.2207
504.511	54.5996
507.404	24.4814
510.297	58.1445
513.189	209.007
516.082	116.159
518.975	119.464
521.867	205.215
524.76	222.426
527.653	362.853
530.546	503.542
533.438	670.477
536.331	816.99
539.224	971.82
542.116	1202.85
545.009	1409.27
547.902	1533.28
550.794	1523.72
553.687	1599.08
556.58	1557.84
559.473	1491.92
562.365	1443.81
565.258	1477.83
568.151	1443.25
571.043	1459.88
573.936	1365.82
576.829	1256.77
579.721	1097.24
582.614	998.94
585.507	917.768
588.4	845.866
591.292	791.5
594.185	837.297
597.078	706.664
599.97	688.912
602.863	591.169
605.756	539.644
608.649	605.023
611.541	484.194
614.434	643.648
617.327	600.909
620.219	592.694
623.112	482.394
626.005	466.482
628.897	330.161
631.79	202.112
634.683	96.7891
637.576	20.0859
640.468	7.70117
643.361	5.04297
646.254	16.2295
649.146	8.87988
652.039	64.459
654.932	28.8848
657.824	17.5967
660.717	20.4609
663.61	22.1543
666.503	93.8291
669.395	46.917
672.288	68.9238
675.181	12.9863
678.073	55.7031
680.966	84.2686
683.859	99.3643
686.751	75.7393
689.644	78.4502
692.537	103.67
695.43	78.8584
698.322	129.292
701.215	137.594
704.108	155.593
707	131.692
709.893	66.1045
712.786	55.8398
715.678	99.6035
718.571	90.3975
721.464	41.5283
724.357	20.623
727.249	57.7119
730.142	98.8623
733.035	81.167
735.927	3.73144
738.82	31.0459
741.713	93.6133
744.606	16.127
747.498	100.732
750.391	98.0449
753.284	38.4922
756.176	12.5762
759.069	85.3574
761.962	30.9355
764.854	9.03223
767.747	5.77148
770.64	5.66602
773.533	19.252
776.425	30.1865
779.318	7.70215
782.211	4.90625
785.103	66.9238
787.996	96.6211
790.889	98.0068
793.781	44.6973
796.674	90.666
799.567	38.7353
802.46	168.96
805.352	179.618
808.245	216.831
811.138	284.753
814.03	259.59
816.923	332.471
819.816	280.15
822.708	385.459
825.601	399.816
828.494	502.481
831.386	574.822
834.279	489.154
837.172	557.692
840.065	545.256
842.957	685.975
845.85	691.843
848.743	596.782
851.635	574.339
854.528	550.626
857.421	556.554
860.313	542.346
863.206	539.375
866.099	551.168
868.992	455.328
871.884	444.659
874.777	364.966
877.67	388.946
880.562	369.176
883.455	236.598
886.348	192.367
889.24	226.567
892.133	189.382
895.026	116.487
897.919	156.33
900.811	11.8565
903.704	49.1475
906.597	98.9688
909.489	51.8379
912.382	11.7559
915.275	18.5732
918.168	3.68359
921.06	15.499
923.953	13.1719
926.846	39.5117
929.738	21.4316
932.631	79.5644
935.524	17.125
938.416	72.7637
941.309	103.948
944.202	157.007
947.095	232.953
949.987	207.915
952.88	264.399
955.773	390.147
958.665	394.578
961.558	452.805
964.451	502.519
967.343	512.086
970.236	546.566
973.129	583.172
976.021	652.439
978.914	575.057
981.807	706.449
984.7	717.515
987.592	854.155
990.485	1087.08
993.378	1383.79
996.27	1686.24
999.163	2058.82
1002.06	2120.13
1004.95	1785.6
1007.84	1408.25
1010.73	1035.48
1013.63	763.906
1016.52	544.117
1019.41	431.356
1022.3	238.916
1025.2	229.638
1028.09	214.808
1030.98	174.544
1033.88	75.376
1036.77	88.3311
1039.66	23.748
1042.55	40.418
1045.45	6.72852
1048.34	93.6084
1051.23	163.84
1054.12	244.384
1057.02	275.992
1059.91	478.394
1062.8	585.056
1065.69	772.968
1068.59	769.28
1071.48	826.644
1074.37	849.985
1077.27	743.398
1080.16	772.773
1083.05	606.845
1085.94	615.25
1088.84	578.437
1091.73	517.872
1094.62	422.905
1097.52	422.036
1100.41	506.208
1103.3	464.562
1106.19	361.755
1109.09	318.58
1111.98	427.699
1114.87	476.779
1117.76	428.835
1120.66	295.91
1123.55	348.982
1126.44	290.005
1129.34	387.131
1132.23	336.011
1135.12	274.919
1138.01	286.735
1140.91	237.556
1143.8	242.809
1146.69	171.386
1149.58	224.508
1152.48	188.292
1155.37	66.0205
1158.26	153.014
1161.15	91.4531
1164.05	19.542
1166.94	16.3564
1169.83	10.0947
1172.72	15.6787
1175.62	67.7344
1178.51	97.7168
1181.4	73.082
1184.3	58.7666
1187.19	10.4805
1190.08	63.3389
1192.97	0.415039
1195.87	64.2158
1198.76	1.01269
1201.65	41.3975
1204.55	26.8691
1207.44	28.5225
1210.33	16.4795
1213.22	19.2129
1216.12	154.062
1219.01	137.084
1221.9	192.931
1224.79	219.644
1227.69	176.87
1230.58	81.2129
1233.47	85.2402
1236.37	95.1387
1239.26	150.286
1242.15	153.68
1245.04	54.2178
1247.94	132.928
1250.83	78.7051
1253.72	82.6856
1256.61	38.3037
1259.51	73.3965
1262.4	166.689
1265.29	144.658
1268.18	223.767
1271.08	73.1523
1273.97	118.024
1276.86	59.6397
1279.76	39.5312
1282.65	44.1504
1285.54	23.9932
1288.43	111.045
1291.33	0
