Measurement: Raman, 785 nm, unoriented, Raman Data Processed
Mineral: Cornetite
Rruff sample: R040163
Ideal chemistry: Cu_3_PO_4_(OH)_3_
Locality: Kalabi, Katanga, Democratic Republic of the Congo
Source: University of Arizona Mineral Museum
Description: Blue drusy coating
Measured chemistry: Cu_2.91_(P_1.02_O_4_)((OH)_0.99_F_0.01_)_3_
Raman shift (cm-1)	intensity
148.5	0
151.393	33.752
154.286	119.421
157.178	58.1377
160.071	26.773
162.964	4.64905
165.856	6.97375
168.749	37.7287
171.642	31.1901
174.534	43.7936
177.427	25.5122
180.32	2.9754
183.212	13.495
186.105	25.8575
188.998	33.6218
191.891	28.3336
194.783	16.951
197.676	51.8938
200.569	26.7312
203.461	62.8159
206.354	64.1266
209.247	58.6872
212.139	55.0386
215.032	43.0164
217.925	67.3081
220.818	62.3875
223.71	79.1975
226.603	41.0809
229.496	56.538
232.388	68.4508
235.281	47.8306
238.174	60.608
241.066	40.5332
243.959	9.34943
246.852	45.6015
249.745	22.2366
252.637	20.727
255.53	33.9813
258.423	20.1274
261.315	23.6983
264.208	30.4812
267.101	38.4644
269.993	26.6535
272.886	38.9565
275.779	34.2653
278.672	21.4334
281.564	26.9091
284.457	9.51056
287.35	6.39471
290.242	11.1901
293.135	17.0973
296.028	3.20429
298.921	3.81769
301.813	19.9011
304.706	4.03461
307.599	22.2247
310.491	9.6059
313.384	21.1895
316.277	6.91162
319.169	40.4448
322.062	5.5708
324.955	1.98547
327.847	12.468
330.74	18.9691
333.633	26.1075
336.526	13.0543
339.418	21.8597
342.311	32.3073
345.204	6.44336
348.096	25.9401
350.989	13.0749
353.882	7.67481
356.774	16.3909
359.667	6.3504
362.56	4.19464
365.452	3.75977
368.345	3.5545
371.238	6.09235
374.131	0.721741
377.023	15.7019
379.916	0.984253
382.809	8.64014
385.701	2.14441
388.594	18.265
391.487	9.82422
394.38	10.3781
397.272	34.8708
400.165	15.1497
403.058	24.85
405.95	33.7498
408.843	36.0255
411.736	23.4754
414.628	39.0698
417.521	54.7504
420.414	72.0192
423.307	59.803
426.199	76.9665
429.092	108.661
431.985	102.875
434.877	113.855
437.77	93.3678
440.663	55.6354
443.555	66.2202
446.448	31.6496
449.341	23.5396
452.234	20.1348
455.126	48.3293
458.019	40.4918
460.912	45.3564
463.804	25.8852
466.697	27.4229
469.59	23.9346
472.483	23.4597
475.375	30.2064
478.268	68.3373
481.161	85.1544
484.053	66.9271
486.946	105.021
489.839	99.142
492.731	73.6189
495.624	64.7845
498.517	40.1737
501.409	27.5186
504.302	0.588562
507.195	19.6511
510.088	26.549
512.98	33.1199
515.873	46.0783
518.766	51.4542
521.658	31.0576
524.551	28.7588
527.444	25.8402
530.337	24.9831
533.229	20.225
536.122	20.6401
539.015	1.78003
541.907	12.0228
544.8	18.4437
547.693	39.5605
550.585	5.98614
553.478	0.087891
556.371	10.1869
559.263	6.74854
562.156	5.8324
565.049	18.0708
567.942	11.55
570.834	5.36169
573.727	0.408386
576.62	5.85492
579.512	1.54804
582.405	14.4196
585.298	19.954
588.19	6.10504
591.083	2.97729
593.976	10.6218
596.869	6.68201
599.761	10.6929
602.654	18.2947
605.547	43.7301
608.439	37.4727
611.332	25.2769
614.225	12.318
617.117	30.6972
620.01	7.92548
622.903	34.5104
625.795	33.9862
628.688	22.7018
631.581	20.0217
634.474	18.9236
637.366	17.2104
640.259	27.2336
643.152	26.77
646.044	8.49799
648.937	45.5023
651.83	0.953918
654.722	16.2498
657.615	15.089
660.508	6.72211
663.401	11.0619
666.293	13.2047
669.186	32.1313
672.079	12.4615
674.971	7.20197
677.864	16.4688
680.757	5.10077
683.649	3.44855
686.542	15.4343
689.435	18.0264
692.328	15.6739
695.22	27.9453
698.113	3.50366
701.006	32.6508
703.898	20.8127
706.791	19.0642
709.684	24.9874
712.577	17.6925
715.469	20.4175
718.362	16.0284
721.255	10.6317
724.147	22.8029
727.04	13.9151
729.933	42.6891
732.825	22.9889
735.718	38.9298
738.611	29.8907
741.504	16.8261
744.396	26.427
747.289	42.4733
750.182	24.0263
753.074	40.5223
755.967	14.2049
758.86	19.6565
761.752	33.2715
764.645	20.1881
767.538	37.7598
770.431	25.875
773.323	19.5956
776.216	26.477
779.109	18.7527
782.001	15.0875
784.894	22.0511
787.787	10.7459
790.679	15.0409
793.572	25.4385
796.465	28.2006
799.357	19.0465
802.25	31.9652
805.143	22.5881
808.036	31.5472
810.928	14.6083
813.821	6.43506
816.714	1.78552
819.606	9.1684
822.499	32.4097
825.392	3.30304
828.284	28.7877
831.177	10.2054
834.07	19.0278
836.963	25.9902
839.855	8.86145
842.748	33.8724
845.641	6.74548
848.533	3.30127
851.426	16.8682
854.319	9.55426
857.212	7.70807
860.104	0.410706
862.997	3.37457
865.89	0.295288
868.782	17.193
871.675	21.4839
874.568	26.077
877.46	9.91156
880.353	27.332
883.246	13.3998
886.139	28.2256
889.031	29.4608
891.924	22.3985
894.817	14.7963
897.709	8.00848
900.602	4.89825
903.495	17.0432
906.388	5.06457
909.28	8.17523
912.173	17.3145
915.066	12.4719
917.958	16.6059
920.851	11.7488
923.744	4.04132
926.636	22.7189
929.529	3.49774
932.422	12.7262
935.314	4.2243
938.207	12.8735
941.1	25.743
943.993	34.2263
946.885	55.76
949.778	43.0367
952.671	70.6095
955.563	87.4196
958.456	115.425
961.349	135.31
964.241	125.4
967.134	100.997
970.027	69.7465
972.92	30.9249
975.812	51.5675
978.705	30.3169
981.598	65.6298
984.49	30.0662
987.383	19.2563
990.276	46.1621
993.168	26.6351
996.061	35.812
998.954	41.5178
1001.85	23.0329
1004.74	28.5876
1007.63	6.00012
1010.52	35.8575
1013.42	8.71881
1016.31	29.5347
1019.2	2.24762
1022.1	1.53699
1024.99	26.2481
1027.88	9.50336
1030.77	18.4454
1033.67	12.9357
1036.56	32.9659
1039.45	40.3269
1042.34	63.8933
1045.24	58.2246
1048.13	49.793
1051.02	105.393
1053.91	49.027
1056.81	61.3583
1059.7	46.5363
1062.59	35.6994
1065.49	36.1019
1068.38	16.6295
1071.27	19.9157
1074.16	38.8525
1077.06	27.4822
1079.95	16.856
1082.84	9.80981
1085.73	1.77368
1088.63	5.56226
1091.52	33.2146
1094.41	26.2436
1097.31	1.93689
1100.2	32.8462
1103.09	19.1066
1105.98	34.9694
1108.88	35.5655
1111.77	3.38647
1114.66	4.42889
1117.56	15.7429
1120.45	11.3955
1123.34	8.73315
1126.23	24.7991
1129.12	18.6795
1132.02	0.439758
1134.91	19.0414
1137.8	42.5109
1140.7	3.12366
1143.59	6.73364
1146.48	15.8445
1149.37	7.45111
1152.27	17.4762
1155.16	26.4363
1158.05	3.96875
1160.94	26.1276
1163.84	13.254
1166.73	27.3254
1169.62	4.21191
1172.52	36.9791
1175.41	24.4312
1178.3	31.1882
1181.19	16.9886
1184.09	16.0939
1186.98	19.7714
1189.87	5.14435
1192.77	34.6644
1195.66	42.5381
1198.55	10.2996
1201.44	4.06342
1204.34	21.6905
1207.23	24.1101
1210.12	17.4438
1213.01	7.00055
1215.91	37.329
1218.8	32.8494
1221.69	17.6519
1224.58	28.6525
1227.48	34.2863
1230.37	29.4159
1233.26	8.37592
