Measurement: Raman, 532 nm, unoriented, Raman Data Processed
Mineral: Cornetite
Rruff sample: R050151
Ideal chemistry: Cu_3_PO_4_(OH)_3_
Locality: Manto Russo, El Salado, Chile
Source: Jim McGlasson
Description: Druse of blue short prismatic crystals
Measured chemistry: Cu_3.00_P_1.00_O_4_(OH)_3_
Raman shift (cm-1)	intensity
130.387	0
133.762	107.538
137.137	94.8071
140.511	180.494
143.886	14.6272
147.261	18.4698
150.636	87.3008
154.011	148.4
157.386	233.977
160.76	106.987
164.135	3.42728
167.51	14.3806
170.885	4.78828
174.26	46.7958
177.634	65.6608
181.009	48.4257
184.384	76.3411
187.759	107.721
191.134	125.778
194.508	115.379
197.883	153.031
201.258	221.489
204.633	273.698
208.008	341.033
211.382	313.485
214.757	251.508
218.132	260.657
221.507	337.174
224.882	309.096
228.257	196.306
231.631	152.696
235.006	177.609
238.381	204.113
241.756	147.128
245.131	77.7589
248.506	59.0503
251.88	63.8299
255.255	41.0234
258.63	4.14185
262.005	0.062531
265.38	9.5667
268.754	23.2015
272.129	34.6106
275.504	48.3678
278.879	68.3597
282.254	60.0012
285.628	18.9028
289.003	1.27161
292.378	4.99423
295.753	3.45645
299.128	12.4027
302.503	28.1701
305.877	41.5898
309.252	48.4993
312.627	57.9387
316.002	72.1932
319.377	79.7769
322.752	67.2298
326.126	63.2443
329.501	71.4916
332.876	91.3044
336.251	112.803
339.625	142.696
343	170.433
346.375	153.153
349.75	97.543
353.125	47.7711
356.5	18.018
359.875	1.43372
363.249	4.42786
366.624	7.32622
369.999	7.39198
373.374	3.66077
376.748	4.21986
380.123	7.27699
383.498	9.06641
386.873	11.9639
390.248	25.0993
393.623	42.5801
396.997	60.2567
400.372	53.1838
403.747	45.1873
407.122	50.9759
410.497	68.5872
413.872	96.5045
417.246	127.733
420.621	173.626
423.996	247.807
427.371	343.014
430.746	466.014
434.12	569.463
437.495	523.139
440.87	351.172
444.245	204.604
447.62	118.109
450.995	59.2925
454.369	20.8273
457.744	6.29228
461.119	9.18753
464.494	15.8489
467.869	10.296
471.243	7.03998
474.618	31.1913
477.993	67.0684
481.368	113.737
484.743	166.389
488.118	213.008
491.492	204.39
494.867	116.671
498.242	35.6589
501.617	5.90422
504.991	13.9079
508.366	41.0598
511.741	93.4734
515.116	161.403
518.491	225.277
521.866	234.457
525.24	181.596
528.615	123.886
531.99	81.0163
535.365	52.2878
538.74	43.5339
542.115	49.1476
545.489	48.8492
548.864	39.7462
552.239	40.4335
555.614	35.6118
558.989	17.3372
562.363	6.27461
565.738	3.73377
569.113	12.6776
572.488	18.4694
575.863	17.0282
579.237	3.65109
582.612	1.32015
585.987	6.08355
589.362	4.73383
592.737	3.01117
596.112	2.08469
599.486	1.59234
602.861	4.85371
606.236	9.91016
609.611	13.084
612.986	18.7752
616.361	19.6171
619.735	19.3851
623.11	18.157
626.485	17.8521
629.86	21.0935
633.235	21.1475
636.609	22.2309
639.984	23.3934
643.359	22.7597
646.734	19.4186
650.109	16.8621
653.484	14.5088
656.858	12.5324
660.233	11.5128
663.608	9.45121
666.983	9.84198
670.357	10.6863
673.732	10.5005
677.107	10.0592
680.482	11.2066
683.857	6.5898
687.232	8.06371
690.606	8.04733
693.981	7.54721
697.356	5.88509
700.731	4.73133
704.106	5.35129
707.481	3.46967
710.855	3.60165
714.23	3.24035
717.605	3.21392
720.98	2.0857
724.355	3.49086
727.729	1.34885
731.104	1.7439
734.479	1.00001
737.854	2.18224
741.229	3.04213
744.604	0.226166
747.978	1.59564
751.353	2.64479
754.728	0.79702
758.103	0.398312
761.477	0.007874
764.852	1.12736
768.227	0.855389
771.602	0.404732
774.977	0.053555
778.352	1.16847
781.726	0.801956
785.101	1.02396
788.476	0.311604
791.851	1.29469
795.226	1.59486
798.601	1.11851
801.975	2.06137
805.35	0.382816
808.725	1.79599
812.1	1.35384
815.475	2.79712
818.849	2.71027
822.224	2.36254
825.599	5.05489
828.974	5.49717
832.349	7.26334
835.723	7.63205
839.098	6.93662
842.473	7.63658
845.848	9.1888
849.223	9.05279
852.598	7.86664
855.972	7.53511
859.347	3.63687
862.722	1.66694
866.097	2.28122
869.472	1.66636
872.846	0.201
876.221	0.409042
879.596	2.41283
882.971	1.64687
886.346	0.472984
889.721	0.703213
893.095	0.113235
896.47	1.23283
899.845	3.86689
903.22	7.81457
906.595	12.0388
909.97	19.5293
913.344	30.212
916.719	38.1521
920.094	44.6053
923.469	45.5831
926.844	37.3505
930.218	30.777
933.593	29.1333
936.968	31.7783
940.343	42.868
943.718	63.8524
947.092	99.2645
950.467	148.804
953.842	207.562
957.217	260.006
960.592	292.672
963.966	292.291
967.341	224.142
970.716	134.827
974.091	76.9698
977.466	50.8888
980.841	39.1609
984.215	36.5194
987.59	41.6831
990.965	49.0078
994.34	51.4432
997.715	48.3293
1001.09	42.0579
1004.46	38.3226
1007.84	26.233
1011.21	14.3841
1014.59	4.6821
1017.96	1.32966
1021.34	3.58958
1024.71	2.4455
1028.09	1.58358
1031.46	7.3375
1034.84	13.089
1038.21	20.0015
1041.59	29.1133
1044.96	42.5773
1048.34	49.5071
1051.71	52.1184
1055.09	51.9653
1058.46	49.1989
1061.84	33.9534
1065.21	21.2485
1068.59	13.5236
1071.96	9.8475
1075.34	8.76606
1078.71	8.06703
1082.09	7.20052
1085.46	8.30622
1088.84	7.39828
1092.21	8.35522
1095.58	7.14386
1098.96	6.95341
1102.33	8.51979
1105.71	11.0273
1109.08	7.45238
1112.46	1.69432
1115.83	0.574821
1119.21	0.270924
1122.58	0.381111
1125.96	0.850094
1129.33	4.18982
1132.71	6.56586
1136.08	9.11395
1139.46	11.5096
1142.83	12.9993
1146.21	11.7128
1149.58	10.3993
1152.96	7.75131
1156.33	6.17452
1159.71	4.92557
1163.08	4.86196
1166.45	4.2316
1169.83	3.11952
1173.2	3.13906
1176.58	1.49814
1179.95	1.30885
1183.33	0.08709
1186.7	0.000786
1190.08	0.00725
1193.45	0.048109
1196.83	0.775581
1200.2	0.370665
1203.58	0.100281
1206.95	1.49917
1210.33	1.48578
1213.7	2.05265
1217.08	1.13138
1220.45	2.05552
1223.83	2.01836
1227.2	1.68194
1230.58	2.63213
1233.95	1.31874
1237.33	3.70586
1240.7	2.40332
1244.08	2.83868
1247.45	1.72723
1250.83	2.51155
1254.2	2.43426
1257.58	1.85049
1260.95	1.81522
1264.33	1.0073
1267.7	1.86876
1271.08	1.43064
1274.45	0.762812
1277.82	1.35204
1281.2	1.09835
1284.57	1.88254
1287.95	1.95449
1291.32	0.667797
1294.7	1.28783
1298.07	0.258337
1301.45	1.31411
1304.82	0.870089
