Measurement: Raman, 514 nm, unoriented, Raman Data Processed
Mineral: Cornetite
Rruff sample: R050151
Ideal chemistry: Cu_3_PO_4_(OH)_3_
Locality: Manto Russo, El Salado, Chile
Source: Jim McGlasson
Description: Druse of blue short prismatic crystals
Measured chemistry: Cu_3.00_P_1.00_O_4_(OH)_3_
Raman shift (cm-1)	intensity
52.866	0
57.065	124.736
61.262	38.884
65.458	168.5
69.651	820.523
73.842	2521.01
78.031	2315.95
82.218	3008.17
86.404	3290.68
90.587	3480.02
94.768	6054.85
98.947	7486.84
103.124	5912.47
107.3	7770.16
111.473	4830.9
115.644	3338.75
119.813	4122.62
123.981	10335.1
128.146	7223.66
132.309	5963.19
136.47	15792.7
140.63	9504.62
144.787	4639.13
148.942	3662.26
153.096	5457.46
157.247	11914
161.396	4678.06
165.544	2146.69
169.689	1920.93
173.833	2254.07
177.974	1926.85
182.114	2651.45
186.251	3041.61
190.387	2379.31
194.52	2074.53
198.652	2787.24
202.782	4444.41
206.909	7685.02
211.035	5883.47
215.159	5919.64
219.281	11800.7
223.4	13172.3
227.518	7398.89
231.634	6154.44
235.748	8368.21
239.86	5347.28
243.97	2235.15
248.079	1296.47
252.185	1102.96
256.289	571.397
260.391	394.589
264.492	854.375
268.59	1670.63
272.687	1230.24
276.781	1154.16
280.874	1421.3
284.964	422.577
289.053	50.088
293.14	76.796
297.225	95.369
301.308	425.343
305.389	686.106
309.468	965.671
313.545	1842.06
317.62	2840.31
321.693	2000.47
325.765	827.493
329.834	419.425
333.902	355.226
337.967	1013.74
342.031	1908.99
346.093	1890.09
350.153	1087.94
354.21	426.553
358.267	20.014
362.321	198.062
366.373	297.763
370.423	294.348
374.471	192.275
378.518	94.934
382.563	16.302
386.605	156.341
390.646	662.329
394.685	1215.22
398.722	1640.89
402.757	1597.33
406.79	1415.48
410.821	1693.29
414.851	2144.72
418.878	2567.72
422.904	3987.28
426.927	7706.32
430.949	14515.8
434.969	20378.1
438.987	17084.8
443.003	12679.3
447.018	9606.5
451.03	6257.24
455.041	4646.31
459.049	4513.71
463.056	5566.19
467.061	5361.96
471.064	4361.47
475.065	4182.38
479.064	5292.94
483.062	7517.14
487.057	11156.5
491.051	12072.5
495.043	8017.73
499.032	5137.88
503.02	3735.14
507.007	3387.26
510.991	4481.73
514.973	7632.63
518.954	11502.8
522.933	9339.48
526.91	6187.36
530.885	4215.39
534.858	2942.77
538.829	2247.45
542.799	2028.43
546.766	1792.05
550.732	1433.05
554.696	1334.2
558.658	1084.08
562.618	797.088
566.576	851.404
570.533	1053.18
574.488	1060.19
578.44	637.217
582.391	393.78
586.341	219.722
590.288	91.894
594.233	10.01
598.177	23.25
602.119	79.455
606.059	244.195
609.997	580.747
613.933	880.648
617.868	686.556
621.801	291.84
625.731	174.187
629.66	64.632
633.588	35.679
637.513	14.193
641.437	18.349
645.358	35.565
649.278	10.753
653.196	27.232
657.113	95.94
661.027	42.957
664.94	12.334
668.851	12.977
672.76	50.957
676.667	31.316
680.572	5.465
684.476	54.763
688.378	20.577
692.278	1.932
696.176	28.865
700.072	73.893
703.967	17.174
707.86	60.929
711.751	19.186
715.64	12.941
719.527	37.491
723.413	15.078
727.297	34.299
731.179	101.239
735.059	60.538
738.937	132.371
742.814	67.709
746.689	92.618
750.562	113.042
754.433	107.401
758.303	133.62
762.17	126.996
766.036	101.007
769.901	100.648
773.763	105.915
777.624	99.631
781.482	111.368
785.339	48.739
789.195	109.236
793.048	98.279
796.9	71.799
800.75	69.277
804.598	107.747
808.445	71.839
812.289	51.958
816.132	36.394
819.973	69.937
823.813	21.074
827.65	29.771
831.486	8.991
835.32	29.295
839.152	45.121
842.983	48.729
846.812	72.207
850.639	124.279
854.464	131.539
858.288	10.974
862.11	30.524
865.93	21.858
869.748	5.037
873.564	31.277
877.379	9.71
881.192	12.901
885.004	11.369
888.813	51.342
892.621	50.708
896.427	49.015
900.232	89.917
904.034	82.626
907.835	138.749
911.634	246.927
915.432	367.225
919.227	546.32
923.021	632.163
926.813	575.903
930.604	501.957
934.393	472.861
938.18	603.792
941.965	776.954
945.749	1051.17
949.53	1711.22
953.311	2759.09
957.089	4844.96
960.866	7636.27
964.641	9421.92
968.414	7046.93
972.185	4314.18
975.955	2961.7
979.723	2420.5
983.49	2557.54
987.254	3434.21
991.017	5605.74
994.779	6787.67
998.538	6528.87
1002.3	5689.37
1006.05	5055.2
1009.81	3883.29
1013.56	2714.66
1017.31	1927.3
1021.06	1387.18
1024.81	1203.62
1028.55	1189.51
1032.3	1310.15
1036.04	1383.59
1039.78	1619.03
1043.52	2246.34
1047.26	2725.66
1050.99	3125.22
1054.73	3883.73
1058.46	4005.03
1062.19	2617.46
1065.92	1433.26
1069.65	945.429
1073.37	766.338
1077.1	721.361
1080.82	699.507
1084.54	778.795
1088.26	882.231
1091.97	845.809
1095.69	886.52
1099.4	1000.36
1103.12	1746.33
1106.83	2773.41
1110.54	1884.61
1114.24	875.948
1117.95	427.575
1121.65	265.066
1125.35	236.659
1129.06	203.264
1132.75	345.131
1136.45	386.275
1140.15	455.476
1143.84	464.97
1147.53	366.663
1151.22	261.011
1154.91	227.873
1158.6	159.469
1162.28	147.927
1165.97	142.582
1169.65	92.325
1173.33	95.491
1177.01	76.732
1180.69	16.858
1184.36	6.97
1188.04	38.274
1191.71	8.076
1195.38	29.574
1199.05	61.957
1202.71	9.236
1206.38	22.472
1210.04	15.029
1213.71	4.859
1217.37	10.802
1221.03	24.318
1224.68	13.824
1228.34	12.735
1231.99	16.505
1235.65	76.406
1239.3	42.957
1242.95	72.489
1246.59	79.822
1250.24	97.105
1253.88	55.427
1257.53	48.481
1261.17	59.55
1264.81	49.523
1268.45	63.304
1272.08	40.834
1275.72	77.122
1279.35	88.194
1282.98	8.049
1286.61	26.645
1290.24	47.971
1293.87	28.076
1297.49	39.966
1301.11	45.689
1304.73	3.13
1308.36	46.346
1311.97	10.376
1315.59	43.203
1319.2	43.836
1322.82	29.278
1326.43	24.369
1330.04	72.61
1333.65	12.855
1337.26	34.738
1340.86	50.248
1344.47	24.965
1348.07	94.075
1351.67	150.287
1355.27	65.289
1358.87	35.299
1362.46	48.863
1366.06	61.832
1369.65	80.183
1373.24	99.613
1376.83	56.75
1380.42	81.379
1384	80.707
1387.59	110.213
1391.17	193.131
1394.75	165.793
1398.33	152.031
1401.91	142.213
1405.49	99.36
1409.06	118.818
1412.64	107.845
1416.21	115.511
1419.78	135.933
1423.35	144.913
1426.91	178.875
1430.48	98.303
1434.05	101.584
1437.61	162.443
1441.17	142.573
1444.73	153.836
1448.29	138.708
1451.84	143.328
1455.4	126.368
1458.95	176.448
1462.5	76.047
1466.05	54.861
1469.6	135.173
1473.15	97.071
1476.69	57.403
1480.24	41.299
1483.78	114.491
1487.32	136.867
1490.86	81.338
1494.39	53.822
1497.93	35.547
1501.46	103.806
1505	46.424
1508.53	33.613
1512.06	58.258
1515.59	57.323
1519.11	83.948
1522.64	36.969
1526.16	0
