Measurement: Raman, 532 nm, unoriented, Raman Data Processed
Mineral: Cornetite
Rruff sample: R040163
Ideal chemistry: Cu_3_PO_4_(OH)_3_
Locality: Kalabi, Katanga, Democratic Republic of the Congo
Source: University of Arizona Mineral Museum
Description: Blue drusy coating
Measured chemistry: Cu_2.91_(P_1.02_O_4_)((OH)_0.99_F_0.01_)_3_
Raman shift (cm-1)	intensity
134.716	0
138.091	1005.86
141.466	862.111
144.841	420.024
148.215	264.666
151.59	686.122
154.965	1391.35
158.34	1677.73
161.715	651.248
165.09	4.71201
168.464	19.1688
171.839	170.745
175.214	317.109
178.589	374.51
181.964	496.806
185.339	580.914
188.713	686.525
192.088	643.088
195.463	812.264
198.838	1220.76
202.213	1878.27
205.587	2412.84
208.962	2818.8
212.337	2694.48
215.712	2869.51
219.087	3567.63
222.462	4148.43
225.836	3176.99
229.211	2264.66
232.586	2181.88
235.961	2234.26
239.336	1784.6
242.71	962.973
246.085	501.5
249.46	356.082
252.835	287.6
256.21	2.71045
259.584	29.8716
262.959	25.6719
266.334	161.597
269.709	341.269
273.084	436.46
276.459	449.51
279.833	577.488
283.208	347.216
286.583	68.0762
289.958	18.4458
293.333	3.58203
296.707	90.5142
300.082	231.182
303.457	428.023
306.832	568.675
310.207	766.082
313.582	928.995
316.956	1105.39
320.331	1042.49
323.706	775.622
327.081	643.98
330.456	614.907
333.83	779.14
337.205	975.958
340.58	1224.44
343.955	1243.67
347.33	1042.94
350.705	657.193
354.079	349.12
357.454	141.244
360.829	21.5093
364.204	4.93523
367.579	9.5557
370.954	5.4574
374.328	17.0301
377.703	14.1146
381.078	9.42581
384.453	30.833
387.828	134.002
391.202	265.046
394.577	446.844
397.952	537.528
401.327	484.753
404.702	506.94
408.077	569.188
411.451	667.566
414.826	788.537
418.201	1094.24
421.576	1906.05
424.951	3170.69
428.325	4833.74
431.7	6434.24
435.075	6922.36
438.45	5518.12
441.825	3721.27
445.2	2435.69
448.574	1453.33
451.949	774.171
455.324	480.315
458.699	327.826
462.074	422.953
465.448	482.975
468.823	281.492
472.198	353.423
475.573	688.261
478.948	1243.85
482.322	2035.29
485.697	2753.5
489.072	3156.1
492.447	2559.03
495.822	1408.54
499.197	569.858
502.571	267.673
505.946	528.074
509.321	1164.25
512.696	1953.47
516.071	2666.24
519.446	3055.57
522.82	2523.01
526.195	1729.92
529.57	1057.84
532.945	705.457
536.32	459.041
539.694	524.915
543.069	599.223
546.444	580.262
549.819	471.653
553.194	381.381
556.568	241.465
559.943	37.6089
563.318	9.43059
566.693	0.694385
570.068	11.1711
573.443	10.4066
576.817	5.21658
580.192	7.50479
583.567	9.82311
586.942	8.35434
590.317	12.8686
593.692	3.44106
597.066	9.86475
600.441	108.109
603.816	190.8
607.191	273.354
610.566	368.467
613.94	465.741
617.315	411.528
620.69	399.567
624.065	347.829
627.44	420.375
630.814	399.215
634.189	453.179
637.564	403.632
640.939	470.402
644.314	367.409
647.689	325.974
651.063	270.375
654.438	220.688
657.813	209.968
661.188	197.153
664.563	269.658
667.938	235.737
671.312	245.397
674.687	325.892
678.062	290.406
681.437	271.22
684.812	238.948
688.186	190.406
691.561	132.456
694.936	147.796
698.311	135.089
701.686	99.7251
705.061	44.0449
708.435	49.291
711.81	56.0117
715.185	41.4941
718.56	13.751
721.935	13.3818
725.309	30.6528
728.684	28.5273
732.059	49.0405
735.434	62.0508
738.809	16.0259
742.183	32.6255
745.558	60.7837
748.933	59.5166
752.308	55.5068
755.683	36.0732
759.058	17.2105
762.432	32.8457
765.807	0.205078
769.182	46.0386
772.557	14.9429
775.932	59.7407
779.307	0.245605
782.681	7.42432
786.056	38.3945
789.431	91.4277
792.806	32.3506
796.181	50.978
799.555	28.8193
802.93	9.67383
806.305	3.27783
809.68	63.4434
813.055	70.4468
816.429	38.3291
819.804	102.321
823.179	87.375
826.554	105.045
829.929	103.836
833.304	134.692
836.678	134.738
840.053	130.725
843.428	176.362
846.803	187.651
850.178	199.903
853.553	152.82
856.927	150.346
860.302	118.177
863.677	90.5088
867.052	67.8213
870.427	55.5635
873.801	15.8462
877.176	3.75879
880.551	12.042
883.926	10.4336
887.301	3.66406
890.676	4.99854
894.05	11.9868
897.425	23.3945
900.8	25.5015
904.175	70.9707
907.55	37.1211
910.924	122.434
914.299	224.25
917.674	269.869
921.049	311.174
924.424	214.988
927.798	173.127
931.173	195.123
934.548	192.439
937.923	278.96
941.298	428.183
944.673	818.495
948.047	1382.01
951.422	2231.9
954.797	3378.64
958.172	4370.94
961.547	4718.23
964.922	4582.26
968.296	3100.27
971.671	1938.86
975.046	1224.15
978.421	966.478
981.796	1035.01
985.17	1271.52
988.545	1731.58
991.92	2065.1
995.295	2089.32
998.67	1903.55
1002.04	1606.95
1005.42	1178.39
1008.79	885.212
1012.17	440.941
1015.54	142.915
1018.92	24.3257
1022.29	37.2773
1025.67	29.4609
1029.04	11.3433
1032.42	185.688
1035.79	313.824
1039.17	529.645
1042.54	850.967
1045.92	1246.14
1049.29	1553.7
1052.67	1814.94
1056.04	1755.92
1059.42	1446.35
1062.79	842.18
1066.17	459.064
1069.54	221.403
1072.92	158.396
1076.29	178.153
1079.66	191.397
1083.04	208.399
1086.41	286.791
1089.79	256.531
1093.16	255.725
1096.54	315.066
1099.91	448.742
1103.29	628.257
1106.66	647.197
1110.04	385.632
1113.41	83.9141
1116.79	55.3809
1120.16	18.6797
1123.54	7.2793
1126.91	32.5337
1130.29	56.2949
1133.66	145.107
1137.04	179.914
1140.41	268.987
1143.79	225.571
1147.16	197.876
1150.54	144.155
1153.91	80.021
1157.29	77.5674
1160.66	159.685
1164.04	57.5972
1167.41	38.1123
1170.79	86.6064
1174.16	103.928
1177.54	22.2251
1180.91	7.61719
1184.29	37.5981
1187.66	3.47803
1191.03	48.6055
1194.41	29.9019
1197.78	17.1724
1201.16	47.4956
1204.53	52.5112
1207.91	83.0752
1211.28	70.5644
1214.66	102.517
1218.03	40.5855
1221.41	79.4824
1224.78	67.2881
1228.16	111.022
1231.53	152.007
1234.91	92.165
1238.28	86.2798
1241.66	124.346
1245.03	92.0913
1248.41	90.5161
1251.78	77.3623
1255.16	41.4209
1258.53	48.2954
1261.91	84.3384
1265.28	29.5889
1268.65	62.8848
1272.03	110.356
1275.4	95.3892
1278.78	14.7505
1282.15	46.6807
1285.53	56.1645
1288.9	1.68799
1292.28	11.7842
1295.65	15.6279
1299.03	9.34473
