Measurement: Raman, 532 nm, unoriented, Raman Data Processed
Mineral: Cornwallite
Rruff sample: R110146
Ideal chemistry: Cu^2+^_5_(As^5+^O_4_)_2_(OH)_4_
Locality: Arkaroola Station, flinders Ranges, South Australia, Australia
Source: The University of Arizona Mineral Museum
Description: Dark green tabular crystals on quartz, associated with lighter green elongated olivenite
Raman shift (cm-1)	intensity
149.792	0
152.685	2.78796
155.578	46.638
158.471	140.494
161.363	242.782
164.256	297.797
167.149	239.815
170.041	154.344
172.934	98.5106
175.827	72.5656
178.72	62.8094
181.612	60.6258
184.505	73.2972
187.398	93.9394
190.29	121.466
193.183	149.139
196.076	216.852
198.968	268.236
201.861	203.113
204.754	110.554
207.647	58.1906
210.539	26.8386
213.432	10.7584
216.325	6.15387
219.217	7.27631
222.11	11.7111
225.003	17.4797
227.895	15.7311
230.788	3.19577
233.681	4.37742
236.573	4.02799
239.466	4.50017
242.359	11.8678
245.252	10.1774
248.144	1.20285
251.037	3.51283
253.93	1.82366
256.822	3.35481
259.715	15.5608
262.608	30.0891
265.5	55.3339
268.393	86.7498
271.286	119.193
274.179	146.347
277.071	138.836
279.964	101.589
282.857	59.6233
285.75	30.2315
288.642	12.5499
291.535	3.70019
294.428	1.93125
297.32	2.6831
300.213	1.46422
303.106	7.20806
305.998	18.7588
308.891	32.1035
311.784	51.773
314.676	81.6944
317.569	118.422
320.462	161.465
323.355	198.051
326.247	228.447
329.14	268.601
332.033	298.631
334.925	290.887
337.818	254.633
340.711	214.522
343.603	180.409
346.496	146.601
349.389	115.188
352.281	94.9808
355.174	82.4884
358.067	66.5659
360.96	50.054
363.852	33.52
366.745	20.724
369.638	9.1891
372.53	2.5554
375.423	2.22659
378.316	4.7737
381.209	5.13317
384.101	3.93295
386.994	0.499763
389.887	6.86253
392.779	13.5444
395.672	23.8392
398.565	36.2934
401.457	53.8071
404.35	78.3895
407.243	111.008
410.135	143.994
413.028	169.726
415.921	170.458
418.814	156.63
421.706	146.086
424.599	156.142
427.492	196.311
430.384	279.659
433.277	409.339
436.17	592.188
439.062	821.759
441.955	1012.47
444.848	1036.5
447.741	855.837
450.633	614.901
453.526	428.452
456.419	313.506
459.311	239.233
462.204	177.924
465.097	127.975
467.99	92.0012
470.882	65.1769
473.775	46.8422
476.668	34.6873
479.56	25.2026
482.453	20.7237
485.346	18.5592
488.238	18.6775
491.131	18.3204
494.024	17.2336
496.916	16.2851
499.809	14.5907
502.702	12.6596
505.595	12.22
508.487	10.782
511.38	7.95995
514.273	4.54362
517.165	1.45121
520.058	1.41721
522.951	0.579071
525.844	2.41767
528.736	6.85561
531.629	12.4494
534.522	16.9737
537.414	19.3301
540.307	15.0073
543.2	9.65108
546.092	5.18278
548.985	1.35234
551.878	0.416725
554.771	2.00607
557.663	2.08455
560.556	0.249321
563.449	2.94785
566.341	2.22562
569.234	0.503693
572.127	0.61919
575.019	1.12799
577.912	3.30752
580.805	5.61487
583.697	8.48646
586.59	13.1883
589.483	18.6267
592.376	24.7229
595.268	29.0099
598.161	30.5651
601.054	32.9332
603.946	31.5567
606.839	29.5568
609.732	26.983
612.625	22.9531
615.517	18.5094
618.41	16.6379
621.303	14.4807
624.195	11.71
627.088	9.72777
629.981	8.88482
632.873	8.26221
635.766	7.90739
638.659	7.99318
641.552	8.17438
644.444	7.72997
647.337	7.71291
650.23	7.95889
653.122	7.82726
656.015	8.71434
658.908	9.20755
661.8	9.4754
664.693	9.1349
667.586	10.0667
670.479	10.1371
673.371	10.972
676.264	10.5022
679.157	11.1216
682.049	11.021
684.942	10.1644
687.835	8.97074
690.727	8.36027
693.62	8.25109
696.513	7.90109
699.405	7.20583
702.298	5.98536
705.191	5.16397
708.084	4.35841
710.976	3.43833
713.869	2.29392
716.762	0.803188
719.654	0.669182
722.547	0.873024
725.44	1.55558
728.332	1.11044
731.225	2.08014
734.118	1.49456
737.011	1.13053
739.903	0.480175
742.796	0.250259
745.689	1.8399
748.581	2.49806
751.474	4.03978
754.367	4.89397
757.26	5.38262
760.152	6.8832
763.045	7.27967
765.938	8.13648
768.83	6.22231
771.723	4.73746
774.616	0.990471
777.508	1.05762
780.401	1.17288
783.294	1.30116
786.187	7.5835
789.079	19.7999
791.972	41.6152
794.865	72.1202
797.757	114.233
800.65	162.527
803.543	201.66
806.435	210.958
809.328	193.156
812.221	168.789
815.114	145.915
818.006	126.846
820.899	103.36
823.792	76.9485
826.684	56.0334
829.577	42.957
832.47	39.1072
835.362	42.2302
838.255	52.2787
841.148	72.4686
844.04	105.944
846.933	166.711
849.826	262.387
852.719	423.25
855.611	677.61
858.504	1054.63
861.397	1459.29
864.289	1520.17
867.182	1089.17
870.075	664.838
872.967	430.062
875.86	298.216
878.753	211.919
881.646	152.599
884.538	111.094
887.431	82.0858
890.324	58.3053
893.216	42.2393
896.109	29.2011
899.002	18.8533
901.894	12.4774
904.787	7.00797
907.68	2.78271
910.573	0.905144
913.465	2.11788
916.358	2.34488
919.251	2.82842
922.143	2.43754
925.036	1.54124
927.929	0.883114
930.822	0.557274
933.714	2.66882
936.607	4.40663
939.5	6.15028
942.392	7.95318
945.285	11.2891
948.178	13.6318
951.07	17.0253
953.963	19.7978
956.856	22.0543
959.749	24.0546
962.641	27.2793
965.534	30.3006
968.427	32.5933
971.319	32.2049
974.212	27.7925
977.105	23.2076
979.997	16.8886
982.89	11.9232
985.783	8.59799
988.676	6.5322
991.568	4.52259
994.461	3.23294
997.354	2.29876
1000.25	2.14784
1003.14	1.15913
1006.03	0.758938
1008.92	0.149837
1011.82	0.699898
1014.71	0.050987
1017.6	1.27633
1020.5	1.61515
1023.39	2.70283
1026.28	3.25845
1029.17	2.95671
1032.07	3.04836
1034.96	1.81769
1037.85	1.35489
1040.74	0.175213
1043.64	0.063263
1046.53	0.297142
1049.42	0.324207
1052.32	0.125923
1055.21	0.664925
1058.1	0.739864
1060.99	0.79018
1063.89	1.12176
1066.78	1.08183
1069.67	1.72027
1072.56	2.57171
1075.46	3.17305
1078.35	4.47243
1081.24	7.01638
1084.13	8.61541
1087.03	12.8335
1089.92	17.9696
1092.81	22.3044
1095.7	23.5481
1098.6	22.8878
1101.49	19.4898
1104.38	15.586
1107.28	12.2215
1110.17	9.2614
1113.06	6.8015
1115.95	4.86327
1118.85	3.78933
1121.74	2.92439
1124.63	1.7832
1127.53	1.58864
1130.42	1.30479
1133.31	0.542366
1136.2	0.089603
1139.1	0.033636
1141.99	0.085674
1144.88	0.222219
1147.77	0.119982
1150.67	0.176075
1153.56	0.288862
1156.45	0.249966
1159.35	0.319738
1162.24	0.231321
1165.13	1.03814
1168.02	0.131241
1170.92	0.72624
1173.81	0.97089
1176.7	1.06842
1179.59	1.05653
1182.49	1.85399
1185.38	2.04829
1188.27	2.5945
1191.16	2.27622
1194.06	1.99332
1196.95	2.62317
1199.84	3.06747
1202.73	2.74591
1205.63	2.79568
1208.52	2.32132
1211.41	2.42938
1214.31	2.14501
1217.2	1.84291
1220.09	1.44006
1222.98	1.41682
1225.88	1.98422
1228.77	1.54175
1231.66	0.8969
1234.56	1.17313
1237.45	1.19318
1240.34	0.736425
1243.23	0.215611
1246.13	1.13252
1249.02	0.279299
1251.91	0.857609
1254.8	0.785955
1257.7	0.62977
1260.59	0.596985
1263.48	1.07677
1266.38	0.021006
1269.27	1.00863
1272.16	0.294394
1275.05	0.31974
1277.95	0.330927
1280.84	0.363962
1283.73	0.884304
1286.62	0.659336
1289.52	0.791342
1292.41	0.78685
1295.3	1.09445
1298.19	0.447153
1301.09	0.237303
