Measurement: Raman, 532 nm, unoriented, Raman Data Processed
Mineral: Cornwallite
Rruff sample: R050469
Ideal chemistry: Cu^2+^_5_(As^5+^O_4_)_2_(OH)_4_
Locality: Carissa mine, Tintic District, Utah, USA
Source: University of Arizona Mineral Museum
Description: Dark green botryoidal crust
Measured chemistry: (Cu_4.98_Ca_0.02_)_Î£=5_(As_1.00_O_4_)_2_(OH)_4_ ; OH estimated by difference and charge balance
Raman shift (cm-1)	intensity
136.327	0
139.702	4.78644
143.076	2.96535
146.451	15.0838
149.826	30.1452
153.201	50.3568
156.576	66.3637
159.951	73.2718
163.325	72.441
166.7	72.9817
170.075	70.3424
173.45	41.0135
176.825	20.436
180.199	6.80576
183.574	3.48566
186.949	1.59642
190.324	0.450058
193.699	0.838806
197.073	0.36293
200.448	0.448517
203.823	1.00156
207.198	0.386246
210.573	1.49667
213.948	4.40906
217.322	4.89127
220.697	1.74987
224.072	2.6325
227.447	1.41414
230.822	1.59997
234.196	4.07306
237.571	7.1819
240.946	10.0614
244.321	11.4384
247.696	9.79144
251.071	11.6086
254.445	13.689
257.82	16.3784
261.195	15.4182
264.57	15.4884
267.945	15.1115
271.32	13.2753
274.694	11.83
278.069	9.99587
281.444	9.00533
284.819	3.82633
288.193	3.89011
291.568	0.864746
294.943	1.34465
298.318	1.76157
301.693	0.684219
305.068	1.82594
308.442	5.93089
311.817	12.0379
315.192	20.0144
318.567	33.7106
321.942	46.8335
325.317	60.1938
328.691	69.3362
332.066	70.457
335.441	55.5478
338.816	43.167
342.191	31.6863
345.565	29.6661
348.94	20.9405
352.315	21.4672
355.69	20.4008
359.065	22.281
362.44	19.4337
365.814	18.3058
369.189	12.9466
372.564	6.21082
375.939	0.373062
379.314	1.71542
382.688	2.27164
386.063	1.97717
389.438	2.99829
392.813	5.71083
396.188	8.07486
399.562	14.4723
402.937	20.263
406.312	32.2537
409.687	43.0345
413.062	57.2705
416.437	71.1047
419.811	88.4362
423.186	110.961
426.561	144.567
429.936	184.648
433.311	235.179
436.685	282.193
440.06	302.227
443.435	270.21
446.81	193.676
450.185	123.903
453.56	80.0935
456.934	54.5535
460.309	36.414
463.684	26.0645
467.059	21.495
470.434	16.9279
473.808	17.0479
477.183	14.586
480.558	13.6004
483.933	14.7446
487.308	11.4563
490.683	8.24727
494.057	4.69296
497.432	3.63466
500.807	3.48616
504.182	0.769775
507.557	0.791092
510.931	0.436203
514.306	0.546959
517.681	1.95477
521.056	1.61543
524.431	5.19407
527.806	9.38742
531.18	10.0792
534.555	11.7644
537.93	9.62163
541.305	4.93155
544.68	3.95626
548.054	0.049622
551.429	0.66272
554.804	0.854927
558.179	0.398689
561.554	0.720436
564.928	1.65688
568.303	0.636719
571.678	0.910805
575.053	0.631119
578.428	1.96
581.803	1.99935
585.177	2.09714
588.552	2.39369
591.927	3.33835
595.302	2.78037
598.677	4.32581
602.052	5.22806
605.426	5.75391
608.801	5.98588
612.176	6.44327
615.551	6.14416
618.926	6.79876
622.3	5.60217
625.675	5.39896
629.05	4.43545
632.425	6.68409
635.8	5.65006
639.174	6.4055
642.549	5.0396
645.924	3.85889
649.299	4.86575
652.674	4.96411
656.048	4.85425
659.423	3.96069
662.798	4.39957
666.173	4.44468
669.548	3.74136
672.923	4.15727
676.297	3.95638
679.672	2.72778
683.047	5.38576
686.422	4.5139
689.797	3.33485
693.172	4.37052
696.546	3.83841
699.921	4.58179
703.296	4.50097
706.671	3.19426
710.046	3.41874
713.42	2.29339
716.795	2.24125
720.17	2.65005
723.545	1.07759
726.92	1.08315
730.294	0.917984
733.669	1.13621
737.044	0.728653
740.419	0.259613
743.794	0.116447
747.169	0.666809
750.543	0.477913
753.918	1.80725
757.293	0.920555
760.668	1.60638
764.043	0.407745
767.418	1.58142
770.792	1.95149
774.167	4.01021
777.542	4.50172
780.917	9.25219
784.292	13.168
787.666	18.4059
791.041	25.3629
794.416	32.2975
797.791	37.9913
801.166	43.7789
804.54	50.9309
807.915	67.0578
811.29	80.9777
814.665	96.2393
818.04	110.048
821.415	115.549
824.789	116.66
828.164	117.492
831.539	123.071
834.914	124.567
838.289	127.987
841.663	149.739
845.038	185.544
848.413	246.769
851.788	322.334
855.163	398.646
858.538	442.082
861.912	435.648
865.287	384.184
868.662	309.972
872.037	234.785
875.412	157.513
878.786	98.7725
882.161	61.7472
885.536	39.3292
888.911	26.5828
892.286	16.8167
895.66	11.2164
899.035	4.91856
902.41	3.27648
905.785	1.13692
909.16	1.63548
912.535	1.38739
915.909	0.81031
919.284	0.573929
922.659	1.41282
926.034	1.69699
929.409	0.95295
932.784	1.40864
936.158	0.332039
939.533	2.00211
942.908	2.05226
946.283	2.40273
949.658	3.4791
953.032	3.52262
956.407	3.04173
959.782	4.12896
963.157	5.45319
966.532	5.11654
969.907	4.91429
973.281	5.5888
976.656	5.31658
980.031	4.58046
983.406	3.83977
986.781	2.54227
990.155	1.33542
993.53	2.63164
996.905	0.88665
1000.28	0.450432
1003.65	0.896179
1007.03	1.35491
1010.4	1.5546
1013.78	0.150337
1017.15	0.595955
1020.53	1.33763
1023.9	1.68784
1027.28	0.835579
1030.65	1.58164
1034.03	0.944351
1037.4	1.32165
1040.78	1.99647
1044.15	2.4445
1047.53	1.47511
1050.9	2.56951
1054.28	1.93568
1057.65	2.24948
1061.03	2.14334
1064.4	1.285
1067.78	1.62934
1071.15	2.07213
1074.53	1.66907
1077.9	2.3411
1081.28	2.43938
1084.65	1.29959
1088.03	1.22378
1091.4	0.291725
1094.78	0.48835
1098.15	0.355301
1101.52	0.774918
1104.9	1.93372
1108.27	1.13647
1111.65	1.88362
1115.02	0.923347
1118.4	0.154884
1121.77	0.481667
1125.15	1.55508
1128.52	0.387611
1131.9	0.655792
1135.27	0.883858
1138.65	0.387604
1142.02	0.068481
1145.4	0.257721
1148.77	0.572754
1152.15	0.401115
1155.52	0.85083
1158.9	1.96653
1162.27	0.909073
1165.65	0.296082
1169.02	0.061508
1172.4	0.257729
1175.77	0.941772
1179.14	0.708069
1182.52	1.51896
1185.89	2.7241
1189.27	1.19352
1192.64	1.10324
1196.02	0.893723
1199.39	0.148232
1202.77	0.436325
1206.14	1.6766
1209.52	0.862442
1212.89	0.934334
1216.27	1.44623
1219.64	0.918129
1223.02	1.14062
1226.39	0.659485
1229.77	1.34771
1233.14	0.728149
1236.52	0.776535
1239.89	0.890678
1243.27	0.438133
1246.64	0.765129
1250.02	1.9516
1253.39	1.97438
1256.77	1.18967
1260.14	0.44722
1263.52	1.18394
1266.89	1.74311
1270.27	1.13039
1273.64	0.490334
1277.02	1.90962
1280.39	1.09209
1283.76	1.22733
1287.14	0.791275
1290.51	0.43103
1293.89	1.69501
1297.26	0.154808
1300.64	0.634972
