Measurement: Raman, 514 nm, unoriented, Raman Data Processed
Mineral: Cornetite
Rruff sample: R040163
Ideal chemistry: Cu_3_PO_4_(OH)_3_
Locality: Kalabi, Katanga, Democratic Republic of the Congo
Source: University of Arizona Mineral Museum
Description: Blue drusy coating
Measured chemistry: Cu_2.91_(P_1.02_O_4_)((OH)_0.99_F_0.01_)_3_
Raman shift (cm-1)	intensity
115.644	0
119.813	63.031
123.981	4726.42
128.146	4062.03
132.309	2940.74
136.47	4817.11
140.63	5032
144.787	1854.83
148.942	1161.19
153.096	2801.63
157.247	5829.2
161.396	3049.85
165.544	391.262
169.689	171.352
173.833	201.303
177.974	471.555
182.114	857.48
186.251	1167.24
190.387	758.379
194.52	624.555
198.652	1417.73
202.782	2693.3
206.909	4343.24
211.035	4159
215.159	4301.66
219.281	6038.69
223.4	7003.31
227.518	5112.75
231.634	4282.52
235.748	5358.45
239.86	3999.52
243.97	1828.19
248.079	814.955
252.185	620.469
256.289	60.52
260.391	14.299
264.492	7.189
268.59	332.969
272.687	425.52
276.781	443.875
280.874	433.529
284.964	288.107
289.053	7.498
293.14	96.82
297.225	84.922
301.308	366.445
305.389	498.109
309.468	686.295
313.545	1566.33
317.62	2010.8
321.693	1814.53
325.765	1060.47
329.834	501.242
333.902	666.549
337.967	837.115
342.031	1476.27
346.093	1600.98
350.153	1021.42
354.21	707.771
358.267	83.787
362.321	51.375
366.373	19.168
370.423	199.166
374.471	54.326
378.518	175.24
382.563	289.047
386.605	684.738
390.646	1050.25
394.685	1844.62
398.722	2410.06
402.757	2281.36
406.79	2537.29
410.821	2393.92
414.851	2404.91
418.878	2801.39
422.904	4074.75
426.927	6698.82
430.949	11033.1
434.969	14758.1
438.987	12802.6
443.003	9987.97
447.018	7750.32
451.03	5493.1
455.041	4353.52
459.049	3966.25
463.056	4291.03
467.061	3974.11
471.064	3587.69
475.065	3964
479.064	4648.21
483.062	6121.05
487.057	7977.77
491.051	8742.24
495.043	6447.36
499.032	4469.74
503.02	3600.85
507.007	3764.61
510.991	4520.13
514.973	6629.14
518.954	8621.28
522.933	7988.8
526.91	6107.86
530.885	4482.89
534.858	3404.78
538.829	3003.69
542.799	3031.04
546.766	2805.25
550.732	2375.36
554.696	2211.25
558.658	2108.77
562.618	1086.14
566.576	1035.24
570.533	1130.25
574.488	1055.65
578.44	951.855
582.391	709.303
586.341	239.729
590.288	389.318
594.233	48.836
598.177	369.332
602.119	196.207
606.059	476.223
609.997	500.047
613.933	907.248
617.868	755.174
621.801	369.742
625.731	110.418
629.66	369.254
633.588	275.205
637.513	15.367
641.437	155.482
645.358	35.717
649.278	221.617
653.196	8.084
657.113	136.588
661.027	158.465
664.94	11.139
668.851	243.777
672.76	34.5
676.667	151.979
680.572	226.92
684.476	168.883
688.378	192.701
692.278	224.428
696.176	208.879
700.072	143.572
703.967	10.482
707.86	203.172
711.751	124.252
715.64	89.311
719.527	68.676
723.413	51
727.297	111.371
731.179	113.412
735.059	52.76
738.937	104.605
742.814	6.406
746.689	155.842
750.562	122.281
754.433	122.623
758.303	150.207
762.17	36.479
766.036	127.508
769.901	40.947
773.763	164.207
777.624	135.771
781.482	95.77
785.339	123.541
789.195	169.852
793.048	57.779
796.9	52.162
800.75	5.488
804.598	60.217
808.445	136.473
812.289	40.752
816.132	55.021
819.973	196.863
823.813	134.568
827.65	19.076
831.486	246.26
835.32	127.627
839.152	285.383
842.983	387.729
846.812	383.758
850.639	426.805
854.464	19.178
858.288	354.732
862.11	263.602
865.93	278.086
869.748	169.484
873.564	288.104
877.379	20.668
881.192	267.582
885.004	265.975
888.813	363.297
892.621	175.727
896.427	508.441
900.232	611.117
904.034	447.158
907.835	549.498
911.634	741.174
915.432	950.021
919.227	1166.52
923.021	1348.86
926.813	1388.97
930.604	1237.49
934.393	1125.65
938.18	1207.43
941.965	1522.82
945.749	2118.77
949.53	2965.41
953.311	4395.83
957.089	6879.15
960.866	9242.85
964.641	10217.4
968.414	8525.86
972.185	5895.93
975.955	4270.15
979.723	3674.49
983.49	3727.64
987.254	4805.3
991.017	6213.39
994.779	7285.37
998.538	7251.68
1002.3	6887.94
1006.05	5764.03
1009.81	4658.21
1013.56	3716.46
1017.31	2798.16
1021.06	2130.78
1024.81	1859.57
1028.55	1902.94
1032.3	2102.89
1036.04	2280.7
1039.78	2428.15
1043.52	3005.42
1047.26	3475.62
1050.99	3896.42
1054.73	4125.8
1058.46	3916.09
1062.19	3286.86
1065.92	2476.42
1069.65	2146.95
1073.37	1934.25
1077.1	1623.74
1080.82	1983.12
1084.54	1841.82
1088.26	1844.78
1091.97	1891.31
1095.69	1748.96
1099.4	1793.76
1103.12	2223
1106.83	2844.72
1110.54	2200.05
1114.24	1184.78
1117.95	550.299
1121.65	702.736
1125.35	525.609
1129.06	471.322
1132.75	491.678
1136.45	390.891
1140.15	459.25
1143.84	300.732
1147.53	428.512
1151.22	317.516
1154.91	224.906
1158.6	178.287
1162.28	136.93
1165.97	155.998
1169.65	148.229
1173.33	15.664
1177.01	11.484
1180.69	45.902
1184.36	311.848
1188.04	25.633
1191.71	259.605
1195.38	269.23
1199.05	513.217
1202.71	900.475
1206.38	721.504
1210.04	261.818
1213.71	47.734
1217.37	181.977
1221.03	46.676
1224.68	12.652
1228.34	126.027
1231.99	277.547
1235.65	175.68
1239.3	241.883
1242.95	166.398
1246.59	17.688
1250.24	68.457
1253.88	197.844
1257.53	32.605
1261.17	33.641
1264.81	17.258
1268.45	86.996
1272.08	80.414
1275.72	69.867
1279.35	78.457
1282.98	308.234
1286.61	53.277
1290.24	92.117
1293.87	23.629
1297.49	185.441
1301.11	143.164
1304.73	465.805
1308.36	129.109
1311.97	383.809
1315.59	25.312
1319.2	244.535
1322.82	221.699
1326.43	63.73
1330.04	9.355
1333.65	201.297
1337.26	173.719
1340.86	198.016
1344.47	198.754
1348.07	349.672
1351.67	347.684
1355.27	593.926
1358.87	505.859
1362.46	534.711
1366.06	575.613
1369.65	502.445
1373.24	720.285
1376.83	645.438
1380.42	512.812
1384	427.613
1387.59	551.258
1391.17	483.441
1394.75	638.852
1398.33	591.398
1401.91	498.617
1405.49	486.027
1409.06	224.566
1412.64	230.902
1416.21	508.863
1419.78	443.898
1423.35	470.793
1426.91	379.871
1430.48	431.266
1434.05	336.422
1437.61	682.129
1441.17	501.047
1444.73	421.176
1448.29	653.918
1451.84	459.504
1455.4	555.164
1458.95	878.32
1462.5	875.559
1466.05	840.742
1469.6	543.488
1473.15	624.613
1476.69	624.949
1480.24	434.98
1483.78	359.57
1487.32	503.129
1490.86	362.215
1494.39	525.508
1497.93	356.41
1501.46	141.086
1505	248.586
1508.53	325.453
1512.06	171.016
1515.59	337.828
1519.11	129.258
