Measurement: Raman, 780 nm, unoriented, Raman Data Processed
Mineral: Cornwallite
Rruff sample: R110146
Ideal chemistry: Cu^2+^_5_(As^5+^O_4_)_2_(OH)_4_
Locality: Arkaroola Station, flinders Ranges, South Australia, Australia
Source: The University of Arizona Mineral Museum
Description: Dark green tabular crystals on quartz, associated with lighter green elongated olivenite
Raman shift (cm-1)	intensity
144.154	0
147.047	1.77499
149.94	2.03123
152.832	10.1481
155.725	21.1994
158.618	37.9944
161.51	47.4195
164.403	37.1204
167.296	23.5102
170.189	14.6708
173.081	4.17803
175.974	1.35554
178.867	1.73039
181.759	2.18958
184.652	5.65359
187.545	7.60433
190.437	9.88874
193.33	13.8391
196.223	13.402
199.115	9.59649
202.008	3.70079
204.901	2.66542
207.794	0.308964
210.686	0.153122
213.579	0.106831
216.472	1.35434
219.364	2.07336
222.257	2.61645
225.15	3.68926
228.042	4.45402
230.935	2.93266
233.828	4.61006
236.721	4.30028
239.613	4.01309
242.506	5.31415
245.399	2.93126
248.291	3.95235
251.184	4.86512
254.077	5.59574
256.969	2.91256
259.862	6.56503
262.755	6.37741
265.648	7.77089
268.54	7.32043
271.433	7.11153
274.326	6.18102
277.218	4.70052
280.111	4.74738
283.004	3.58367
285.897	1.68521
288.789	0.833977
291.682	0.918941
294.575	0.557045
297.467	1.19255
300.36	1.48624
303.253	0.730843
306.145	2.41929
309.038	2.69275
311.931	3.63292
314.824	6.13915
317.716	6.16875
320.609	8.71574
323.502	12.8687
326.394	13.2058
329.287	15.1146
332.18	18.0283
335.072	17.8199
337.965	16.8998
340.858	14.882
343.75	13.5331
346.643	11.4342
349.536	7.85044
352.429	7.26987
355.321	4.53383
358.214	3.36335
361.107	1.32879
364	2.24978
366.892	1.7797
369.785	1.00486
372.678	1.30154
375.57	0.807465
378.463	0.980709
381.356	0.008907
384.248	0.738182
387.141	1.10523
390.034	1.63544
392.926	1.88911
395.819	2.00645
398.712	3.02687
401.605	4.90822
404.497	3.76099
407.39	3.94998
410.283	8.22171
413.175	7.10108
416.068	5.20885
418.961	8.6844
421.853	8.25559
424.746	8.70487
427.639	13.741
430.532	23.05
433.424	27.6108
436.317	34.151
439.21	41.7269
442.102	42.1743
444.995	39.4017
447.888	35.3248
450.781	26.0547
453.673	22.0205
456.566	17.264
459.459	14.3698
462.351	9.75231
465.244	6.27992
468.137	5.78973
471.029	4.17289
473.922	3.56413
476.815	1.73414
479.707	0.831253
482.6	0.170811
485.493	1.36999
488.386	0.134315
491.278	1.2501
494.171	0.578243
497.064	2.86503
499.956	0.761982
502.849	0.389526
505.742	2.6298
508.635	2.61093
511.527	1.24675
514.42	2.1465
517.313	2.96941
520.205	2.65681
523.098	1.70209
525.991	1.66464
528.883	3.00792
531.776	2.34726
534.669	1.8193
537.562	1.89857
540.454	2.45481
543.347	1.34796
546.24	0.138159
549.132	0.104504
552.025	0.81262
554.918	1.97523
557.81	2.86306
560.703	0.816513
563.596	0.07711
566.489	0.435587
569.381	1.10589
572.274	0.857359
575.167	1.6633
578.059	2.27825
580.952	0.249327
583.845	1.62916
586.737	0.906326
589.63	2.67358
592.523	0.060101
595.415	3.44811
598.308	3.55264
601.201	2.78233
604.094	3.02077
606.986	1.60766
609.879	1.76876
612.772	3.64199
615.664	3.69015
618.557	3.23815
621.45	0.941032
624.342	1.76816
627.235	2.54658
630.128	0.861719
633.021	2.30188
635.913	1.62055
638.806	2.23956
641.699	1.51822
644.591	0.846716
647.484	1.91283
650.377	1.58291
653.269	3.10171
656.162	2.85232
659.055	1.64765
661.948	0.861147
664.84	2.60044
667.733	1.13482
670.626	1.56809
673.518	0.613535
676.411	1.77678
679.304	1.87333
682.197	3.96343
685.089	1.77662
687.982	1.6422
690.875	1.76131
693.767	2.03328
696.66	2.65689
699.553	1.476
702.445	0.450674
705.338	0.4207
708.231	1.23768
711.124	1.33658
714.016	0.182472
716.909	1.27365
719.802	1.66171
722.694	0.658302
725.587	0.247047
728.48	0.709177
731.372	1.57615
734.265	2.18544
737.158	1.02034
740.051	0.377716
742.943	1.60594
745.836	2.72146
748.729	2.61751
751.621	1.96439
754.514	0.379969
757.407	1.00989
760.299	0.081551
763.192	0.707417
766.085	1.90777
768.977	0.228645
771.87	0.088078
774.763	2.46011
777.656	0.592514
780.548	0.047527
783.441	1.63651
786.334	0.990841
789.226	5.21858
792.119	6.52711
795.012	8.97236
797.904	11.0627
800.797	14.3687
803.69	15.0129
806.583	17.1811
809.475	15.9674
812.368	13.5821
815.261	12.2272
818.153	11.7576
821.046	11.7462
823.939	10.3698
826.832	8.58687
829.724	10.3884
832.617	11.7591
835.51	13.3811
838.402	16.87
841.295	25.0442
844.188	30.3807
847.08	42.1556
849.973	56.6131
852.866	72.4524
855.759	87.6833
858.651	95.0735
861.544	84.9998
864.437	71.9847
867.329	52.9871
870.222	39.5285
873.115	30.3077
876.007	22.4788
878.9	13.9782
881.793	11.9574
884.686	8.90437
887.578	6.4589
890.471	4.38551
893.364	3.22642
896.256	3.2131
899.149	2.46914
902.042	0.236359
904.934	0.580692
907.827	1.85826
910.72	0.722576
913.612	1.02647
916.505	1.47423
919.398	1.64576
922.291	1.48414
925.183	0.102781
928.076	0.640833
930.969	0.633051
933.861	0.844194
936.754	1.94871
939.647	0.886402
942.539	0.680031
945.432	2.9493
948.325	1.96964
951.218	2.06645
954.11	3.15569
957.003	3.03114
959.896	3.05147
962.788	5.44253
965.681	3.1876
968.574	4.21382
971.466	1.96945
974.359	2.25273
977.252	3.61761
980.145	2.12596
983.037	2.10367
985.93	0.284718
988.823	0.455875
991.715	2.80913
994.608	1.61737
997.501	0.909262
1000.39	0.985672
1003.29	1.98676
1006.18	0.482571
1009.07	1.83319
1011.96	1.07573
1014.86	0.216028
1017.75	1.9973
1020.64	2.41953
1023.53	0.944597
1026.43	2.03757
1029.32	1.2551
1032.21	1.01015
1035.11	1.09898
1038	3.40254
1040.89	1.03443
1043.78	1.77212
1046.68	1.70911
1049.57	1.28478
1052.46	1.85524
1055.36	0.61665
1058.25	1.371
1061.14	1.44594
1064.03	2.13575
1066.93	0.384241
1069.82	2.73492
1072.71	0.786032
1075.6	2.65159
1078.5	2.14858
1081.39	2.47524
1084.28	2.74371
1087.17	2.49124
1090.07	2.21656
1092.96	2.20365
1095.85	2.71462
1098.74	2.17216
1101.64	2.07293
1104.53	0.764446
1107.42	2.8938
1110.32	1.16876
1113.21	1.99225
1116.1	2.13042
1118.99	1.752
1121.89	0.608866
1124.78	0.824409
1127.67	0.096685
1130.57	1.4123
1133.46	1.43918
1136.35	1.60946
1139.24	0.065205
1142.14	1.99126
1145.03	1.04899
1147.92	1.97177
1150.81	1.13255
1153.71	1.39051
1156.6	2.0359
1159.49	0.798658
1162.38	1.25686
1165.28	0.122213
1168.17	1.69288
1171.06	0.475893
1173.96	2.31707
1176.85	2.20386
1179.74	2.49025
1182.63	1.99389
1185.53	1.57662
1188.42	2.20442
1191.31	4.19297
1194.2	2.47723
1197.1	1.74161
1199.99	1.88924
1202.88	2.6278
1205.78	2.15722
1208.67	2.11249
1211.56	3.17345
1214.45	1.85952
1217.35	1.65105
1220.24	1.95557
1223.13	0.936234
1226.02	1.02367
1228.92	3.00515
1231.81	0.813154
1234.7	1.49131
1237.6	1.32448
1240.49	2.78045
1243.38	1.73632
1246.27	3.22481
1249.17	1.47882
1252.06	2.66584
1254.95	1.85722
1257.84	0.518595
1260.74	1.71782
1263.63	2.10854
1266.52	1.39339
1269.41	2.61315
1272.31	2.496
1275.2	1.59573
1278.09	0.115496
1280.98	0.284674
1283.88	0.515308
