Measurement: Raman, 532 nm, unoriented, Raman Data Processed
Mineral: Correianevesite
Rruff sample: R060701
Ideal chemistry: Fe^2+^Mn^2+^_2_(PO_4_)_2_3H_2_O
Locality: Linopolis, Minas Gerais, Brazil
Source: Bob Jenkins
Description: Colorless pseudo-octahedral crystals
Measured chemistry: (Mn^2+^_1.98_Fe^2+^_0.98_Ca_0.04_)_Σ=3_(P_1.00_O_4_)_2_·3H_2_O ; H_2_O estimated by difference.
Raman shift (cm-1)	intensity
130.2	0
133.575	362.328
136.949	423.444
140.324	104.279
143.699	367.819
147.074	517.22
150.449	442.327
153.824	940.129
157.198	1937.7
160.573	3940.12
163.948	5958.81
167.323	6118.41
170.698	4544.31
174.072	3732.61
177.447	3855.76
180.822	3968.05
184.197	3764.86
187.572	2494.92
190.947	1168.04
194.321	440.385
197.696	102.614
201.071	151.097
204.446	217.268
207.821	78.6919
211.195	122.481
214.57	515.686
217.945	1188.46
221.32	2129.79
224.695	3114.55
228.07	3853.23
231.444	4285.5
234.819	4214
238.194	4033.05
241.569	3667.64
244.944	3138.82
248.318	2616.38
251.693	2361.15
255.068	2408.32
258.443	2690.77
261.818	2864.55
265.193	2936.97
268.567	2604.2
271.942	1876.13
275.317	1283.09
278.692	1029.92
282.067	911.71
285.441	868.649
288.816	960.554
292.191	1042.02
295.566	1127.75
298.941	1228.36
302.316	1348.41
305.69	1393.2
309.065	1403.7
312.44	1269.17
315.815	959.062
319.19	703.366
322.565	632.736
325.939	559.709
329.314	553.574
332.689	442.428
336.064	239.252
339.439	71.5581
342.813	49.2629
346.188	111.294
349.563	110.207
352.938	75.6815
356.313	13.4059
359.688	76.3278
363.062	273.369
366.437	502.121
369.812	783.958
373.187	956.922
376.562	982.39
379.936	874.946
383.311	843.255
386.686	818.707
390.061	848.499
393.436	851.344
396.81	879.957
400.185	1025.52
403.56	1186.33
406.935	1548.85
410.31	2117.3
413.685	2562.28
417.06	2764.99
420.434	2702.76
423.809	1973.97
427.184	1088.43
430.559	667.66
433.934	325.376
437.308	360.822
440.683	604.972
444.058	1117.81
447.433	1846.54
450.808	2680.63
454.182	3266.48
457.557	3388.5
460.932	3068.74
464.307	2522.15
467.682	1940.4
471.057	1600.25
474.431	1410.43
477.806	1345.6
481.181	1245.53
484.556	1052.28
487.931	766.42
491.306	386.388
494.68	198.296
498.055	51.2117
501.43	49.3565
504.805	85.1331
508.18	54.3525
511.554	4.24072
514.929	2.52271
518.304	35.1467
521.679	131.621
525.054	183.331
528.429	303.941
531.803	507.985
535.178	724.003
538.553	1048.85
541.928	1540.05
545.303	2259.73
548.677	2997.2
552.052	3645.13
555.427	4342.82
558.802	5358.66
562.177	6538.86
565.552	7064.27
568.926	6756.12
572.301	5977.88
575.676	5266.14
579.051	4835.7
582.426	5246.55
585.8	6402.57
589.175	7037.97
592.55	5782.64
595.925	3700.54
599.3	2313.42
602.674	1442.27
606.049	888.668
609.424	539.246
612.799	319.972
616.174	175.49
619.549	64.9752
622.923	31.6523
626.298	16.55
629.673	5.98413
633.048	47.7413
636.423	39.4736
639.797	10.9879
643.172	4.15649
646.547	8.76318
649.922	3.05054
653.297	20.6804
656.672	31.4535
660.046	25.3103
663.421	36.0294
666.796	57.8743
670.171	59.6643
673.546	42.0894
676.92	55.2974
680.295	83.3778
683.67	68.8403
687.045	43.6066
690.42	40.4723
693.795	38.0555
697.169	10.5721
700.544	0.930786
703.919	3.22876
707.294	16.1133
710.669	41.2782
714.044	45.6331
717.418	100.956
720.793	86.6773
724.168	156.206
727.543	206.908
730.918	220.373
734.292	279.101
737.667	332.726
741.042	466.614
744.417	597.015
747.792	738.688
751.167	862.581
754.541	894.863
757.916	939.444
761.291	895.913
764.666	814.683
768.041	696.246
771.416	602.73
774.79	505.927
778.165	377.138
781.54	268.419
784.915	198.427
788.29	149.887
791.664	111.341
795.039	104.29
798.414	106.472
801.789	79.0372
805.164	83.0948
808.539	80.5321
811.913	81.3107
815.288	103.785
818.663	124.197
822.038	158.414
825.413	146.014
828.787	179.607
832.162	181.341
835.537	224.319
838.912	249.331
842.287	245.399
845.661	229.013
849.036	253.621
852.411	223.716
855.786	195.941
859.161	163.634
862.536	138.038
865.91	118.239
869.285	79.058
872.66	37.9835
876.035	34.4922
879.41	17.3467
882.784	18.1029
886.159	24.1143
889.534	52.415
892.909	64.7361
896.284	45.4309
899.659	74.5652
903.033	93.9387
906.408	18.4053
909.783	24.2302
913.158	139.288
916.533	253.689
919.907	500.01
923.282	792.534
926.657	1219.58
930.032	1781.9
933.407	2511.18
936.782	3507.71
940.156	5037.61
943.531	7214.7
946.906	10439.6
950.281	15371.3
953.656	22023.5
957.031	31861.6
960.405	44499.3
963.78	57560.7
967.155	66317.7
970.53	61703
973.905	41230.7
977.279	23698.3
980.654	14622.9
984.029	10189.2
987.404	8120.62
990.779	7078.85
994.154	6648.84
997.528	6856.36
1000.9	7436.22
1004.28	7997.85
1007.65	7695.92
1011.03	6339
1014.4	4589.91
1017.78	2928.15
1021.15	1535.12
1024.53	539.629
1027.9	85.6397
1031.28	255.9
1034.65	187.144
1038.03	243.869
1041.4	1077.95
1044.78	2397.8
1048.15	3014.56
1051.53	2072.53
1054.9	1425.16
1058.28	1859.73
1061.65	3079.31
1065.03	3492.18
1068.4	2104.55
1071.77	707.25
1075.15	52.1316
1078.52	81.5071
1081.9	121.046
1085.27	622.984
1088.65	1254.93
1092.02	1519.69
1095.4	1219.76
1098.77	906.952
1102.15	758.945
1105.52	677.707
1108.9	384.283
1112.27	102.987
1115.65	21.2971
1119.02	51.4702
1122.4	54.7137
1125.77	35.415
1129.15	27.2865
1132.52	88.5237
1135.9	73.8099
1139.27	99.3213
1142.65	151.997
1146.02	195.14
1149.39	205.048
1152.77	228.447
1156.14	288.873
1159.52	315.766
1162.89	350.026
1166.27	419.211
1169.64	441.517
1173.02	479.287
1176.39	446.592
1179.77	437.212
1183.14	401.919
1186.52	412.292
1189.89	389.396
1193.27	344.495
1196.64	344.21
1200.02	331.167
1203.39	319.652
1206.77	290.011
1210.14	266.445
1213.52	233.832
1216.89	177.565
1220.27	175.235
1223.64	148.57
1227.02	267.552
1230.39	88.452
1233.77	55.9194
1237.14	18.9821
1240.52	15.5804
1243.89	8.64319
1247.27	17.1676
1250.64	0.401855
1254.02	30.8696
1257.39	23.3336
1260.76	21.0065
1264.14	7.63208
1267.51	26.0194
1270.89	29.5348
1274.26	38.2089
1277.64	14.7842
1281.01	8.85437
1284.39	31.649
1287.76	21.9322
1291.14	3.30945
