Measurement: Raman, 785 nm, unoriented, Raman Data Processed
Mineral: Correianevesite
Rruff sample: R060701
Ideal chemistry: Fe^2+^Mn^2+^_2_(PO_4_)_2_3H_2_O
Locality: Linopolis, Minas Gerais, Brazil
Source: Bob Jenkins
Description: Colorless pseudo-octahedral crystals
Measured chemistry: (Mn^2+^_1.98_Fe^2+^_0.98_Ca_0.04_)_Σ=3_(P_1.00_O_4_)_2_·3H_2_O ; H_2_O estimated by difference.
Raman shift (cm-1)	intensity
141.295	0
144.188	27.1165
147.08	264.863
149.973	548.537
152.866	783.942
155.758	943.843
158.651	1205.76
161.544	1689.28
164.436	2187.53
167.329	2183.41
170.222	1661.01
173.115	1293.7
176.007	1058.87
178.9	962.59
181.793	892.392
184.685	722.684
187.578	470.548
190.471	262.696
193.363	105.612
196.256	36.4914
199.149	17.627
202.042	53.4895
204.934	61.0742
207.827	30.17
210.72	11.6664
213.612	116.81
216.505	235.002
219.398	465.237
222.29	741.139
225.183	980.564
228.076	1186.17
230.969	1238.09
233.861	1179.07
236.754	1070.35
239.647	889.14
242.539	737.158
245.432	572.066
248.325	430.177
251.217	380.909
254.11	406.268
257.003	467.144
259.896	585.279
262.788	675.9
265.681	690.931
268.574	635.912
271.466	461.009
274.359	378.191
277.252	287.383
280.144	270.02
283.037	250.873
285.93	214.709
288.823	199.099
291.715	220.087
294.608	242.222
297.501	286.198
300.393	355.809
303.286	391.884
306.179	415.905
309.071	411.924
311.964	352.121
314.857	273.463
317.75	186.749
320.642	118.915
323.535	59.6963
326.428	56.1098
329.32	35.3039
332.213	21.1287
335.106	12.0095
337.998	7.86041
340.891	15.9347
343.784	15.9874
346.677	17.5725
349.569	14.7633
352.462	11.7182
355.355	9.99948
358.247	15.68
361.14	21.3646
364.033	34.8554
366.925	60.0916
369.818	76.3597
372.711	90.9535
375.603	129.545
378.496	137.429
381.389	153.045
384.282	147.855
387.174	147.014
390.067	166.821
392.96	149.27
395.852	169.416
398.745	171.093
401.638	198.129
404.53	209.735
407.423	229.807
410.316	277.994
413.209	304.296
416.101	283.686
418.994	268.462
421.887	232.966
424.779	189.318
427.672	154.328
430.565	144.679
433.457	161.852
436.35	192.139
439.243	244.316
442.136	344.898
445.028	475.244
447.921	642.35
450.814	804.672
453.706	879.414
456.599	880.579
459.492	820.626
462.384	703.247
465.277	566.76
468.17	453.839
471.063	359.007
473.955	291.726
476.848	256.235
479.741	210.934
482.633	163.875
485.526	121.921
488.419	75.7482
491.311	38.2571
494.204	4.25772
497.097	0.756836
499.99	6.22174
502.882	16.9341
505.775	15.2776
508.668	2.10153
511.56	2.27972
514.453	15.1122
517.346	17.2345
520.239	29.4604
523.131	35.009
526.024	63.8438
528.917	78.5949
531.809	134.655
534.702	160.157
537.595	216.713
540.487	352.344
543.38	477.798
546.273	634.908
549.166	747.368
552.058	901.036
554.951	1034.94
557.844	1216.63
560.736	1441.68
563.629	1538.83
566.522	1489.82
569.414	1386.71
572.307	1104.88
575.2	966.865
578.093	933.537
580.985	987.677
583.878	1126.29
586.771	1294.97
589.663	1236.01
592.556	989.069
595.449	683.567
598.341	454.088
601.234	310.999
604.127	197.719
607.019	148.329
609.912	97.6559
612.805	71.1641
615.698	35.5307
618.59	22.837
621.483	13.2879
624.376	6.39352
627.268	1.90021
630.161	7.16811
633.054	11.6049
635.946	0.685791
638.839	1.5665
641.732	5.6781
644.625	2.01181
647.517	0.013397
650.41	3.67801
653.303	8.95416
656.195	5.80289
659.088	1.65202
661.981	16.8957
664.873	0.983688
667.766	12.5521
670.659	11.4415
673.552	8.99336
676.444	7.15245
679.337	24.4899
682.23	27.1984
685.122	15.7552
688.015	2.69806
690.908	9.24966
693.8	6.11371
696.693	5.8477
699.586	15.1696
702.479	13.7303
705.371	3.88779
708.264	4.81769
711.157	8.36885
714.049	1.3738
716.942	5.03462
719.835	29.5607
722.727	16.151
725.62	27.4104
728.513	23.5612
731.406	10.3151
734.298	37.7565
737.191	26.6214
740.084	33.5491
742.976	46.0511
745.869	50.7567
748.762	67.6498
751.654	72.5209
754.547	80.5555
757.44	86.4426
760.333	96.2418
763.225	72.9574
766.118	84.7868
769.011	62.3254
771.903	70.5423
774.796	40.3209
777.689	33.6683
780.581	29.1328
783.474	23.2509
786.367	23.8968
789.26	14.9236
792.152	26.2643
795.045	22
797.938	12.5433
800.83	15.8809
803.723	2.24913
806.616	20.8718
809.508	14.7147
812.401	3.51006
815.294	10.8927
818.187	14.8291
821.079	11.9077
823.972	14.525
826.865	23.5948
829.757	13.0429
832.65	24.0793
835.543	15.489
838.435	17.0541
841.328	18.4359
844.221	34.2705
847.114	37.2128
850.006	27.3675
852.899	24.6279
855.792	21.2533
858.684	21.6586
861.577	14.0217
864.47	11.2262
867.362	5.69243
870.255	9.06712
873.148	8.09943
876.041	2.67123
878.933	13.9948
881.826	0.730377
884.719	0.467651
887.611	7.36398
890.504	1.38303
893.397	2.14636
896.289	3.77554
899.182	27.4328
902.075	17.2275
904.968	10.2595
907.86	1.69675
910.753	5.38879
913.646	12.4907
916.538	29.1858
919.431	53.5822
922.324	60.1327
925.216	92.4634
928.109	143.212
931.002	204.506
933.895	297.427
936.787	395.598
939.68	551.001
942.573	765.56
945.465	1042.25
948.358	1480.8
951.251	2155.42
954.143	3031.41
957.036	4361.83
959.929	5858.98
962.822	7460.6
965.714	8661.86
968.607	8558.43
971.5	6852.56
974.392	4626.36
977.285	2961.61
980.178	2029.86
983.07	1530.61
985.963	1265.34
988.856	1123.21
991.749	987.896
994.641	976.006
997.534	963.757
1000.43	991.942
1003.32	1021.28
1006.21	980.305
1009.11	805.57
1012	603.182
1014.89	404.008
1017.78	237.791
1020.68	107.875
1023.57	7.62195
1026.46	25.4456
1029.35	27.4127
1032.25	15.6517
1035.14	22.7324
1038.03	117.049
1040.92	256.678
1043.82	415.832
1046.71	478.672
1049.6	380.41
1052.49	253.661
1055.39	234.994
1058.28	342.856
1061.17	402.316
1064.07	414.021
1066.96	317.474
1069.85	165.642
1072.74	67.4332
1075.64	41.1319
1078.53	26.646
1081.42	43.4156
1084.32	74.0164
1087.21	118.975
1090.1	150.318
1092.99	113.37
1095.89	68.0404
1098.78	34.8439
1101.67	20.4606
1104.56	18.434
1107.46	1.32913
1110.35	11.1576
1113.24	3.39301
1116.13	10.534
1119.03	3.85513
1121.92	7.65479
1124.81	4.13808
1127.7	13.7167
1130.6	10.0328
1133.49	36.3124
1136.38	9.93218
1139.28	37.6509
1142.17	33.8084
1145.06	41.6736
1147.95	36.0922
1150.85	55.1603
1153.74	51.8091
1156.63	63.0971
1159.53	49.7363
1162.42	63.1252
1165.31	66.2485
1168.2	55.1493
1171.1	60.6203
1173.99	54.6694
1176.88	42.1458
1179.77	52.7632
1182.67	32.9567
1185.56	46.9843
1188.45	45.0827
1191.35	40.9188
1194.24	51.4334
1197.13	34.3628
1200.02	45.0114
1202.92	39.0756
1205.81	40.3063
1208.7	19.6142
1211.59	45.3615
1214.49	23.1923
1217.38	40.3319
1220.27	34.5678
1223.16	19.3785
1226.06	21.9844
1228.95	22.2231
1231.84	25.7596
1234.73	10.0699
1237.63	7.36206
1240.52	14.609
1243.41	19.2045
1246.31	22.1436
1249.2	3.26096
1252.09	7.54507
1254.98	4.72356
1257.88	13.6364
1260.77	0.649826
1263.66	7.20227
