Measurement: Raman, 780 nm, unoriented, Raman Data Processed
Mineral: Correianevesite
Rruff sample: R090069
Ideal chemistry: Fe^2+^Mn^2+^_2_(PO_4_)_2_3H_2_O
Locality: Cigana mine, Galiléia, Minas Gerais  Brazil
Source: Royal Ontario Museum
Description: Druse of reddish-brown pseudo-octahedral crystals associated with pink hureaulite R090070 and colorless ludlamite R090071
Measured chemistry: (Mn^+2^_1.85_Fe^+2^_1.13_Ca_0.01_)_Σ=2.99_(PO_4_)_2_·3H_2_O
Raman shift (cm-1)	intensity
91.8272	0
95.202	7.14328
98.5768	14.2359
101.952	2.9342
105.326	1.00769
108.701	14.4276
112.076	25.4987
115.451	43.7769
118.826	40.8572
122.201	25.1151
125.575	24.2892
128.95	24.2832
132.325	29.2166
135.7	21.2921
139.075	5.15314
142.449	3.94769
145.824	15.6835
149.199	25.9306
152.574	40.3474
155.949	54.1364
159.323	82.0163
162.698	113.305
166.073	109.036
169.448	82.8182
172.823	54.1606
176.198	44.6997
179.572	40.8357
182.947	34.5276
186.322	18.4536
189.697	10.9998
193.072	1.55808
196.446	0.715668
199.821	0.673569
203.196	2.48267
206.571	0.136993
209.946	7.69936
213.321	20.0691
216.695	22.6802
220.07	35.9829
223.445	56.4965
226.82	62.0593
230.195	73.1208
233.569	70.8604
236.944	60.4596
240.319	54.9371
243.694	54.0744
247.069	52.0151
250.444	49.6718
253.818	52.0965
257.193	57.165
260.568	64.187
263.943	65.2946
267.318	65.7211
270.692	59.1039
274.067	54.6865
277.442	45.3515
280.817	44.2272
284.192	40.661
287.567	41.9881
290.941	34.4596
294.316	32.1871
297.691	31.8616
301.066	28.256
304.441	26.3128
307.815	24.5934
311.19	21.1085
314.565	13.9618
317.94	14.8955
321.315	8.59045
324.69	5.1006
328.064	2.92966
331.439	0.271225
334.814	3.07077
338.189	0.213058
341.564	2.36038
344.938	6.21442
348.313	1.25128
351.688	0.007721
355.063	1.89377
358.438	1.83936
361.812	3.75627
365.187	1.23154
368.562	4.33633
371.937	4.58455
375.312	2.85821
378.687	0.428726
382.061	0.62851
385.436	2.0566
388.811	0.634224
392.186	2.89677
395.561	3.46365
398.935	4.30424
402.31	7.45721
405.685	8.23874
409.06	11.353
412.435	11.8539
415.81	11.057
419.184	8.86809
422.559	5.29739
425.934	4.44689
429.309	4.3977
432.684	4.09816
436.058	10.5709
439.433	17.6321
442.808	24.6403
446.183	30.2442
449.558	39.6846
452.933	46.2178
456.307	43.4988
459.682	38.6712
463.057	32.5761
466.432	22.7569
469.807	21.4242
473.181	15.7775
476.556	14.5627
479.931	15.0865
483.306	7.95324
486.681	3.31052
490.055	3.77889
493.43	1.20839
496.805	2.64771
500.18	1.33418
503.555	1.64291
506.93	0.147072
510.304	1.40573
513.679	2.66576
517.054	7.06385
520.429	11.5558
523.804	16.2763
527.178	18.142
530.553	24.7089
533.928	26.859
537.303	33.5112
540.678	37.3438
544.053	43.0748
547.427	50.4877
550.802	58.8066
554.177	63.1085
557.552	69.9252
560.927	78.1108
564.302	80.4557
567.676	77.7462
571.051	70.6272
574.426	69.7993
577.801	68.5638
581.176	73.8051
584.55	78.9489
587.925	82.0526
591.3	69.8709
594.675	61.0313
598.05	44.4079
601.424	38.5377
604.799	27.7691
608.174	22.4593
611.549	17.0768
614.924	14.7611
618.298	11.2702
621.673	3.23883
625.048	3.74065
628.423	1.07003
631.798	2.24979
635.173	1.24584
638.547	1.14014
641.922	2.36715
645.297	2.50697
648.672	0.81282
652.047	3.04475
655.422	2.99999
658.796	4.52056
662.171	5.57546
665.546	4.66007
668.921	7.37521
672.296	4.56348
675.67	3.59516
679.045	4.11112
682.42	5.76767
685.795	3.8387
689.17	5.16675
692.544	2.41876
695.919	4.20875
699.294	3.79961
702.669	2.91976
706.044	1.95285
709.419	3.13573
712.793	2.03855
716.168	4.35117
719.543	2.24549
722.918	0.984848
726.293	1.78662
729.668	1.39909
733.042	2.28258
736.417	5.60637
739.792	4.67606
743.167	4.91387
746.542	1.86463
749.916	2.77723
753.291	4.83472
756.666	2.89295
760.041	3.92159
763.416	4.88893
766.79	2.26209
770.165	0.951889
773.54	4.46339
776.915	2.97896
780.29	1.22383
783.665	1.60816
787.039	2.42191
790.414	2.44911
793.789	3.12951
797.164	3.98783
800.539	2.65631
803.913	5.10879
807.288	3.91839
810.663	3.29971
814.038	6.12371
817.413	1.38357
820.788	3.05813
824.162	6.45556
827.537	5.38321
830.912	4.91187
834.287	5.77347
837.662	4.72805
841.036	6.89111
844.411	8.03289
847.786	5.85174
851.161	9.08399
854.536	5.52995
857.91	6.32836
861.285	5.1085
864.66	3.50698
868.035	3.16038
871.41	4.19105
874.784	2.48678
878.159	4.68793
881.534	3.40321
884.909	1.87718
888.284	0.841888
891.659	4.72649
895.033	0.940491
898.408	1.9281
901.783	0.402779
905.158	0.301254
908.533	0.766052
911.908	1.45798
915.282	3.89243
918.657	1.62742
922.032	5.79545
925.407	12.4206
928.782	14.9854
932.156	21.6739
935.531	28.7512
938.906	45.3871
942.281	65.4831
945.656	90.715
949.03	128.202
952.405	186.977
955.78	253.598
959.155	332.663
962.53	398.327
965.905	429.473
969.279	392.988
972.654	283.649
976.029	186.788
979.404	132.411
982.779	104.89
986.154	89.1724
989.528	75.0261
992.903	64.5388
996.278	63.1653
999.653	54.94
1003.03	54.348
1006.4	47.056
1009.78	34.9055
1013.15	21.0006
1016.53	10.0739
1019.9	7.13975
1023.28	1.1962
1026.65	0.986496
1030.03	1.77176
1033.4	0.485268
1036.78	6.40281
1040.15	10.5305
1043.53	22.3951
1046.9	24.1405
1050.28	15.1505
1053.65	10.6304
1057.03	11.0257
1060.4	16.2465
1063.77	17.7713
1067.15	12.0746
1070.52	2.08266
1073.9	1.53551
1077.27	1.36977
1080.65	4.27102
1084.02	7.43298
1087.4	11.5208
1090.77	8.18598
1094.15	9.93428
1097.52	10.1976
1100.9	9.0508
1104.27	8.21232
1107.65	6.9275
1111.02	3.80904
1114.4	3.82001
1117.77	3.15585
1121.15	0.866707
1124.52	1.02888
1127.9	1.62279
1131.27	0.929359
1134.64	3.1553
1138.02	0.323456
1141.39	3.30128
1144.77	0.989975
1148.14	2.21301
1151.52	5.23656
1154.89	7.29853
1158.27	5.40275
1161.64	6.45166
1165.02	5.91549
1168.39	4.49262
1171.77	7.31843
1175.14	7.67173
1178.52	7.3089
1181.89	9.91392
1185.27	8.30614
1188.64	5.86713
1192.02	10.0008
1195.39	9.83656
1198.77	8.52252
1202.14	7.60692
1205.52	4.10362
1208.89	5.19361
1212.27	7.65654
1215.64	0.732452
1219.02	3.41513
1222.39	4.18613
1225.77	2.62016
1229.14	5.97662
1232.52	3.11769
1235.89	3.69463
1239.27	6.26938
1242.64	5.9104
1246.01	1.07532
1249.39	2.47939
1252.76	3.68393
1256.14	0.561241
1259.51	1.66261
1262.89	1.59082
1266.26	3.85551
1269.64	1.83345
1273.01	6.19665
1276.39	2.66223
1279.76	6.0178
1283.14	2.49883
