Measurement: Raman, 532 nm, unoriented, Raman Data Processed
Mineral: Corundum
Rruff sample: R110119
Ideal chemistry: Al_2_O_3_
Locality: Synthetic
Source: Gemological Institute of America
Description: A cut (10.50ct) sapphire gemstone, blue-gray under fluorescent light, which appears purple under halogen light; grown by flame fusion.
Raman shift (cm-1)	intensity
186.433	0
189.326	3.75726
192.219	3.81598
195.112	2.66296
198.004	3.65405
200.897	7.5567
203.79	15.918
206.682	15.4838
209.575	17.6058
212.468	8.31396
215.36	8.40546
218.253	3.58081
221.146	8.59924
224.038	7.67285
226.931	6.15692
229.824	7.36987
232.717	4.93152
235.609	4.42981
238.502	3.9956
241.395	5.79126
244.287	2.5647
247.18	16.8303
250.073	6.41437
252.965	5.10101
255.858	6.2096
258.751	2.62878
261.644	4.98968
264.536	5.76904
267.429	0.036438
270.322	4.27704
273.214	4.71582
276.107	5.07623
279	6.30133
281.892	4.93311
284.785	2.43634
287.678	0.041443
290.571	3.63995
293.463	0.326172
296.356	3.10675
299.249	11.5062
302.141	5.09033
305.034	4.16882
307.927	5.81775
310.82	1.6261
313.712	2.08026
316.605	0.102051
319.498	2.15942
322.39	0.243225
325.283	3.90234
328.176	1.98755
331.068	3.38184
333.961	1.45898
336.854	2.43982
339.747	4.43622
342.639	1.0658
345.532	1.22009
348.425	2.12634
351.317	4.86658
354.21	4.83862
357.103	5.89899
359.995	9.50324
362.888	20.0469
365.781	27.8145
368.673	38.9243
371.566	55.6018
374.459	105.286
377.352	194.941
380.244	184.75
383.137	37.4597
386.03	17.328
388.922	18.4922
391.815	17.6849
394.708	26.1996
397.601	42.389
400.493	98.6872
403.386	210.611
406.279	305.315
409.171	425.821
412.064	752.631
414.957	1052.92
417.849	1273.88
420.742	411.968
423.635	114.107
426.527	82.4313
429.42	91.2585
432.313	55.2383
435.206	26.9746
438.098	14.7991
440.991	8.58826
443.884	8.59705
446.776	7.07739
449.669	6.91272
452.562	4.04352
455.454	3.14441
458.347	4.07422
461.24	2.75073
464.133	1.48334
467.025	2.9422
469.918	2.73016
472.811	0.14563
475.703	2.7456
478.596	4.56946
481.489	3.16547
484.382	1.06482
487.274	1.93829
490.167	3.58563
493.06	4.09631
495.952	2.07153
498.845	8.09766
501.738	5.13409
504.63	0.054504
507.523	1.66852
510.416	5.24609
513.308	1.30353
516.201	2.93475
519.094	0.007446
521.987	4.66772
524.879	1.83936
527.772	10.5262
530.665	6.81445
533.557	3.48853
536.45	3.39587
539.343	2.22601
542.236	4.51453
545.128	7.6463
548.021	7.91632
550.914	8.34747
553.806	5.85059
556.699	7.14868
559.592	11.861
562.484	5.48669
565.377	3.17419
568.27	1.58862
571.163	4.44074
574.055	4.2207
576.948	10.3565
579.841	2.29352
582.733	8.15778
585.626	2.05225
588.519	2.02936
591.411	0.762451
594.304	2.33539
597.197	3.15588
600.09	0.668762
602.982	0.883972
605.875	1.25336
608.768	1.04571
611.66	1.45886
614.553	4.13763
617.446	9.31848
620.338	13.3951
623.231	20.4982
626.124	30.0346
629.016	66.9446
631.909	112.516
634.802	176.106
637.695	272.416
640.587	419.05
643.48	554.579
646.373	452.57
649.265	238.732
652.158	127.551
655.051	77.1313
657.943	54.6278
660.836	41.9003
663.729	29.8321
666.622	20.8047
669.514	23.4112
672.407	17.528
675.3	10.6073
678.192	13.4634
681.085	11.4616
683.978	13.3193
686.87	8.59985
689.763	11.3802
692.656	8.93213
695.549	6.74158
698.441	10.9341
701.334	5.47052
704.227	0.743713
707.119	3.76898
710.012	2.62231
712.905	7.03217
715.798	4.37604
718.69	1.06616
721.583	1.79358
724.476	1.52246
727.368	1.83203
730.261	6.80811
733.154	6.32623
736.046	8.73084
738.939	6.67889
741.832	12.0665
744.725	10.7583
747.617	13.7647
750.51	14.5969
753.403	19.8123
756.295	18.2535
759.188	11.5012
762.081	11.1523
764.973	7.49866
767.866	15.5107
770.759	8.25867
773.652	4.54993
776.544	2.81543
779.437	0.765015
782.33	3.58148
785.222	4.22919
788.115	0.026001
791.008	5.26282
793.9	5.64581
796.793	4.90631
799.686	2.25183
802.578	5.02564
805.471	2.61298
808.364	5.29144
811.257	3.77936
814.149	8.14398
817.042	4.56476
819.935	9.02325
822.827	7.51678
825.72	3.87018
828.613	6.91028
831.505	5.979
834.398	5.28754
837.291	4.57239
840.184	4.22247
843.076	5.95123
845.969	0.060547
848.862	1.0144
851.754	0.384521
854.647	0.381348
857.54	5.53076
860.433	9.55774
863.325	6.60455
866.218	8.23529
869.111	2.45776
872.003	5.90222
874.896	5.18976
877.789	4.43378
880.681	0.182373
883.574	3.11316
886.467	8.91553
889.36	9.03058
892.252	9.63367
895.145	6.36993
898.038	8.42871
900.93	8.17316
903.823	10.6208
906.716	9.50287
909.608	13.316
912.501	10.9539
915.394	16.6401
918.287	12.1473
921.179	14.5991
924.072	7.51318
926.965	10.9049
929.857	10.0347
932.75	3.3269
935.643	0.348389
938.535	1.08264
941.428	1.63843
944.321	0.709229
947.213	0.674072
950.106	2.70862
952.999	12.5151
955.892	16.728
958.784	8.25806
961.677	4.10327
964.57	7.7522
967.462	4.36633
970.355	9.74194
973.248	2.23315
976.14	6.69189
979.033	4.61816
981.926	7.31494
984.819	5.38977
987.711	4.98462
990.604	14.972
993.497	7.07666
996.389	9.04627
999.282	8.34815
1002.17	5.25854
1005.07	7.07422
1007.96	9.99927
1010.85	2.94568
1013.75	3.40491
1016.64	3.6228
1019.53	3.63306
1022.42	9.0846
1025.32	1.44849
1028.21	2.13391
1031.1	5.68262
1033.99	7.70398
1036.89	8.21582
1039.78	2.6427
1042.67	1.82068
1045.57	2.92847
1048.46	3.80872
1051.35	4.91382
1054.24	9.31165
1057.14	9.18115
1060.03	10.4134
1062.92	5.7063
1065.81	3.61682
1068.71	2.4596
1071.6	3.81873
1074.49	1.90857
1077.38	0.240234
1080.28	2.547
1083.17	0.699341
1086.06	0.708496
1088.96	4.57922
1091.85	0.800903
1094.74	5.53491
1097.63	5.55786
1100.53	13.3203
1103.42	3.25525
1106.31	4.79199
1109.2	3.6106
1112.1	7.66138
1114.99	5.03723
1117.88	2.64026
1120.78	5.31323
1123.67	8.49976
1126.56	1.27564
1129.45	5.57703
1132.35	1.28491
1135.24	0.189453
1138.13	12.8943
1141.02	7.77344
1143.92	3.40881
1146.81	3.63196
1149.7	6.11926
1152.6	5.06726
1155.49	3.31897
1158.38	1.25171
1161.27	0.816772
1164.17	7.68189
1167.06	5.99011
1169.95	1.07739
1172.84	8.15137
1175.74	7.31226
1178.63	4.26379
1181.52	6.72046
1184.41	7.83423
1187.31	7.80103
1190.2	10.5396
1193.09	8.35889
1195.99	13.6887
1198.88	9.22815
1201.77	9.4928
1204.66	8.19739
1207.56	6.78686
1210.45	18.9142
1213.34	12.878
1216.23	4.98181
1219.13	2.91528
1222.02	4.47192
1224.91	6.49902
1227.81	5.24878
1230.7	12.6233
1233.59	6.48022
1236.48	3.60107
1239.38	13.5947
1242.27	2.43738
1245.16	5.95874
1248.05	4.87903
1250.95	1.46033
1253.84	3.45532
1256.73	1.90515
1259.62	8.71741
1262.52	7.10571
1265.41	6.47375
1268.3	5.79712
1271.2	8.43884
1274.09	5.23865
1276.98	9.56055
1279.87	8.21545
1282.77	3.40625
1285.66	3.62146
1288.55	4.96509
1291.44	6.57324
1294.34	11.1351
1297.23	4.08093
1300.12	12.1669
1303.02	0
