Measurement: Raman, 780 nm, unoriented, Raman Data Processed
Mineral: Corundum
Rruff sample: R040096
Ideal chemistry: Al_2_O_3_
Locality: Sri Lanka
Source: University of Arizona Mineral Museum
Description: Pale purple hexagonal prism
Measured chemistry: Al_2.00_O_3_
Raman shift (cm-1)	intensity
149.415	0
152.307	1.52173
155.2	85.6436
158.093	29.6655
160.986	64.6853
163.878	67.6118
166.771	21.6077
169.664	102.242
172.556	154.838
175.449	14.3035
178.342	7.16064
181.234	9.83496
184.127	38.6611
187.02	57.8096
189.912	5.63367
192.805	48.5459
195.698	45.7899
198.591	5.50293
201.483	33.7478
204.376	33.7004
207.269	73.2669
210.161	30.4449
213.054	3.5531
215.947	40.2358
218.839	5.9082
221.732	30.2127
224.625	19.6408
227.518	42.4724
230.41	46.9819
233.303	56.3588
236.196	64.6265
239.088	26.5188
241.981	64.3212
244.874	73.1971
247.767	94.3444
250.659	90.3462
253.552	67.4568
256.445	60.7479
259.337	77.1096
262.23	42.3513
265.123	25.1023
268.015	92.3417
270.908	44.1166
273.801	35.0245
276.693	46.1713
279.586	70.3464
282.479	22.2654
285.372	35.3717
288.264	61.9408
291.157	46.3415
294.05	1.02832
296.942	1.56836
299.835	54.8105
302.728	40.7304
305.62	24.1796
308.513	37.3395
311.406	0.069214
314.299	6.4519
317.191	64.3362
320.084	23.2329
322.977	46.7994
325.869	13.0877
328.762	43.7555
331.655	1.27454
334.548	21.7722
337.44	20.4397
340.333	6.44202
343.226	10.3081
346.118	50.2103
349.011	17.0814
351.904	12.6433
354.796	12.1908
357.689	69.772
360.582	17.2253
363.474	52.8835
366.367	144.605
369.26	296.366
372.153	403.823
375.045	669.693
377.938	1585.78
380.831	2039.46
383.723	427.778
386.616	103.973
389.509	57.7764
392.401	34.908
395.294	35.6672
398.187	45.4917
401.08	82.0273
403.972	163.708
406.865	564.324
409.758	836.172
412.65	1350.1
415.543	2972.72
418.436	5689.07
421.329	2226.66
424.221	638.942
427.114	543.011
430.007	837.438
432.899	640.284
435.792	232.368
438.685	136.206
441.577	102.193
444.47	91.1175
447.363	157.769
450.255	227.711
453.148	82.4646
456.041	39.9922
458.934	25.5623
461.826	40.9038
464.719	19.023
467.612	19.4924
470.504	4.427
473.397	21.0572
476.29	27.1043
479.182	11.7104
482.075	38.168
484.968	35.5548
487.861	2.13599
490.753	31.4498
493.646	15.4019
496.539	12.2809
499.431	16.4967
502.324	36.3457
505.217	39.954
508.109	31.5182
511.002	43.7666
513.895	5.59009
516.788	47.0271
519.68	4.32141
522.573	9.66309
525.466	49.1051
528.358	22.3151
531.251	10.8203
534.144	29.5896
537.036	31.7258
539.929	9.93738
542.822	35.0874
545.715	24.5303
548.607	51.0203
551.5	5.82043
554.393	10.6901
557.285	22.5538
560.178	51.2343
563.071	30.764
565.963	66.9409
568.856	81.0742
571.749	146.985
574.641	304.134
577.534	484.786
580.427	227.595
583.32	74.9517
586.212	16.7651
589.105	28.8922
591.998	8.92541
594.89	6.55176
597.783	7.05017
600.676	18.3411
603.568	23.4748
606.461	15.5707
609.354	25.1446
612.247	25.6721
615.139	39.7869
618.032	26.8289
620.925	4.68225
623.817	30.5027
626.71	73.8866
629.603	69.3818
632.495	48.0855
635.388	127.477
638.281	213.281
641.174	332.55
644.066	444.214
646.959	429.856
649.852	218.411
652.744	139.271
655.637	84.4923
658.53	41.9634
661.423	51.0642
664.315	32.1752
667.208	39.9603
670.101	16.2495
672.993	23.601
675.886	27.3563
678.779	12.2906
681.671	25.7938
684.564	1.00037
687.457	22.1361
690.35	24.3051
693.242	9.79175
696.135	14.1229
699.028	37.7427
701.92	6.75635
704.813	36.2965
707.706	33.4961
710.598	2.33923
713.491	43.3163
716.384	25.9651
719.277	25.7773
722.169	8.79285
725.062	45.0293
727.955	36.0289
730.847	76.8807
733.74	91.5327
736.633	155.16
739.525	245.107
742.418	409.176
745.311	535.422
748.204	657.536
751.096	695.184
753.989	538.694
756.882	373.957
759.774	284.8
762.667	146.158
765.56	92.651
768.452	70.6307
771.345	63.6781
774.238	47.2129
777.131	17.5378
780.023	71.0243
782.916	34.1444
785.809	28.4369
788.701	0.151245
791.594	6.98889
794.487	20.1409
797.38	23.5378
800.272	7.72082
803.165	13.3976
806.058	5.9668
808.95	24.0026
811.843	42.7534
814.736	32.2856
817.628	15.5075
820.521	12.2474
823.414	33.0312
826.307	21.8274
829.199	15.9391
832.092	24.3297
834.985	6.55786
837.877	10.2845
840.77	41.5223
843.663	10.3389
846.555	29.4423
849.448	12.309
852.341	40.3669
855.233	8.45789
858.126	23.179
861.019	30.9568
863.912	31.5756
866.804	21.9211
869.697	39.4706
872.59	27.8552
875.482	37.1429
878.375	26.0609
881.268	28.627
884.16	27.1093
887.053	35.9648
889.946	17.795
892.838	13.5419
895.731	17.7493
898.624	35.2629
901.517	24.1377
904.409	43.4239
907.302	20.5133
910.195	37.7719
913.087	8.8396
915.98	60.7602
918.873	20.377
921.765	39.5646
924.658	18.8917
927.551	10.0627
930.444	30.9885
933.336	22.8751
936.229	40.3889
939.122	30.6306
942.014	44.7123
944.907	41.4833
947.8	33.6291
950.692	38.1321
953.585	50.3768
956.478	7.04059
959.371	14.0515
962.263	37.5232
965.156	26.1006
968.049	12.3123
970.941	7.56287
973.834	41.9572
976.727	5.74774
979.62	23.2764
982.512	17.8903
985.405	39.1922
988.298	60.8979
991.19	113.918
994.083	47.0798
996.976	29.4956
999.868	34.1425
1002.76	45.1108
1005.65	18.749
1008.55	13.2565
1011.44	7.82294
1014.33	18.0798
1017.23	25.219
1020.12	4.38959
1023.01	0.962036
1025.9	35.1728
1028.8	9.4884
1031.69	42.2043
1034.58	49.7645
1037.47	6.36194
1040.37	52.801
1043.26	4.92127
1046.15	16.4618
1049.04	23.5535
1051.94	42.8399
1054.83	37.5833
1057.72	48.7082
1060.62	30.1232
1063.51	10.5517
1066.4	22.6064
1069.29	39.5448
1072.19	33.8376
1075.08	44.3939
1077.97	19.0585
1080.86	22.0175
1083.76	20.9493
1086.65	23.256
1089.54	23.7161
1092.43	23.9749
1095.33	23.1242
1098.22	3.54981
1101.11	8.41779
1104.01	8.16565
1106.9	16.1466
1109.79	22.6647
1112.68	34.4261
1115.58	25.4784
1118.47	14.8722
1121.36	11.8231
1124.26	25.2894
1127.15	9.68036
1130.04	12.9901
1132.93	38.3962
1135.83	24.5017
1138.72	17.792
1141.61	12.1985
1144.5	26.891
1147.4	15.3338
1150.29	17.1901
1153.18	13.073
1156.07	27.2633
1158.97	10.2396
1161.86	16.0132
1164.75	3.28803
1167.64	30.5787
1170.54	29.3485
1173.43	17.1087
1176.32	2.14111
1179.22	23.9484
1182.11	34.5345
1185	35.3734
1187.89	24.3196
1190.79	11.3824
1193.68	31.4283
1196.57	24.9274
1199.46	49.157
1202.36	33.5753
1205.25	18.6976
1208.14	11.8495
1211.04	30.0065
1213.93	29.941
1216.82	24.8403
1219.71	42.1244
1222.61	41.7118
1225.5	56.463
1228.39	8.90387
1231.28	2.177
1234.18	28.0587
1237.07	3.60815
1239.96	0.261169
1242.86	21.8615
1245.75	13.0951
1248.64	13.3828
1251.53	40.734
1254.43	36.4501
1257.32	11.6443
1260.21	49.4444
1263.1	21.0647
1266	19.6748
1268.89	33.6263
1271.78	49.321
1274.67	23.5513
1277.57	38.2453
1280.46	27.2242
1283.35	20.8153
