Measurement: Raman, 780 nm, unoriented, Raman Data Processed
Mineral: Corundum
Rruff sample: X080005
Ideal chemistry: Al_2_O_3_
Locality: Synthetic
Source: Gemological Institute of America
Description: Faceted pink sapphire gemstone, 2.51 ct
Raman shift (cm-1)	intensity
124.157	0
127.531	1.49465
130.906	1.32992
134.281	1.22851
137.656	0.668594
141.031	0.988911
144.405	1.40623
147.78	0.066406
151.155	1.6421
154.53	0.650589
157.905	0.878521
161.28	1.07004
164.654	0.533283
168.029	1.47005
171.404	0.23814
174.779	0.506298
178.154	0.490944
181.529	0.092518
184.903	0.366806
188.278	0.009094
191.653	0.584129
195.028	0.655682
198.403	1.98191
201.777	0.861923
205.152	0.569206
208.527	1.10482
211.902	0.032223
215.277	0.821815
218.651	0.73959
222.026	1.2093
225.401	0.97282
228.776	1.20283
232.151	0.723526
235.526	1.20859
238.9	2.07319
242.275	0.275101
245.65	2.22639
249.025	1.67468
252.4	0.917442
255.774	1.40617
259.149	1.34113
262.524	1.08354
265.899	0.735783
269.274	0.535553
272.649	1.03593
276.023	1.04824
279.398	0.964687
282.773	0.83865
286.148	1.27687
289.523	0.033333
292.897	0.827175
296.272	0.295338
299.647	1.40522
303.022	1.5923
306.397	0.682625
309.772	0.912197
313.146	1.55302
316.521	0.593884
319.896	0.397678
323.271	0.319832
326.646	1.05132
330.021	0.121002
333.395	0.084141
336.77	0.534882
340.145	0.246986
343.52	0.396278
346.895	0.656929
350.269	0.814747
353.644	0.734295
357.019	0.79501
360.394	0.643929
363.769	0.740955
367.144	1.20359
370.518	0.380093
373.893	1.56508
377.268	3.25029
380.643	4.85697
384.018	1.25688
387.392	0.254063
390.767	0.934166
394.142	0.374954
397.517	1.272
400.892	5.08492
404.267	6.36374
407.641	8.25266
411.016	14.6492
414.391	45.0603
417.766	138.125
421.141	35.4596
424.515	8.1732
427.89	7.79285
431.265	10.824
434.64	4.97532
438.015	1.68752
441.389	2.74382
444.764	3.18911
448.139	9.63208
451.514	6.70818
454.889	2.00834
458.264	0.82383
461.639	0.72311
465.013	1.31976
468.388	0.968956
471.763	0.596577
475.138	0.399296
478.512	0.231464
481.887	0.245998
485.262	0.753056
488.637	0.763004
492.012	0.815125
495.387	0.397682
498.761	0.465866
502.136	0.049477
505.511	0.352112
508.886	0.038345
512.261	0.28167
515.636	0.465115
519.01	0.551247
522.385	0.307716
525.76	0.659969
529.135	0.534199
532.51	0.420708
535.885	0.713638
539.259	1.20667
542.634	0.776646
546.009	0.716717
549.384	1.6803
552.759	0.679462
556.133	0.891903
559.508	1.85347
562.883	2.18837
566.258	3.039
569.633	3.90294
573.007	7.93307
576.382	21.6074
579.757	12.8891
583.132	3.27872
586.507	2.0023
589.882	1.21402
593.256	0.022339
596.631	1.12115
600.006	0.950397
603.381	0.223255
606.756	0.727985
610.13	0.201611
613.505	0.535538
616.88	1.11092
620.255	0.397861
623.63	0.982525
627.005	1.22247
630.379	0.314007
633.754	1.02937
637.129	0.789631
640.504	2.01681
643.879	2.114
647.254	2.19223
650.628	1.0137
654.003	1.14661
657.378	1.05341
660.753	0.038082
664.128	1.2933
667.502	0.488342
670.877	0.578838
674.252	0.17704
677.627	0.321724
681.002	0.407261
684.376	0.850067
687.751	0.265945
691.126	0.14444
694.501	0.145679
697.876	0.527912
701.251	0.198486
704.625	0.855095
708	0.618233
711.375	0.958244
714.75	0.822865
718.125	1.78085
721.5	1.65916
724.874	2.26798
728.249	3.06778
731.624	5.12837
734.999	7.88642
738.374	11.3014
741.748	16.5867
745.123	25.7018
748.498	36.4706
751.873	39.9875
755.248	24.9847
758.622	14.3453
761.997	8.94185
765.372	5.04599
768.747	4.4952
772.122	2.80875
775.497	2.00283
778.871	1.15404
782.246	1.5151
785.621	0.446327
788.996	0.427994
792.371	0.78759
795.745	0.734711
799.12	0.291981
802.495	0.657799
805.87	1.0309
809.245	0.490223
812.62	0.057568
815.994	1.17966
819.369	0.361984
822.744	0.531517
826.119	0.402355
829.494	0.896255
832.869	0.185917
836.243	0.667603
839.618	1.12783
842.993	1.00277
846.368	0.568558
849.743	1.02292
853.117	0.820118
856.492	0.665874
859.867	1.73334
863.242	0.774868
866.617	0.327492
869.991	0.689285
873.366	0.044346
876.741	0.95182
880.116	0.634062
883.491	0.743353
886.866	0.592854
890.24	0.948835
893.615	0.017376
896.99	0.315821
900.365	0.276207
903.74	0.814476
907.115	0.463938
910.489	0.396713
913.864	0.23612
917.239	1.32663
920.614	0.294598
923.989	0.710075
927.364	0.448809
930.738	0.68269
934.113	0.342997
937.488	0.167591
940.863	0.50362
944.237	0.077978
947.612	0.459721
950.987	0.975506
954.362	0.485363
957.737	0.947372
961.112	0.206882
964.486	0.070995
967.861	0.53595
971.236	0.805222
974.611	1.12367
977.986	0.521885
981.361	0.881462
984.735	1.41382
988.11	0.901182
991.485	0.54826
994.86	0.831722
998.235	0.952147
1001.61	0.448374
1004.98	0.236523
1008.36	0.480804
1011.73	0.872927
1015.11	0.195358
1018.48	0.810404
1021.86	0.110056
1025.23	0.757235
1028.61	1.18755
1031.98	0.412508
1035.36	0.332462
1038.73	1.30662
1042.11	0.949137
1045.48	0.586645
1048.86	0.59939
1052.23	1.24848
1055.61	0.496859
1058.98	0.953699
1062.36	0.906994
1065.73	0.690926
1069.11	1.23191
1072.48	0.521389
1075.86	0.259727
1079.23	0.381525
1082.61	0.16861
1085.98	0.597681
1089.36	1.34115
1092.73	1.19206
1096.1	0.599998
1099.48	1.31212
1102.85	0.85733
1106.23	0.35634
1109.6	1.5431
1112.98	0.624592
1116.35	0.262636
1119.73	0.094946
1123.1	0.370754
1126.48	0.891619
1129.85	0.337322
1133.23	0.005638
1136.6	0.298939
1139.98	0.577532
1143.35	0.103176
1146.73	0.388863
1150.1	0.597713
1153.48	0.568148
1156.85	0.327692
1160.23	1.09073
1163.6	0.817638
1166.98	0.522106
1170.35	0.751516
1173.72	0.352842
1177.1	1.01651
1180.47	0.546238
1183.85	0.323004
1187.22	0.67296
1190.6	0.949574
1193.97	1.30147
1197.35	1.07423
1200.72	0.627068
1204.1	1.16203
1207.47	0.731886
1210.85	0.190691
1214.22	1.50845
1217.6	0.545118
1220.97	0.216539
1224.35	1.13663
1227.72	0.861248
1231.1	0.752991
1234.47	0.785666
1237.85	1.31731
1241.22	1.14925
1244.6	0.543489
1247.97	0.972513
1251.35	0.182423
1254.72	1.52773
1258.1	1.45737
1261.47	1.27635
1264.85	0.886328
1268.22	1.20968
1271.6	0.91861
1274.97	0.636604
1278.35	1.2301
1281.72	1.12094
1285.09	0.896276
