Measurement: Raman, 780 nm, unoriented, Raman Data Processed
Mineral: Corundum
Rruff sample: R100131
Ideal chemistry: Al_2_O_3_
Locality: Madagascar
Source: William W. Pinch
Description: Pale blue cut gemstone
Raman shift (cm-1)	intensity
166.298	0
169.19	1.30173
172.083	2.13339
174.976	2.01048
177.869	3.09365
180.761	3.63583
183.654	0.465378
186.547	1.48349
189.439	0.012444
192.332	1.166
195.225	0.628189
198.117	1.84837
201.01	0.841049
203.903	1.95678
206.796	2.55846
209.688	2.34303
212.581	3.21797
215.474	2.617
218.366	6.86275
221.259	7.66997
224.152	5.03008
227.044	4.00116
229.937	4.76078
232.83	6.82484
235.722	6.84113
238.615	11.0564
241.508	9.82359
244.401	12.4243
247.293	12.5338
250.186	10.3579
253.079	8.23794
255.971	7.73764
258.864	9.0519
261.757	5.92652
264.649	7.098
267.542	4.71549
270.435	6.4359
273.328	6.70783
276.22	3.74073
279.113	4.09083
282.006	4.40725
284.898	1.97705
287.791	3.55968
290.684	2.29318
293.576	1.55383
296.469	1.27417
299.362	2.68523
302.255	3.70543
305.147	2.65267
308.04	3.09878
310.933	0.706806
313.825	1.50545
316.718	2.67304
319.611	0.560291
322.503	2.30618
325.396	0.570026
328.289	0.825912
331.182	1.16558
334.074	0.800198
336.967	0.360176
339.86	1.92074
342.752	3.34494
345.645	6.86306
348.538	1.00295
351.43	4.0952
354.323	4.45488
357.216	7.72804
360.108	11.0958
363.001	11.7178
365.894	15.5814
368.787	21.9181
371.679	32.4299
374.572	60.0333
377.465	144.427
380.357	150.899
383.25	40.7306
386.143	18.4795
389.036	9.61105
391.928	9.79156
394.821	10.195
397.714	10.7404
400.606	14.932
403.499	19.114
406.392	30.3039
409.284	50.3233
412.177	111.793
415.07	303.728
417.962	481.559
420.855	133.399
423.748	39.0483
426.641	32.4628
429.533	45.2738
432.426	32.66
435.319	7.31798
438.211	3.30605
441.104	1.6216
443.997	0.3713
446.889	9.58837
449.782	13.3478
452.675	4.74328
455.567	0.717171
458.46	1.87479
461.353	0.715683
464.246	4.66087
467.138	1.68854
470.031	6.00864
472.924	5.57731
475.816	4.18685
478.709	4.24625
481.602	5.76337
484.495	4.65447
487.387	2.08666
490.28	1.50568
493.173	2.51594
496.065	1.72489
498.958	1.8851
501.851	4.19259
504.743	0.800278
507.636	1.69889
510.529	1.5557
513.422	0.044037
516.314	3.11587
519.207	2.57696
522.1	1.7806
524.992	5.12873
527.885	3.55907
530.778	3.82265
533.67	1.51947
536.563	7.39752
539.456	6.62549
542.348	8.69688
545.241	5.98717
548.134	8.19342
551.027	7.17357
553.919	5.03615
556.812	3.80707
559.705	4.93027
562.597	6.73371
565.49	1.23592
568.383	5.96172
571.275	8.19522
574.168	21.6684
577.061	30.6676
579.954	13.0457
582.846	4.66947
585.739	0.405891
588.632	1.52878
591.524	0.94302
594.417	0.052799
597.31	0.54298
600.202	0.479122
603.095	0.341633
605.988	1.2503
608.881	2.23341
611.773	4.51664
614.666	3.98745
617.559	4.73898
620.451	3.61328
623.344	3.47967
626.237	2.08286
629.129	6.65807
632.022	8.95647
634.915	11.9583
637.808	21.9355
640.7	38.8859
643.593	54.2007
646.486	44.5973
649.378	25.9948
652.271	19.0663
655.164	12.0083
658.056	7.09091
660.949	8.23716
663.842	8.26012
666.735	9.75308
669.627	8.03439
672.52	7.92806
675.413	11.1007
678.305	9.23048
681.198	4.9441
684.091	7.35148
686.983	3.72718
689.876	0.955894
692.769	3.87679
695.662	7.36023
698.554	5.79226
701.447	4.897
704.34	9.88379
707.232	9.42548
710.125	8.40829
713.018	0.01664
715.91	1.62342
718.803	0.587418
721.696	3.59411
724.588	1.09957
727.481	0.048637
730.374	3.49708
733.266	7.05302
736.159	8.1497
739.052	14.8776
741.945	24.4927
744.837	39.7881
747.73	60.3163
750.623	62.6593
753.515	48.6418
756.408	31.4142
759.301	19.3794
762.193	13.3446
765.086	8.4099
767.979	4.37704
770.872	5.00885
773.764	2.5457
776.657	1.3902
779.55	2.16408
782.442	4.15041
785.335	5.06072
788.228	2.69914
791.12	1.94423
794.013	4.45911
796.906	2.76541
799.799	5.11334
802.691	6.44395
805.584	6.34201
808.477	6.17056
811.369	6.55743
814.262	4.03156
817.155	5.30645
820.048	4.00004
822.94	5.44629
825.833	2.72819
828.726	2.53004
831.618	4.73074
834.511	3.34423
837.404	3.2742
840.296	2.89788
843.189	4.26843
846.082	3.76712
848.975	5.57252
851.867	3.56534
854.76	4.19569
857.653	6.90475
860.545	4.81303
863.438	5.69434
866.331	2.14368
869.223	3.73386
872.116	2.01811
875.009	2.48338
877.901	1.13063
880.794	2.86607
883.687	0.863659
886.58	1.42368
889.472	0.988995
892.365	2.91975
895.258	2.27305
898.15	0.195072
901.043	0.344044
903.936	1.10551
906.828	1.63945
909.721	1.72329
912.614	1.07608
915.506	1.34169
918.399	1.5151
921.292	0.589348
924.185	4.75162
927.077	1.74509
929.97	1.3142
932.863	1.61038
935.755	1.95314
938.648	1.91985
941.541	2.72247
944.433	0.348667
947.326	3.69416
950.219	4.16538
953.112	5.08773
956.004	4.73339
958.897	2.98798
961.79	4.07209
964.682	2.0747
967.575	6.73964
970.468	2.69511
973.361	2.43908
976.253	0.33086
979.146	4.30981
982.039	2.48104
984.931	4.30534
987.824	1.81646
990.717	2.81188
993.609	3.35528
996.502	4.69729
999.395	5.54337
1002.29	3.59906
1005.18	2.92727
1008.07	6.01122
1010.97	4.84279
1013.86	2.75241
1016.75	0.925011
1019.64	3.98779
1022.54	0.800011
1025.43	4.57971
1028.32	4.27277
1031.21	2.69911
1034.11	1.00154
1037	0.069279
1039.89	2.62048
1042.79	1.6891
1045.68	2.724
1048.57	1.54997
1051.46	2.22437
1054.36	0.751251
1057.25	2.83997
1060.14	2.69608
1063.03	4.19895
1065.93	3.92466
1068.82	1.12792
1071.71	4.64626
1074.61	0.802872
1077.5	3.49429
1080.39	0.947037
1083.28	2.45862
1086.18	5.41007
1089.07	2.40881
1091.96	1.61577
1094.85	0.560459
1097.75	2.65054
1100.64	2.50912
1103.53	0.93692
1106.42	0.611244
1109.32	2.14518
1112.21	1.46032
1115.1	1.01212
1117.99	2.33036
1120.89	0.912773
1123.78	3.60656
1126.67	2.71906
1129.57	3.4104
1132.46	1.19191
1135.35	2.61687
1138.24	1.3684
1141.14	2.00413
1144.03	0.512802
1146.92	0.447308
1149.82	4.76821
1152.71	1.30089
1155.6	5.37081
1158.49	3.72152
1161.39	6.3282
1164.28	2.2799
1167.17	2.80134
1170.06	3.0166
1172.96	0.768265
1175.85	1.16776
1178.74	3.09758
1181.63	1.62726
1184.53	2.5305
1187.42	0.299007
1190.31	1.40973
1193.21	4.41624
1196.1	1.74802
1198.99	5.03232
1201.88	1.93152
1204.78	5.85175
1207.67	7.0619
1210.56	3.24912
1213.45	2.84887
1216.35	5.16732
1219.24	3.08125
1222.13	3.36824
1225.03	3.34975
1227.92	1.68609
1230.81	2.57555
1233.7	0.674801
1236.6	4.83065
1239.49	2.53323
1242.38	3.71839
1245.27	5.71392
1248.17	4.60272
1251.06	3.0277
1253.95	1.25472
1256.85	2.94694
1259.74	2.29797
1262.63	2.5467
1265.52	2.64491
1268.42	4.35212
1271.31	1.46959
1274.2	2.5746
1277.09	0.58173
1279.99	0.923138
1282.88	1.62721
