Measurement: Raman, 532 nm, unoriented, Raman Data Processed
Mineral: Corundum
Rruff sample: X080003
Ideal chemistry: Al_2_O_3_
Locality: Synthetic
Source: Gemological Institute of America
Description: Faceted yellow sapphire gemstone, 4.70 ct
Raman shift (cm-1)	intensity
144.041	0
146.933	3.86929
149.826	0.19622
152.719	2.62012
155.612	4.03516
158.504	5.32297
161.397	6.83235
164.29	6.14732
167.182	6.15441
170.075	8.1655
172.968	5.33992
175.86	6.25333
178.753	7.08115
181.646	5.91485
184.538	6.76746
187.431	4.55983
190.324	2.85806
193.217	3.18192
196.109	1.71934
199.002	0.824089
201.895	1.19907
204.787	0.974182
207.68	0.014977
210.573	1.34883
213.465	0.192818
216.358	0.097008
219.251	0.463974
222.143	0.046341
225.036	1.06819
227.929	3.00075
230.822	1.08265
233.714	1.4025
236.607	1.81429
239.5	2.95862
242.392	3.8777
245.285	4.56094
248.178	5.41313
251.071	4.25098
253.963	4.82427
256.856	7.28345
259.749	4.14145
262.641	4.09959
265.534	3.00411
268.427	4.932
271.32	4.2332
274.212	4.9947
277.105	5.13326
279.998	4.71437
282.89	3.80941
285.783	5.75229
288.676	6.6876
291.568	4.66524
294.461	6.59368
297.354	5.86705
300.247	4.3437
303.139	4.75772
306.032	2.14005
308.925	1.92915
311.817	3.20921
314.71	2.86748
317.603	4.60586
320.495	2.98949
323.388	1.97859
326.281	0.038612
329.173	0.205132
332.066	0.687798
334.959	0.531731
337.852	0.226974
340.744	1.48162
343.637	0.216423
346.53	0.990021
349.422	1.75265
352.315	5.94579
355.208	6.08559
358.1	5.5825
360.993	7.12704
363.886	16.1943
366.779	19.8278
369.671	26.2819
372.564	38.6884
375.457	67.7297
378.349	121.854
381.242	64.3864
384.135	13.4005
387.027	7.55717
389.92	6.5345
392.813	7.32021
395.705	8.58577
398.598	14.4191
401.491	42.2398
404.384	65.9609
407.276	90.7853
410.169	140.414
413.062	254.401
415.954	472.824
418.847	477.138
421.74	78.4017
424.632	37.5487
427.525	38.6289
430.418	41.8987
433.311	21.4349
436.203	11.1207
439.096	5.92259
441.989	4.15916
444.881	4.37531
447.774	5.50204
450.667	6.75161
453.56	1.5016
456.452	0.909386
459.345	0.550865
462.238	0.561737
465.13	0.628212
468.023	1.39765
470.916	1.09678
473.808	0.913277
476.701	0.61615
479.594	2.93971
482.486	4.34241
485.379	6.93639
488.272	5.3839
491.165	4.87892
494.057	2.76363
496.95	2.84467
499.843	4.38207
502.735	5.91208
505.628	6.94138
508.521	6.36729
511.413	6.35377
514.306	6.7567
517.199	7.90271
520.092	6.18365
522.984	4.31148
525.877	2.13592
528.77	2.27687
531.663	1.79517
534.555	0.304253
537.448	0.294449
540.341	1.14436
543.233	1.35818
546.126	0.651268
549.019	1.84833
551.911	2.69791
554.804	3.12193
557.697	1.91445
560.59	1.78938
563.482	3.25568
566.375	3.46989
569.268	5.33272
572.16	7.34348
575.053	7.65705
577.946	10.9565
580.838	4.63274
583.731	3.2532
586.624	3.24833
589.516	0.791199
592.409	0.216408
595.302	0.371384
598.194	0.655479
601.087	0.0485
603.98	0.327431
606.873	1.08155
609.765	2.75968
612.658	0.948883
615.551	2.34335
618.443	4.75165
621.336	6.19564
624.229	10.7181
627.121	16.6068
630.014	28.6898
632.907	43.6696
635.8	66.0039
638.692	97.7471
641.585	138.607
644.478	165.71
647.37	119.725
650.263	64.4441
653.156	36.612
656.048	24.2303
658.941	18.2558
661.834	12.9586
664.727	11.7087
667.619	11.063
670.512	8.74665
673.405	6.83758
676.297	5.59528
679.19	4.96603
682.083	2.71149
684.976	0.651321
687.868	0.095818
690.761	0.698059
693.654	0.076363
696.546	0.231781
699.439	3.84716
702.332	8.49919
705.224	20.2612
708.117	32.5733
711.01	43.7436
713.903	40.4544
716.795	25.108
719.688	14.9587
722.581	8.23109
725.473	4.8824
728.366	4.97297
731.259	6.42352
734.151	7.67008
737.044	12.5575
739.937	15.6079
742.83	20.8229
745.722	26.768
748.615	30.5971
751.508	27.0328
754.4	18.5528
757.293	12.3283
760.186	8.4307
763.078	3.90987
765.971	2.68217
768.864	0.664856
771.756	0.239685
774.649	0.701546
777.542	0.340019
780.435	1.1144
783.327	2.31969
786.22	2.61021
789.113	3.74326
792.005	4.14978
794.898	7.12773
797.791	7.11993
800.683	7.32905
803.576	8.49181
806.469	8.6635
809.362	10.7125
812.254	9.46463
815.147	8.21695
818.04	6.60164
820.932	9.32063
823.825	6.48111
826.718	5.15246
829.611	6.03815
832.503	7.51053
835.396	6.15054
838.289	5.16483
841.181	5.44824
844.074	5.5109
846.967	5.1652
849.859	5.40807
852.752	4.88731
855.645	5.13104
858.538	4.66453
861.43	4.37565
864.323	4.65151
867.216	4.84811
870.108	5.21902
873.001	4.58269
875.894	3.90307
878.786	2.42453
881.679	1.7176
884.572	1.39732
887.465	1.44427
890.357	0.382141
893.25	0.112396
896.143	0.570869
899.035	0.111809
901.928	0.429779
904.821	0.280472
907.713	1.81499
910.606	0.25103
913.499	0.745811
916.391	1.19951
919.284	0.369331
922.177	2.7838
925.07	0.592278
927.962	1.91608
930.855	1.42374
933.748	0.976959
936.64	0.4795
939.533	0.654251
942.426	1.46223
945.318	3.00664
948.211	1.80289
951.104	2.55699
953.997	2.04559
956.889	2.23958
959.782	0.943192
962.675	3.10104
965.567	3.21577
968.46	1.7377
971.353	1.99908
974.245	3.27199
977.138	2.29735
980.031	3.53998
982.924	2.71079
985.816	1.82701
988.709	2.13651
991.602	2.69118
994.494	2.33
997.387	3.29662
1000.28	2.28529
1003.17	1.46866
1006.07	2.90437
1008.96	3.18347
1011.85	1.32851
1014.74	0.101303
1017.64	2.17877
1020.53	1.37332
1023.42	1.78354
1026.31	1.87782
1029.21	1.48538
1032.1	1.37862
1034.99	0.986984
1037.88	2.2067
1040.78	1.32947
1043.67	0.242874
1046.56	0.141678
1049.46	2.14362
1052.35	0.922531
1055.24	2.0693
1058.13	0.108658
1061.03	1.99045
1063.92	0.913498
1066.81	2.31337
1069.7	2.07727
1072.6	0.455765
1075.49	1.55864
1078.38	1.97336
1081.28	1.97868
1084.17	2.20825
1087.06	2.01352
1089.95	1.21716
1092.85	1.14047
1095.74	0.578598
1098.63	1.29602
1101.52	3.40463
1104.42	3.01517
1107.31	1.19884
1110.2	0.957993
1113.1	2.05281
1115.99	0.081558
1118.88	1.45421
1121.77	1.40684
1124.67	0.976837
1127.56	1.76347
1130.45	0.522888
1133.34	3.96994
1136.24	1.47159
1139.13	3.20404
1142.02	2.77499
1144.91	0.049591
1147.81	1.13738
1150.7	2.92902
1153.59	2.97481
1156.49	5.05695
1159.38	2.50017
1162.27	2.58302
1165.16	1.80632
1168.06	1.4044
1170.95	0.95752
1173.84	0.658661
1176.73	2.70352
1179.63	1.30853
1182.52	3.31792
1185.41	0.727173
1188.31	0.682358
1191.2	2.69917
1194.09	3.07977
1196.98	2.09082
1199.88	3.8154
1202.77	2.63487
1205.66	1.36977
1208.55	0.939194
1211.45	3.48981
1214.34	4.49283
1217.23	2.55389
1220.12	1.4042
1223.02	3.4124
1225.91	2.69501
1228.8	2.29686
1231.7	2.47949
1234.59	2.65039
1237.48	0.598831
1240.37	1.65283
1243.27	2.70442
1246.16	2.04369
1249.05	2.56064
1251.94	2.29367
1254.84	0.739456
1257.73	1.64291
1260.62	1.42021
1263.52	1.10643
