Measurement: Raman, 780 nm, unoriented, Raman Data Processed
Mineral: Corundum
Rruff sample: R060020
Ideal chemistry: Al_2_O_3_
Locality: Yogo Gulch, Montana, USA
Source: American Museum of Natural History
Description: Water rounded light blue fragment
Measured chemistry: (Al_1.99_Fe^3+^_0.01_)_Î£=2_O_3_ ; Fe^3+^ by charge balance
Raman shift (cm-1)	intensity
107.527	0
110.902	0.408508
114.277	1.00733
117.652	0.823448
121.026	0.765207
124.401	0.635283
127.776	0.874952
131.151	0.922558
134.526	0.606741
137.901	1.09232
141.275	0.439522
144.65	0.276329
148.025	0.813081
151.4	0.599375
154.775	0.200513
158.149	0.200272
161.524	0.018142
164.899	0.309527
168.274	0.526474
171.649	0.382612
175.024	0.373219
178.398	0.794557
181.773	1.20098
185.148	1.09147
188.523	1.69148
191.898	2.4764
195.272	2.27367
198.647	3.09773
202.022	3.10923
205.397	4.25416
208.772	3.40354
212.147	3.91373
215.521	3.17983
218.896	2.75945
222.271	2.61926
225.646	2.47066
229.021	2.47893
232.395	2.27893
235.77	2.20651
239.145	3.07635
242.52	2.16281
245.895	2.1742
249.269	2.053
252.644	2.52964
256.019	2.00608
259.394	1.80783
262.769	1.95169
266.144	2.43821
269.518	2.38524
272.893	1.58553
276.268	1.46834
279.643	1.74368
283.018	1.74104
286.392	1.72511
289.767	2.23593
293.142	1.63016
296.517	1.0187
299.892	1.84443
303.267	1.63281
306.641	0.874278
310.016	1.18345
313.391	0.571626
316.766	0.364685
320.141	0.256323
323.515	0.70588
326.89	0.417793
330.265	0.057373
333.64	0.466489
337.015	0.486932
340.39	0.568614
343.764	0.080231
347.139	0.464106
350.514	1.53878
353.889	2.2459
357.264	3.02205
360.638	5.83009
364.013	6.98828
367.388	9.14429
370.763	11.3288
374.138	16.6194
377.512	35.6306
380.887	22.9669
384.262	8.57152
387.637	5.73951
391.012	5.53772
394.387	5.48531
397.761	10.6106
401.136	17.1336
404.511	18.5378
407.886	28.6471
411.261	45.8848
414.635	100.203
418.01	139.516
421.385	24.376
424.76	10.5189
428.135	10.9996
431.51	8.91026
434.884	4.20258
438.259	3.92168
441.634	3.37902
445.009	4.77963
448.384	8.1048
451.759	2.94272
455.133	1.46013
458.508	0.951185
461.883	0.467175
465.258	0.675379
468.633	0.099567
472.007	0.198626
475.382	0.372644
478.757	1.22211
482.132	1.51255
485.507	2.38451
488.882	2.24894
492.256	0.803755
495.631	0.102924
499.006	0.439112
502.381	0.601448
505.756	0.127657
509.13	0.182528
512.505	0.582731
515.88	0.759651
519.255	0.660679
522.63	0.349821
526.005	0.908045
529.379	0.362082
532.754	0.464003
536.129	0.767847
539.504	0.274717
542.879	0.306099
546.253	1.08466
549.628	1.05453
553.003	0.340132
556.378	0.947729
559.753	1.29524
563.127	1.66288
566.502	2.09396
569.877	3.77207
573.252	8.55742
576.627	14.1385
580.001	3.52124
583.376	1.21874
586.751	0.552839
590.126	0.106218
593.501	0.758545
596.875	0.87851
600.25	0.66707
603.625	1.04178
607	0.48665
610.375	1.07617
613.75	1.11818
617.125	0.946928
620.499	0.219313
623.874	0.84309
627.249	1.64623
630.624	1.83457
633.999	1.08903
637.373	2.60371
640.748	3.15211
644.123	4.31873
647.498	3.56623
650.873	3.16353
654.247	2.68586
657.622	1.96427
660.997	2.62531
664.372	2.23985
667.747	2.379
671.121	2.60262
674.496	2.65997
677.871	2.32745
681.246	2.24314
684.621	1.59598
687.996	1.2664
691.37	0.382116
694.745	0.36753
698.12	0.070031
701.495	0.777188
704.87	0.350635
708.245	0.829863
711.619	0.14059
714.994	0.749788
718.369	1.7097
721.744	2.53629
725.119	3.87857
728.493	6.53757
731.868	10.2523
735.243	15.4421
738.618	21.3192
741.993	29.7545
745.367	40.8809
748.742	48.7966
752.117	40.7621
755.492	26.2237
758.867	17.6586
762.242	12.0879
765.616	8.10936
768.991	5.89908
772.366	6.06677
775.741	5.4859
779.116	4.79775
782.49	4.74364
785.865	4.40353
789.24	4.34523
792.615	4.31249
795.99	4.57502
799.365	5.39234
802.739	5.71901
806.114	6.00124
809.489	6.40436
812.864	5.77323
816.239	5.48611
819.614	4.34809
822.988	2.78663
826.363	2.13967
829.738	1.07721
833.113	1.09885
836.487	1.50012
839.862	0.523207
843.237	0.701666
846.612	0.275148
849.987	0.599211
853.362	0.816416
856.736	0.664168
860.111	0.987293
863.486	0.698539
866.861	0.501589
870.236	0.344747
873.611	0.014996
876.985	0.223949
880.36	0.001045
883.735	0.031438
887.11	0.257931
890.485	0.002762
893.859	0.119279
897.234	0.3902
900.609	0.151668
903.984	0.101219
907.359	0.14998
910.734	0.169855
914.108	0.055646
917.483	0.06807
920.858	0.932638
924.233	0.336333
927.607	0.582015
930.982	0.749735
934.357	0.143341
937.732	0.638332
941.107	0.671426
944.482	0.949067
947.856	0.690534
951.231	1.07753
954.606	1.5922
957.981	1.6791
961.356	1.57721
964.731	2.14721
968.105	1.74304
971.48	1.69676
974.855	1.63553
978.23	1.55462
981.605	1.32141
984.979	1.27852
988.354	1.47375
991.729	1.33108
995.104	1.05924
998.479	0.985779
1001.85	0.937029
1005.23	0.740421
1008.6	0.02599
1011.98	0.321424
1015.35	0.609708
1018.73	0.32502
1022.1	1.57352
1025.48	0.426492
1028.85	1.67442
1032.23	1.04293
1035.6	0.274199
1038.98	0.471008
1042.35	0.426555
1045.73	0.268825
1049.1	0.881818
1052.48	0.366978
1055.85	0.938136
1059.22	0.521983
1062.6	0.671801
1065.97	0.945836
1069.35	0.379968
1072.72	0.740973
1076.1	1.14786
1079.47	0.084991
1082.85	0.274625
1086.22	0.643516
1089.6	0.081199
1092.97	0.394333
1096.35	0.018618
1099.72	0.192454
1103.1	0.453974
1106.47	0.663071
1109.85	0.75478
1113.22	0.364438
1116.6	0.39565
1119.97	0.250684
1123.35	0.268735
1126.72	0.454498
1130.1	0.248696
1133.47	0.033871
1136.85	0.073786
1140.22	0.801973
1143.6	0.129832
1146.97	0.333876
1150.35	0.403708
1153.72	0.218925
1157.1	0.362808
1160.47	0.440709
1163.85	0.639934
1167.22	0.554694
1170.59	0.483067
1173.97	0.37413
1177.34	0.375218
1180.72	0.534732
1184.09	0.451826
1187.47	0.077196
1190.84	0.316308
1194.22	0.548849
1197.59	0.16083
1200.97	0.431843
1204.34	0.067782
1207.72	0.634667
1211.09	0.938474
1214.47	0.452032
1217.84	0.680691
1221.22	0.498229
1224.59	0.68709
1227.97	0.355961
1231.34	0.417149
1234.72	0.339004
1238.09	0.522426
1241.46	0.277147
1244.84	0.721316
1248.21	0.499641
1251.59	0.405896
1254.96	0.605688
1258.34	0.135328
1261.71	0.154798
1265.09	0.507303
1268.46	0.970647
1271.84	0.259582
1275.21	1.26931
1278.59	0.702474
1281.96	0.676755
1285.34	0.624617
1288.71	0
