Measurement: Raman, 532 nm, unoriented, Raman Data Processed
Mineral: Corundum
Rruff sample: R060020
Ideal chemistry: Al_2_O_3_
Locality: Yogo Gulch, Montana, USA
Source: American Museum of Natural History
Description: Water rounded light blue fragment
Measured chemistry: (Al_1.99_Fe^3+^_0.01_)_Î£=2_O_3_ ; Fe^3+^ by charge balance
Raman shift (cm-1)	intensity
130.047	0
132.94	0.120392
135.833	0.911621
138.725	2.66461
141.618	1.67816
144.511	4.09634
147.403	5.52127
150.296	6.92639
153.189	3.91067
156.081	4.26556
158.974	3.94061
161.867	3.44693
164.76	0.057404
167.652	1.58716
170.545	4.53531
173.438	0.602142
176.33	3.56094
179.223	2.04547
182.116	4.66324
185.008	0.869263
187.901	1.34293
190.794	0.075836
193.686	2.02039
196.579	0.764618
199.472	2.39389
202.365	4.16238
205.257	4.64951
208.15	4.8129
211.043	5.72025
213.935	2.58435
216.828	3.83804
219.721	3.96466
222.613	5.87775
225.506	2.70413
228.399	1.69897
231.292	4.70743
234.184	3.63043
237.077	0.493469
239.97	3.4484
242.862	3.12863
245.755	4.3396
248.648	4.45111
251.541	2.76001
254.433	1.9617
257.326	1.82519
260.219	1.37842
263.111	6.01373
266.004	3.70331
268.897	2.00684
271.789	3.57849
274.682	3.88647
277.575	7.07758
280.467	5.87427
283.36	3.39841
286.253	6.23184
289.146	8.20099
292.038	8.35458
294.931	3.73114
297.824	5.71793
300.716	5.21091
303.609	4.3551
306.502	7.62949
309.394	7.84537
312.287	9.08105
315.18	6.2348
318.073	4.74805
320.965	1.62997
323.858	3.28986
326.751	0.368286
329.643	0.818787
332.536	0.740784
335.429	2.08496
338.322	2.78583
341.214	1.06915
344.107	0.775574
347	1.44818
349.892	5.1665
352.785	7.46216
355.678	7.68408
358.57	10.3691
361.463	18.8342
364.356	32.3486
367.248	34.1359
370.141	47.365
373.034	70.7372
375.927	129.248
378.819	176.252
381.712	55.5794
384.605	27.1437
387.497	20.4086
390.39	17.2859
393.283	15.7612
396.175	17.7232
399.068	38.4543
401.961	58.0507
404.853	75.0433
407.746	110.001
410.639	164.976
413.532	319.717
416.424	548.548
419.317	243.311
422.21	66.9367
425.102	47.6268
427.995	53.7848
430.888	48.9171
433.781	26.0218
436.673	20.5095
439.566	8.89099
442.459	13.5005
445.351	16.8999
448.244	17.396
451.137	8.37488
454.029	3.68176
456.922	2.23181
459.815	0.050598
462.708	3.56744
465.6	1.82397
468.493	1.50397
471.386	0.619629
474.278	2.84882
477.171	1.58173
480.064	6.08063
482.957	12.8035
485.849	8.95752
488.742	10.9644
491.635	9.81641
494.527	2.82342
497.42	1.77667
500.313	0.461792
503.205	0.821716
506.098	0.822021
508.991	1.72913
511.884	0.089355
514.776	3.203
517.669	2.33679
520.562	3.12854
523.454	6.2915
526.347	3.78027
529.24	0.52002
532.132	2.58313
535.025	7.61114
537.918	1.51233
540.81	5.45728
543.703	9.02985
546.596	3.95349
549.489	4.63293
552.381	2.91864
555.274	6.21686
558.167	2.76727
561.059	4.26623
563.952	5.6059
566.845	8.67871
569.737	15.3688
572.63	30.0402
575.523	39.0297
578.415	23.9609
581.308	7.52496
584.201	2.40149
587.094	3.80969
589.986	1.70782
592.879	3.27423
595.772	0.69696
598.664	1.54529
601.557	1.81012
604.45	1.96576
607.342	4.25897
610.235	3.33728
613.128	4.99835
616.021	1.68402
618.913	2.65253
621.806	2.14215
624.699	4.95496
627.591	9.94025
630.484	10.1038
633.377	13.5756
636.269	20.4635
639.162	35.9087
642.055	52.3241
644.948	44.0347
647.84	29.5027
650.733	18.6975
653.626	16.3243
656.518	12.3101
659.411	10.3883
662.304	13.8069
665.197	9.56006
668.089	8.68811
670.982	13.1982
673.875	8.92389
676.767	13.6254
679.66	9.03662
682.553	4.40796
685.445	3.98151
688.338	6.46381
691.231	2.66577
694.124	3.74341
697.016	2.43097
699.909	0.191528
702.802	0.217529
705.694	1.67462
708.587	2.6582
711.48	0.751404
714.372	1.01636
717.265	4.24365
720.158	6.23505
723.051	7.24689
725.943	13.403
728.836	16.3237
731.729	28.5864
734.621	36.75
737.514	50.7407
740.407	65.4047
743.299	88.9127
746.192	112.934
749.085	120.892
751.977	98.5373
754.87	75.8093
757.763	56.0569
760.656	38.5126
763.548	32.1934
766.441	24.7662
769.334	22.8803
772.226	17.0266
775.119	19.2122
778.012	18.7767
780.904	19.707
783.797	23.3608
786.69	19.4957
789.583	14.4895
792.475	13.0008
795.368	20.3342
798.261	19.1725
801.153	23.1814
804.046	24.4099
806.939	23.6483
809.832	28.6721
812.724	22.6779
815.617	15.1665
818.51	12.6653
821.402	11.7507
824.295	12.4242
827.188	6.43311
830.08	6.66663
832.973	7.28552
835.866	6.33557
838.759	6.52441
841.651	3.35742
844.544	8.11914
847.437	2.42285
850.329	2.81409
853.222	1.85254
856.115	0.698853
859.007	4.44055
861.9	6.88464
864.793	2.15881
867.686	0.248535
870.578	2.47107
873.471	6.08618
876.364	1.49304
879.256	1.03149
882.149	0.41333
885.042	0.536499
887.934	0.822144
890.827	1.97412
893.72	2.63147
896.612	0.571289
899.505	2.18897
902.398	1.62817
905.291	2.33582
908.183	5.26794
911.076	2.99487
913.969	0.761719
916.861	4.85925
919.754	0.471313
922.647	6.31689
925.539	5.84985
928.432	3.38098
931.325	8.19665
934.218	1.01623
937.11	6.68054
940.003	2.77454
942.896	3.28406
945.788	4.22607
948.681	6.59851
951.574	1.79163
954.466	6.37244
957.359	5.0304
960.252	3.74377
963.144	2.28467
966.037	3.36719
968.93	5.47986
971.823	9.08057
974.715	4.65344
977.608	1.4801
980.501	2.72485
983.393	11.4428
986.286	6.66382
989.179	8.08862
992.072	5.92908
994.964	5.85864
997.857	4.23254
1000.75	7.47607
1003.64	6.37244
1006.53	1.7312
1009.43	4.61682
1012.32	5.70862
1015.21	6.59656
1018.11	6.34424
1021	7.18677
1023.89	9.44592
1026.78	4.92236
1029.68	0.599243
1032.57	4.03894
1035.46	3.10425
1038.36	6.51562
1041.25	1.14758
1044.14	1.6322
1047.03	3.70422
1049.93	2.28369
1052.82	2.48206
1055.71	6.9187
1058.6	7.34045
1061.5	2.42993
1064.39	2.09644
1067.28	1.23181
1070.17	5.41443
1073.07	1.64648
1075.96	4.84595
1078.85	7.27661
1081.74	2.64062
1084.64	3.3689
1087.53	12.6151
1090.42	4.6189
1093.32	3.17139
1096.21	7.70789
1099.1	3.84644
1101.99	3.5741
1104.89	0.436646
1107.78	3.82898
1110.67	1.38611
1113.57	2.72473
1116.46	2.30066
1119.35	4.32996
1122.24	4.17285
1125.14	3.88647
1128.03	8.15479
1130.92	8.93237
1133.81	1.70215
1136.71	2.05896
1139.6	0.576782
1142.49	3.63904
1145.38	5.12134
1148.28	13.8558
1151.17	7.05139
1154.06	3.42041
1156.95	7.81201
1159.85	1.67847
1162.74	1.1228
1165.63	8.43005
1168.53	9.88147
1171.42	1.8042
1174.31	6.24243
1177.2	5.51746
1180.1	0.137695
1182.99	4.06238
1185.88	6.09509
1188.78	6.05444
1191.67	1.03418
1194.56	8.099
1197.45	5.37073
1200.35	5.71545
1203.24	5.54797
1206.13	6.20361
1209.02	6.4198
1211.92	5.12915
1214.81	8.33044
1217.7	13.1989
1220.6	9.09558
1223.49	11.7248
1226.38	11.079
1229.27	8.04382
1232.17	5.55469
1235.06	4.52966
1237.95	4.28418
1240.84	0.093872
1243.74	4.23047
1246.63	8.74512
1249.52	22.113
1252.41	8.91834
1255.31	10.552
1258.2	6.47351
1261.09	8.28101
1263.98	0.320801
