Measurement: Raman, 532 nm, unoriented, Raman Data Processed
Mineral: Corundum
Rruff sample: R040096
Ideal chemistry: Al_2_O_3_
Locality: Sri Lanka
Source: University of Arizona Mineral Museum
Description: Pale purple hexagonal prism
Measured chemistry: Al_2.00_O_3_
Raman shift (cm-1)	intensity
147.608	0
150.501	1.54492
153.393	120.751
156.286	157.865
159.179	98.9482
162.071	480.344
164.964	124.508
167.857	9.70996
170.75	92.8262
173.642	22.1582
176.535	59.8877
179.428	194.544
182.32	40.791
185.213	80.9902
188.106	97.332
190.998	44.5254
193.891	104.005
196.784	112.122
199.677	79.7568
202.569	9.00586
205.462	59.5478
208.355	125.49
211.247	75.9727
214.14	37.627
217.033	23.999
219.925	70.4287
222.818	182.516
225.711	172.236
228.603	194.204
231.496	227.435
234.389	187.085
237.282	167.606
240.174	163.836
243.067	47.0957
245.96	270.588
248.852	152.195
251.745	166.254
254.638	176.515
257.531	80.0059
260.423	159.959
263.316	145.204
266.209	252.495
269.101	299.474
271.994	284.122
274.887	240.693
277.779	128.185
280.672	146.198
283.565	153.782
286.457	6.93945
289.35	84.3457
292.243	97.457
295.136	77.8994
298.028	16.8594
300.921	30.3867
303.814	95.8379
306.706	48.5654
309.599	213.722
312.492	71.3486
315.385	40.042
318.277	80.2314
321.17	29.4629
324.063	1.61133
326.955	58.1328
329.848	87.3301
332.741	128.395
335.633	358.782
338.526	179.723
341.419	9.77148
344.312	20.6982
347.204	31.2861
350.097	196.414
352.99	105.386
355.882	225.948
358.775	127.79
361.668	215.733
364.56	163.259
367.453	348.554
370.346	490.701
373.238	891.055
376.131	1964.04
379.024	5492.06
381.917	2556.62
384.809	497.315
387.702	259.729
390.595	206.087
393.487	64.6387
396.38	121.567
399.273	321.9
402.166	477.945
405.058	1195.38
407.951	1757.08
410.844	3049.98
413.736	6112.16
416.629	17939.6
419.522	16611.1
422.414	2788.45
425.307	1178.25
428.2	1383.41
431.092	2149.4
433.985	1060.25
436.878	176.8
439.771	203.197
442.663	248.131
445.556	236.422
448.449	218.731
451.341	336.274
454.234	51.2852
457.127	27.3281
460.019	61.4951
462.912	45.0986
465.805	32.6455
468.697	44.7832
471.59	73.5498
474.483	10.7773
477.376	21.3115
480.268	83.7783
483.161	124.426
486.054	126.162
488.946	64.9707
491.839	122.529
494.732	57.5381
497.625	86.8174
500.517	67.5801
503.41	105.982
506.303	77.2402
509.195	28.5869
512.088	12.9639
514.981	337
517.873	32.5684
520.766	0.583008
523.659	50.0645
526.552	34.8799
529.444	145.683
532.337	111.679
535.23	190.595
538.122	135.946
541.015	72.5264
543.908	77.6875
546.8	65.2129
549.693	74.0147
552.586	155.72
555.479	95.1436
558.371	59.4697
561.264	226.4
564.157	132.779
567.049	361.82
569.942	113.827
572.835	244.683
575.727	672.516
578.62	894.921
581.513	228.167
584.405	1.1084
587.298	88.5234
590.191	65.2422
593.084	68.6201
595.976	86.6894
598.869	214.857
601.762	123.172
604.654	25.6719
607.547	46.5185
610.44	105.005
613.332	93.9971
616.225	256.442
619.118	116.416
622.011	56.2383
624.903	61.4678
627.796	258.688
630.689	496.528
633.581	706.713
636.474	1153.64
639.367	2080.92
642.26	3581.55
645.152	4767.89
648.045	3370.28
650.938	1561.63
653.83	899.184
656.723	558.919
659.616	374.086
662.508	256.665
665.401	223.124
668.294	258.501
671.187	105.452
674.079	42.5078
676.972	198.674
679.865	122.537
682.757	163.348
685.65	54.7363
688.543	108.772
691.435	54.6523
694.328	17.0508
697.221	42.2852
700.114	44.5566
703.006	27.6758
705.899	145.684
708.792	170.207
711.684	148.34
714.577	47.7988
717.47	128.338
720.362	68.4805
723.255	216.051
726.148	129.051
729.04	176.731
731.933	119.363
734.826	27.8516
737.719	196.762
740.611	374.398
743.504	629.463
746.397	811.135
749.289	915.836
752.182	787.519
755.075	755.174
757.967	440.838
760.86	316
763.753	161.213
766.646	233.391
769.538	271.951
772.431	237.836
775.324	199.893
778.216	215.482
781.109	169.486
784.002	124.07
786.894	178.766
789.787	78.7676
792.68	90.8574
795.573	127.064
798.465	230.228
801.358	210.426
804.251	318.08
807.143	173.16
810.036	241.662
812.929	148.022
815.822	57.2871
818.714	162.148
821.607	458.76
824.5	328.045
827.392	224.619
830.285	132.617
833.178	9.74023
836.07	94.5098
838.963	109.459
841.856	156.332
844.748	210.691
847.641	43.2676
850.534	195.246
853.427	193.557
856.319	198.467
859.212	185.391
862.105	160.26
864.997	159.15
867.89	62.0469
870.783	133.912
873.675	0.658203
876.568	15.5195
879.461	182.398
882.354	90.9277
885.246	112.398
888.139	72.5918
891.032	49.3828
893.924	27.7383
896.817	101.674
899.71	87.7383
902.602	4.19922
905.495	113.027
908.388	63.1582
911.28	3.08594
914.173	488.103
917.066	427.262
919.959	78.7266
922.851	92.5039
925.744	217.113
928.637	43.1367
931.529	111.926
934.422	84.125
937.315	143.5
940.207	153.414
943.1	182.815
945.993	147.668
948.886	120.836
951.778	172.986
954.671	60.8262
957.564	144.547
960.456	27.7266
963.349	75.7617
966.242	95.9316
969.135	5.86719
972.027	109.822
974.92	5.95703
977.813	62.8047
980.705	103.451
983.598	161.801
986.491	132.477
989.383	93.5684
992.276	46.6562
995.169	97.7617
998.062	185.141
1000.95	92.7422
1003.85	449.394
1006.74	149.504
1009.63	95.0977
1012.52	150.602
1015.42	462.022
1018.31	489.103
1021.2	190.883
1024.1	161.391
1026.99	134.725
1029.88	166.123
1032.77	321.565
1035.67	230.301
1038.56	197.484
1041.45	261.518
1044.35	211.531
1047.24	129.494
1050.13	139.977
1053.02	239.56
1055.92	220.182
1058.81	272.119
1061.7	270.231
1064.59	156.203
1067.49	126.682
1070.38	310.15
1073.27	181.902
1076.16	197.842
1079.06	405.332
1081.95	304.135
1084.84	189.107
1087.73	129.084
1090.63	219.873
1093.52	60.1016
1096.41	206.307
1099.31	154.16
1102.2	281.049
1105.09	219.135
1107.98	151.441
1110.88	343.981
1113.77	285.172
1116.66	372.283
1119.56	235.709
1122.45	59.0566
1125.34	223.986
1128.23	255.137
1131.13	247.01
1134.02	280.078
1136.91	224.699
1139.8	138.59
1142.7	60.918
1145.59	5.96875
1148.48	200.305
1151.38	52.9688
1154.27	105.676
1157.16	84.8867
1160.05	133.586
1162.94	102.064
1165.84	61.3379
1168.73	147.334
1171.62	0.296875
1174.52	70.4062
1177.41	157.662
1180.3	90.0312
1183.19	179.338
1186.09	97.5312
1188.98	268.244
1191.87	254.475
1194.77	214.004
1197.66	177.473
1200.55	161.402
1203.44	205.768
1206.34	91.0312
1209.23	168.481
1212.12	89.6582
1215.01	157.31
1217.91	145.596
1220.8	184.117
1223.69	92.6445
1226.59	219.332
1229.48	81.5879
1232.37	123.852
1235.26	93.8652
1238.16	38.0059
1241.05	223.131
1243.94	159.244
1246.83	188.111
1249.73	272.805
1252.62	336.078
1255.51	282.508
1258.4	259.922
1261.3	124.232
1264.19	256.922
1267.08	274.031
1269.97	115.938
1272.87	34.4531
1275.76	244.348
1278.65	84.0742
1281.55	101.098
1284.44	122.156
1287.33	243.184
1290.22	164.602
1293.12	84.1992
1296.01	140.102
1298.9	122.863
1301.8	0
