Measurement: Raman, 532 nm, unoriented, Raman Data Processed
Mineral: Corundum
Rruff sample: R100131
Ideal chemistry: Al_2_O_3_
Locality: Madagascar
Source: William W. Pinch
Description: Pale blue cut gemstone
Raman shift (cm-1)	intensity
157.085	0
159.978	6.07336
162.871	1.80882
165.763	1.66312
168.656	16.9711
171.549	30.4388
174.441	32.4943
177.334	26.6771
180.227	23.8309
183.119	15.8261
186.012	19.9469
188.905	19.8604
191.798	21.0153
194.69	21.1177
197.583	17.5216
200.476	16.1995
203.369	15.4639
206.261	14.1543
209.154	17.3916
212.047	13.5145
214.939	13.332
217.832	14.0951
220.725	13.699
223.617	10.7059
226.51	8.654
229.403	9.91209
232.296	10.293
235.188	9.09581
238.081	13.301
240.974	10.3293
243.866	12.1467
246.759	14.4556
249.652	11.786
252.544	8.79042
255.437	8.97733
258.33	9.919
261.223	5.62514
264.115	8.4438
267.008	5.85245
269.901	5.59123
272.793	6.13309
275.686	4.54678
278.579	2.33715
281.471	4.25634
284.364	2.69643
287.257	4.18412
290.15	1.43954
293.042	0.140862
295.935	0.744484
298.828	0.070419
301.72	1.57677
304.613	0.567459
307.506	1.7448
310.399	0.003189
313.291	3.53183
316.184	2.20778
319.077	1.27133
321.969	1.19536
324.862	0.423935
327.755	0.472595
330.647	0.165115
333.54	0.322815
336.433	0.03392
339.325	2.06752
342.218	0.786835
345.111	4.95541
348.004	1.53093
350.896	4.57726
353.789	6.0697
356.682	4.92313
359.574	9.32712
362.467	15.258
365.36	22.7892
368.253	30.4503
371.145	42.8117
374.038	66.6608
376.931	121.142
379.823	149.17
382.716	53.344
385.609	20.5359
388.502	15.003
391.394	13.7106
394.287	13.3422
397.18	15.7678
400.072	29.0409
402.965	48.1263
405.858	64.9122
408.75	92.3597
411.643	149.551
414.536	307.23
417.428	499.595
420.321	213.811
423.214	51.6067
426.107	39.9086
428.999	50.9098
431.892	42.4462
434.785	17.6637
437.677	9.20296
440.57	7.82964
443.463	7.90941
446.356	12.506
449.248	15.1418
452.141	6.08025
455.034	4.80635
457.926	1.15874
460.819	1.09787
463.712	0.662262
466.604	0.645676
469.497	4.76354
472.39	1.739
475.283	1.2699
478.175	1.31836
481.068	3.50026
483.961	2.69212
486.853	5.74008
489.746	3.37042
492.639	3.30786
495.531	0.228531
498.424	1.31436
501.317	1.57252
504.21	0.809433
507.102	1.57452
509.995	0.201523
512.888	1.65434
515.78	0.223358
518.673	2.46085
521.566	0.454865
524.458	3.71307
527.351	5.53587
530.244	5.36514
533.137	4.14896
536.029	3.23682
538.922	5.30045
541.815	4.71329
544.707	7.07111
547.6	4.78987
550.493	7.66933
553.386	6.60352
556.278	6.24237
559.171	4.76486
562.064	5.08443
564.956	7.07228
567.849	5.50693
570.742	11.9379
573.635	22.7223
576.527	33.3076
579.42	15.6329
582.313	4.55695
585.205	2.16788
588.098	1.18616
590.991	1.95438
593.883	0.529617
596.776	0.096329
599.669	0.796249
602.562	0.499741
605.454	0.606857
608.347	1.33029
611.24	2.85393
614.132	3.53981
617.025	4.80841
619.918	3.71727
622.81	4.55374
625.703	5.8605
628.596	7.28079
631.489	9.64987
634.381	17.9529
637.274	29.2232
640.167	45.433
643.059	64.5416
645.952	58.8204
648.845	35.1232
651.737	19.4265
654.63	15.3304
657.523	10.0411
660.416	9.8213
663.308	7.25978
666.201	7.20392
669.094	7.68199
671.986	6.61862
674.879	6.66043
677.772	7.35861
680.664	6.20254
683.557	6.31204
686.45	5.40396
689.343	4.46492
692.235	2.25178
695.128	0.461411
698.021	3.235
700.913	1.30031
703.806	1.44066
706.699	4.10315
709.592	0.868576
712.484	0.721054
715.377	0.209885
718.27	2.70357
721.162	0.219009
724.055	3.09734
726.948	2.715
729.841	7.58252
732.733	10.3388
735.626	18.0953
738.519	29.3747
741.411	39.4286
744.304	56.3037
747.197	69.7476
750.089	78.0037
752.982	62.6578
755.875	43.0257
758.768	33.3408
761.66	20.261
764.553	18.8707
767.446	14.7446
770.338	9.99442
773.231	8.01135
776.124	9.0318
779.016	7.56343
781.909	7.87976
784.802	6.10741
787.694	7.40653
790.587	8.36529
793.48	9.65984
796.373	6.67073
799.265	9.80289
802.158	8.93114
805.051	10.8689
807.943	10.7607
810.836	10.7496
813.729	8.4901
816.621	6.9547
819.514	6.23833
822.407	8.49672
825.3	5.09103
828.192	3.17433
831.085	4.42552
833.978	1.67938
836.87	1.82841
839.763	1.78731
842.656	1.28171
845.549	1.47563
848.441	0.698364
851.334	0.262253
854.227	0.398468
857.119	0.907318
860.012	1.69836
862.905	1.1421
865.798	2.42401
868.69	0.631592
871.583	1.65888
874.476	3.08128
877.368	1.62338
880.261	2.34599
883.154	2.11792
886.046	0.655579
888.939	4.43848
891.832	2.92433
894.725	4.28578
897.617	6.47856
900.51	3.26186
903.403	5.29579
906.295	5.2178
909.188	2.16632
912.081	5.43843
914.973	9.05609
917.866	4.606
920.759	6.55104
923.652	7.14699
926.544	7.18295
929.437	8.09108
932.33	10.0904
935.222	7.08679
938.115	6.39517
941.008	1.73248
943.9	2.95416
946.793	0.489441
949.686	6.38438
952.579	7.07393
955.471	10.4415
958.364	9.3445
961.257	10.8163
964.149	9.33975
967.042	9.28674
969.935	10.6378
972.827	11.8018
975.72	11.5857
978.613	10.4444
981.506	9.41534
984.398	11.6728
987.291	11.0172
990.184	10.817
993.077	9.32211
995.969	8.612
998.862	8.85303
1001.75	6.93851
1004.65	6.94663
1007.54	4.75693
1010.43	5.10736
1013.33	4.49939
1016.22	6.73529
1019.11	7.20627
1022	6.31628
1024.9	5.60632
1027.79	1.74625
1030.68	4.95929
1033.57	2.73611
1036.47	7.32388
1039.36	3.95041
1042.25	2.7175
1045.14	3.56329
1048.04	3.79358
1050.93	2.45425
1053.82	1.95279
1056.72	4.04282
1059.61	1.25903
1062.5	3.28641
1065.39	2.50275
1068.29	1.95932
1071.18	3.55234
1074.07	3.70618
1076.96	3.56442
1079.86	3.99707
1082.75	3.96329
1085.64	2.5383
1088.54	3.32037
1091.43	0.025818
1094.32	3.75699
1097.21	1.68808
1100.11	2.5011
1103	3.07169
1105.89	3.78491
1108.79	4.37552
1111.68	3.44086
1114.57	4.60877
1117.46	5.92828
1120.36	2.83456
1123.25	4.2016
1126.14	2.2728
1129.03	2.72922
1131.93	2.11618
1134.82	1.85089
1137.71	1.01355
1140.6	1.97311
1143.5	2.26529
1146.39	1.70541
1149.28	4.75513
1152.17	1.24423
1155.07	1.1496
1157.96	1.42352
1160.85	0.264984
1163.75	6.67523
1166.64	2.26074
1169.53	3.29779
1172.42	3.1936
1175.32	2.97635
1178.21	2.11948
1181.1	1.36279
1183.99	3.39358
1186.89	4.44083
1189.78	0.598938
1192.67	4.64178
1195.57	3.97955
1198.46	3.7265
1201.35	1.98065
1204.24	2.96063
1207.14	0.041992
1210.03	1.70267
1212.92	4.44055
1215.82	4.59665
1218.71	0.390808
1221.6	2.24216
1224.49	5.06531
1227.38	3.94757
1230.28	0.101288
1233.17	1.31519
1236.06	1.66144
1238.96	0.628662
1241.85	2.80042
1244.74	2.95526
1247.63	1.92676
1250.53	0.006226
1253.42	3.96344
1256.31	0.417297
1259.2	0.927979
1262.1	3.08408
1264.99	4.43384
1267.88	2.36261
1270.78	1.73386
1273.67	2.19702
1276.56	1.50955
1279.45	1.75537
1282.35	2.67871
1285.24	2.14209
1288.13	2.41684
1291.03	3.3747
1293.92	2.26138
1296.81	0.02356
1299.7	1.88855
1302.6	0
