Measurement: Raman, 780 nm, unoriented, Raman Data Processed
Mineral: Corundum
Rruff sample: R110119
Ideal chemistry: Al_2_O_3_
Locality: Synthetic
Source: Gemological Institute of America
Description: A cut (10.50ct) sapphire gemstone, blue-gray under fluorescent light, which appears purple under halogen light; grown by flame fusion.
Raman shift (cm-1)	intensity
141.744	0
144.636	1.43486
147.529	0.466385
150.422	2.94369
153.315	1.03477
156.207	0.787827
159.1	3.05019
161.993	3.3848
164.885	1.00965
167.778	2.09024
170.671	2.42934
173.563	1.19633
176.456	2.811
179.349	1.85682
182.242	0.85659
185.134	0.747627
188.027	0.73138
190.92	1.09655
193.812	0.002094
196.705	1.30194
199.598	0.323101
202.49	1.13491
205.383	0.520958
208.276	2.22237
211.168	1.28749
214.061	0.738918
216.954	1.63443
219.847	1.8373
222.739	2.00008
225.632	2.71658
228.525	1.40676
231.417	3.62162
234.31	2.44824
237.203	3.04981
240.095	2.35244
242.988	3.42061
245.881	2.19764
248.774	1.57236
251.666	1.25883
254.559	1.28302
257.452	1.50472
260.344	1.21434
263.237	1.4471
266.13	1.64369
269.022	0.424095
271.915	0.281513
274.808	1.05937
277.701	2.19554
280.593	2.26019
283.486	2.49009
286.379	4.12243
289.271	4.11233
292.164	5.20492
295.057	3.3397
297.95	5.9495
300.842	5.91844
303.735	5.47627
306.628	4.06187
309.52	2.50689
312.413	2.45061
315.306	1.22361
318.198	0.194057
321.091	0.66069
323.984	1.23398
326.877	0.73391
329.769	0.281879
332.662	1.03648
335.555	0.571371
338.447	0.377739
341.34	0.625725
344.233	0.349106
347.125	0.925301
350.018	2.54069
352.911	3.19636
355.803	4.05196
358.696	4.13047
361.589	7.00228
364.482	8.47373
367.374	14.097
370.267	24.6172
373.16	50.0182
376.052	114.746
378.945	188.397
381.838	55.5635
384.731	14.6887
387.623	8.61611
390.516	6.28256
393.409	5.73382
396.301	6.80811
399.194	11.0972
402.087	18.4132
404.979	32.3455
407.872	65.4212
410.765	144.131
413.658	340.649
416.55	750.76
419.443	369.546
422.336	67.5563
425.228	43.6303
428.121	56.2688
431.014	57.824
433.906	23.6666
436.799	10.1747
439.692	6.16308
442.584	3.15109
445.477	3.27635
448.37	6.52305
451.263	2.78496
454.155	0.283634
457.048	0.059578
459.941	0.22662
462.833	0.438417
465.726	0.967113
468.619	0.742361
471.512	1.06335
474.404	1.85042
477.297	1.85617
480.19	1.54182
483.082	1.04313
485.975	0.631939
488.868	0.692526
491.76	0.658581
494.653	0.755211
497.546	0.737356
500.438	0.304592
503.331	0.687515
506.224	0.020592
509.117	0.213154
512.009	0.631111
514.902	1.88729
517.795	2.63324
520.687	1.26027
523.58	0.988266
526.473	0.350876
529.365	1.95953
532.258	0.723492
535.151	1.3622
538.044	1.04911
540.936	0.871046
543.829	2.51884
546.722	1.65738
549.614	2.68465
552.507	0.976286
555.4	2.70734
558.293	2.54071
561.185	1.54396
564.078	1.87733
566.971	0.36146
569.863	2.90068
572.756	5.74006
575.649	11.2895
578.541	6.52716
581.434	2.24179
584.327	0.449034
587.22	0.327785
590.112	1.20928
593.005	0.346373
595.898	0.011431
598.79	0.657648
601.683	0.400434
604.576	1.24184
607.468	0.177465
610.361	1.22122
613.254	0.869642
616.146	1.90734
619.039	3.42904
621.932	3.09989
624.825	6.88658
627.717	10.8615
630.61	16.3635
633.503	28.6655
636.395	52.4094
639.288	99.9694
642.181	167.072
645.073	174.886
647.966	103.371
650.859	52.0622
653.752	29.9648
656.644	19.6738
659.537	13.3361
662.43	11.5431
665.322	8.90694
668.215	6.70868
671.108	6.42443
674	4.68612
676.893	4.16875
679.786	2.38012
682.679	2.15103
685.571	1.92232
688.464	2.65645
691.357	0.823797
694.249	1.90494
697.142	0.072691
700.035	0.742525
702.928	0.370216
705.82	1.40279
708.713	0.04884
711.606	1.30138
714.498	0.031162
717.391	0.03133
720.284	0.135311
723.176	1.68331
726.069	1.14328
728.962	1.37928
731.855	2.585
734.747	1.23548
737.64	2.36275
740.533	2.57307
743.425	5.22046
746.318	5.45978
749.211	6.67433
752.103	5.64117
754.996	4.96896
757.889	4.02539
760.782	2.87263
763.674	2.68001
766.567	2.06217
769.46	1.8706
772.352	1.14549
775.245	0.005802
778.138	0.043812
781.03	1.36053
783.923	0.916929
786.816	0.462976
789.708	0.719225
792.601	1.14105
795.494	1.25791
798.387	2.0458
801.279	1.19229
804.172	0.05887
807.065	0.393894
809.957	2.19417
812.85	2.05632
815.743	1.89597
818.635	1.61231
821.528	0.721516
824.421	0.960814
827.314	0.895679
830.206	0.912655
833.099	1.33763
835.992	2.49706
838.884	1.911
841.777	1.31386
844.67	0.733662
847.562	0.796154
850.455	1.19251
853.348	1.73594
856.241	0.143488
859.133	0.834177
862.026	1.48353
864.919	1.32528
867.811	1.14824
870.704	0.577312
873.597	0.479025
876.49	0.107889
879.382	0.208529
882.275	1.08568
885.168	0.968498
888.06	0.543468
890.953	1.25369
893.846	2.065
896.738	2.21335
899.631	1.21374
902.524	0.654528
905.417	0.870552
908.309	2.07867
911.202	1.04333
914.095	2.24745
916.987	0.654266
919.88	1.80356
922.773	0.743589
925.665	0.51952
928.558	1.82946
931.451	1.11957
934.343	1.936
937.236	0.325092
940.129	1.39704
943.022	0.596146
945.914	0.290842
948.807	0.463369
951.7	0.990753
954.592	1.68235
957.485	1.20409
960.378	0.643026
963.27	0.817598
966.163	1.89892
969.056	0.988186
971.949	0.726284
974.841	0.787691
977.734	0.794542
980.627	0.483229
983.519	1.11587
986.412	0.585455
989.305	1.02433
992.197	1.6926
995.09	1.60765
997.983	2.19323
1000.88	1.7369
1003.77	2.07681
1006.66	1.81792
1009.55	1.68262
1012.45	2.76064
1015.34	1.66232
1018.23	1.45023
1021.12	2.1649
1024.02	1.52982
1026.91	0.438292
1029.8	0.966396
1032.69	1.26462
1035.59	0.232214
1038.48	1.14853
1041.37	1.69606
1044.27	0.644981
1047.16	0.217159
1050.05	1.96505
1052.94	0.674246
1055.84	0.544294
1058.73	0.69437
1061.62	1.99143
1064.52	1.37698
1067.41	1.7475
1070.3	1.28964
1073.19	2.64945
1076.09	1.70247
1078.98	2.05382
1081.87	1.18668
1084.76	1.24408
1087.66	1.50367
1090.55	2.29384
1093.44	1.71619
1096.34	1.10281
1099.23	1.60597
1102.12	1.30746
1105.01	1.45268
1107.91	1.09661
1110.8	0.697062
1113.69	0.580664
1116.58	1.73801
1119.48	0.638285
1122.37	0.391502
1125.26	1.23951
1128.15	0.823366
1131.05	1.4707
1133.94	0.138433
1136.83	1.45353
1139.72	0.423628
1142.62	0.358141
1145.51	0.334263
1148.4	0.487404
1151.3	0.966875
1154.19	0.721991
1157.08	1.33635
1159.97	2.63648
1162.87	1.42495
1165.76	0.111279
1168.65	2.42916
1171.55	1.386
1174.44	1.98864
1177.33	1.2412
1180.22	0.955732
1183.12	1.77038
1186.01	1.32546
1188.9	3.21262
1191.79	2.96469
1194.69	1.3629
1197.58	1.85004
1200.47	2.03214
1203.37	0.822411
1206.26	0.916088
1209.15	2.01851
1212.04	2.12549
1214.93	1.5718
1217.83	2.98725
1220.72	2.32387
1223.61	2.07025
1226.51	3.18519
1229.4	1.31599
1232.29	1.46221
1235.18	3.12684
1238.08	1.6489
1240.97	2.13579
1243.86	2.22085
1246.76	0.376385
1249.65	2.40033
1252.54	3.13693
1255.43	1.88321
1258.33	2.48052
1261.22	2.29181
1264.11	3.12109
1267	2.25637
1269.9	1.55732
1272.79	0.318872
1275.68	0.348511
1278.58	2.91908
1281.47	1.3864
1284.36	0.001261
