Measurement: Raman, 780 nm, unoriented, Raman Data Processed
Mineral: Corundum
Rruff sample: R110098
Ideal chemistry: Al_2_O_3_
Locality: Synthetic
Source: Gemological Institute of America
Description: A blue, cut (.93ct) sapphire gemstone, hydrothermally grown.
Raman shift (cm-1)	intensity
103.656	0
107.031	5.11703
110.406	1.15909
113.781	0.853455
117.156	3.31537
120.531	5.79306
123.905	5.845
127.28	2.73718
130.655	4.80746
134.03	2.1409
137.405	4.71777
140.779	4.64664
144.154	1.84109
147.529	3.84576
150.904	1.27994
154.279	4.32812
157.654	4.69635
161.028	2.26743
164.403	2.94333
167.778	1.57407
171.153	1.27814
174.528	1.10809
177.902	2.47018
181.277	3.63199
184.652	1.75311
188.027	4.02457
191.402	3.26147
194.776	4.79318
198.151	5.48907
201.526	3.88178
204.901	4.189
208.276	7.55545
211.651	6.57971
215.025	5.62601
218.4	4.78508
221.775	3.49217
225.15	1.633
228.525	3.35103
231.899	4.97746
235.274	3.32364
238.649	6.35451
242.024	4.67516
245.399	3.60315
248.774	3.6934
252.148	4.1936
255.523	4.37672
258.898	2.45903
262.273	5.12686
265.648	2.64023
269.022	1.10407
272.397	1.80757
275.772	1.48654
279.147	1.5973
282.522	1.5395
285.897	0.095963
289.271	2.14517
292.646	0.808762
296.021	2.90617
299.396	2.34097
302.771	2.90741
306.145	4.41246
309.52	0.289383
312.895	0.242661
316.27	1.18727
319.645	1.43207
323.019	1.04781
326.394	2.09311
329.769	0.605209
333.144	1.07289
336.519	2.35877
339.894	0.048553
343.268	2.02634
346.643	2.42346
350.018	2.90124
353.393	0.722244
356.768	1.69403
360.142	8.2749
363.517	10.8088
366.892	17.7397
370.267	27.1135
373.642	46.0694
377.017	99.6592
380.391	80.0831
383.766	17.7304
387.141	8.85849
390.516	8.17148
393.891	11.9943
397.265	27.3224
400.64	69.9364
404.015	96.1642
407.39	143.799
410.765	244.506
414.14	521.071
417.514	810.188
420.889	184.313
424.264	53.5415
427.639	36.5791
431.014	31.6762
434.389	16.6948
437.763	4.88008
441.138	3.46152
444.513	3.49712
447.888	1.86694
451.263	2.62988
454.637	1.15353
458.012	1.80287
461.387	1.63205
464.762	0.717499
468.137	1.13409
471.512	1.49411
474.886	2.84045
478.261	0.641342
481.636	2.4111
485.011	2.41438
488.386	0.61879
491.76	1.58116
495.135	1.5737
498.51	0.817169
501.885	1.03427
505.26	2.17905
508.635	1.04578
512.009	3.13625
515.384	1.90816
518.759	0.607559
522.134	0.933517
525.509	0.007797
528.883	0.503601
532.258	0.48732
535.633	2.85228
539.008	0.146805
542.383	1.5519
545.757	0.468491
549.132	1.49036
552.507	0.515167
555.882	0.844681
559.257	1.51476
562.631	1.48508
566.006	0.54512
569.381	4.82553
572.756	3.37097
576.131	5.42467
579.506	2.68622
582.88	1.9425
586.255	0.100876
589.63	0.232498
593.005	1.27942
596.38	0.30188
599.755	0.835846
603.129	0.792282
606.504	1.93152
609.879	1.75775
613.254	3.79961
616.629	3.73016
620.003	6.86585
623.378	10.053
626.753	19.2338
630.128	34.6394
633.503	54.1812
636.878	87.7472
640.252	149.381
643.627	197.188
647.002	142.077
650.377	74.1343
653.752	38.6564
657.126	23.8422
660.501	17.2452
663.876	10.5479
667.251	9.20914
670.626	6.28717
674	5.02165
677.375	5.29007
680.75	2.74951
684.125	1.54954
687.5	0.220963
690.875	0.990433
694.249	0.013351
697.624	0.676788
700.999	2.75992
704.374	0.545151
707.749	1.31862
711.124	0.750336
714.498	0.638123
717.873	0.562088
721.248	1.33981
724.623	1.21042
727.998	2.32344
731.372	5.9883
734.747	7.27945
738.122	9.18135
741.497	14.8664
744.872	18.5784
748.246	24.896
751.621	22.1204
754.996	13.7459
758.371	10.5806
761.746	5.89929
765.12	4.79895
768.495	4.86703
771.87	1.92421
775.245	2.33818
778.62	1.88413
781.995	0.451401
785.369	1.26639
788.744	1.36179
792.119	4.50862
795.494	2.87082
798.869	0.170624
802.244	2.52092
805.618	1.36375
808.993	2.76352
812.368	0.792007
815.743	1.98097
819.118	2.32544
822.492	4.07199
825.867	2.10011
829.242	1.95459
832.617	0.782959
835.992	2.60886
839.366	1.09206
842.741	1.97527
846.116	1.62408
849.491	3.18602
852.866	3.04346
856.241	2.64208
859.615	1.75305
862.99	2.07019
866.365	4.17516
869.74	2.46884
873.115	2.15317
876.49	2.06599
879.864	3.22455
883.239	2.63756
886.614	2.00121
889.989	2.69893
893.364	2.4752
896.738	0.580887
900.113	1.32523
903.488	0.579437
906.863	2.43822
910.238	2.04721
913.612	0.238312
916.987	1.87657
920.362	2.05153
923.737	0.906036
927.112	0.30484
930.487	1.12727
933.861	2.8568
937.236	0.315063
940.611	1.50711
943.986	0.63559
947.361	0.619141
950.736	1.78767
954.11	0.27092
957.485	1.7518
960.86	3.16904
964.235	1.26068
967.61	2.43422
970.984	2.39053
974.359	1.98404
977.734	1.29898
981.109	3.1627
984.484	1.37294
987.859	1.25156
991.233	3.65999
994.608	2.22258
997.983	0.098389
1001.36	2.62784
1004.73	1.30218
1008.11	1.4196
1011.48	1.9097
1014.86	0.925354
1018.23	1.59299
1021.61	1.17949
1024.98	0.878235
1028.36	0.981384
1031.73	4.46713
1035.11	1.09155
1038.48	1.95314
1041.86	3.51096
1045.23	1.33655
1048.61	2.97836
1051.98	2.85257
1055.36	2.42865
1058.73	2.69351
1062.1	3.62454
1065.48	3.08055
1068.85	2.27692
1072.23	2.21234
1075.6	1.46161
1078.98	0.543671
1082.35	1.37512
1085.73	0.987991
1089.1	3.84727
1092.48	2.97829
1095.85	1.70296
1099.23	0.076859
1102.6	5.24118
1105.98	1.86105
1109.35	3.58838
1112.73	0.316559
1116.1	0.105591
1119.48	0.120026
1122.85	3.03879
1126.23	0.277191
1129.6	0.696381
1132.98	1.96011
1136.35	1.95956
1139.72	1.99463
1143.1	0.363373
1146.47	1.60025
1149.85	0.317322
1153.22	4.10779
1156.6	2.11826
1159.97	1.89658
1163.35	1.48355
1166.72	2.95874
1170.1	1.59183
1173.47	2.01086
1176.85	2.12979
1180.22	5.07397
1183.6	3.11182
1186.97	3.24551
1190.35	2.4386
1193.72	2.9707
1197.1	3.86249
1200.47	0.930328
1203.85	1.54089
1207.22	1.82217
1210.6	0.037231
1213.97	4.06632
1217.35	0.577301
1220.72	2.03839
1224.1	3.31241
1227.47	5.46268
1230.85	4.5723
1234.22	1.06039
1237.6	1.59628
1240.97	2.12573
1244.34	3.36679
1247.72	5.6066
1251.09	0.780945
1254.47	2.65533
1257.84	5.21347
1261.22	2.88788
1264.59	8.07031
1267.97	5.31256
1271.34	2.86673
1274.72	4.10196
1278.09	3.36835
1281.47	4.00058
1284.84	0.662628
