Measurement: Raman, 780 nm, unoriented, Raman Data Processed
Mineral: Corundum
Rruff sample: R110099
Ideal chemistry: Al_2_O_3_
Locality: Synthetic
Source: Gemological Institute of America
Description: A cut, colorless (2.6ct) sapphire gemstone, grown by flame fusion.
Raman shift (cm-1)	intensity
152.35	0
155.243	0.154305
158.136	0.598812
161.028	2.19917
163.921	0.495861
166.814	0.822079
169.706	2.90725
172.599	1.13738
175.492	0.579063
178.385	3.21243
181.277	4.03052
184.17	1.86566
187.063	2.67808
189.955	2.84122
192.848	0.824936
195.741	1.40508
198.633	0.519318
201.526	0.80526
204.419	0.274147
207.311	0.363499
210.204	2.30199
213.097	2.57637
215.99	1.982
218.882	1.19371
221.775	1.65904
224.668	2.93206
227.56	1.37876
230.453	2.37426
233.346	4.30716
236.238	1.20239
239.131	2.65934
242.024	3.15693
244.917	2.28654
247.809	2.51298
250.702	2.15794
253.595	1.13648
256.487	1.94933
259.38	0.677197
262.273	3.26781
265.166	2.89151
268.058	1.78131
270.951	0.398243
273.844	4.54455
276.736	1.63332
279.629	2.22358
282.522	3.61143
285.414	4.90776
288.307	5.69724
291.2	4.74505
294.092	4.53156
296.985	7.07468
299.878	6.75894
302.771	5.39292
305.663	4.62287
308.556	2.45963
311.449	2.93132
314.341	2.70724
317.234	1.18671
320.127	0.392658
323.019	0.56385
325.912	0.046131
328.805	0.99968
331.698	0.13192
334.59	0.546581
337.483	0.717331
340.376	1.07237
343.268	0.365711
346.161	1.02144
349.054	0.721058
351.947	2.10304
354.839	2.80924
357.732	3.63088
360.625	12.6686
363.517	23.3017
366.41	27.0573
369.303	41.3554
372.195	63.0679
375.088	114.488
377.981	249.57
380.873	177.29
383.766	28.2135
386.659	8.5112
389.552	5.76828
392.444	3.82555
395.337	5.8614
398.23	13.0803
401.122	45.4157
404.015	57.1797
406.908	77.6183
409.8	124.5
412.693	222.991
415.586	492.498
418.479	640.321
421.371	122.207
424.264	55.0265
427.157	71.1142
430.049	100.971
432.942	57.2891
435.835	16.0792
438.728	8.17277
441.62	6.89559
444.513	8.51658
447.406	17.1306
450.298	16.2891
453.191	3.58154
456.084	1.05316
458.976	0.275396
461.869	0.204489
464.762	0.268339
467.654	1.89429
470.547	0.596859
473.44	0.210199
476.333	0.078867
479.225	0.027189
482.118	1.04565
485.011	0.93445
487.903	0.597536
490.796	0.488365
493.689	1.6568
496.582	0.137826
499.474	0.167093
502.367	0.714756
505.26	0.785864
508.152	0.922436
511.045	0.086315
513.938	2.00095
516.83	1.01755
519.723	0.817701
522.616	0.9909
525.509	1.3165
528.401	2.28163
531.294	0.853876
534.187	2.42191
537.079	1.54469
539.972	1.52324
542.865	3.11525
545.757	1.17465
548.65	2.12996
551.543	1.92088
554.436	3.3626
557.328	3.50348
560.221	4.4059
563.114	6.45055
566.006	6.93648
568.899	10.5738
571.792	16.006
574.684	32.9668
577.577	45.5251
580.47	13.6681
583.362	3.6243
586.255	0.04542
589.148	1.69772
592.041	0.597431
594.933	0.838821
597.826	0.319082
600.719	0.028055
603.611	2.12005
606.504	1.05493
609.397	0.904776
612.29	0.841425
615.182	1.78055
618.075	0.940542
620.968	0.897411
623.86	3.43298
626.753	3.70483
629.646	8.99501
632.538	13.6542
635.431	17.9666
638.324	31.7413
641.217	54.1753
644.109	72.3868
647.002	55.0108
649.895	29.6039
652.787	15.3341
655.68	9.24864
658.573	7.35668
661.466	6.1085
664.358	3.90728
667.251	3.28313
670.144	3.74839
673.036	2.78127
675.929	1.30819
678.822	0.915115
681.714	1.3216
684.607	0.162741
687.5	0.586836
690.393	0.61256
693.285	0.504456
696.178	0.065256
699.071	0.431133
701.963	1.2857
704.856	0.322847
707.749	1.13121
710.641	1.01103
713.534	0.774864
716.427	3.23944
719.319	2.74604
722.212	3.9432
725.105	5.07851
727.998	7.32426
730.89	11.3984
733.783	17.1822
736.676	22.9832
739.568	33.9892
742.461	45.7105
745.354	60.706
748.246	77.3979
751.139	77.1308
754.032	52.032
756.925	33.8539
759.817	21.6257
762.71	15.8057
765.603	10.0521
768.495	7.89858
771.388	7.12101
774.281	5.48926
777.173	3.89155
780.066	2.82283
782.959	2.10954
785.852	0.878117
788.744	1.5379
791.637	0.808235
794.53	1.38226
797.422	0.495026
800.315	0.656284
803.208	0.668663
806.101	0.423935
808.993	1.01112
811.886	0.004139
814.779	0.855915
817.671	0.890347
820.564	0.491337
823.457	0.55891
826.349	1.34999
829.242	1.06045
832.135	2.03368
835.028	1.92712
837.92	0.776287
840.813	1.12637
843.706	0.318817
846.598	0.805328
849.491	2.02365
852.384	1.5068
855.276	1.77516
858.169	2.95858
861.062	0.106083
863.955	1.14403
866.847	1.68824
869.74	0.942101
872.633	1.81572
875.525	0.878765
878.418	0.717028
881.311	0.602219
884.203	1.3554
887.096	0.757286
889.989	1.69586
892.881	1.85297
895.774	0.949955
898.667	0.938835
901.56	0.969961
904.452	0.279413
907.345	0.571745
910.238	0.368824
913.13	1.45793
916.023	1.25037
918.916	0.258945
921.808	0.718294
924.701	1.97822
927.594	2.19257
930.487	0.076618
933.379	1.14667
936.272	1.61427
939.165	0.15909
942.057	1.66399
944.95	0.429953
947.843	1.0844
950.736	1.79964
953.628	1.29981
956.521	0.999327
959.414	2.76836
962.306	1.83981
965.199	1.93118
968.092	1.87256
970.984	2.14826
973.877	1.88014
976.77	4.84881
979.663	1.84436
982.555	4.95732
985.448	1.99394
988.341	2.71319
991.233	2.69637
994.126	2.14317
997.019	6.96923
999.911	2.19456
1002.8	2.52325
1005.7	1.68404
1008.59	1.11822
1011.48	1.70004
1014.38	0.184948
1017.27	1.84226
1020.16	1.83584
1023.05	1.38464
1025.95	1.17233
1028.84	0.710232
1031.73	1.19309
1034.62	1.81604
1037.52	0.525936
1040.41	2.66748
1043.3	1.05848
1046.19	1.25353
1049.09	1.46426
1051.98	1.73588
1054.87	1.35913
1057.77	0.557356
1060.66	0.445196
1063.55	2.47406
1066.44	1.2677
1069.34	1.25945
1072.23	1.86262
1075.12	2.40102
1078.01	2.6489
1080.91	3.89015
1083.8	3.13773
1086.69	2.26198
1089.59	1.72552
1092.48	3.19277
1095.37	1.47542
1098.26	1.30636
1101.16	0.121222
1104.05	0.577742
1106.94	1.70423
1109.83	0.061169
1112.73	0.831333
1115.62	0.68754
1118.51	1.71941
1121.4	1.49808
1124.3	2.1666
1127.19	1.57481
1130.08	0.660212
1132.98	3.72199
1135.87	2.24961
1138.76	0.824921
1141.65	0.144253
1144.55	1.03465
1147.44	1.5115
1150.33	1.89167
1153.22	2.23847
1156.12	3.63585
1159.01	3.29439
1161.9	3.67235
1164.8	2.02703
1167.69	3.36631
1170.58	2.54883
1173.47	1.45825
1176.37	1.30696
1179.26	2.8984
1182.15	1.58947
1185.04	0.874952
1187.94	0.419718
1190.83	1.654
1193.72	1.34397
1196.62	1.25149
1199.51	2.04881
1202.4	2.02124
1205.29	1.19906
1208.19	1.75144
1211.08	1.15691
1213.97	0.328764
1216.86	0.158323
1219.76	0.858841
1222.65	0.00379
1225.54	1.85858
1228.43	0.310478
1231.33	1.6606
1234.22	1.1036
1237.11	1.78398
1240.01	2.53539
1242.9	3.89201
1245.79	3.10893
1248.68	3.66643
1251.58	2.25954
1254.47	1.91258
1257.36	1.29875
1260.25	1.5339
1263.15	0.382469
1266.04	0.943302
1268.93	2.44237
1271.83	2.88623
1274.72	1.19585
1277.61	0.890835
1280.5	2.4032
1283.4	0.191597
