Measurement: Raman, 532 nm, unoriented, Raman Data Processed
Mineral: Corundum
Rruff sample: R110099
Ideal chemistry: Al_2_O_3_
Locality: Synthetic
Source: Gemological Institute of America
Description: A cut, colorless (2.6ct) sapphire gemstone, grown by flame fusion.
Raman shift (cm-1)	intensity
176.309	0
179.202	5.30718
182.094	0.255516
184.987	4.67346
187.88	5.6721
190.773	6.13242
193.665	2.90644
196.558	5.73332
199.451	1.64712
202.343	3.5078
205.236	5.36772
208.129	8.5923
211.021	7.49239
213.914	4.67792
216.807	3.11383
219.699	5.80132
222.592	6.40053
225.485	4.52919
228.377	2.86558
231.27	7.94264
234.163	5.12164
237.056	2.67744
239.948	5.48731
242.841	2.02411
245.734	1.5741
248.626	0.403084
251.519	3.45882
254.412	4.82974
257.305	0.826775
260.197	3.60836
263.09	2.50273
265.983	1.22973
268.875	4.2363
271.768	2.06033
274.661	2.60268
277.553	5.54793
280.446	4.11209
283.339	8.52507
286.232	9.47094
289.124	10.4451
292.017	6.83584
294.91	11.5796
297.802	11.1687
300.695	15.1292
303.588	9.59491
306.481	8.21067
309.373	6.80812
312.266	2.23606
315.159	2.0802
318.051	1.22902
320.944	0.292183
323.837	1.81043
326.729	0.232048
329.622	0.572662
332.515	2.20777
335.408	2.63967
338.3	1.64014
341.193	1.94975
344.086	0.947586
346.978	1.28506
349.871	0.574554
352.764	1.27866
355.656	0.938225
358.549	4.50128
361.442	1.77837
364.334	7.54272
367.227	15.3856
370.12	17.0952
373.012	32.9782
375.905	67.9519
378.798	147.415
381.691	75.9509
384.583	13.5028
387.476	4.98984
390.369	1.50684
393.261	0.897682
396.154	2.93463
399.047	7.17123
401.94	21.3428
404.832	49.769
407.725	69.2319
410.618	113.252
413.51	230.121
416.403	475.67
419.296	550.543
422.188	86.6303
425.081	45.7412
427.974	59.9025
430.866	84.7821
433.759	37.0561
436.652	13.2211
439.545	7.96751
442.437	8.83709
445.33	14.0499
448.223	30.0014
451.115	24.5673
454.008	4.54861
456.901	1.50645
459.793	1.99341
462.686	2.11609
465.579	0.06916
468.472	4.4476
471.364	2.06922
474.257	0.5532
477.15	2.29343
480.042	3.91644
482.935	2.05667
485.828	2.46435
488.721	0.783783
491.613	0.724243
494.506	2.3471
497.399	1.08711
500.291	2.14235
503.184	3.3619
506.077	3.09739
508.969	1.89994
511.862	0.269005
514.755	2.71215
517.648	1.65383
520.54	1.64592
523.433	1.50381
526.326	3.57191
529.218	3.0025
532.111	1.91223
535.004	2.13889
537.896	2.55865
540.789	2.88985
543.682	3.40484
546.575	1.41984
549.467	3.90973
552.36	1.82845
555.253	3.96451
558.145	4.31832
561.038	4.96456
563.931	8.60518
566.823	10.8261
569.716	15.9299
572.609	28.5019
575.502	52.8286
578.394	67.4014
581.287	18.6776
584.18	4.814
587.072	2.00143
589.965	3.1731
592.858	2.55489
595.75	1.64483
598.643	0.64151
601.536	0.523964
604.428	2.44312
607.321	0.826942
610.214	4.35325
613.107	1.54723
615.999	1.61681
618.892	0.162621
621.785	2.57363
624.677	4.20312
627.57	1.70295
630.463	2.98892
633.356	6.67739
636.248	8.71824
639.141	13.677
642.034	24.403
644.926	30.4932
647.819	22.0544
650.712	12.6969
653.604	7.29301
656.497	5.20628
659.39	4.46717
662.283	4.84304
665.175	3.1617
668.068	3.06479
670.961	2.72866
673.853	1.43472
676.746	1.64134
679.639	1.51643
682.531	1.4721
685.424	0.14299
688.317	0.405861
691.21	1.67654
694.102	0.442894
696.995	1.40701
699.888	0.084831
702.78	0.422417
705.673	1.6887
708.566	1.09612
711.458	3.63722
714.351	4.00758
717.244	2.32194
720.136	5.60966
723.029	8.30634
725.922	9.32422
728.815	13.1486
731.707	18.3531
734.6	26.2179
737.493	37.4423
740.385	52.4745
743.278	77.5729
746.171	106.014
749.063	130.377
751.956	129.501
754.849	89.2764
757.742	54.723
760.634	37.3136
763.527	23.7752
766.42	20.5103
769.312	12.6903
772.205	11.1615
775.098	9.16716
777.99	6.63854
780.883	6.70901
783.776	4.13996
786.669	2.37767
789.561	2.14358
792.454	2.93768
795.347	1.79047
798.239	1.72314
801.132	2.12135
804.025	1.55167
806.918	1.96768
809.81	2.46992
812.703	1.18661
815.596	1.82664
818.488	2.02421
821.381	4.97163
824.274	0.284393
827.166	0.522247
830.059	1.97541
832.952	1.14796
835.845	0.157608
838.737	1.2303
841.63	0.247665
844.523	1.8262
847.415	1.19794
850.308	1.5472
853.201	1.35645
856.093	5.25758
858.986	3.80121
861.879	2.13002
864.771	5.42088
867.664	0.640434
870.557	2.77329
873.45	1.68577
876.342	2.28234
879.235	0.385796
882.128	1.04672
885.02	0.069138
887.913	0.394485
890.806	0.507645
893.698	1.408
896.591	0.191795
899.484	1.91685
902.377	0.340965
905.269	0.126999
908.162	1.38431
911.055	0.319633
913.947	1.84085
916.84	0.012222
919.733	2.53646
922.625	1.82597
925.518	0.656723
928.411	1.0381
931.304	4.21248
934.196	3.26466
937.089	0.821259
939.982	0.033073
942.875	2.7243
945.767	3.436
948.66	0.929756
951.553	0.199715
954.445	1.22384
957.338	1.74296
960.231	2.54835
963.123	0.824371
966.016	3.01162
968.909	2.51084
971.802	2.49638
974.694	4.93248
977.587	3.08292
980.48	4.39227
983.372	4.34984
986.265	2.45002
989.158	3.7956
992.05	3.66309
994.943	3.46955
997.836	3.62614
1000.73	3.68993
1003.62	3.60663
1006.51	2.62746
1009.41	0.367584
1012.3	1.14187
1015.19	1.24706
1018.09	1.54273
1020.98	3.00502
1023.87	0.473328
1026.76	1.84252
1029.66	2.52204
1032.55	2.43745
1035.44	1.15677
1038.33	0.102676
1041.23	2.46947
1044.12	2.74352
1047.01	1.65157
1049.9	3.39187
1052.8	0.568489
1055.69	2.32858
1058.58	2.2726
1061.47	2.41225
1064.37	2.96188
1067.26	1.25016
1070.15	2.72952
1073.05	1.52171
1075.94	1.77482
1078.83	1.17926
1081.72	0.202065
1084.62	0.877693
1087.51	2.4339
1090.4	1.5583
1093.3	5.839
1096.19	4.88692
1099.08	2.23719
1101.97	4.8325
1104.87	4.78011
1107.76	4.69961
1110.65	3.65191
1113.54	0.593819
1116.44	2.97739
1119.33	1.77835
1122.22	0.072922
1125.12	0.415543
1128.01	0.99556
1130.9	1.64566
1133.79	1.44901
1136.68	2.63105
1139.58	1.51336
1142.47	0.916824
1145.36	2.57682
1148.26	0.243736
1151.15	1.97249
1154.04	1.38037
1156.93	1.76459
1159.83	2.81107
1162.72	2.35729
1165.61	3.6624
1168.51	4.29819
1171.4	4.51035
1174.29	2.56091
1177.18	4.43727
1180.08	3.24049
1182.97	4.01704
1185.86	4.49725
1188.75	2.50027
1191.65	4.81103
1194.54	4.28336
1197.43	2.78012
1200.33	3.02128
1203.22	2.2453
1206.11	3.3326
1209	3.03095
1211.9	3.38409
1214.79	5.07419
1217.68	3.84647
1220.57	2.69437
1223.47	3.48716
1226.36	1.00364
1229.25	0.295639
1232.14	0.504936
1235.04	0.962334
1237.93	0.691971
1240.82	2.62106
1243.71	1.74067
1246.61	3.07257
1249.5	0.93856
1252.39	4.34809
1255.29	3.98245
1258.18	5.56411
1261.07	3.29907
1263.96	6.42886
1266.86	1.56548
1269.75	4.90488
1272.64	0.691971
1275.54	3.24896
1278.43	2.03835
1281.32	2.202
1284.21	1.51121
1287.11	2.70369
1290	0.140778
1292.89	1.39947
1295.78	2.35344
1298.68	3.76694
1301.57	0.844215
