Measurement: Raman, 780 nm, unoriented, Raman Data Processed
Mineral: Corundum
Rruff sample: X080003
Ideal chemistry: Al_2_O_3_
Locality: Synthetic
Source: Gemological Institute of America
Description: Faceted yellow sapphire gemstone, 4.70 ct
Raman shift (cm-1)	intensity
113.55	0
116.925	1.38852
120.3	0.399162
123.674	1.48385
127.049	2.39642
130.424	2.63687
133.799	0.572073
137.174	0.592257
140.549	1.77532
143.923	0.751175
147.298	0.394312
150.673	0.96027
154.048	0.742498
157.423	0.423157
160.798	0.592615
164.172	0.132504
167.547	0.68471
170.922	0.197098
174.297	0.289111
177.672	1.62298
181.046	0.266043
184.421	0.338072
187.796	0.942987
191.171	1.33539
194.546	0.826981
197.921	1.31156
201.295	0.759565
204.67	0.901447
208.045	1.21477
211.42	0.750412
214.795	1.38503
218.169	0.567186
221.544	0.293973
224.919	0.379395
228.294	0.316453
231.669	1.24154
235.043	1.8316
238.418	1.2623
241.793	1.02663
245.168	1.32456
248.543	1.44465
251.918	1.71574
255.292	1.08549
258.667	0.932504
262.042	0.422769
265.417	0.424158
268.792	0.991522
272.166	1.20419
275.541	0.84895
278.916	1.56925
282.291	0.97699
285.666	0.372462
289.041	0.648123
292.415	0.991736
295.79	0.281047
299.165	0.391287
302.54	1.07105
305.915	0.180709
309.289	0.603057
312.664	0.133794
316.039	0.197873
319.414	0.834817
322.789	0.71553
326.164	0.510624
329.538	0.466604
332.913	0.187488
336.288	0.383555
339.663	0.111977
343.038	0.375125
346.413	0.257134
349.787	0.004534
353.162	0.184616
356.537	0.301506
359.912	0.622159
363.287	2.86518
366.661	3.58903
370.036	4.79405
373.411	9.29386
376.786	31.3659
380.161	83.3691
383.536	13.7478
386.91	3.95373
390.285	1.04023
393.66	1.08081
397.035	1.79859
400.41	6.71654
403.784	10.7055
407.159	14.4073
410.534	22.9116
413.909	59.5226
417.284	220.634
420.659	112.933
424.033	16.667
427.408	14.5382
430.783	25.7829
434.158	12.5613
437.533	3.2152
440.907	2.22145
444.282	2.29111
447.657	5.1213
451.032	5.93382
454.407	1.25294
457.781	0.667269
461.156	0.05696
464.531	0.419459
467.906	0.351101
471.281	0.574375
474.656	0.106242
478.031	0.307855
481.405	0.293427
484.78	0.656359
488.155	0.815444
491.53	0.171547
494.904	0.693575
498.279	0.359837
501.654	0.522962
505.029	0.077341
508.404	0.679216
511.779	0.04155
515.153	0.957643
518.528	0.714133
521.903	0.597511
525.278	0.972599
528.653	0.613114
532.028	0.749875
535.402	0.64399
538.777	0.299243
542.152	0.70423
545.527	0.250772
548.902	0.647746
552.277	1.5895
555.651	1.2175
559.026	1.21834
562.401	1.36045
565.776	1.57723
569.151	2.0447
572.525	4.01761
575.9	10.2148
579.275	11.1699
582.65	1.81203
586.025	1.05395
589.399	0.327741
592.774	0.272222
596.149	0.576444
599.524	0.182357
602.899	0.019113
606.274	0.167856
609.648	0.541086
613.023	0.326044
616.398	0.924057
619.773	1.28603
623.148	1.54669
626.523	2.27675
629.897	3.22733
633.272	5.27179
636.647	8.49611
640.022	16.0308
643.397	30.8148
646.771	34.2996
650.146	15.961
653.521	8.73016
656.896	5.31241
660.271	2.96369
663.645	2.26556
667.02	2.19058
670.395	0.726207
673.77	1.43283
677.145	1.27138
680.52	0.503728
683.894	0.398147
687.269	0.39136
690.644	0.060876
694.019	0.045711
697.394	0.157463
700.769	0.180346
704.143	0.749411
707.518	1.2451
710.893	1.602
714.268	1.72664
717.643	2.41389
721.017	1.16342
724.392	1.67348
727.767	2.07564
731.142	2.64309
734.517	4.9948
737.891	7.71618
741.266	11.5293
744.641	16.6912
748.016	23.439
751.391	27.7981
754.766	19.3591
758.14	11.4099
761.515	7.08842
764.89	3.73232
768.265	2.23181
771.64	1.34058
775.014	0.917315
778.389	0.978079
781.764	0.250906
785.139	0.099787
788.514	0.606211
791.889	0.858161
795.263	0.471764
798.638	0.45209
802.013	0.069217
805.388	1.22138
808.763	0.036482
812.138	0.683475
815.512	0.550472
818.887	0.469181
822.262	0.503551
825.637	0.141322
829.012	0.768923
832.386	0.674902
835.761	0.120033
839.136	0.484616
842.511	0.563825
845.886	0.810986
849.261	1.06408
852.635	0.868674
856.01	1.00243
859.385	0.950301
862.76	0.516418
866.135	1.37768
869.51	0.782113
872.884	0.190399
876.259	0.645264
879.634	0.377458
883.009	0.661237
886.384	0.476254
889.758	0.425549
893.133	0.191017
896.508	0.082734
899.883	0.981529
903.258	0.485778
906.632	0.402953
910.007	0.483751
913.382	0.133775
916.757	0.615096
920.132	0.005421
923.506	0.133843
926.881	0.830595
930.256	0.074319
933.631	0.498917
937.006	0.378351
940.381	0.515177
943.755	1.07927
947.13	0.494209
950.505	0.696464
953.88	0.056394
957.255	1.19213
960.63	0.771473
964.004	0.309227
967.379	0.884664
970.754	1.16962
974.129	1.06992
977.504	1.11679
980.879	1.10932
984.253	1.17585
987.628	0.847179
991.003	1.23438
994.378	1.1716
997.753	1.44219
1001.13	0.884115
1004.5	0.482522
1007.88	0.157126
1011.25	0.844386
1014.63	0.664321
1018	0.60355
1021.38	0.142554
1024.75	0.720883
1028.13	0.02384
1031.5	0.579206
1034.88	0.486235
1038.25	0.616431
1041.62	0.87217
1045	1.26242
1048.38	0.688021
1051.75	1.06621
1055.12	0.642427
1058.5	1.02005
1061.87	0.822408
1065.25	0.490997
1068.62	1.26736
1072	0.968335
1075.37	0.698921
1078.75	0.342027
1082.12	0.513784
1085.5	0.515755
1088.87	0.728153
1092.25	0.708612
1095.62	0.711878
1099	0.230101
1102.37	1.17129
1105.75	0.017983
1109.12	0.561826
1112.5	0.989359
1115.87	0.512146
1119.25	0.077683
1122.62	1.20968
1126	0.689408
1129.37	0.271206
1132.74	0.381653
1136.12	0.085162
1139.49	1.48153
1142.87	0.375544
1146.24	0.269858
1149.62	0.118314
1152.99	0.785394
1156.37	0.458953
1159.74	1.39607
1163.12	1.03055
1166.49	0.018731
1169.87	0.997374
1173.24	0.352257
1176.62	0.323271
1179.99	0.773476
1183.37	0.1748
1186.74	0.601181
1190.12	1.06976
1193.49	0.531024
1196.87	0.903991
1200.24	1.28405
1203.62	0.314436
1206.99	0.871156
1210.37	0.191843
1213.74	1.23218
1217.12	1.24162
1220.49	0.427823
1223.87	1.34015
1227.24	0.893571
1230.62	0.628159
1233.99	0.941952
1237.37	0.869631
1240.74	0.855064
1244.11	0.111684
1247.49	0.576097
1250.86	0.147701
1254.24	1.58199
1257.61	0.660316
1260.99	0.174149
1264.36	1.44901
1267.74	0.048493
1271.11	1.05517
1274.49	0.372933
1277.86	0.641716
1281.24	0.03626
1284.61	0.785142
