Measurement: Raman, 780 nm, unoriented, Raman Data Processed
Mineral: Corundum
Rruff sample: R110117
Ideal chemistry: Al_2_O_3_
Locality: Synthetic
Source: Gemological Institute of America
Description: A cut, dark blue (1.51ct) sapphire gemstone, flux grown.
Raman shift (cm-1)	intensity
151.386	0
154.279	1.1297
157.171	1.01502
160.064	13.6651
162.957	37.7073
165.85	70.9565
168.742	112.879
171.635	152.113
174.528	195.279
177.42	244.645
180.313	276.397
183.206	303.354
186.098	317.863
188.991	316.526
191.884	302.745
194.776	274.656
197.669	238.098
200.562	203.861
203.455	168.609
206.347	150.614
209.24	132.669
212.133	129.455
215.025	130.444
217.918	148.364
220.811	181.714
223.703	216.857
226.596	251.139
229.489	287.074
232.382	304.815
235.274	334.643
238.167	379.153
241.06	405.055
243.952	422.912
246.845	401.385
249.738	373.486
252.631	342.292
255.523	302.706
258.416	259.463
261.309	231.608
264.201	207.829
267.094	180.263
269.987	151.207
272.879	132.885
275.772	126.948
278.665	127.447
281.558	123.496
284.45	102.288
287.343	62.6531
290.236	34.5991
293.128	6.67856
296.021	10.4916
298.914	11.2856
301.806	15.2103
304.699	9.1994
307.592	1.10879
310.485	2.60672
313.377	1.69568
316.27	4.65378
319.163	3.32172
322.055	6.2139
324.948	6.44388
327.841	10.0927
330.733	19.7723
333.626	36.4658
336.519	53.1698
339.411	76.2027
342.304	83.3843
345.197	71.6674
348.09	46.3674
350.982	40.5895
353.875	35.6863
356.768	38.0379
359.66	42.4133
362.553	45.2655
365.446	43.2551
368.339	49.8472
371.231	56.5393
374.124	69.7434
377.017	101.449
379.909	102.39
382.802	47.0437
385.695	31.7798
388.587	25.8959
391.48	26.8524
394.373	26.5893
397.265	32.3647
400.158	41.0005
403.051	49.5516
405.944	66.1154
408.836	89.2375
411.729	139.887
414.622	298.349
417.514	500.815
420.407	124.843
423.3	27.3479
426.192	30.1243
429.085	54.0009
431.978	34.947
434.871	13.0981
437.763	6.76941
440.656	14.0361
443.549	21.7391
446.441	32.7651
449.334	43.483
452.227	17.6111
455.12	17.5839
458.012	16.7149
460.905	27.9055
463.798	35.5772
466.69	42.4631
469.583	57.1882
472.476	67.5198
475.368	63.2907
478.261	44.3599
481.154	35.8888
484.046	27.4155
486.939	12.5828
489.832	0.525146
492.725	9.65295
495.617	2.01129
498.51	8.24152
501.403	7.87451
504.295	10.3681
507.188	7.00702
510.081	10.1827
512.973	0.520386
515.866	1.88428
518.759	2.84686
521.652	0.663208
524.544	5.49927
527.437	12.7997
530.33	16.3339
533.222	15.2186
536.115	23.1099
539.008	25.778
541.9	17.5918
544.793	15.78
547.686	7.2063
550.579	1.44791
553.471	0.829956
556.364	1.25745
559.257	3.67923
562.149	0.2789
565.042	2.14032
567.935	4.80182
570.827	18.2349
573.72	47.7201
576.613	79.3869
579.506	31.2081
582.398	10.378
585.291	3.07132
588.184	0.407959
591.076	0.650055
593.969	1.15478
596.862	2.09345
599.755	4.40439
602.647	8.48697
605.54	15.6571
608.433	13.932
611.325	18.149
614.218	19.0625
617.111	20.6666
620.003	18.4251
622.896	19.8218
625.789	17.5591
628.682	17.0204
631.574	21.7228
634.467	21.4644
637.36	28.5296
640.252	26.0777
643.145	28.2761
646.038	28.513
648.93	39.3091
651.823	41.4644
654.716	44.3574
657.609	50.7749
660.501	57.6933
663.394	69.8972
666.287	79.412
669.179	81.6365
672.072	80.854
674.965	79.1356
677.857	71.0071
680.75	64.5448
683.643	57.6979
686.535	52.4773
689.428	58.5462
692.321	62.4051
695.214	71.8741
698.106	76.9139
700.999	91.062
703.892	119.874
706.784	134.945
709.677	107.224
712.57	69.9165
715.462	35.4213
718.355	13.973
721.248	7.19833
724.141	0.718994
727.033	3.49109
729.926	0.447418
732.819	1.11618
735.711	4.5589
738.604	22.0043
741.497	41.1386
744.389	71.2631
747.282	100.569
750.175	107.916
753.068	76.0473
755.96	40.2689
758.853	20.4891
761.746	6.27756
764.638	1.49426
767.531	3.18228
770.424	1.08612
773.317	3.41315
776.209	4.29404
779.102	3.23221
781.995	8.28821
784.887	5.60513
787.78	4.0603
790.673	7.06934
793.565	6.27567
796.458	4.60892
799.351	5.23132
802.244	2.61652
805.136	3.02487
808.029	2.59564
810.922	0.597229
813.814	1.40585
816.707	1.67133
819.6	3.13708
822.492	2.21109
825.385	2.44046
828.278	0.147888
831.17	2.03183
834.063	0.122009
836.956	0.026581
839.849	0.570374
842.741	2.28314
845.634	0.925446
848.527	0.024139
851.419	1.83136
854.312	4.995
857.205	0.457733
860.097	7.43918
862.99	8.91498
865.883	3.65051
868.776	4.95932
871.668	4.74573
874.561	6.569
877.454	5.47913
880.346	3.90485
883.239	6.80173
886.132	6.71243
889.024	3.44742
891.917	5.02924
894.81	3.99454
897.703	1.26212
900.595	2.61853
903.488	1.14133
906.381	3.31445
909.273	0.115387
912.166	3.48508
915.059	4.79352
917.952	3.39697
920.844	3.5065
923.737	2.26993
926.63	1.845
929.522	2.9697
932.415	4.68527
935.308	2.23944
938.2	2.35309
941.093	3.75275
943.986	5.06061
946.879	2.40176
949.771	6.34903
952.664	5.7663
955.557	3.07657
958.449	1.38681
961.342	0.952637
964.235	0.679352
967.127	2.97653
970.02	3.71988
972.913	0.468628
975.806	0.51828
978.698	0.349548
981.591	2.21258
984.484	2.54486
987.376	0.231323
990.269	1.57324
993.162	0.887848
996.054	1.83914
998.947	2.82385
1001.84	1.17612
1004.73	1.40146
1007.62	1.14395
1010.52	1.67975
1013.41	0.491913
1016.3	1.29602
1019.2	3.25986
1022.09	2.60864
1024.98	0.969696
1027.87	0.400818
1030.77	6.32913
1033.66	1.55991
1036.55	2.26212
1039.44	2.82281
1042.34	3.14664
1045.23	4.77267
1048.12	4.26199
1051.02	1.91031
1053.91	3.04462
1056.8	5.65338
1059.69	3.5965
1062.59	8.3439
1065.48	4.52884
1068.37	4.80933
1071.27	5.0708
1074.16	5.95581
1077.05	6.1994
1079.94	5.07187
1082.84	2.729
1085.73	4.44623
1088.62	3.78256
1091.51	3.48801
1094.41	5.25281
1097.3	5.92786
1100.19	6.93243
1103.08	0.683929
1105.98	0.197205
1108.87	2.22473
1111.76	1.91635
1114.65	2.59335
1117.55	0.134674
1120.44	0.824249
1123.33	1.54303
1126.23	5.43487
1129.12	2.70459
1132.01	1.77151
1134.9	0.391968
1137.8	1.24323
1140.69	4.49536
1143.58	2.8616
1146.47	0.301331
1149.37	3.17905
1152.26	1.65244
1155.15	4.05322
1158.05	5.65771
1160.94	6.58328
1163.83	4.68561
1166.72	3.35223
1169.62	3.2001
1172.51	4.00253
1175.4	4.46826
1178.3	3.19287
1181.19	2.5513
1184.08	3.26852
1186.97	4.78406
1189.87	3.36667
1192.76	1.9715
1195.65	3.83347
1198.54	3.66122
1201.44	6.11423
1204.33	2.32217
1207.22	2.21555
1210.11	2.23135
1213.01	3.47482
1215.9	3.06375
1218.79	3.43304
1221.68	1.87058
1224.58	1.38974
1227.47	3.9906
1230.36	1.44
1233.26	2.83585
1236.15	1.52405
1239.04	0.674042
1241.93	1.64838
1244.83	2.33801
1247.72	2.64548
1250.61	3.44842
1253.51	3.37903
1256.4	1.26639
1259.29	0.175049
1262.18	3.21451
1265.08	4.2677
1267.97	4.06683
1270.86	3.63788
1273.75	5.62576
1276.65	3.9487
1279.54	6.55786
1282.43	4.99814
1285.32	0
