Measurement: Raman, 532 nm, unoriented, Raman Data Processed
Mineral: Cotunnite
Rruff sample: R060655
Ideal chemistry: PbCl_2_
Locality: Mount Vesuvius, Somma-Vesuvius Complex, Naples Province, Campania, Italy
Source: Michael Scott
Description: Colorless tabular crystals with a melted looking exterior
Measured chemistry: Pb_1.00_Cl_2.00_
Raman shift (cm-1)	intensity
90.185	0
93.56	8.203
96.935	78.767
100.31	78.646
103.685	367.608
107.06	2025.75
110.434	6731.36
113.809	14547.3
117.184	26404.9
120.559	42766.8
123.934	54234.4
127.308	57912
130.683	57449
134.058	59332.2
137.433	63987.1
140.808	68932.6
144.182	72101.9
147.557	73804.4
150.932	75531.4
154.307	76808.6
157.682	75269.5
161.057	69992.3
164.431	63435.1
167.806	58876.5
171.181	58094.7
174.556	59704.6
177.931	59627.3
181.305	54642.4
184.68	44891
188.055	35560.1
191.43	28623.5
194.805	23488.3
198.18	19927.7
201.554	17063.3
204.929	14734.5
208.304	12812.8
211.679	10948.2
215.054	9334.75
218.428	8016.35
221.803	6899.09
225.178	5871.87
228.553	5097.56
231.928	4415.73
235.303	3862.36
238.677	3328.51
242.052	2921.3
245.427	2488.59
248.802	2240.19
252.177	1877.19
255.551	1542.21
258.926	1334.9
262.301	1122.09
265.676	969.356
269.051	759.388
272.426	636.159
275.8	493.858
279.175	431.111
282.55	346.827
285.925	248.325
289.3	153.11
292.674	100.417
296.049	24.261
299.424	38.479
302.799	65.932
306.174	11.214
309.548	66.453
312.923	112.729
316.298	110.973
319.673	129.118
323.048	185.265
326.422	166.915
329.797	182.937
333.172	143.547
336.547	144.079
339.922	145.515
343.297	146.414
346.671	138.433
350.046	104.277
353.421	132.487
356.796	131.194
360.171	121.114
363.546	109.733
366.92	63.483
370.295	41.825
373.67	53.911
377.045	21.239
380.42	4.091
383.794	26.846
387.169	53.68
390.544	49.579
393.919	99.583
397.294	94.823
400.668	98.531
404.043	129.346
407.418	123.385
410.793	113.515
414.168	118.468
417.543	182.998
420.917	157.422
424.292	95.79
427.667	134.012
431.042	104.352
434.417	97.271
437.791	97.818
441.166	44.572
444.541	71.126
447.916	72.901
451.291	63.021
454.665	0.493
458.04	12.391
461.415	30.577
464.79	47.914
468.165	22.422
471.54	17.741
474.914	15.112
478.289	13.074
481.664	10.224
485.039	14.356
488.414	35.814
491.789	40.47
495.163	157.84
498.538	54.49
501.913	37.514
505.288	32.392
508.663	34.711
512.037	3.678
515.412	9.917
518.787	5.164
522.162	16.129
525.537	29.262
528.911	16.789
532.286	1.386
535.661	6.535
539.036	20.966
542.411	4.585
545.786	23.076
549.16	2.469
552.535	18.908
555.91	10.397
559.285	3.764
562.66	20.057
566.034	26.64
569.409	44.947
572.784	22.683
576.159	2.769
579.534	20.454
582.909	6.416
586.283	15.28
589.658	6.878
593.033	30.028
596.408	19.033
599.783	21.689
603.157	24.536
606.532	13.288
609.907	28.542
613.282	45.794
616.657	28.107
620.031	13.96
623.406	26.647
626.781	30.497
630.156	26.596
633.531	5.132
636.906	17.28
640.28	33.362
643.655	37.352
647.03	41.54
650.405	55.515
653.78	25.156
657.154	63.351
660.529	34.845
663.904	16.934
667.279	35.051
670.654	34.741
674.029	28.905
677.403	22.911
680.778	1.865
684.153	33.923
687.528	28.819
690.903	36.025
694.277	53.851
697.652	50.695
701.027	46.146
704.402	34.495
707.777	32.362
711.151	12.672
714.526	4.301
717.901	31.334
721.276	31.25
724.651	50.669
728.026	27.448
731.4	3.09
734.775	35.376
738.15	25.208
741.525	38.197
744.9	65.857
748.274	41.621
751.649	17.551
755.024	0.208
758.399	10.138
761.774	25.764
765.148	29.737
768.523	24.647
771.898	25.768
775.273	37.809
778.648	19.827
782.023	9.229
785.397	47.94
788.772	19.641
792.147	51.408
795.522	29.19
798.897	44.649
802.271	14.928
805.646	22.179
809.021	4.683
812.396	5.86
815.771	52.062
819.146	26.808
822.52	32.154
825.895	1.063
829.27	12.186
832.645	12.611
836.02	6.425
839.394	16.112
842.769	28.895
846.144	29.403
849.519	29.618
852.894	39.42
856.269	38.796
859.643	3.207
863.018	29.981
866.393	27.842
869.768	39.674
873.143	4.973
876.518	49.903
879.892	12.603
883.267	19.747
886.642	15.073
890.017	32.73
893.391	52.364
896.766	28.689
900.141	34.824
903.516	55.16
906.891	18.332
910.266	28.876
913.64	3.484
917.015	7.252
920.39	33.29
923.765	40.722
927.14	14.946
930.515	58.36
933.889	14.297
937.264	20.847
940.639	24.21
944.014	24.302
947.388	24.847
950.763	2.692
954.138	29.454
957.513	32.831
960.888	33.708
964.263	29.423
967.638	13.314
971.012	24.678
974.387	34.035
977.762	36.701
981.137	43.694
984.511	3.036
987.886	21.17
991.261	49.875
994.636	8.172
998.011	26.007
1001.39	32.516
1004.76	18.384
1008.13	40.284
1011.51	21.897
1014.88	24.884
1018.26	36.985
1021.63	47.155
1025.01	61.27
1028.38	7.372
1031.76	46.304
1035.13	39.316
1038.51	46.823
1041.88	13.132
1045.26	36.133
1048.63	42.745
1052.01	65.473
1055.38	15.484
1058.76	47.789
1062.13	24.561
1065.51	12.936
1068.88	80.95
1072.26	47.292
1075.63	12.156
1079.01	17.799
1082.38	34.99
1085.76	321.47
1089.13	10.099
1092.51	11.035
1095.88	50.961
1099.26	65.962
1102.63	30.046
1106.01	2.75
1109.38	33.552
1112.76	28.169
1116.13	50.969
1119.5	31.253
1122.88	3.51
1126.25	17.878
1129.63	45.603
1133	5.965
1136.38	47.547
1139.75	25.764
1143.13	2.734
1146.5	34.984
1149.88	3.648
1153.25	34.113
1156.63	26.308
1160	18.732
1163.38	7.697
1166.75	1.024
1170.13	24.956
1173.5	31.774
1176.88	31.33
1180.25	17.247
1183.63	50.852
1187	18.665
1190.38	11.615
1193.75	25.996
1197.12	23.852
1200.5	35.773
1203.88	3.531
1207.25	20.431
1210.62	39.916
1214	19.714
1217.37	35.956
1220.75	15.114
1224.12	10.812
1227.5	23.745
1230.87	20.82
1234.25	64.512
1237.62	14.268
1241	16.525
1244.37	12.733
1247.75	13.289
1251.12	3.106
1254.5	0.688
1257.87	10.73
1261.25	10.703
1264.62	5.467
1268	4.382
1271.37	47.772
1274.75	31.52
1278.12	6.501
1281.49	318.234
1284.87	56.018
1288.24	12.344
1291.62	9.235
