Measurement: Raman, 780 nm, unoriented, Raman Data Processed
Mineral: Cotunnite
Rruff sample: R060655
Ideal chemistry: PbCl_2_
Locality: Mount Vesuvius, Somma-Vesuvius Complex, Naples Province, Campania, Italy
Source: Michael Scott
Description: Colorless tabular crystals with a melted looking exterior
Measured chemistry: Pb_1.00_Cl_2.00_
Raman shift (cm-1)	intensity
93.0063	0
96.3811	263.45
99.7559	54.2695
103.131	142.651
106.505	716.332
109.88	1607.13
113.255	2735.87
116.63	4234.86
120.005	6048.32
123.38	8250.45
126.754	10618.4
130.129	12724.6
133.504	14590.5
136.879	16558.3
140.254	19024.5
143.629	21929.8
147.003	24894.2
150.378	27732.2
153.753	30483
157.128	32196.4
160.503	31104.4
163.877	27201
167.252	22339.7
170.627	18303.6
174.002	15514
177.377	13539.9
180.751	11626.5
184.126	9200.36
187.501	6608.35
190.876	4552.9
194.251	3156.25
197.625	2201.93
201	1523.44
204.375	1045.33
207.75	672.903
211.125	403.637
214.5	203.267
217.874	67.282
221.249	23.7512
224.624	77.2039
227.999	102.474
231.374	98.5214
234.749	87.9167
238.123	62.0431
241.498	21.946
244.873	9.16663
248.248	45.5132
251.623	80.3135
254.997	110.907
258.372	148.202
261.747	181.073
265.122	224.574
268.497	260.726
271.872	303.119
275.246	336.555
278.621	367.489
281.996	383.234
285.371	377.501
288.745	354.895
292.12	324.236
295.495	288.329
298.87	258.814
302.245	235.655
305.62	219.632
308.994	206.007
312.369	194.19
315.744	183.975
319.119	175.54
322.494	164.113
325.868	156.165
329.243	142.741
332.618	132.969
335.993	124.088
339.368	113.878
342.743	99.5241
346.117	85.7303
349.492	74.8656
352.867	65.9048
356.242	55.1219
359.617	47.6358
362.991	44.7461
366.366	37.2823
369.741	32.837
373.116	26.0709
376.491	24.3708
379.865	18.4014
383.24	17.9412
386.615	10.0156
389.99	9.52106
393.365	4.95721
396.74	1.33783
400.114	1.87152
403.489	0.764862
406.864	0.958618
410.239	2.55969
413.614	3.61935
416.988	1.07883
420.363	1.63495
423.738	0.63324
427.113	0.130127
430.488	0.373505
433.863	0.008606
437.237	5.02884
440.612	1.30444
443.987	3.9292
447.362	0.510193
450.737	1.04547
454.111	1.97012
457.486	3.0694
460.861	1.51547
464.236	0.252289
467.611	2.41498
470.986	1.10074
474.36	0.735809
477.735	2.96204
481.11	1.95709
484.485	2.74994
487.86	7.81818
491.234	7.20914
494.609	9.64111
497.984	8.53217
501.359	9.39477
504.734	8.71582
508.108	10.6082
511.483	12.2447
514.858	11.4389
518.233	11.1937
521.608	7.73041
524.982	10.718
528.357	8.71564
531.732	8.96634
535.107	9.35745
538.482	6.82251
541.857	7.32108
545.231	7.34372
548.606	5.39877
551.981	7.35315
555.356	7.72745
558.731	7.65039
562.106	6.57333
565.48	6.39407
568.855	5.51804
572.23	7.89847
575.605	5.30176
578.98	5.79099
582.354	6.69473
585.729	3.91482
589.104	3.51685
592.479	5.21393
595.854	2.79453
599.229	4.56995
602.603	4.94525
605.978	5.80682
609.353	5.89755
612.728	5.85861
616.102	4.30664
619.477	3.1778
622.852	2.50046
626.227	2.28397
629.602	3.47906
632.977	0.930969
636.351	4.60666
639.726	2.18094
643.101	3.3905
646.476	2.78174
649.851	2.21027
653.226	1.28287
656.6	3.29492
659.975	2.11047
663.35	3.48148
666.725	3.09701
670.1	2.09793
673.474	3.00574
676.849	0.137146
680.224	2.4808
683.599	0.920319
686.974	2.37097
690.348	0.685577
693.723	1.14572
697.098	1.47418
700.473	2.40747
703.848	1.95367
707.222	1.9715
710.597	2.86231
713.972	2.44659
717.347	1.81204
720.722	0.994751
724.097	2.98498
727.471	1.44998
730.846	1.5166
734.221	0.603363
737.596	1.27963
740.971	0.196259
744.346	1.57703
747.72	2.58771
751.095	1.93256
754.47	2.29327
757.845	3.16303
761.22	0.439728
764.594	0.867249
767.969	1.87836
771.344	1.76453
774.719	2.64905
778.094	2.28458
781.468	4.20087
784.843	2.47949
788.218	2.49808
791.593	1.06064
794.968	1.01422
798.342	2.58285
801.717	3.20514
805.092	3.41812
808.467	5.508
811.842	11.8564
815.217	4.8493
818.591	5.19925
821.966	4.20071
825.341	6.59915
828.716	6.52118
832.091	8.19727
835.466	5.97144
838.84	7.34164
842.215	7.05124
845.59	9.31958
848.965	7.26498
852.34	8.08578
855.714	10.1368
859.089	7.30673
862.464	6.57886
865.839	7.23758
869.214	6.97055
872.588	6.04666
875.963	6.39101
879.338	3.51338
882.713	3.54904
886.088	7.1068
889.462	4.26041
892.837	2.57692
896.212	2.79787
899.587	1.00943
902.962	2.31444
906.337	1.72691
909.711	0.084015
913.086	2.28072
916.461	1.31651
919.836	0.152222
923.211	0.816177
926.585	0.076233
929.96	1.51918
933.335	2.03322
936.71	0.856445
940.085	1.27595
943.46	1.6962
946.834	0.413406
950.209	0.627396
953.584	0.539276
956.959	5.76482
960.334	0.22702
963.708	2.19463
967.083	6.92296
970.458	0.428162
973.833	0.691055
977.208	2.14297
980.582	2.91182
983.957	3.15817
987.332	1.80745
990.707	2.44669
994.082	2.10878
997.457	1.65181
1000.83	3.11891
1004.21	2.17792
1007.58	2.3718
1010.96	1.62549
1014.33	3.09958
1017.71	2.76552
1021.08	1.00243
1024.45	4.06639
1027.83	2.85678
1031.2	4.52516
1034.58	5.26784
1037.95	5.56503
1041.33	2.60024
1044.7	6.38443
1048.08	3.98885
1051.45	5.00705
1054.83	5.68487
1058.2	7.08501
1061.58	5.08524
1064.95	4.69612
1068.33	4.04779
1071.7	4.52449
1075.08	3.899
1078.45	4.21191
1081.83	3.62497
1085.2	2.3685
1088.58	3.68529
1091.95	1.84357
1095.33	1.713
1098.7	0.584946
1102.08	2.37958
1105.45	0.755737
1108.83	2.63623
1112.2	10.7559
1115.58	0.149277
1118.95	2.16846
1122.33	3.5994
1125.7	1.80231
1129.07	1.02544
1132.45	0.450287
1135.82	2.1581
1139.2	2.08977
1142.57	0.324265
1145.95	2.24886
1149.32	1.37433
1152.7	3.15996
1156.07	2.28072
1159.45	0.101532
1162.82	1.74412
1166.2	0.020309
1169.57	2.96246
1172.95	0.457352
1176.32	3.25913
1179.7	3.56241
1183.07	4.17563
1186.45	4.19733
1189.82	5.04262
1193.2	7.28543
1196.57	9.32484
1199.94	9.54153
1203.32	10.4279
1206.69	10.1403
1210.07	9.12401
1213.44	9.10153
1216.82	8.16867
1220.19	7.92603
1223.57	7.92452
1226.94	8.9155
1230.32	5.82895
1233.69	1.62853
1237.07	4.0372
1240.44	2.05461
1243.82	1.8093
1247.19	0.751938
1250.57	1.15036
1253.94	1.29575
1257.32	1.64223
1260.69	1.89409
1264.07	4.01712
1267.44	3.30895
1270.82	3.86998
1274.19	2.41962
1277.57	0.94046
1280.94	3.88452
1284.32	0.924438
