Measurement: Raman, 532 nm, unoriented, Raman Data Processed
Mineral: Covellite
Rruff sample: R060306
Ideal chemistry: CuS
Locality: 3800' level, Leonard mine, Butte, Silver Bow County, Montana, USA
Source: Michael Scott
Description: Blue iridescent metallic hexagonal plates
Measured chemistry: Cu_1.00_S_1.00_
Raman shift (cm-1)	intensity
133.401	0
136.775	1.38349
140.15	0.490034
143.525	0.723379
146.9	4.61659
150.275	4.90285
153.649	12.5667
157.024	14.7436
160.399	16.6525
163.774	21.4231
167.149	19.923
170.524	23.3611
173.898	23.684
177.273	18.6234
180.648	18.9649
184.023	19.0433
187.398	19.3691
190.773	19.0702
194.147	16.481
197.522	13.9874
200.897	12.8111
204.272	11.9114
207.647	9.99266
211.021	8.81311
214.396	5.72543
217.771	5.41767
221.146	3.94983
224.521	4.18988
227.895	4.35207
231.27	1.79249
234.645	0.210125
238.02	0.001186
241.395	2.89607
244.769	0.556767
248.144	4.72693
251.519	6.99406
254.894	6.75418
258.269	8.90283
261.644	13.3909
265.018	15.9021
268.393	12.1356
271.768	8.38903
275.143	5.24286
278.518	3.59156
281.892	2.90347
285.267	0.347084
288.642	0.581707
292.017	1.21526
295.392	2.02961
298.767	2.02013
302.141	0.198399
305.516	1.01275
308.891	0.136108
312.266	1.17121
315.641	0.118885
319.015	0.55056
322.39	0.222187
325.765	0.76667
329.14	1.67833
332.515	0.353947
335.89	2.18468
339.264	0.692989
342.639	0.668369
346.014	0.631489
349.389	1.8681
352.764	1.47049
356.139	2.20382
359.513	4.15093
362.888	0.971298
366.263	2.53248
369.638	2.32933
373.012	2.08322
376.387	2.64093
379.762	2.1337
383.137	1.50338
386.512	2.43962
389.887	1.14033
393.261	1.63759
396.636	1.99158
400.011	1.56657
403.386	1.71315
406.761	0.524422
410.135	0.34288
413.51	0.457794
416.885	0.198715
420.26	0.116283
423.635	1.55506
427.01	1.11416
430.384	0.547966
433.759	0.252617
437.134	4.71475
440.509	4.6838
443.884	5.50549
447.259	11.0617
450.633	18.3524
454.008	31.209
457.383	55.5166
460.758	94.4635
464.133	129.71
467.507	188.225
470.882	296.069
474.257	380.283
477.632	275.876
481.007	117.863
484.382	55.9738
487.756	32.2992
491.131	19.9731
494.506	13.6778
497.881	8.7391
501.256	4.11455
504.63	4.18516
508.005	2.83584
511.38	4.4616
514.755	3.88286
518.13	1.81184
521.505	2.15631
524.879	0.975189
528.254	2.06162
531.629	1.45119
535.004	3.25331
538.379	0.902462
541.753	2.1393
545.128	1.71396
548.503	1.80857
551.878	2.91965
555.253	0.516697
558.628	1.96872
562.002	1.25389
565.377	0.548973
568.752	0.186901
572.127	1.03705
575.502	0.143936
578.876	1.36563
582.251	0.965549
585.626	0.384056
589.001	1.20734
592.376	0.943211
595.75	1.95714
599.125	1.86492
602.5	0.97076
605.875	2.10944
609.25	2.59123
612.625	1.82227
615.999	1.29942
619.374	2.51947
622.749	1.37724
626.124	1.31405
629.499	0.373096
632.873	1.91281
636.248	1.54035
639.623	0.966854
642.998	1.60536
646.373	1.97408
649.747	0.52034
653.122	1.14579
656.497	2.89423
659.872	2.38107
663.247	3.10717
666.622	0.134476
669.996	2.01459
673.371	1.28159
676.746	2.08205
680.121	1.392
683.496	2.51328
686.87	1.06247
690.245	1.16117
693.62	1.00972
696.995	0.186928
700.37	1.37289
703.745	0.419807
707.119	1.4925
710.494	0.374214
713.869	2.52618
717.244	0.084923
720.619	0.727993
723.994	1.3149
727.368	2.09954
730.743	2.53577
734.118	1.6041
737.493	2.67331
740.868	0.947979
744.242	1.42136
747.617	2.10208
750.992	0.155849
754.367	0.377438
757.742	0.841141
761.116	2.17158
764.491	1.53617
767.866	0.437027
771.241	0.86409
774.616	1.22197
777.99	0.583202
781.365	1.69495
784.74	0.585815
788.115	2.44822
791.49	1.74484
794.865	0.467342
798.239	0.641029
801.614	2.68371
804.989	2.28711
808.364	2.54793
811.739	0.061787
815.114	0.830463
818.488	2.6631
821.863	1.03327
825.238	1.4497
828.613	0.997765
831.988	1.2643
835.362	1.57527
838.737	2.11452
842.112	1.27246
845.487	1.85822
848.862	1.80299
852.236	2.39202
855.611	2.41396
858.986	2.56944
862.361	2.03221
865.736	2.23914
869.111	0.603161
872.485	1.65229
875.86	0.808651
879.235	1.37835
882.61	0.618721
885.985	1.63601
889.36	1.14806
892.734	1.64932
896.109	1.38833
899.484	1.10349
902.859	0.281471
906.234	1.98228
909.608	4.07041
912.983	5.16633
916.358	8.44182
919.733	9.49817
923.108	7.30243
926.482	10.5316
929.857	11.6485
933.232	9.61593
936.607	6.42247
939.982	2.61458
943.357	1.77686
946.731	1.86303
950.106	0.469828
953.481	1.15674
956.856	1.0777
960.231	0.880943
963.606	0.164953
966.98	0.105534
970.355	0.006531
973.73	0.875898
977.105	1.40925
980.48	1.87243
983.854	1.07691
987.229	0.987444
990.604	0.163897
993.979	1.8809
997.354	1.76755
1000.73	1.43115
1004.1	1.5713
1007.48	0.719877
1010.85	0.548735
1014.23	2.40046
1017.6	1.03688
1020.98	1.41402
1024.35	0.081718
1027.73	0.865902
1031.1	1.21238
1034.48	1.28418
1037.85	2.74035
1041.23	0.966288
1044.6	0.830746
1047.98	1.65472
1051.35	2.61001
1054.73	2.05771
1058.1	1.75156
1061.47	1.59414
1064.85	1.63394
1068.22	0.260818
1071.6	2.96274
1074.97	1.10996
1078.35	2.87749
1081.72	1.56876
1085.1	0.357697
1088.47	0.14229
1091.85	0.009737
1095.22	1.94027
1098.6	1.54724
1101.97	2.0195
1105.35	0.462343
1108.72	0.327738
1112.1	2.43941
1115.47	1.61409
1118.85	1.99579
1122.22	1.18291
1125.6	0.396238
1128.97	2.08729
1132.35	2.18185
1135.72	1.9628
1139.1	0.952923
1142.47	1.66036
1145.85	0.74052
1149.22	0.951056
1152.6	1.63113
1155.97	1.86436
1159.35	1.80509
1162.72	0.89938
1166.09	1.91638
1169.47	0.097416
1172.84	1.74909
1176.22	2.90485
1179.59	0.560015
1182.97	2.1186
1186.34	1.6098
1189.72	2.3308
1193.09	1.12624
1196.47	0.448231
1199.84	1.09129
1203.22	0.247551
1206.59	0.630114
1209.97	2.24515
1213.34	1.82299
1216.72	1.66107
1220.09	2.48625
1223.47	1.78431
1226.84	1.21341
1230.22	2.71637
1233.59	2.13294
1236.97	1.44004
1240.34	2.43411
1243.71	1.60534
1247.09	0.971363
1250.46	1.22721
1253.84	1.30404
1257.21	1.34087
1260.59	1.78421
1263.96	0.058607
1267.34	1.88095
1270.71	2.86541
1274.09	1.54184
1277.46	1.21895
1280.84	1.34619
1284.21	1.92519
1287.59	0.58164
1290.96	2.39012
1294.34	1.70677
1297.71	1.16561
1301.09	0.388523
