Measurement: Raman, 532 nm, unoriented, Raman Data Processed
Mineral: Covellite
Rruff sample: R060129
Ideal chemistry: CuS
Locality: Butte, Montana, USA
Source: University of Arizona Mineral Museum
Description: Iridescent blue metallic hexagonal plates
Measured chemistry: Cu_1.00_S_1.00_
Raman shift (cm-1)	intensity
135.101	0
138.475	9.19638
141.85	3.78382
145.225	0.541241
148.6	0.899082
151.975	5.48285
155.35	6.46792
158.724	2.6511
162.099	2.58026
165.474	1.12283
168.849	2.79714
172.224	1.38826
175.598	2.50862
178.973	2.85189
182.348	1.35042
185.723	2.00753
189.098	2.58152
192.472	2.12888
195.847	1.20279
199.222	1.91635
202.597	0.786343
205.972	1.0574
209.347	0.225391
212.721	0.043201
216.096	0.144062
219.471	0.612373
222.846	0.107246
226.221	0.188782
229.596	0.177437
232.97	0.527523
236.345	0.096272
239.72	0.489655
243.095	0.635738
246.47	1.82061
249.845	3.72421
253.219	5.78392
256.594	9.0951
259.969	10.7639
263.344	11.9052
266.719	10.9919
270.093	8.60238
273.468	5.79111
276.843	3.32741
280.218	2.39266
283.593	2.22104
286.967	2.11148
290.342	2.29765
293.717	1.02141
297.092	1.4979
300.467	1.03694
303.842	1.29061
307.216	0.282978
310.591	1.06459
313.966	0.484673
317.341	0.022144
320.716	1.5293
324.091	0.721546
327.465	0.433998
330.84	0.759483
334.215	0.682301
337.59	0.481239
340.965	0.990688
344.339	1.78973
347.714	1.38222
351.089	0.977867
354.464	1.59437
357.839	1.36706
361.214	0.026348
364.588	0.714432
367.963	1.33875
371.338	1.14061
374.713	1.16321
378.088	1.22798
381.462	0.641399
384.837	2.11118
388.212	1.58577
391.587	1.41831
394.962	1.06385
398.337	1.5733
401.712	0.235935
405.086	0.671333
408.461	0.005329
411.836	1.03379
415.211	0.487148
418.586	0.155243
421.96	0.213627
425.335	0.513834
428.71	0.479824
432.085	0.149563
435.46	0.180824
438.834	2.0738
442.209	4.45259
445.584	6.89115
448.959	10.3627
452.334	19.1558
455.709	35.479
459.083	64.6183
462.458	94.4252
465.833	132.192
469.208	200.265
472.583	276.708
475.957	229.962
479.332	100.69
482.707	46.8402
486.082	25.6167
489.457	15.8462
492.832	10.2756
496.206	7.02675
499.581	5.47677
502.956	3.31679
506.331	2.82155
509.706	2.10764
513.081	1.92084
516.455	1.82241
519.83	1.05833
523.205	1.31089
526.58	0.545088
529.955	1.00001
533.33	1.84597
536.704	1.06803
540.079	1.93132
543.454	1.0168
546.829	1.186
550.204	1.33359
553.578	0.469278
556.953	0.52673
560.328	0.08075
563.703	0.08761
567.078	0.024788
570.452	0.287149
573.827	0.72868
577.202	0.428688
580.577	0.35284
583.952	0.63522
587.327	1.04583
590.701	0.133829
594.076	0.201128
597.451	0.079189
600.826	1.65457
604.201	0.335299
607.576	0.586721
610.95	0.985748
614.325	0.007477
617.7	0.732677
621.075	0.425638
624.45	0.728045
627.824	1.31295
631.199	0.337744
634.574	0.435671
637.949	0.293316
641.324	0.31699
644.698	0.746704
648.073	1.08182
651.448	1.40552
654.823	1.24323
658.198	0.494381
661.573	0.6348
664.947	1.58108
668.322	0.298414
671.697	1.14813
675.072	1.16037
678.447	1.61134
681.822	0.566628
685.196	0.437515
688.571	1.32974
691.946	0.696968
695.321	0.372997
698.696	0.426399
702.071	0.837568
705.445	0.833746
708.82	0.571962
712.195	0.611099
715.57	1.18773
718.945	1.01147
722.319	0.054548
725.694	1.60727
729.069	1.23574
732.444	1.60045
735.819	1.33628
739.193	1.87111
742.568	1.2694
745.943	1.32556
749.318	0.816929
752.693	0.73554
756.068	0.246052
759.442	0.640541
762.817	0.915659
766.192	0.748114
769.567	0.286293
772.942	0.220203
776.317	0.766365
779.691	0.617027
783.066	0.785772
786.441	0.894693
789.816	0.457476
793.191	0.116615
796.566	1.03343
799.94	0.174282
803.315	1.04833
806.69	1.00743
810.065	1.02792
813.44	0.446007
816.814	0.446093
820.189	0.542177
823.564	0.876146
826.939	0.868507
830.314	0.243692
833.688	1.50145
837.063	1.47981
840.438	0.667793
843.813	1.50484
847.188	0.952303
850.563	1.43882
853.937	1.42788
857.312	0.993437
860.687	1.06144
864.062	1.02209
867.437	0.299253
870.812	0.151808
874.186	0.617716
877.561	0.132952
880.936	0.165764
884.311	0.486794
887.686	0.291718
891.061	0.976637
894.435	0.628372
897.81	0.625149
901.185	0.759575
904.56	0.677771
907.935	1.97586
911.309	3.70026
914.684	4.2928
918.059	5.2448
921.434	7.13656
924.809	7.53127
928.183	7.88948
931.558	6.88185
934.933	4.81047
938.308	2.34638
941.683	2.39912
945.058	0.814999
948.432	1.18606
951.807	1.00998
955.182	0.141365
958.557	0.708439
961.932	0.581842
965.307	0.291739
968.681	0.312218
972.056	0.000174
975.431	1.09179
978.806	0.805923
982.181	1.0259
985.556	0.445314
988.93	0.942793
992.305	0.780714
995.68	0.115887
999.055	1.26173
1002.43	1.06998
1005.8	1.06863
1009.18	0.051737
1012.55	0.251875
1015.93	0.330706
1019.3	1.30568
1022.68	1.49126
1026.05	0.801981
1029.43	1.66361
1032.8	0.812464
1036.18	0.400852
1039.55	1.54909
1042.93	1.07369
1046.3	1.14268
1049.68	0.936953
1053.05	0.751753
1056.43	0.876282
1059.8	0.437168
1063.18	0.156073
1066.55	0.684233
1069.93	0.458441
1073.3	1.01443
1076.68	0.736609
1080.05	1.60328
1083.42	0.729977
1086.8	1.14214
1090.17	0.132408
1093.55	0.438776
1096.92	0.646406
1100.3	0.797237
1103.67	1.08393
1107.05	1.04187
1110.42	0.632191
1113.8	0.239389
1117.17	0.566563
1120.55	1.02175
1123.92	0.310072
1127.3	0.318583
1130.67	1.19981
1134.05	1.82545
1137.42	1.41858
1140.8	0.879345
1144.17	1.14321
1147.55	0.813013
1150.92	0.684479
1154.3	1.39108
1157.67	0.440899
1161.05	0.994101
1164.42	0.646334
1167.8	0.782278
1171.17	1.35148
1174.55	0.282837
1177.92	0.305126
1181.3	0.658264
1184.67	1.04137
1188.05	1.1635
1191.42	0.459164
1194.79	0.607435
1198.17	0.826735
1201.54	1.40149
1204.92	0.630215
1208.29	1.48292
1211.67	1.05069
1215.04	1.093
1218.42	0.708529
1221.79	0.887943
1225.17	0.758375
1228.54	0.062088
1231.92	1.04275
1235.29	0.323954
1238.67	0.99328
1242.04	0.630825
1245.42	0.477901
1248.79	0.612087
1252.17	1.02162
1255.54	0.728079
1258.92	0.025766
1262.29	0.854424
1265.67	0.267704
1269.04	0.858711
1272.41	0.663145
1275.79	1.27917
1279.16	0.099503
1282.54	1.20942
1285.91	0.205948
1289.29	1.15183
1292.66	0.623491
1296.04	1.15284
1299.41	1.35915
