Measurement: Raman, 532 nm, unoriented, Raman Data Processed
Mineral: Covellite
Rruff sample: R060143
Ideal chemistry: CuS
Locality: Butte, Montana, USA
Source: Marcus Origlieri
Description: Irridescent blue to purple hexagonal plates
Measured chemistry: Cu_1.00_S_1.00_
Raman shift (cm-1)	intensity
132.69	0
136.065	6.22459
139.44	14.7158
142.815	9.85238
146.189	6.8106
149.564	6.96202
152.939	10.9361
156.314	7.47916
159.689	7.19883
163.063	8.48953
166.438	6.72889
169.813	6.40601
173.188	5.3201
176.563	4.92595
179.938	5.62724
183.312	5.68729
186.687	5.4153
190.062	5.39831
193.437	5.67514
196.812	4.16122
200.186	4.1672
203.561	2.22587
206.936	2.8488
210.311	2.21613
213.686	0.484802
217.06	0.785114
220.435	0.768963
223.81	0.100937
227.185	0.319279
230.56	0.092804
233.935	0.517231
237.309	0.851322
240.684	0.732616
244.059	1.39008
247.434	2.75341
250.809	4.78952
254.184	6.65946
257.558	9.60237
260.933	11.2978
264.308	13.724
267.683	12.5438
271.058	8.84383
274.433	6.79991
277.807	4.29655
281.182	4.07548
284.557	2.14922
287.932	2.70932
291.307	2.99996
294.681	1.4501
298.056	2.87473
301.431	0.506138
304.806	1.38532
308.181	0.272461
311.555	0.267723
314.93	1.3988
318.305	0.557571
321.68	0.339344
325.055	0.90015
328.43	0.603546
331.804	0.540604
335.179	1.11557
338.554	1.27866
341.929	0.897793
345.304	1.21548
348.678	1.19399
352.053	1.37865
355.428	0.462021
358.803	1.45035
362.178	0.292995
365.553	2.08989
368.928	2.01264
372.302	1.15394
375.677	1.92603
379.052	2.2325
382.427	0.811798
385.802	1.02821
389.176	0.445576
392.551	0.739666
395.926	0.78957
399.301	0.402172
402.676	1.88337
406.05	0.709686
409.425	0.899002
412.8	0.700005
416.175	0.37262
419.55	0.135166
422.925	1.24721
426.299	0.355457
429.674	0.383846
433.049	0.440914
436.424	1.52196
439.799	1.76768
443.173	3.84635
446.548	8.88561
449.923	14.4276
453.298	25.3543
456.673	45.112
460.048	79.579
463.423	112.421
466.797	167.088
470.172	261.93
473.547	335.324
476.922	233.97
480.297	99.4412
483.671	49.0297
487.046	27.399
490.421	17.6082
493.796	11.2925
497.171	7.3457
500.546	5.66587
503.92	3.83342
507.295	2.0966
510.67	3.02068
514.045	2.46457
517.42	2.68375
520.794	0.736847
524.169	1.72374
527.544	0.591167
530.919	2.26782
534.294	1.22469
537.668	1.25345
541.043	1.52652
544.418	1.1912
547.793	1.28674
551.168	1.09622
554.543	1.52576
557.917	1.20385
561.292	1.01215
564.667	0.229618
568.042	0.684952
571.417	0.266251
574.792	0.19194
578.166	0.005974
581.541	0.743706
584.916	0.705738
588.291	0.713577
591.666	0.903481
595.04	0.468842
598.415	0.97187
601.79	0.787815
605.165	0.974979
608.54	1.4878
611.915	0.648188
615.289	1.17926
618.664	0.015646
622.039	0.948502
625.414	0.234385
628.789	0.897038
632.163	0.981199
635.538	0.385523
638.913	1.11989
642.288	0.08349
645.663	1.64017
649.038	0.618647
652.412	1.97023
655.787	0.382963
659.162	1.39813
662.537	0.754301
665.912	1.62289
669.287	0.831367
672.661	1.70359
676.036	0.780819
679.411	1.4694
682.786	0.145496
686.161	0.254301
689.535	0.893597
692.91	0.005278
696.285	0.524263
699.66	0.754946
703.035	0.433313
706.409	0.150499
709.784	0.357008
713.159	1.11183
716.534	1.19257
719.909	0.759823
723.284	1.42047
726.659	0.89706
730.033	1.47526
733.408	2.14273
736.783	1.96699
740.158	0.228035
743.533	0.383297
746.907	1.47503
750.282	1.50499
753.657	0.89035
757.032	0.765373
760.407	0.944702
763.782	0.211884
767.156	0.669739
770.531	0.046501
773.906	0.267582
777.281	0.451057
780.656	0.782352
784.03	0.288853
787.405	0.739388
790.78	0.946564
794.155	0.262989
797.53	0.254066
800.904	1.06813
804.279	0.839886
807.654	0.289036
811.029	0.043701
814.404	1.24602
817.779	1.04182
821.154	0.469276
824.528	0.040482
827.903	1.20392
831.278	1.32832
834.653	1.16209
838.028	1.48684
841.402	0.442184
844.777	1.02158
848.152	1.60033
851.527	1.50997
854.902	1.92563
858.277	0.895012
861.651	1.3457
865.026	0.739964
868.401	0.383757
871.776	0.084927
875.151	1.13233
878.525	0.499435
881.9	0.778948
885.275	0.816185
888.65	0.77705
892.025	0.026594
895.399	0.059572
898.774	0.451731
902.149	0.699625
905.524	1.5843
908.899	2.76153
912.274	4.23019
915.649	4.74059
919.023	7.16608
922.398	7.76471
925.773	9.1763
929.148	8.68842
932.523	6.87538
935.897	4.19274
939.272	3.33416
942.647	1.07062
946.022	1.15158
949.397	1.53791
952.771	1.02288
956.146	1.12366
959.521	0.95038
962.896	0.246906
966.271	0.02243
969.646	0.21866
973.02	0.527163
976.395	1.10876
979.77	0.993021
983.145	0.011749
986.52	1.46094
989.894	0.784225
993.269	0.713511
996.644	0.180019
1000.02	0.595121
1003.39	1.17792
1006.77	2.0574
1010.14	0.514095
1013.52	1.3073
1016.89	0.218184
1020.27	0.955248
1023.64	1.29329
1027.02	1.70054
1030.39	0.478712
1033.77	1.27266
1037.14	1.57821
1040.52	1.62969
1043.89	0.358894
1047.27	2.32759
1050.64	1.91602
1054.02	1.37755
1057.39	1.42565
1060.77	1.03262
1064.14	1.57477
1067.52	0.632729
1070.89	0.850763
1074.27	0.585978
1077.64	0.349478
1081.02	0.998562
1084.39	0.368452
1087.76	1.27372
1091.14	0.5742
1094.51	1.65664
1097.89	1.6573
1101.26	0.773899
1104.64	0.448717
1108.01	0.491055
1111.39	1.25693
1114.76	0.181847
1118.14	0.371323
1121.51	1.28434
1124.89	1.71677
1128.26	1.21336
1131.64	0.822184
1135.01	1.89899
1138.39	1.77887
1141.76	1.83424
1145.14	1.45241
1148.51	0.941734
1151.89	1.9669
1155.26	1.3131
1158.64	0.786726
1162.01	1.36881
1165.38	1.1932
1168.76	1.08513
1172.13	1.23168
1175.51	0.139015
1178.88	0.82765
1182.26	0.828611
1185.63	1.31843
1189.01	0.869755
1192.38	1.06628
1195.76	1.00938
1199.13	0.258259
1202.51	0.651598
1205.88	1.37545
1209.26	0.680717
1212.63	0.315561
1216.01	0.809978
1219.38	0.95108
1222.76	0.911572
1226.13	0.082676
1229.51	1.44709
1232.88	1.56977
1236.26	2.56548
1239.63	1.54949
1243.01	2.46125
1246.38	0.450006
1249.76	0.673872
1253.13	0.506409
1256.51	1.77049
1259.88	0.158838
1263.26	2.00076
1266.63	1.56219
1270.01	1.24224
1273.38	1.26719
1276.75	1.08076
1280.13	0.553715
1283.5	0.604513
1286.88	0.946905
1290.25	1.23366
1293.63	1.22256
1297	0.850481
1300.38	0.558254
