Measurement: Raman, 532 nm, unoriented, Raman Data Processed
Mineral: Creaseyite
Rruff sample: R140557
Ideal chemistry: Cu^2+^_2_Pb^2+^_2_Fe^3+^_2_Si_5_O_17_6H_2_O
Locality: Evening Star mine, Tiger Wash, Belmont Mountain, Tonopah, Osborn District, Big Horn Mts, Maricopa County, Arizona, USA
Source: Ron Gibbs
Description: Radiating aggregate of acicular pale-green crystals, associated with prismatic yellow hedyphane.
Raman shift (cm-1)	intensity
89.7832	0
93.158	1078.95
96.5328	3457.33
99.9077	5807.98
103.282	2271.39
106.657	124.495
110.032	142.083
113.407	65.6113
116.782	401.671
120.157	850.936
123.531	1303.15
126.906	1668.2
130.281	1538.47
133.656	1215.71
137.031	1049.2
140.405	1503.65
143.78	1790.49
147.155	2092.43
150.53	2968.26
153.905	2960.92
157.28	2348.97
160.654	1569.05
164.029	946.779
167.404	676.233
170.779	723.179
174.154	807.857
177.528	754.191
180.903	1169.68
184.278	2233.77
187.653	3681.41
191.028	6154.91
194.403	11025.4
197.777	18083.2
201.152	17956.2
204.527	10972.2
207.902	6260.62
211.277	4282.67
214.651	4223.8
218.026	3540.86
221.401	2688.95
224.776	2645.29
228.151	3346.73
231.525	4615.49
234.9	6186.59
238.275	6797.63
241.65	6090.67
245.025	5181.53
248.4	4974.85
251.774	5392.04
255.149	5260.81
258.524	4047.83
261.899	2675.64
265.274	1922.42
268.649	1580.9
272.023	916.841
275.398	229.49
278.773	167.331
282.148	323.795
285.523	318.192
288.897	159.206
292.272	131.554
295.647	535.918
299.022	1065.39
302.397	1752.95
305.772	2493.15
309.146	2792.79
312.521	2786.64
315.896	3070.08
319.271	4155.18
322.646	5626.11
326.02	5471.67
329.395	3803.35
332.77	2479.79
336.145	1854.79
339.52	1489.62
342.894	1143.56
346.269	932.741
349.644	1061.19
353.019	1503.55
356.394	2145.45
359.769	2833.05
363.143	3216.86
366.518	3043.66
369.893	2630.45
373.268	2343.54
376.643	1956.89
380.017	1398.42
383.392	895.135
386.767	526.52
390.142	283.971
393.517	88.9988
396.892	7.90161
400.266	71.2212
403.641	74.7368
407.016	46.5193
410.391	32.8147
413.766	131.969
417.14	269.378
420.515	402.954
423.89	488.719
427.265	529.053
430.64	544.573
434.014	609.305
437.389	786.906
440.764	931.889
444.139	947.065
447.514	941.904
450.889	937.993
454.263	941.731
457.638	1036.53
461.013	1041.53
464.388	841.183
467.763	657.398
471.137	642.893
474.512	734.303
477.887	892.962
481.262	1108.38
484.637	1278.78
488.012	1284.44
491.386	1138.23
494.761	960.393
498.136	857.982
501.511	870.815
504.886	1028.99
508.26	1370.99
511.635	1781.07
515.01	1715.07
518.385	1101.32
521.76	576.25
525.135	282.224
528.509	118.415
531.884	37.636
535.259	12.748
538.634	10.3596
542.009	15.0049
545.384	30.5056
548.758	36.502
552.133	25.3823
555.508	1.76782
558.883	74.7361
562.258	179.077
565.632	289.157
569.007	381.032
572.382	428.528
575.757	440.518
579.132	417.111
582.506	392.15
585.881	400.332
589.256	444.259
592.631	522.935
596.006	599.252
599.38	589.605
602.755	492.084
606.13	372.866
609.505	262.926
612.88	183.264
616.255	124.513
619.629	82.8735
623.004	43.3267
626.379	14.0501
629.754	0.546631
633.129	0.783447
636.504	16.1829
639.878	52.4406
643.253	128.222
646.628	205.563
650.003	220.482
653.378	139.598
656.752	55.464
660.127	13.8799
663.502	12.5708
666.877	2.7124
670.252	13.5636
673.626	28.8408
677.001	41.8202
680.376	62.8755
683.751	74.0504
687.126	94.1921
690.5	139.403
693.875	172.497
697.25	261.607
700.625	386.508
704	549.51
707.375	680.854
710.75	751.321
714.124	814.826
717.499	936.423
720.874	1093.55
724.249	1239.85
727.624	1164.08
730.998	816.365
734.373	525.306
737.748	330.338
741.123	197.273
744.498	111.979
747.872	59.681
751.247	36.3652
754.622	3.73498
757.997	25.754
761.372	19.696
764.746	9.46387
768.121	37.8321
771.496	84.728
774.871	130.004
778.246	169.002
781.621	207.05
784.995	246.789
788.37	268.672
791.745	299.444
795.12	319.8
798.495	306.272
801.87	326.438
805.244	361.938
808.619	443.161
811.994	557.453
815.369	701.457
818.744	828.487
822.118	931.697
825.493	973.95
828.868	986.814
832.243	975.381
835.618	912.333
838.992	816.506
842.367	685.263
845.742	471.347
849.117	236.74
852.492	43.8375
855.867	30.2832
859.241	17.6881
862.616	94.5651
865.991	278.824
869.366	524.684
872.741	764.57
876.115	893.343
879.49	924.069
882.865	923.248
886.24	866.673
889.615	731.304
892.99	544.156
896.364	373.123
899.739	247.26
903.114	150.911
906.489	122.497
909.864	154.11
913.239	216.37
916.613	239.381
919.988	219.578
923.363	157.153
926.738	77.7097
930.112	14.4067
933.487	23.6331
936.862	38.3648
940.237	31.0964
943.612	4.2356
946.987	39.5696
950.361	84.5547
953.736	136.841
957.111	193.458
960.486	245.023
963.861	330.556
967.236	392.863
970.61	435.641
973.985	488.832
977.36	540.404
980.735	599.017
984.11	686.853
987.484	836.005
990.859	1076.43
994.234	1446.3
997.609	1884.66
1000.98	2345.35
1004.36	2639.36
1007.73	2647.22
1011.11	2394.32
1014.48	2040.81
1017.86	1666.12
1021.23	1341.24
1024.61	1079.41
1027.98	873.615
1031.36	694.679
1034.73	580.834
1038.11	512.213
1041.48	470.943
1044.86	500.867
1048.23	632.454
1051.61	491.508
1054.98	324.262
1058.36	260.283
1061.73	238.435
1065.11	223.282
1068.48	177.611
1071.86	109.727
1075.23	57.7106
1078.6	22.1694
1081.98	10.8948
1085.35	21.5778
1088.73	15.9369
1092.1	7.18665
1095.48	7.01318
1098.85	16.1314
1102.23	30.7967
1105.6	25.6412
1108.98	9.35571
1112.35	4.33704
1115.73	12.7107
1119.1	6.34607
1122.48	7.5188
1125.85	8.07947
1129.23	21.3871
1132.6	31.3602
1135.98	45.6473
1139.35	64.0303
1142.73	74.5018
1146.1	76.8898
1149.48	86.8125
1152.85	92.1262
1156.22	95.9089
1159.6	101.891
1162.97	99.6143
1166.35	100.517
1169.72	92.7883
1173.1	73.0672
1176.47	67.5686
1179.85	49.3417
1183.22	42.3245
1186.6	37.9691
1189.97	40.5496
1193.35	29.6639
1196.72	38.8841
1200.1	28.3908
1203.47	38.3049
1206.85	42.8238
1210.22	41.7233
1213.6	40.4668
1216.97	39.7039
1220.35	28.684
1223.72	29.647
1227.1	33.1867
1230.47	22.4544
1233.85	14.5485
1237.22	15.787
1240.6	13.8096
1243.97	10.397
1247.35	7.3548
1250.72	20.4432
1254.1	24.0299
1257.47	14.4284
1260.85	3.93628
1264.22	8.5553
1267.59	0.384338
1270.97	2.74799
1274.34	6.0705
1277.72	0.844727
1281.09	7.27081
1284.47	9.75171
1287.84	11.2877
1291.22	10.1019
1294.59	4.2937
1297.97	0.391235
1301.34	2.36401
