Measurement: Raman, 780 nm, unoriented, Raman Data Processed
Mineral: Creaseyite
Rruff sample: R140557
Ideal chemistry: Cu^2+^_2_Pb^2+^_2_Fe^3+^_2_Si_5_O_17_6H_2_O
Locality: Evening Star mine, Tiger Wash, Belmont Mountain, Tonopah, Osborn District, Big Horn Mts, Maricopa County, Arizona, USA
Source: Ron Gibbs
Description: Radiating aggregate of acicular pale-green crystals, associated with prismatic yellow hedyphane.
Raman shift (cm-1)	intensity
110.362	0
113.737	4.27686
117.112	92.707
120.487	79.4775
123.862	228.282
127.237	211.755
130.611	248.788
133.986	167.356
137.361	256.202
140.736	481.835
144.111	328.634
147.485	258.734
150.86	289.822
154.235	247.792
157.61	177.652
160.985	59.0176
164.359	7.19311
167.734	57.0605
171.109	3.77685
174.484	58.6577
177.859	149.123
181.234	329.545
184.608	556.394
187.983	911.177
191.358	1428.07
194.733	2278.31
198.108	2771.63
201.482	2296.2
204.857	1586.43
208.232	1132.57
211.607	934.634
214.982	782.592
218.357	707.997
221.731	648.674
225.106	629.341
228.481	600.486
231.856	634.833
235.231	662.247
238.605	634.054
241.98	569.178
245.355	587.385
248.73	578.507
252.105	536.504
255.48	445.334
258.854	353.914
262.229	317.521
265.604	282.272
268.979	185.435
272.354	81.1311
275.728	28.8721
279.103	18.8121
282.478	12.646
285.853	22.9053
289.228	7.8136
292.602	57.1888
295.977	104.271
299.352	143.541
302.727	173.228
306.102	163.61
309.476	173.118
312.851	285.522
316.226	437.928
319.601	576.282
322.976	612.961
326.351	470.675
329.725	311.929
333.1	223.55
336.475	173.248
339.85	136.469
343.225	115.635
346.599	107.824
349.974	131.357
353.349	160.505
356.724	180.983
360.099	241.417
363.474	233.981
366.848	227.643
370.223	218.818
373.598	196.811
376.973	143.475
380.348	118.565
383.722	86.6897
387.097	51.8982
390.472	18.4822
393.847	11.0475
397.222	2.15393
400.596	0.192749
403.971	2.80554
407.346	1.14197
410.721	7.7417
414.096	2.88904
417.471	3.61926
420.845	17.8163
424.22	5.38599
427.595	3.36206
430.97	19.8474
434.345	29.3939
437.719	61.168
441.094	82.4657
444.469	79.3555
447.844	95.8192
451.219	82.561
454.594	72.8095
457.968	50.6205
461.343	50.4453
464.718	50.6845
468.093	37.7856
471.468	66.7404
474.842	69.3035
478.217	85.9661
481.592	104.376
484.967	116.207
488.342	120.249
491.716	121.309
495.091	120.785
498.466	134.823
501.841	128.224
505.216	115.142
508.591	104.719
511.965	103.159
515.34	95.0032
518.715	64.3123
522.09	35.3601
525.465	13.1916
528.84	6.25275
532.214	4.06134
535.589	5.65234
538.964	15.929
542.339	17.5215
545.713	0.473389
549.088	10.239
552.463	6.68561
555.838	12.6812
559.213	31.0863
562.588	11.9096
565.962	21.5553
569.337	23.7525
572.712	30.2472
576.087	16.7736
579.462	35.3484
582.837	18.1578
586.211	25.0257
589.586	28.027
592.961	27.5141
596.336	30.978
599.711	31.101
603.085	31.2181
606.46	25.1154
609.835	30.2181
613.21	9.91705
616.585	8.94348
619.96	12.3915
623.334	4.68939
626.709	6.41888
630.084	2.92712
633.459	17.0561
636.833	5.86401
640.208	1.98474
643.583	29.3205
646.958	46.7142
650.333	21.7397
653.708	18.4241
657.082	10.8793
660.457	0.364868
663.832	2.69415
667.207	30.7947
670.582	23.4321
673.957	5.14539
677.331	14.372
680.706	13.2878
684.081	22.9946
687.456	22.259
690.831	41.6731
694.205	37.3096
697.58	39.3846
700.955	55.9864
704.33	67.3269
707.705	66.4245
711.079	74.9271
714.454	54.3373
717.829	71.8329
721.204	81.8871
724.579	75.5186
727.953	51.6125
731.328	50.043
734.703	25.5508
738.078	24.0532
741.453	23.8634
744.828	25.0298
748.202	15.3419
751.577	1.06073
754.952	5.42865
758.327	13.0841
761.702	19.1197
765.077	8.62512
768.451	1.0813
771.826	8.95685
775.201	7.50415
778.576	7.26678
781.951	31.152
785.325	5.31793
788.7	14.1586
792.075	13.8531
795.45	13.8359
798.825	8.58661
802.199	54.1938
805.574	29.2192
808.949	19.4266
812.324	35.8357
815.699	41.2059
819.073	45.2963
822.448	47.3545
825.823	30.1284
829.198	42.9469
832.573	58.4139
835.948	34.3254
839.322	32.0358
842.697	28.9061
846.072	22.815
849.447	22.6057
852.822	26.4722
856.197	20.4034
859.571	5.37402
862.946	29.5991
866.321	42.7572
869.696	41.6444
873.071	33.5226
876.445	23.327
879.82	40.3272
883.195	30.5586
886.57	17.2753
889.945	13.9474
893.319	3.50659
896.694	10.7649
900.069	1.42865
903.444	3.15082
906.819	5.74854
910.193	7.37695
913.568	10.5346
916.943	20.9604
920.318	28.8746
923.693	10.3691
927.068	10.9412
930.442	9.90924
933.817	11.472
937.192	2.40185
940.567	1.11774
943.942	21.3052
947.317	13.7672
950.691	1.48712
954.066	20.03
957.441	8.5484
960.816	50.2058
964.191	37.6419
967.565	43.0014
970.94	48.3379
974.315	39.4045
977.69	73.5961
981.065	67.9861
984.439	105.703
987.814	143.177
991.189	161.11
994.564	183.724
997.939	194.208
1001.31	189.953
1004.69	170.026
1008.06	140.874
1011.44	132.544
1014.81	93.1412
1018.19	65.5176
1021.56	51.4153
1024.94	30.3961
1028.31	12.2628
1031.69	29.4654
1035.06	3.89514
1038.44	6.23181
1041.81	15.5195
1045.19	3.69769
1048.56	25.834
1051.94	6.55469
1055.31	18.8127
1058.68	10.9939
1062.06	6.57983
1065.43	14.9312
1068.81	15.365
1072.18	25.251
1075.56	27.2991
1078.93	14.8481
1082.31	7.69122
1085.68	19.4233
1089.06	19.1531
1092.43	5.09998
1095.81	3.03864
1099.18	15.0145
1102.56	12.3078
1105.93	18.994
1109.31	5.31268
1112.68	6.81952
1116.06	29.3809
1119.43	22.4652
1122.81	11.2835
1126.18	5.20993
1129.56	7.63724
1132.93	14.5182
1136.31	3.0607
1139.68	13.3743
1143.06	6.88861
1146.43	7.33444
1149.81	15.7233
1153.18	16.9645
1156.56	20.3581
1159.93	14.8178
1163.31	8.90479
1166.68	5.90659
1170.05	5.16162
1173.43	20.7599
1176.8	14.8006
1180.18	11.344
1183.55	5.25977
1186.93	10.2006
1190.3	17.5347
1193.68	12.4672
1197.05	22.5377
1200.43	13.9817
1203.8	22.0285
1207.18	16.5955
1210.55	23.0457
1213.93	18.6609
1217.3	26.442
1220.68	36.5183
1224.05	32.219
1227.43	11.4543
1230.8	9.03366
1234.18	16.3199
1237.55	4.22714
1240.92	13.6259
1244.3	10.3177
1247.67	18.789
1251.05	20.8825
1254.42	24.529
1257.8	20.9595
1261.17	7.94543
1264.55	20.9265
1267.92	25.1191
1271.3	9.39578
1274.67	18.66
1278.05	25.551
1281.42	21.0545
1284.8	0
