Measurement: Raman, 532 nm, unoriented, Raman Data Processed
Mineral: Creedite
Rruff sample: R050141
Ideal chemistry: Ca_3_Al_2_(SO_4_)(OH)_2_F_8_2H_2_O
Locality: Mina de Navidad, Rodeo, Durango, Mexico
Source: Dave Bunk Minerals
Description: Radiating group of bladed crystals
Measured chemistry: Ca_3.00_Al_2.00_(S_1.00_O_4_)(OH)_2_(F_7.31_(OH)_0.69_)_Σ=8_·2H_2_O ; OH estimated by stoichiometry and charge balance OH=10-F
Raman shift (cm-1)	intensity
140.168	0
143.543	18.0611
146.918	35.1435
150.292	73.4958
153.667	64.8196
157.042	4.76515
160.417	4.08572
163.792	43.6377
167.167	99.8931
170.541	174.876
173.916	250.689
177.291	197.165
180.666	163.607
184.041	164.214
187.415	244.192
190.79	392.306
194.165	289.388
197.54	101.789
200.915	61.1554
204.29	62.3031
207.664	34.1051
211.039	24.1149
214.414	39.8879
217.789	58.3488
221.163	51.3128
224.538	62.5256
227.913	40.6641
231.288	11.8334
234.663	2.65026
238.038	2.50355
241.412	2.20486
244.787	3.412
248.162	10.7522
251.537	20.2274
254.912	24.3459
258.286	17.3328
261.661	6.10624
265.036	4.16058
268.411	5.89124
271.786	8.81819
275.161	12.9076
278.535	17.2186
281.91	28.5883
285.285	34.7872
288.66	33.5635
292.035	24.5792
295.409	17.5349
298.784	14.6033
302.159	13.4721
305.534	19.5528
308.909	23.2669
312.284	26.3021
315.658	21.7211
319.033	14.6954
322.408	4.94163
325.783	1.17214
329.158	2.49314
332.533	2.4874
335.907	0.027145
339.282	5.53686
342.657	13.3859
346.032	30.913
349.406	39.4564
352.781	18.8569
356.156	2.70725
359.531	2.16553
362.906	2.61063
366.281	5.82693
369.655	10.3002
373.03	9.79686
376.405	5.28027
379.78	0.183716
383.155	0.596573
386.529	11.0856
389.904	25.6704
393.279	40.6872
396.654	35.7902
400.029	25.1409
403.404	13.4817
406.778	3.86336
410.153	1.69434
413.528	2.71999
416.903	3.71181
420.278	21.2844
423.652	53.9553
427.027	107.931
430.402	173.958
433.777	291.075
437.152	542.559
440.527	914.685
443.901	740.397
447.276	312.056
450.651	177.874
454.026	121.749
457.401	102.207
460.776	101.141
464.15	77.8604
467.525	58.9698
470.9	47.4229
474.275	59.8098
477.649	87.6983
481.024	128.314
484.399	144.491
487.774	98.5124
491.149	47.4793
494.524	22.1652
497.898	10.5936
501.273	6.04889
504.648	0.352875
508.023	2.27663
511.398	4.80479
514.773	2.58149
518.147	3.36077
521.522	0.530853
524.897	3.63187
528.272	9.44652
531.647	17.5662
535.021	21.6674
538.396	20.9569
541.771	28.4616
545.146	41.0483
548.521	49.4889
551.895	49.4877
555.27	30.1612
558.645	17.6308
562.02	16.7541
565.395	19.5275
568.77	21.0385
572.144	9.17602
575.519	2.42171
578.894	4.92287
582.269	14.5231
585.644	40.8211
589.018	86.7481
592.393	157.527
595.768	266.503
599.143	428.646
602.518	530.376
605.893	320.268
609.267	116.484
612.642	39.9974
616.017	15.3422
619.392	18.2855
622.767	37.8362
626.141	99.8004
629.516	195.169
632.891	144.334
636.266	42.7451
639.641	28.0372
643.015	39.79
646.39	69.1901
649.765	101.082
653.14	144.77
656.515	211.261
659.89	293.455
663.264	341.572
666.639	292.739
670.014	180.834
673.389	105.566
676.764	61.2037
680.139	34.3692
683.513	19.5908
686.888	10.6282
690.263	3.40537
693.638	0.444756
697.013	0.853691
700.387	2.50684
703.762	0.697563
707.137	2.34513
710.512	1.2552
713.887	0.698189
717.261	1.05503
720.636	1.79868
724.011	6.84213
727.386	8.44399
730.761	9.77451
734.136	11.8592
737.51	18.8008
740.885	26.0788
744.26	30.6057
747.635	42.5946
751.01	54.2481
754.385	59.6855
757.759	68.7223
761.134	82.3898
764.509	92.0037
767.884	92.9404
771.259	80.2121
774.633	58.0364
778.008	38.2526
781.383	24.7487
784.758	17.2905
788.133	12.9713
791.507	5.81435
794.882	7.71918
798.257	7.49392
801.632	11.5648
805.007	16.9111
808.381	21.2298
811.756	29.0899
815.131	35.883
818.506	39.8443
821.881	38.8057
825.256	29.8984
828.63	18.4662
832.005	12.4635
835.38	6.67634
838.755	4.94896
842.13	4.16617
845.505	2.91869
848.879	0.765839
852.254	0.09584
855.629	0.736374
859.004	0.635277
862.379	1.77726
865.753	1.46328
869.128	0.21833
872.503	1.86941
875.878	2.03091
879.253	2.41149
882.627	1.5594
886.002	1.03136
889.377	0.942802
892.752	0.329407
896.127	0.86412
899.501	0.450836
902.876	0.635674
906.251	1.06541
909.626	1.00487
913.001	2.16976
916.376	1.31956
919.75	1.46533
923.125	1.06458
926.5	0.164238
929.875	0.351059
933.25	2.53671
936.625	3.0896
939.999	4.44191
943.374	6.90845
946.749	9.22162
950.124	11.2252
953.499	15.1447
956.873	20.3173
960.248	30.6071
963.623	48.5227
966.998	75.3682
970.373	116.486
973.747	234.083
977.122	503.79
980.497	859.614
983.872	1781.4
987.247	3999.99
990.621	2559.36
993.996	661.608
997.371	256.763
1000.75	134.428
1004.12	78.3254
1007.5	50.0648
1010.87	34.2458
1014.25	23.1548
1017.62	16.6042
1021	12.3537
1024.37	10.3597
1027.74	10.6905
1031.12	12.8469
1034.49	14.9959
1037.87	12.8355
1041.24	9.48679
1044.62	10.0667
1047.99	4.39929
1051.37	0.010696
1054.74	3.48568
1058.12	0.536781
1061.49	1.45371
1064.87	1.80744
1068.24	2.48012
1071.62	2.55031
1074.99	2.68395
1078.37	9.30521
1081.74	20.2134
1085.12	34.8944
1088.49	25.1871
1091.87	12.6223
1095.24	6.42158
1098.62	5.07021
1101.99	5.65982
1105.37	7.63876
1108.74	10.3311
1112.12	19.6538
1115.49	32.2272
1118.87	58.4202
1122.24	111.958
1125.61	206.479
1128.99	313.853
1132.36	504.438
1135.74	732.624
1139.11	564.687
1142.49	259.489
1145.86	120.299
1149.24	64.9436
1152.61	35.2782
1155.99	21.0103
1159.36	14.6934
1162.74	9.53173
1166.11	7.835
1169.49	11.1901
1172.86	20.7672
1176.24	38.8127
1179.61	70.8031
1182.99	144.352
1186.36	158.737
1189.74	58.3437
1193.11	21.5665
1196.48	8.6474
1199.86	5.84893
1203.23	4.4278
1206.61	2.56522
1209.98	2.27985
1213.36	0.011726
1216.73	0.4468
1220.11	1.02557
1223.48	0.493301
1226.86	0.73201
1230.23	0.257446
1233.61	0.300369
1236.98	0.16684
1240.36	0.274536
1243.73	0.3256
1247.11	1.21625
1250.48	1.63474
1253.86	2.68856
1257.23	2.37562
1260.61	2.60967
1263.98	1.55377
1267.36	4.5544
1270.73	2.42126
1274.11	1.86718
1277.48	1.7488
1280.86	1.16563
1284.23	1.41486
1287.61	0.840584
1290.98	0.605728
1294.36	2.26749
1297.73	1.68288
1301.11	0.267502
