Measurement: Raman, 514 nm, unoriented, Raman Data Processed
Mineral: Creedite
Rruff sample: R050141
Ideal chemistry: Ca_3_Al_2_(SO_4_)(OH)_2_F_8_2H_2_O
Locality: Mina de Navidad, Rodeo, Durango, Mexico
Source: Dave Bunk Minerals
Description: Radiating group of bladed crystals
Measured chemistry: Ca_3.00_Al_2.00_(S_1.00_O_4_)(OH)_2_(F_7.31_(OH)_0.69_)_Σ=8_·2H_2_O ; OH estimated by stoichiometry and charge balance OH=10-F
Raman shift (cm-1)	intensity
94.768	0
98.947	24.123
103.124	252.822
107.3	587.43
111.473	680.359
115.644	460.855
119.813	616.794
123.981	917.98
128.146	778.483
132.309	606.063
136.47	553.65
140.63	752.651
144.787	760.299
148.942	797.855
153.096	593.046
157.247	381.948
161.396	573.444
165.544	1032.92
169.689	1879.31
173.833	1782.41
177.974	1337.27
182.114	1318.79
186.251	2352.41
190.387	3232.16
194.52	1370.04
198.652	766.737
202.782	673.831
206.909	516.427
211.035	419.024
215.159	552.48
219.281	404.372
223.4	361.58
227.518	181.655
231.634	86.392
235.748	66.494
239.86	1.848
243.97	49.849
248.079	84.825
252.185	204.062
256.289	157.561
260.391	57.645
264.492	65.281
268.59	2.923
272.687	25.559
276.781	78.268
280.874	132.939
284.964	63.405
289.053	54.534
293.14	20.77
297.225	104.409
301.308	95.011
305.389	223.995
309.468	384.318
313.545	304.956
317.62	94.884
321.693	3.07
325.765	109.524
329.834	30.979
333.902	90.33
337.967	76.441
342.031	28.874
346.093	182.47
350.153	83.01
354.21	13.912
358.267	110.206
362.321	212.677
366.373	258.455
370.423	294.381
374.471	176.408
378.518	280.436
382.563	180.521
386.605	238.696
390.646	374.993
394.685	330.409
398.722	272.934
402.757	257.506
406.79	204.994
410.821	182.968
414.851	186.07
418.878	126.273
422.904	150.583
426.927	496.758
430.949	1148.4
434.969	3392.62
438.987	8075.98
443.003	4295.15
447.018	1732.45
451.03	912.867
455.041	585.958
459.049	802.907
463.056	520.601
467.061	378.388
471.064	341.253
475.065	375.194
479.064	675.206
483.062	844.175
487.057	333.198
491.051	245.525
495.043	100.922
499.032	41.643
503.02	12.714
507.007	4.791
510.991	50.299
514.973	44.413
518.954	48.826
522.933	129.753
526.91	70.344
530.885	258.973
534.858	313.639
538.829	153.85
542.799	240.35
546.766	284.462
550.732	321.518
554.696	188.012
558.658	301.862
562.618	342.472
566.576	542.941
570.533	411.598
574.488	353.139
578.44	144.581
582.391	210.036
586.341	449.504
590.288	1149.99
594.233	1828.53
598.177	2894.07
602.119	3074.61
606.059	1450.13
609.997	661.624
613.933	239.115
617.868	401.587
621.801	421.024
625.731	1406.42
629.66	1950.81
633.588	680.27
637.513	454.736
641.437	514.136
645.358	518.93
649.278	649.828
653.196	1197.86
657.113	1367.87
661.027	1908.92
664.94	1883.21
668.851	1062.94
672.76	614.74
676.667	396.007
680.572	396.727
684.476	221.869
688.378	72.696
692.278	95.021
696.176	4.054
700.072	206.802
703.967	196.953
707.86	138.237
711.751	55.058
715.64	171.529
719.527	160.644
723.413	57.446
727.297	38.427
731.179	103.823
735.059	133.104
738.937	294.985
742.814	241.289
746.689	411.022
750.562	330.701
754.433	476.21
758.303	535.039
762.17	369.354
766.036	506.747
769.901	525.232
773.763	525.694
777.624	282.702
781.482	246.602
785.339	156.846
789.195	93.613
793.048	175.122
796.9	29.462
800.75	202.115
804.598	301.232
808.445	217.207
812.289	274.107
816.132	310.979
819.973	344.865
823.813	265.731
827.65	101.535
831.486	153.225
835.32	182.851
839.152	152.307
842.983	131.626
846.812	16.2
850.639	63.267
854.464	20.129
858.288	85.693
862.11	191.281
865.93	69.632
869.748	232.731
873.564	14.856
877.379	40.401
881.192	153.027
885.004	52.393
888.813	311.198
892.621	158.801
896.427	16.872
900.232	27.161
904.034	155.887
907.835	225.876
911.634	1.744
915.432	208.488
919.227	147.114
923.021	79.621
926.813	196.979
930.604	252.246
934.393	77.41
938.18	447.426
941.965	420.127
945.749	321.854
949.53	55.918
953.311	293.26
957.089	522.639
960.866	567.617
964.641	682.158
968.414	746.473
972.185	1083.01
975.955	2024.05
979.723	4239.61
983.49	15773.5
987.254	38897.8
991.017	10654.1
994.779	3258.56
998.538	1704.86
1002.3	818.039
1006.05	628.529
1009.81	491.346
1013.56	491.828
1017.31	341.324
1021.06	160.574
1024.81	118.262
1028.55	128.488
1032.3	326.006
1036.04	283.518
1039.78	159.066
1043.52	86.373
1047.26	37.432
1050.99	16.354
1054.73	176.025
1058.46	217.939
1062.19	307.947
1065.92	273.672
1069.65	172.062
1073.37	287.025
1077.1	264.514
1080.82	704.484
1084.54	1008.33
1088.26	720.014
1091.97	367.961
1095.69	322.422
1099.4	41.863
1103.12	136.908
1106.83	49.678
1110.54	9.143
1114.24	273.111
1117.95	204.609
1121.65	530.957
1125.35	1156.56
1129.06	1816.31
1132.75	3521.1
1136.45	4940.31
1140.15	2084.98
1143.84	895.105
1147.53	621.656
1151.22	91.455
1154.91	53.318
1158.6	89.234
1162.28	26.342
1165.97	162.635
1169.65	173.744
1173.33	191.377
1177.01	506.275
1180.69	1038.36
1184.36	2375.03
1188.04	1008.12
1191.71	511.414
1195.38	311.107
1199.05	321.012
1202.71	293.963
1206.38	421.506
1210.04	191.697
1213.71	289.594
1217.37	271.395
1221.03	323.938
1224.68	148.912
1228.34	161.559
1231.99	178.1
1235.65	36.123
1239.3	138.969
1242.95	167.096
1246.59	402.252
1250.24	434.469
1253.88	283.148
1257.53	43.555
1261.17	95.289
1264.81	31.371
1268.45	131.973
1272.08	44.469
1275.72	157.65
1279.35	315.006
1282.98	56.611
1286.61	136.73
1290.24	45.35
1293.87	151.416
1297.49	47.609
1301.11	9.318
1304.73	100.508
1308.36	61.861
1311.97	23.982
1315.59	125.686
1319.2	3.652
1322.82	19.23
1326.43	305.916
1330.04	187.529
1333.65	75.775
1337.26	36.467
1340.86	310.549
1344.47	20.564
1348.07	307.82
1351.67	483.416
1355.27	409.449
1358.87	481.35
1362.46	213.902
1366.06	352.557
1369.65	411.027
1373.24	217.531
1376.83	325.217
1380.42	490.857
1384	581.988
1387.59	177.92
1391.17	340.984
1394.75	470.674
1398.33	186.17
1401.91	302.969
1405.49	73.572
1409.06	214.002
1412.64	265.492
1416.21	265.48
1419.78	430.395
1423.35	159.162
1426.91	238.213
1430.48	424.914
1434.05	323.566
1437.61	441.213
1441.17	395.062
1444.73	356.475
1448.29	310.9
1451.84	484.77
1455.4	712.844
1458.95	540.734
1462.5	118.227
1466.05	241.586
1469.6	131.18
1473.15	377.918
1476.69	77.312
1480.24	109.533
1483.78	289.018
