Measurement: Raman, 780 nm, unoriented, Raman Data Processed
Mineral: Creedite
Rruff sample: R050141
Ideal chemistry: Ca_3_Al_2_(SO_4_)(OH)_2_F_8_2H_2_O
Locality: Mina de Navidad, Rodeo, Durango, Mexico
Source: Dave Bunk Minerals
Description: Radiating group of bladed crystals
Measured chemistry: Ca_3.00_Al_2.00_(S_1.00_O_4_)(OH)_2_(F_7.31_(OH)_0.69_)_Σ=8_·2H_2_O ; OH estimated by stoichiometry and charge balance OH=10-F
Raman shift (cm-1)	intensity
138.404	0
141.297	1.9455
144.19	12.8228
147.082	14.738
149.975	30.3144
152.868	38.3817
155.76	14.8755
158.653	9.70994
161.546	30.8799
164.439	67.8224
167.331	113.609
170.224	186.504
173.117	249.704
176.009	198.951
178.902	163.048
181.795	153.472
184.687	175.314
187.58	254.772
190.473	388.866
193.365	305.457
196.258	122.9
199.151	54.9906
202.044	40.1402
204.936	30.9841
207.829	15.3012
210.722	12.9178
213.614	18.9118
216.507	26.7322
219.4	21.5988
222.292	16.2305
225.185	19.4401
228.078	5.31498
230.971	1.35627
233.863	4.92553
236.756	2.68714
239.649	1.94677
242.541	2.10347
245.434	4.64609
248.327	13.1389
251.22	19.5517
254.112	25.6209
257.005	21.0088
259.898	12.4005
262.79	5.6803
265.683	6.80782
268.576	8.18881
271.468	11.118
274.361	16.1863
277.254	20.1597
280.147	28.6036
283.039	35.4265
285.932	33.4632
288.825	28.2058
291.717	20.7261
294.61	14.058
297.503	12.1522
300.395	11.7386
303.288	18.566
306.181	24.6167
309.074	30.0932
311.966	34.3915
314.859	29.7196
317.752	17.4196
320.644	10.2534
323.537	4.45147
326.43	1.24276
329.322	1.92364
332.215	1.89979
335.108	1.79391
338	0.392269
340.893	3.80174
343.786	8.04859
346.679	15.3495
349.571	18.179
352.464	9.10303
355.357	7.84013
358.249	9.91983
361.142	12.6416
364.035	16.2276
366.928	23.6715
369.82	29.8257
372.713	26.2907
375.606	17.8369
378.498	7.5275
381.391	7.29105
384.284	5.76833
387.176	14.7073
390.069	24.0122
392.962	34.1227
395.854	31.3273
398.747	25.0608
401.64	18.822
404.533	10.8566
407.425	3.45549
410.318	0.04213
413.211	6.58308
416.103	16.0026
418.996	40.5813
421.889	90.2367
424.781	141.045
427.674	181.425
430.567	257.073
433.46	366.663
436.352	580.782
439.245	943.187
442.138	989.085
445.03	518.508
447.923	252.44
450.816	151.937
453.709	107.242
456.601	90.8724
459.494	88.679
462.387	71.9513
465.279	51.3077
468.172	40.3217
471.065	37.4586
473.957	35.4933
476.85	44.2833
479.743	53.8712
482.635	63.3668
485.528	56.5314
488.421	33.5733
491.314	14.3639
494.206	7.15211
497.099	2.25224
499.992	0.165573
502.884	1.90913
505.777	2.90465
508.67	2.09538
511.562	2.74792
514.455	2.15867
517.348	1.94445
520.241	0.662415
523.133	0.894241
526.026	3.60566
528.919	8.07245
531.811	10.6146
534.704	11.0624
537.597	12.0954
540.49	12.4164
543.382	14.7404
546.275	19.3329
549.168	22.3926
552.06	19.7344
554.953	14.6743
557.846	10.7353
560.738	8.44628
563.631	13.7296
566.524	16.4938
569.417	15.2871
572.309	12.2761
575.202	9.79272
578.095	11.9247
580.987	21.3026
583.88	40.9816
586.773	64.5926
589.665	95.1834
592.558	143.616
595.451	214.424
598.343	283.608
601.236	345.15
604.129	264.653
607.021	122.739
609.914	52.4661
612.807	21.219
615.7	13.2457
618.592	9.2129
621.485	16.2113
624.378	31.6557
627.27	74.499
630.163	108.311
633.056	57.9036
635.948	20.0953
638.841	13.3077
641.734	22.1312
644.627	36.4311
647.519	53.4207
650.412	65.3754
653.305	83.8464
656.197	109.094
659.09	138.58
661.983	169.589
664.875	160.932
667.768	118.88
670.661	74.1831
673.554	50.9218
676.446	34.5743
679.339	27.133
682.232	15.9761
685.125	8.26994
688.017	5.48516
690.91	1.23454
693.803	2.15041
696.695	0.089161
699.588	0.94561
702.481	3.03171
705.373	0.695694
708.266	1.85002
711.159	2.66489
714.052	0.556122
716.944	1.10435
719.837	1.19138
722.73	3.12424
725.622	3.26486
728.515	5.0103
731.408	8.23672
734.3	10.9295
737.193	11.6251
740.086	15.4866
742.979	16.9957
745.871	23.4874
748.764	25.7588
751.657	33.3564
754.549	40.9568
757.442	44.273
760.335	50.3116
763.227	55.0545
766.12	55.4506
769.013	52.3205
771.905	42.2027
774.798	30.6183
777.691	23.454
780.584	16.4203
783.476	10.7378
786.369	8.41608
789.262	6.24567
792.154	6.83788
795.047	5.22527
797.94	7.75658
800.832	7.49301
803.725	12.1491
806.618	14.0057
809.511	18.9386
812.403	23.2428
815.296	27.9768
818.189	28.5733
821.081	26.4777
823.974	22.0241
826.867	15.3744
829.76	11.5118
832.652	7.68788
835.545	7.24323
838.438	3.05947
841.33	1.92475
844.223	2.62541
847.116	0.030855
850.008	0.458616
852.901	1.79673
855.794	0.529516
858.687	1.77597
861.579	0.064739
864.472	1.8371
867.365	0.181751
870.257	1.43581
873.15	0.224403
876.043	0.601301
878.935	0.300194
881.828	1.69844
884.721	0.67141
887.614	2.26246
890.506	0.683455
893.399	0.371162
896.292	0.543655
899.184	0.648138
902.077	0.458513
904.97	0.303823
907.862	1.13872
910.755	1.93702
913.648	0.332827
916.54	0.47711
919.433	0.862249
922.326	0.482082
925.218	1.50272
928.111	0.965769
931.004	3.09339
933.897	1.67303
936.789	2.35224
939.682	3.47302
942.575	5.12482
945.467	5.06107
948.36	6.64698
951.253	10.4649
954.145	13.4593
957.038	18.0896
959.931	26.7111
962.824	38.8415
965.716	62.7321
968.609	92.6258
971.502	174.819
974.394	360.73
977.287	490.244
980.18	732.967
983.072	1238.3
985.965	2469.85
988.858	2357.94
991.751	748.103
994.643	272.263
997.536	133.402
1000.43	76.6991
1003.32	50.5008
1006.21	33.6362
1009.11	23.4047
1012	18.4107
1014.89	12.3017
1017.78	8.6829
1020.68	7.72258
1023.57	5.68299
1026.46	6.40068
1029.36	7.01011
1032.25	8.07487
1035.14	8.12733
1038.03	6.60385
1040.93	7.62663
1043.82	3.92099
1046.71	3.98811
1049.61	1.62687
1052.5	0.454399
1055.39	2.87205
1058.28	1.21341
1061.17	1.23878
1064.07	0.988258
1066.96	0.765078
1069.85	2.17545
1072.75	5.50526
1075.64	9.00808
1078.53	16.1179
1081.42	26.9887
1084.32	37.442
1087.21	30.442
1090.1	15.1205
1092.99	7.09379
1095.89	2.63802
1098.78	0.698275
1101.67	2.09752
1104.57	2.46585
1107.46	3.43776
1110.35	6.73968
1113.24	11.6688
1116.14	19.0395
1119.03	35.8455
1121.92	63.3052
1124.82	105.154
1127.71	141.877
1130.6	205.964
1133.49	296.369
1136.39	329.929
1139.28	204.652
1142.17	99.8376
1145.06	51.2622
1147.96	27.1769
1150.85	16.9158
1153.74	11.2921
1156.63	5.37128
1159.53	4.39821
1162.42	3.56248
1165.31	4.2201
1168.2	6.9058
1171.1	10.4047
1173.99	16.0614
1176.88	28.2589
1179.78	47.2422
1182.67	82.9995
1185.56	82.1354
1188.45	34.779
1191.35	14.2953
1194.24	5.42196
1197.13	1.4284
1200.03	0.104452
1202.92	1.87031
1205.81	0.477346
1208.7	0.016388
1211.6	0.501522
1214.49	0.759253
1217.38	0.406748
1220.27	0.037134
1223.17	1.52026
1226.06	1.72303
1228.95	1.68863
1231.85	0.161314
1234.74	0.603357
1237.63	1.3266
1240.52	3.04659
1243.42	2.43629
1246.31	3.59451
1249.2	3.43961
1252.09	3.59502
1254.99	2.13398
1257.88	1.44465
1260.77	1.17302
1263.66	0.977509
1266.56	0.04402
1269.45	1.70971
1272.34	0.761015
1275.23	0.851551
