Measurement: Raman, 780 nm, unoriented, Raman Data Processed
Mineral: Cristobalite
Rruff sample: R060648
Ideal chemistry: SiO_2_
Locality: Idaho, USA
Source: Gemological Institute of America
Description: Blue cryptocrystalline massive, variety opal
Measured chemistry: Si_1.00_O_2_
Raman shift (cm-1)	intensity
95.4169	0
98.7917	1.09094
102.166	7.42239
105.541	35.1068
108.916	103.736
112.291	206.071
115.666	219.883
119.041	82.356
122.415	34.8507
125.79	25.6834
129.165	16.1845
132.54	11.9232
135.915	2.97775
139.29	4.89792
142.664	1.85104
146.039	2.15027
149.414	3.33017
152.789	7.02261
156.163	0.113647
159.538	2.41421
162.913	8.86813
166.288	12.052
169.663	18.2607
173.038	24.411
176.412	28.1815
179.787	35.0631
183.162	42.2031
186.537	48.8254
189.912	56.744
193.286	68.4882
196.661	80.8018
200.036	97.2519
203.411	119.855
206.786	146.376
210.161	182.661
213.535	228.423
216.91	286.358
220.285	357.039
223.66	440.056
227.035	520.82
230.409	550.832
233.784	500.755
237.159	388.797
240.534	276.635
243.909	193.31
247.284	139.41
250.658	101.979
254.033	77.6352
257.408	60.888
260.783	52.8575
264.158	48.0833
267.532	46.2814
270.907	47.0668
274.282	44.8051
277.657	41.5179
281.032	35.7122
284.406	33.5741
287.781	37.7186
291.156	21.5056
294.531	12.5272
297.906	10.578
301.281	7.34727
304.655	3.34116
308.03	0.078293
311.405	2.70369
314.78	2.34944
318.155	2.61758
321.529	3.25391
324.904	3.49792
328.279	2.16232
331.654	2.53163
335.029	1.95331
338.404	1.23526
341.778	0.912445
345.153	2.53021
348.528	6.64452
351.903	11.1607
355.278	13.4947
358.652	19.5855
362.027	24.8391
365.402	32.0702
368.777	37.7481
372.152	43.4106
375.526	48.169
378.901	52.2776
382.276	58.4048
385.651	67.618
389.026	80.4062
392.401	103.376
395.775	131.554
399.15	175.742
402.525	232.685
405.9	302.19
409.275	393.746
412.649	506.262
416.024	616.28
419.399	628.107
422.774	515.453
426.149	370.866
429.524	266.461
432.898	196.625
436.273	152.187
439.648	119.416
443.023	98.7115
446.398	79.384
449.772	64.0419
453.147	52.0841
456.522	43.8254
459.897	37.7081
463.272	34.3614
466.647	27.8806
470.021	21.398
473.396	15.1412
476.771	10.0112
480.146	6.75798
483.521	3.97508
486.895	1.59917
490.27	0.079544
493.645	0.283112
497.02	2.82434
500.395	2.83608
503.769	1.60226
507.144	1.37869
510.519	0.025421
513.894	0.032089
517.269	0.947815
520.644	2.30354
524.018	1.6386
527.393	2.68466
530.768	2.52149
534.143	2.75257
537.518	3.27725
540.892	4.13135
544.267	4.72052
547.642	4.02856
551.017	4.22105
554.392	5.15786
557.766	3.92138
561.141	3.5529
564.516	2.92005
567.891	2.6685
571.266	2.80904
574.64	2.48059
578.015	3.08357
581.39	3.40323
584.765	3.4462
588.14	2.02856
591.515	1.90847
594.889	3.11717
598.264	2.11231
601.639	2.40789
605.014	1.61771
608.389	1.48688
611.764	0.866432
615.138	0.361488
618.513	0.73645
621.888	1.13332
625.263	1.80873
628.638	1.05073
632.012	1.29553
635.387	0.737251
638.762	2.21903
642.137	1.82914
645.512	1.51755
648.886	1.95835
652.261	1.47574
655.636	2.52896
659.011	1.80126
662.386	1.23179
665.76	1.32335
669.135	0.783821
672.51	0.723694
675.885	0.62513
679.26	1.46036
682.635	0.684013
686.009	0.44426
689.384	0.446365
692.759	0.421341
696.134	1.04482
699.509	0.447098
702.884	0.777367
706.258	1.24281
709.633	0.028511
713.008	0.561508
716.383	0.252647
719.758	1.12536
723.132	0.34211
726.507	0.076004
729.882	0.353722
733.257	0.437408
736.632	0.709633
740.006	0.426758
743.381	0.49408
746.756	0.587677
750.131	0.457703
753.506	0.405251
756.88	2.50507
760.255	1.32513
763.63	3.35289
767.005	6.49175
770.38	10.9971
773.755	16.2437
777.129	24.6489
780.504	32.8996
783.879	34.6755
787.254	30.4128
790.629	27.0398
794.003	25.7268
797.378	18.6877
800.753	14.1091
804.128	9.0882
807.503	8.57029
810.878	5.50329
814.252	4.4439
817.627	3.26766
821.002	3.22188
824.377	3.31785
827.752	2.71055
831.126	3.42873
834.501	3.08054
837.876	1.99256
841.251	3.18582
844.626	1.82962
848	3.17405
851.375	2.45766
854.75	2.60219
858.125	2.42963
861.5	2.14425
864.875	2.10317
868.249	2.98628
871.624	2.23674
874.999	1.84798
878.374	2.30214
881.749	1.47321
885.123	3.69179
888.498	0.523972
891.873	0.952637
895.248	1.01023
898.623	0.445625
901.997	0.400993
905.372	0.094955
908.747	1.34027
912.122	0.187706
915.497	0.117912
918.872	0.240028
922.246	0.511497
925.621	0.225288
928.996	0.625336
932.371	0.538948
935.746	0.190437
939.12	1.36548
942.495	0.235603
945.87	0.787956
949.245	0.598763
952.62	1.13401
955.995	0.502876
959.369	0.914284
962.744	1.11758
966.119	0.720573
969.494	0.668663
972.869	4.22145
976.243	2.37199
979.618	0.213844
982.993	0.518188
986.368	0.230927
989.743	0.487823
993.117	0.924225
996.492	0.626244
999.867	0.671608
1003.24	0.704826
1006.62	0.097382
1009.99	1.19719
1013.37	1.05352
1016.74	1.67629
1020.12	1.0657
1023.49	1.31549
1026.87	1.1238
1030.24	1.38698
1033.62	1.6987
1036.99	2.2965
1040.37	2.26177
1043.74	2.82594
1047.12	2.0508
1050.49	2.10638
1053.86	2.71571
1057.24	3.44493
1060.61	3.54159
1063.99	4.42176
1067.36	7.24181
1070.74	10.9267
1074.11	17.0162
1077.49	21.6797
1080.86	17.6308
1084.24	10.7092
1087.61	6.00667
1090.99	3.45784
1094.36	2.34124
1097.74	1.28517
1101.11	0.536133
1104.49	0.820236
1107.86	1.31105
1111.24	1.10651
1114.61	0.46637
1117.99	0.599434
1121.36	0.153709
1124.73	0.515602
1128.11	0.48568
1131.48	1.1311
1134.86	0.405533
1138.23	0.522476
1141.61	0.566742
1144.98	1.5152
1148.36	1.67453
1151.73	1.31831
1155.11	1.80601
1158.48	1.42986
1161.86	1.0834
1165.23	1.4007
1168.61	1.24173
1171.98	1.25416
1175.36	1.60364
1178.73	2.02084
1182.11	2.22346
1185.48	2.29335
1188.86	4.32122
1192.23	4.63652
1195.61	5.14121
1198.98	4.82568
1202.36	3.16884
1205.73	2.77924
1209.11	2.02871
1212.48	1.32388
1215.86	2.63966
1219.23	1.10719
1222.61	0.110977
1225.98	0.226219
1229.35	0.385109
1232.73	1.27663
1236.1	0.083809
1239.48	0.132523
1242.85	0.542351
1246.23	0.34919
1249.6	0.086212
1252.98	0.312263
1256.35	0.86232
1259.73	0.510437
1263.1	0.130135
1266.48	0.035561
1269.85	0.432159
1273.23	0.290817
1276.6	1.03863
1279.98	0.005501
1283.35	0.629128
