Measurement: Raman, 532 nm, unoriented, Raman Data Processed
Mineral: Cristobalite
Rruff sample: R061107
Ideal chemistry: SiO_2_
Locality: Vechec, Slovakia
Source: Michael Scott
Description: White distorted octahedra associated with colorless labradorite
Measured chemistry: ([box]_0.99_Na_0.01_)_Σ=1_(Si_0.99_Al_0.01_)_Σ=1_O_2_
Raman shift (cm-1)	intensity
141.814	0
144.706	98.6108
147.599	164.606
150.492	244.575
153.385	236.295
156.277	18.2632
159.17	34.4512
162.063	64.5698
164.955	16.4043
167.848	40.5459
170.741	150.774
173.633	190.744
176.526	222.697
179.419	331.799
182.311	503.572
185.204	635.523
188.097	875.338
190.989	1236.25
193.882	1536.61
196.775	2075.01
199.668	2631.9
202.56	3293.73
205.453	4082.36
208.346	5400.18
211.238	6957.79
214.131	9175.95
217.024	12039.4
219.917	15079.2
222.809	18146.5
225.702	20220.8
228.595	20649.1
231.487	18838.4
234.38	15544.4
237.273	11969
240.165	8986.96
243.058	6635.85
245.951	4867.25
248.844	3558.74
251.736	2743.94
254.629	2136.64
257.522	1694.25
260.414	1633.03
263.307	1433.41
266.2	1420.08
269.092	1565.02
271.985	1608.34
274.878	1664.19
277.771	1539.72
280.663	1432.21
283.556	1285.13
286.449	1177.3
289.341	731.733
292.234	297.139
295.127	264.75
298.019	212.96
300.912	78.2285
303.805	58.4346
306.697	51.8818
309.59	56.5215
312.483	45.6816
315.375	40.9228
318.268	50.0713
321.161	18.3193
324.054	8.00098
326.946	12.4922
329.839	58.2022
332.732	107.422
335.625	56.0918
338.517	37.3027
341.41	34.3916
344.303	13.6094
347.195	89.6289
350.088	36.5225
352.981	54.6094
355.873	127.22
358.766	205.702
361.659	330.844
364.551	348.221
367.444	515.403
370.337	548.724
373.229	528.919
376.122	593.481
379.015	841.156
381.908	1055.85
384.8	1406.85
387.693	1897.58
390.586	2344.15
393.478	3319.42
396.371	4472.72
399.264	6366.36
402.156	8819.62
405.049	12341.7
407.942	16445
410.835	20511.5
413.727	23085.8
416.62	22495
419.513	18595
422.405	14988.3
425.298	10546.1
428.191	7500.25
431.084	5805.99
433.976	4579.62
436.869	3708.05
439.762	3083.36
442.654	2588.78
445.547	1982.84
448.44	1614.16
451.332	1154.15
454.225	881.798
457.118	698.505
460.01	526.087
462.903	411.018
465.796	230.761
468.689	143.035
471.581	209.144
474.474	82.6064
477.367	130.393
480.259	147.953
483.152	88.3018
486.045	75.9316
488.937	27.7002
491.83	4.45801
494.723	7.28711
497.615	0.00293
500.508	1.17285
503.401	45.0693
506.294	77.9805
509.186	94.0879
512.079	19.8125
514.972	69.3037
517.864	7.21289
520.757	25.6758
523.65	149.79
526.543	63.0684
529.435	43.6992
532.328	79.7519
535.221	23.877
538.113	41.5537
541.006	16.8184
543.899	34.7315
546.791	183.615
549.684	127.664
552.577	144.485
555.47	111.32
558.362	194.775
561.255	134.244
564.148	141.083
567.04	173.578
569.933	100.828
572.826	104.353
575.718	163
578.611	280.95
581.504	282.303
584.396	297.985
587.289	308.763
590.182	329.735
593.075	296.646
595.967	114.361
598.86	159.384
601.753	120.447
604.645	137.789
607.538	166.466
610.431	196.1
613.323	272.235
616.216	214.46
619.109	224.827
622.001	291.273
624.894	249.871
627.787	277.273
630.68	221.512
633.572	204.794
636.465	17.4561
639.358	53.1152
642.25	15.4111
645.143	66.501
648.036	55.2559
650.928	87.5615
653.821	36.1201
656.714	77.7588
659.607	67.6875
662.499	164.891
665.392	98.8672
668.285	118.317
671.177	125.152
674.07	39.4209
676.963	90.2344
679.856	59.5342
682.748	16.3311
685.641	157.034
688.534	58.7451
691.426	110.22
694.319	215.925
697.212	139.533
700.104	159.539
702.997	43.6016
705.89	93.4727
708.783	98.0977
711.675	117.712
714.568	81.5703
717.461	46.0283
720.353	92.79
723.246	125.98
726.139	46.7188
729.031	43.54
731.924	166.575
734.817	79.5566
737.71	162.446
740.602	21.8174
743.495	113.004
746.388	127.331
749.28	242.719
752.173	172.392
755.066	364.535
757.958	400.269
760.851	573.678
763.744	673.12
766.636	888.121
769.529	1211.98
772.422	1413.84
775.315	1771.67
778.207	2023.23
781.1	2090.6
783.993	1839.81
786.885	1712.77
789.778	1491.29
792.671	1138.72
795.563	837.631
798.456	488.396
801.349	287.104
804.241	149.881
807.134	15.7979
810.027	24.3955
812.92	21.8047
815.812	23.9385
818.705	91.9932
821.598	220.932
824.49	260.56
827.383	294.39
830.276	275.793
833.168	312.228
836.061	280.797
838.954	289.724
841.847	277.935
844.739	246.792
847.632	204.875
850.525	198.841
853.417	170.577
856.31	226.321
859.203	182.082
862.096	170.402
864.988	139.302
867.881	141.708
870.774	113.861
873.666	71.4902
876.559	128.606
879.452	167.176
882.344	49.5518
885.237	152.5
888.13	55.7822
891.023	229.116
893.915	195.013
896.808	77.0098
899.701	68.5527
902.593	53.127
905.486	20.7158
908.379	72.7617
911.271	24.0205
914.164	21.9316
917.057	15.8018
919.949	47.5908
922.842	136.236
925.735	149.343
928.628	149.319
931.52	88.1758
934.413	0.1875
937.306	115.249
940.198	183.097
943.091	204.17
945.984	232.574
948.876	186.539
951.769	159.639
954.662	293.508
957.554	216.818
960.447	138.795
963.34	176.367
966.233	109.818
969.125	125.732
972.018	23.793
974.911	83.5342
977.803	39.5723
980.696	94.0039
983.589	73.1182
986.481	193.55
989.374	99.5869
992.267	102.45
995.16	40.3945
998.052	208.287
1000.95	24.0664
1003.84	36.8066
1006.73	12.3428
1009.62	80.0147
1012.52	64.8086
1015.41	10.6006
1018.3	36.4307
1021.19	115.081
1024.09	248.039
1026.98	229.895
1029.87	243.267
1032.77	158.283
1035.66	132.81
1038.55	172.418
1041.44	186.435
1044.34	214.871
1047.23	125.328
1050.12	168.491
1053.01	105.533
1055.91	101.664
1058.8	138.642
1061.69	315.342
1064.58	392.754
1067.48	720.251
1070.37	994.821
1073.26	1257.5
1076.15	1283.82
1079.05	927.643
1081.94	616.722
1084.83	366.361
1087.73	160.11
1090.62	75.8926
1093.51	139.633
1096.4	64.8164
1099.3	25
1102.19	44.5342
1105.08	94.2549
1107.97	61.585
1110.87	37.2734
1113.76	29.6455
1116.65	137.455
1119.55	16.0674
1122.44	61.9736
1125.33	70.5557
1128.22	24.7178
1131.12	17.8174
1134.01	99.1914
1136.9	10.4648
1139.8	86.5205
1142.69	72.5039
1145.58	8.37793
1148.47	40.0508
1151.37	9.49805
1154.26	89.9307
1157.15	73.9463
1160.04	21.5547
1162.94	53.7383
1165.83	48.7422
1168.72	33.3516
1171.61	14.2842
1174.51	111.669
1177.4	180.421
1180.29	265.16
1183.18	210.506
1186.08	369.36
1188.97	333.102
1191.86	348.338
1194.76	289.629
1197.65	283.763
1200.54	220.376
1203.43	150.11
1206.33	128.748
1209.22	125.518
1212.11	24.583
1215.01	48.8018
1217.9	103.796
1220.79	171.932
1223.68	66.2539
1226.58	116.642
1229.47	71.2978
1232.36	127.446
1235.25	79.2744
1238.15	31.4258
1241.04	70.8789
1243.93	106.691
1246.82	86.8144
1249.72	130.443
1252.61	72.459
1255.5	102.814
1258.39	77.7402
1261.29	130.228
1264.18	101.072
1267.07	144.606
1269.97	184.467
1272.86	190.773
1275.75	173.252
1278.64	168.398
1281.54	50.1953
1284.43	72.2988
1287.32	59.8613
1290.21	46.9707
1293.11	64.9668
1296	114.736
