Measurement: Raman, 785 nm, unoriented, Raman Data Processed
Mineral: Cristobalite
Rruff sample: R061064
Ideal chemistry: SiO_2_
Locality: Ellora Caves, India
Source: Harvard Mineralogical Museum
Description: Colorless single crystals, octahedra and groups of octahedra, some have transformed to quartz
Measured chemistry: Si_1.00_O_2_Î‡0.11H_2_O ; trace amounts of Al and Na; H_2_O by difference, verified by Raman spectroscopy
Raman shift (cm-1)	intensity
141.396	0
144.289	362.062
147.181	417.236
150.074	222.162
152.967	37.0911
155.859	29.3926
158.752	23.3037
161.645	11.4324
164.537	74.9197
167.43	18.4656
170.323	6.17163
173.215	30.5808
176.108	26.0508
179.001	66.064
181.894	316.292
184.786	314.573
187.679	642.346
190.572	722.507
193.464	765.065
196.357	859.263
199.25	1121.59
202.143	1489.84
205.035	1853.54
207.928	2401.18
210.821	3074.11
213.713	4196.79
216.606	5470.23
219.499	7348.17
222.391	9795.26
225.284	12151.1
228.177	13941.8
231.07	13713
233.962	11802.2
236.855	9090.81
239.748	6385.17
242.64	4449.45
245.533	3070.75
248.426	2200.93
251.318	1663.52
254.211	1248.95
257.104	972.859
259.997	785.111
262.889	730.583
265.782	709.736
268.675	840.881
271.567	907.731
274.46	1024.18
277.353	914.362
280.245	849.888
283.138	964.322
286.031	1083.89
288.923	528.476
291.816	196.612
294.709	92.5015
297.602	58.1399
300.494	39.1985
303.387	4.59692
306.28	25.3579
309.172	10.9158
312.065	2.41113
314.958	1.09741
317.851	26.7114
320.743	20.4229
323.636	17.2065
326.529	8.04297
329.421	12.2847
332.314	27.9744
335.207	46.998
338.099	22.2161
340.992	40.1909
343.885	12.0027
346.777	2.16284
349.67	12.897
352.563	8.17749
355.456	31.7346
358.348	42.1877
361.241	136.948
364.134	95.0725
367.026	154.054
369.919	212.87
372.812	248.878
375.704	213.775
378.597	274.512
381.49	333.878
384.383	429.935
387.275	579.711
390.168	800.493
393.061	1124.31
395.953	1465.09
398.846	2040.95
401.739	2909.76
404.632	4285.28
407.524	6365.66
410.417	9033.18
413.31	12250.1
416.202	14526.1
419.095	14164.6
421.988	11124.8
424.88	7913.67
427.773	5564.21
430.666	4108.95
433.558	3157.91
436.451	2509.02
439.344	2096.87
442.237	1703.63
445.129	1416.95
448.022	1108.97
450.915	889.795
453.807	685.269
456.7	597.161
459.593	452.653
462.485	354.953
465.378	256.132
468.271	277.23
471.163	229.113
474.056	246.589
476.949	156.263
479.842	132.45
482.734	69.8132
485.627	75.6501
488.52	25.6399
491.412	69.9756
494.305	25.6013
497.198	10.1106
500.091	1.55176
502.983	0.356689
505.876	8.51709
508.769	19.4719
511.661	3.41638
514.554	8.63403
517.447	6.56128
520.339	13.7084
523.232	3.17615
526.125	11.9403
529.018	38.1065
531.91	18.9346
534.803	8.17053
537.696	25.0502
540.588	25.5068
543.481	32.8712
546.374	35.6728
549.266	70.819
552.159	59.9368
555.052	31.1303
557.944	45.9778
560.837	67.2129
563.73	25.3314
566.623	18.0693
569.515	68.9009
572.408	91.2756
575.301	58.8215
578.193	58.9979
581.086	83.9186
583.979	58.3182
586.871	73.6904
589.764	35.696
592.657	90.722
595.55	61.7841
598.442	42.8745
601.335	65.6575
604.228	110.692
607.12	97.1016
610.013	102.109
612.906	87.6427
615.798	66.6975
618.691	30.438
621.584	85.8554
624.477	42.0825
627.369	56.415
630.262	107.675
633.155	65.7964
636.047	15.7268
638.94	66.1023
641.833	33.9696
644.726	52.2449
647.618	26.2058
650.511	8.06567
653.404	2.67554
656.296	25.9641
659.189	4.59546
662.082	24.443
664.974	21.1709
667.867	33.0537
670.76	19.9164
673.653	10.6932
676.545	2.8324
679.438	5.59192
682.331	30.9509
685.223	12.3276
688.116	19.3983
691.009	27.4742
693.901	30.8887
696.794	0.020996
699.687	50.9082
702.58	1.14966
705.472	55.1626
708.365	41.7804
711.258	19.8806
714.15	13.8899
717.043	36.5919
719.936	37.1917
722.828	41.1201
725.721	63.1931
728.614	56.5926
731.506	34.3091
734.399	20.9996
737.292	43.1808
740.185	11.4695
743.077	40.4818
745.97	25.2449
748.863	2.02307
751.755	62.002
754.648	64.3833
757.541	79.8082
760.433	59.9635
763.326	80.6226
766.219	173.894
769.112	217.074
772.004	397.077
774.897	536.973
777.79	774.168
780.682	860.91
783.575	750.617
786.468	656.917
789.361	516.345
792.253	515.041
795.146	429.09
798.039	305.952
800.931	197.686
803.824	164.721
806.717	133.862
809.609	71.4744
812.502	103.375
815.395	66.0223
818.288	62.0172
821.18	36.6913
824.073	45.3174
826.966	44.7725
829.858	4.25525
832.751	23.6145
835.644	35.5298
838.536	29.4651
841.429	12.8812
844.322	21.8949
847.214	21.1836
850.107	48.4432
853	36.8449
855.893	17.1668
858.785	3.14783
861.678	40.0767
864.571	36.8451
867.463	32.3567
870.356	4.6001
873.249	15.1534
876.141	27.3359
879.034	41.7114
881.927	28.8331
884.819	33.1792
887.712	36.1169
890.605	4.71643
893.498	60.4476
896.39	16.8149
899.283	23.9188
902.176	22.7373
905.068	4.25354
907.961	28.9609
910.854	17.1974
913.746	16.6816
916.639	25.1643
919.532	19.8912
922.425	40.9992
925.317	58.1959
928.21	50.4618
931.103	11.5471
933.995	79.634
936.888	41.2338
939.781	26.0032
942.673	35.8063
945.566	16.3575
948.459	19.4344
951.352	17.0062
954.244	24.203
957.137	36.6379
960.03	21.6068
962.922	27.9446
965.815	53.1842
968.708	25.3928
971.601	40.0613
974.493	35.2391
977.386	68.9414
980.279	42.3702
983.171	36.8578
986.064	17.5797
988.957	5.31885
991.849	21.4784
994.742	40.2662
997.635	22.2092
1000.53	49.9291
1003.42	39.1953
1006.31	9.27173
1009.21	70.3429
1012.1	19.9904
1014.99	51.3661
1017.88	38.7782
1020.78	9.26697
1023.67	7.11523
1026.56	25.413
1029.45	27.9865
1032.35	36.2784
1035.24	1.89685
1038.13	41.5045
1041.03	37.3678
1043.92	68.4923
1046.81	58.4659
1049.7	32.4657
1052.6	45.7363
1055.49	54.773
1058.38	59.3334
1061.27	81.8436
1064.17	134.13
1067.06	190.207
1069.95	292.873
1072.85	484.426
1075.74	548.682
1078.63	446.936
1081.52	227.446
1084.42	136.73
1087.31	82.6481
1090.2	68.4811
1093.09	65.658
1095.99	45.1614
1098.88	0.755005
1101.77	25.5228
1104.66	24.6278
1107.56	0.565308
1110.45	21.8433
1113.34	7.81836
1116.23	34.8196
1119.13	39.8359
1122.02	55.981
1124.91	27.9767
1127.81	6.82544
1130.7	33.1791
1133.59	37.9569
1136.48	32.7727
1139.38	33.1235
1142.27	48.319
1145.16	13.239
1148.06	30.9431
1150.95	20.4578
1153.84	7.37415
1156.73	8.98413
1159.63	34.463
1162.52	23.5709
1165.41	50.3099
1168.3	17.4232
1171.2	44.6881
1174.09	47.928
1176.98	51.1135
1179.88	29.898
1182.77	98.2398
1185.66	171.266
1188.55	133.623
1191.45	130.634
1194.34	110.669
1197.23	96.8323
1200.12	51.233
1203.02	32.8053
1205.91	58.1562
1208.8	49.1633
1211.69	28.1858
1214.59	37.9996
1217.48	44.8286
1220.37	57.6215
1223.27	50.5597
1226.16	67.9853
1229.05	86.9497
1231.94	61.7895
1234.84	2.72534
1237.73	55.4333
1240.62	30.7164
1243.51	59.129
1246.41	2.0979
1249.3	43.4005
1252.19	35.1669
1255.09	52.3544
1257.98	19.4891
1260.87	35.5969
1263.76	19.6541
1266.66	37.1788
1269.55	0.279053
