Measurement: Raman, 785 nm, unoriented, Raman Data Processed
Mineral: Cristobalite
Rruff sample: R061107
Ideal chemistry: SiO_2_
Locality: Vechec, Slovakia
Source: Michael Scott
Description: White distorted octahedra associated with colorless labradorite
Measured chemistry: ([box]_0.99_Na_0.01_)_Σ=1_(Si_0.99_Al_0.01_)_Σ=1_O_2_
Raman shift (cm-1)	intensity
119.219	0
122.112	25.0944
125.004	2.35382
127.897	12.0818
130.79	127.414
133.682	191.621
136.575	90.8842
139.468	5.26208
142.36	115.444
145.253	390.398
148.146	483.832
151.038	533.724
153.931	423.02
156.824	285.084
159.717	199.638
162.609	151.684
165.502	122.018
168.395	161.719
171.287	173.883
174.18	153.173
177.073	152.319
179.965	134.23
182.858	158.6
185.751	190.512
188.644	217.654
191.536	225.59
194.429	328.054
197.322	426.795
200.214	623.395
203.107	743.235
206	977.673
208.893	1281.18
211.785	1723.7
214.678	2200.86
217.571	2930.81
220.463	3768.35
223.356	4574.42
226.249	5226.8
229.141	5301.18
232.034	4771.66
234.927	3876.18
237.82	2917.73
240.712	2117.01
243.605	1519.63
246.498	1098.92
249.39	774.71
252.283	582.231
255.176	496.55
258.068	377.362
260.961	327.398
263.854	380.404
266.746	416.664
269.639	551.101
272.532	589.393
275.425	532.358
278.317	465.84
281.21	362.23
284.103	338.645
286.995	241.976
289.888	126.28
292.781	40.9138
295.673	45.868
298.566	8.11243
301.459	13.0665
304.351	4.41248
307.244	28.6715
310.137	25.2633
313.03	26.8519
315.922	22.5449
318.815	21.3409
321.708	16.7704
324.6	10.5696
327.493	3.07165
330.386	2.83398
333.279	4.44727
336.171	4.29627
339.064	10.0037
341.957	35.1907
344.849	31.6244
347.742	38.2434
350.635	83.4073
353.527	49.1212
356.42	65.9342
359.313	104.623
362.205	134.995
365.098	154.195
367.991	193.883
370.884	198.735
373.776	213.302
376.669	243.643
379.562	291.891
382.454	378.077
385.347	477.649
388.24	628.044
391.132	832.205
394.025	1175.21
396.918	1554.38
399.811	2167.22
402.703	3080.08
405.596	4357.56
408.489	6011.35
411.381	7777.98
414.274	8908.97
417.167	8538.06
420.06	6881.11
422.952	5067.44
425.845	3625.72
428.738	2671.97
431.63	2004.15
434.523	1576.48
437.416	1271.04
440.308	1032.33
443.201	829.85
446.094	688.185
448.986	513.101
451.879	391.171
454.772	301.351
457.665	213.001
460.557	150.167
463.45	122.731
466.343	99.8015
469.235	80.256
472.128	46.0695
475.021	62.7184
477.913	20.5855
480.806	12.762
483.699	15.0713
486.592	4.55627
489.484	3.05823
492.377	5.11462
495.27	1.84961
498.162	2.88501
501.055	10.7433
503.948	19.1438
506.841	40.9145
509.733	32.1097
512.626	28.6931
515.519	10.1434
518.411	13.4945
521.304	41.4571
524.197	6.98767
527.089	12.1548
529.982	1.84522
532.875	26.1737
535.768	42.6865
538.66	40.7246
541.553	14.8591
544.446	22.4062
547.338	20.1345
550.231	13.5093
553.124	16.7094
556.016	16.3345
558.909	34.1266
561.802	47.9124
564.694	21.3235
567.587	15.0123
570.48	31.0625
573.373	18.426
576.265	40.193
579.158	31.2746
582.051	48.1275
584.943	52.9548
587.836	61.5967
590.729	38.1732
593.621	26.7946
596.514	66.1655
599.407	29.2573
602.299	28.9258
605.192	40.4254
608.085	44.5311
610.978	41.0878
613.87	65.0402
616.763	49.9075
619.656	42.8087
622.548	35.3462
625.441	38.8527
628.334	48.453
631.226	47.2034
634.119	40.476
637.012	39.6466
639.905	20.9222
642.797	42.225
645.69	29.8246
648.583	40.343
651.475	41.699
654.368	13.1469
657.261	51.1077
660.154	29.7228
663.046	29.7972
665.939	43.454
668.832	33.7464
671.724	24.8011
674.617	46.138
677.51	55.521
680.402	33.4504
683.295	45.3196
686.188	35.2188
689.081	23.9246
691.973	28.667
694.866	28.4112
697.759	16.784
700.651	9.75555
703.544	1.42108
706.437	9.18433
709.329	12.8035
712.222	21.1602
715.115	13.3823
718.008	3.39716
720.9	16.921
723.793	21.0726
726.686	16.6038
729.578	1.47174
732.471	10.3967
735.364	10.788
738.256	23.36
741.149	27.7124
744.042	33.04
746.934	26.7562
749.827	20.2293
752.72	26.501
755.612	23.6353
758.505	25.8716
761.398	45.8758
764.291	22.0898
767.183	26.2065
770.076	77.5718
772.969	91.44
775.861	141.288
778.754	205.436
781.647	211.23
784.54	204.825
787.432	278.784
790.325	294.364
793.218	270.063
796.11	169.416
799.003	96.3484
801.896	68.6269
804.788	22.7531
807.681	42.3976
810.574	59.979
813.467	45.136
816.359	53.5617
819.252	50.5466
822.145	47.3018
825.037	36.2866
827.93	24.5682
830.823	36.5118
833.716	21.5869
836.608	4.32495
839.501	5.87543
842.394	28.528
845.286	9.29315
848.179	26.8548
851.072	23.0739
853.964	1.685
856.857	2.32764
859.75	29.221
862.643	25.6154
865.535	12.6678
868.428	45.8895
871.321	15.3023
874.213	30.7481
877.106	26.0878
879.999	55.6174
882.891	37.9708
885.784	22.9805
888.677	52.2875
891.569	18.2882
894.462	53.1305
897.355	20.033
900.247	19.1066
903.14	28.0535
906.033	27.5878
908.926	33.6879
911.818	30.5035
914.711	31.2683
917.604	27.5908
920.496	20.0142
923.389	14.3424
926.282	17.5446
929.174	5.10529
932.067	4.71051
934.96	2.00342
937.853	31.1197
940.745	42.9705
943.638	29.8496
946.531	56.4228
949.423	53.7533
952.316	32.3686
955.209	42.4847
958.101	17.8066
960.994	55.9948
963.887	34.5276
966.78	31.3832
969.672	4.36194
972.565	16.9495
975.458	23.7693
978.35	26.2578
981.243	26.1003
984.136	27.7533
987.029	1.00452
989.921	9.80591
992.814	4.46558
995.707	54.6077
998.599	17.879
1001.49	8.15765
1004.38	36.5452
1007.28	29.946
1010.17	5.10181
1013.06	27.4017
1015.96	37.2988
1018.85	0.248352
1021.74	1.73804
1024.63	1.4848
1027.53	12.9129
1030.42	45.1523
1033.31	54.9352
1036.2	36.7083
1039.1	63.4089
1041.99	69.1564
1044.88	25.2279
1047.78	57.1724
1050.67	20.8026
1053.56	51.4877
1056.45	55.395
1059.35	60.4333
1062.24	108.673
1065.13	121.48
1068.02	185.123
1070.92	277.301
1073.81	372.062
1076.7	360.709
1079.6	327.4
1082.49	185.394
1085.38	201.822
1088.27	129.234
1091.17	144.42
1094.06	144.626
1096.95	168.898
1099.84	163.461
1102.74	190.359
1105.63	206.94
1108.52	183.23
1111.41	240.334
1114.31	223.838
1117.2	216.002
1120.09	260.371
1122.98	233.019
1125.88	234.683
1128.77	215.901
1131.66	209.242
1134.56	178.192
1137.45	180.571
1140.34	148.066
1143.23	104.241
1146.13	86.3784
1149.02	103.607
1151.91	56.39
1154.81	24.6034
1157.7	49.5953
1160.59	9.54224
1163.48	20.8807
1166.38	8.2218
1169.27	13.9623
1172.16	15.0605
1175.05	12.1725
1177.95	78.7324
1180.84	92.3789
1183.73	98.7717
1186.62	134.337
1189.52	184.247
1192.41	207.847
1195.3	224.923
1198.2	199.473
1201.09	123.633
1203.98	200.075
1206.87	244.028
1209.77	244.334
1212.66	272.471
1215.55	314.771
1218.44	309.358
1221.34	310.406
1224.23	283.359
1227.12	227.82
1230.02	178.018
1232.91	118.672
1235.8	6.12378
1238.69	14.3621
1241.59	22.9692
1244.48	4.94458
1247.37	69.0337
1250.26	195.092
1253.16	195.682
1256.05	162.504
1258.94	138.666
1261.84	118.752
1264.73	70.0571
1267.62	43.7163
