Measurement: Raman, 532 nm, unoriented, Raman Data Processed
Mineral: Cristobalite
Rruff sample: R061064
Ideal chemistry: SiO_2_
Locality: Ellora Caves, India
Source: Harvard Mineralogical Museum
Description: Colorless single crystals, octahedra and groups of octahedra, some have transformed to quartz
Measured chemistry: Si_1.00_O_2_Î‡0.11H_2_O ; trace amounts of Al and Na; H_2_O by difference, verified by Raman spectroscopy
Raman shift (cm-1)	intensity
144.706	0
147.599	13.2019
150.492	54.0801
153.385	34.782
156.277	29.8799
159.17	6.72827
162.063	39.637
164.955	47.5762
167.848	4.90161
170.741	6.45264
173.633	49.2778
176.526	82.083
179.419	125.272
182.311	163.832
185.204	265.103
188.097	370.852
190.989	573.218
193.882	756.525
196.775	950.265
199.668	1265.74
202.56	1673.11
205.453	2128.81
208.346	2745.63
211.238	3529.05
214.131	4678.37
217.024	6213.51
219.917	8175.72
222.809	10422.5
225.702	12418.7
228.595	13384.5
231.487	12658.4
234.38	10365.8
237.273	7629.99
240.165	5446.58
243.058	3844.06
245.951	2723.04
248.844	1993.92
251.736	1506.52
254.629	1213.73
257.522	1013.11
260.414	951.741
263.307	971.746
266.2	1099.12
269.092	1364.37
271.985	1576.38
274.878	1572.16
277.771	1304.81
280.663	1069.38
283.556	1029.89
286.449	906.812
289.341	440.114
292.234	178.188
295.127	155.193
298.019	90.3401
300.912	64.2131
303.805	41.6733
306.697	11.8364
309.59	19.2878
312.483	4.17603
315.375	3.00537
318.268	38.8176
321.161	17.6726
324.054	7.80273
326.946	11.5737
329.839	38.5117
332.732	58.3425
335.625	52.2815
338.517	7.19556
341.41	33.7339
344.303	8.98828
347.195	8.67944
350.088	27.4509
352.981	27.2019
355.873	45.3235
358.766	102.465
361.659	134.809
364.551	164.909
367.444	258.331
370.337	306.601
373.229	306.909
376.122	307.099
379.015	430.442
381.908	527.99
384.8	721.046
387.693	960.992
390.586	1306.93
393.478	1724.6
396.371	2431.22
399.264	3465.07
402.156	4985.08
405.049	7162.24
407.942	10081.9
410.835	13476.9
413.727	16947.3
416.62	18461.5
419.513	16647.3
422.405	12510.2
425.298	8811.22
428.191	6247.69
431.084	4683.85
433.976	3689.96
436.869	2974.57
439.762	2454.37
442.654	2067.22
445.547	1649.33
448.44	1275.17
451.332	1035.73
454.225	808.474
457.118	596.112
460.01	526.706
462.903	461.08
465.796	408.701
468.689	363.989
471.581	288.658
474.474	272.065
477.367	190.273
480.259	162.961
483.152	160.556
486.045	135.694
488.937	74.221
491.83	55.1074
494.723	25.3259
497.615	36.9846
500.508	19.2566
503.401	18.3696
506.294	16.9507
509.186	23.7012
512.079	14.1106
514.972	23.2546
517.864	2.69458
520.757	3.80688
523.65	11.5884
526.543	15.5327
529.435	22.6238
532.328	9.33716
535.221	46.9045
538.113	24.5623
541.006	17.1628
543.899	25.9636
546.791	41.5676
549.684	54.0305
552.577	56.5991
555.47	84.1169
558.362	63.9475
561.255	36.01
564.148	73.6209
567.04	76.5303
569.933	73.0679
572.826	102.32
575.718	77.2481
578.611	46.9688
581.504	70.7524
584.396	91.404
587.289	101.48
590.182	95.4109
593.075	85.3711
595.967	123.589
598.86	111.279
601.753	123.123
604.645	156.77
607.538	128.022
610.431	97.1514
613.323	97.5019
616.216	115.635
619.109	114.34
622.001	81.1216
624.894	97.9011
627.787	96.6148
630.68	138.131
633.572	90.5847
636.465	6.87305
639.358	22.0586
642.25	40.7639
645.143	5.35132
648.036	9.34985
650.928	27.3872
653.821	8.51416
656.714	25.3457
659.607	0.502441
662.499	18.6443
665.392	41.5813
668.285	19.1658
671.177	57.322
674.07	41.1418
676.963	40.2544
679.856	48.9727
682.748	20.9685
685.641	54.9956
688.534	25.1423
691.426	15.2524
694.319	65.5481
697.212	64.2505
700.104	59.3994
702.997	68.4031
705.89	84.6863
708.783	36.262
711.675	55.2712
714.568	50.395
717.461	55.8809
720.353	56.7178
723.246	24.2671
726.139	32.9412
729.031	23.1811
731.924	5.54321
734.817	17.1545
737.71	11.5168
740.602	16.7322
743.495	21.3284
746.388	33.6792
749.28	50.6763
752.173	62.0024
755.066	90.717
757.958	78.853
760.851	139.044
763.744	213.831
766.636	344.187
769.529	427.711
772.422	675.826
775.315	986.29
778.207	1263.66
781.1	1353.24
783.993	1236.56
786.885	1069.91
789.778	1040.87
792.671	990.871
795.563	740.945
798.456	443.616
801.349	243.309
804.241	156.666
807.134	72.0129
810.027	100.981
812.92	37.1736
815.812	18.5645
818.705	4.45508
821.598	2.52026
824.49	67.2307
827.383	61.7952
830.276	66.842
833.168	53.9817
836.061	36.9089
838.954	12.6687
841.847	42.7903
844.739	30.4275
847.632	1.44849
850.525	7.09033
853.417	0.955566
856.31	57.7866
859.203	63.6543
862.096	56.3689
864.988	81.6797
867.881	6.8916
870.774	25.093
873.666	28.343
876.559	35.544
879.452	35.3174
882.344	13.6948
885.237	42.156
888.13	56.0679
891.023	32.169
893.915	47.875
896.808	96.3557
899.701	54.6475
902.593	48.2434
905.486	41.3728
908.379	45.4773
911.271	74.1597
914.164	51.7578
917.057	69.7888
919.949	35.1995
922.842	58.2246
925.735	34.6077
928.628	25.6882
931.52	27.4834
934.413	34.3328
937.306	48.1338
940.198	49.7581
943.091	61.8154
945.984	24.7564
948.876	1.61084
951.769	36.4446
954.662	49.294
957.554	21.9495
960.447	42.4536
963.34	68.7529
966.233	7.04394
969.125	14.8618
972.018	19.2478
974.911	15.6455
977.803	40.3577
980.696	4.30054
983.589	47.7678
986.481	6.7085
989.374	2.72803
992.267	55.5669
995.16	66.8049
998.052	23.072
1000.95	18.22
1003.84	12.2685
1006.73	2.30542
1009.62	24.27
1012.52	38.1687
1015.41	29.5984
1018.3	17.5496
1021.19	19.1753
1024.09	12.3655
1026.98	69.2539
1029.87	39.7825
1032.77	10.1899
1035.66	34.0889
1038.55	79.7554
1041.44	3.16968
1044.34	70.7612
1047.23	78.0356
1050.12	50.2852
1053.01	51.7864
1055.91	50.8472
1058.8	85.6885
1061.69	163.519
1064.58	287.834
1067.48	454.477
1070.37	685.337
1073.26	895.545
1076.15	946.096
1079.05	594.194
1081.94	330.327
1084.83	186.272
1087.73	170.159
1090.62	57.8599
1093.51	47.8477
1096.4	6.29053
1099.3	51.3716
1102.19	30.0239
1105.08	25.8838
1107.97	17.356
1110.87	10.0479
1113.76	65.8042
1116.65	44.2256
1119.55	54.4243
1122.44	28.0669
1125.33	16.7354
1128.22	3.94092
1131.12	22.0366
1134.01	11.7368
1136.9	42.4033
1139.8	50.6812
1142.69	4.82959
1145.58	7.17481
1148.47	55.416
1151.37	28.3452
1154.26	22.7285
1157.15	65.959
1160.04	3.89844
1162.94	51.0649
1165.83	77.1152
1168.72	54.4619
1171.61	86.6162
1174.51	127.033
1177.4	133.932
1180.29	168.288
1183.18	270.041
1186.08	373.541
1188.97	453.979
1191.86	379.522
1194.76	291.706
1197.65	174.075
1200.54	160.981
1203.43	86.5303
1206.33	41.0054
1209.22	74.7197
1212.11	45.5161
1215.01	75.6758
1217.9	7.35205
1220.79	60.8867
1223.68	64.2622
1226.58	12.8623
1229.47	29.4326
1232.36	71.7954
1235.25	66.9121
1238.15	33.4419
1241.04	46.1265
1243.93	82.7466
1246.82	71.834
1249.72	26.918
1252.61	36.4277
1255.5	44.8472
1258.39	63.2036
1261.29	95.4898
1264.18	70.6968
1267.07	13.0889
1269.97	25.4126
1272.86	37.9522
1275.75	19.4243
1278.64	50.6411
1281.54	11.2896
1284.43	82.3135
1287.32	76.8062
1290.21	44.752
1293.11	26.9019
1296	25.6645
