Measurement: Raman, 532 nm, unoriented, Raman Data Processed
Mineral: Cristobalite
Rruff sample: R060648
Ideal chemistry: SiO_2_
Locality: Idaho, USA
Source: Gemological Institute of America
Description: Blue cryptocrystalline massive, variety opal
Measured chemistry: Si_1.00_O_2_
Raman shift (cm-1)	intensity
142.253	0
145.145	42.671
148.038	81.698
150.931	50.032
153.824	1.272
156.716	5.683
159.609	5.169
162.502	63.057
165.394	51.94
168.287	96.315
171.18	32.568
174.072	124.791
176.965	168.349
179.858	237.513
182.751	354.556
185.643	577.571
188.536	856.512
191.429	974.43
194.321	1169.79
197.214	1346.18
200.107	1800.64
202.999	2242.14
205.892	2723.4
208.785	3390.52
211.678	4181.59
214.57	5401.12
217.463	6942.91
220.356	8952.6
223.248	11199.2
226.141	13185.1
229.034	14132.8
231.926	13299.5
234.819	10931.2
237.712	8255.02
240.605	6112.85
243.497	4488.6
246.39	3277.39
249.283	2594.57
252.176	2006.32
255.068	1603.93
257.961	1320.08
260.854	1251.76
263.746	1261.53
266.639	1334.46
269.532	1404.42
272.424	1473.9
275.317	1393.82
278.21	1272.37
281.103	1177.87
283.995	1416.57
286.888	1395.29
289.781	788.102
292.673	442.924
295.566	327.31
298.459	225.906
301.351	143.185
304.244	109.51
307.137	77.508
310.03	65.826
312.922	15.514
315.815	73.384
318.708	73.723
321.6	27.401
324.493	126.794
327.386	43.736
330.278	14.644
333.171	32.504
336.064	10.424
338.957	28.15
341.849	48.981
344.742	8.056
347.635	139.654
350.527	161.843
353.42	248.967
356.313	319.653
359.205	406.497
362.098	551.47
364.991	649.197
367.884	726.914
370.776	812.282
373.669	861.463
376.562	1016.83
379.454	1126.92
382.347	1220.5
385.24	1389.11
388.132	1693.81
391.025	2118.03
393.918	2607.38
396.81	3338
399.703	4368.35
402.596	5649.15
405.489	7575.58
408.381	10043.4
411.274	12949.7
414.167	15618.9
417.06	16754.3
419.952	14868.6
422.845	11478.4
425.738	8392.75
428.63	6202.14
431.523	4726.96
434.416	3772.44
437.308	3097.39
440.201	2494.55
443.094	2053.24
445.987	1720.81
448.879	1315.8
451.772	1080.8
454.665	905.222
457.557	784.878
460.45	664.535
463.343	592.452
466.235	481.021
469.128	426.568
472.021	270.021
474.914	176.512
477.806	148.713
480.699	109.125
483.592	28.488
486.484	69.52
489.377	42.672
492.27	13.068
495.162	31.081
498.055	63.41
500.948	47.675
503.841	51.201
506.733	39.112
509.626	22.071
512.519	11.998
515.411	1.383
518.304	69.531
521.197	56.671
524.089	109.201
526.982	23.157
529.875	64.833
532.768	63.487
535.66	70.622
538.553	42.537
541.446	56.007
544.338	98.293
547.231	126.757
550.124	63.009
553.016	67.109
555.909	132.696
558.802	82.469
561.695	40.229
564.587	71.328
567.48	74.883
570.373	98.446
573.265	115.76
576.158	101.823
579.051	15.712
581.943	5.834
584.836	6.823
587.729	88.278
590.622	137.742
593.514	116.907
596.407	66.147
599.3	42.969
602.192	17.625
605.085	3.227
607.978	77.395
610.87	59.133
613.763	96.055
616.656	100.797
619.549	50.151
622.441	53.781
625.334	113.794
628.227	101.997
631.119	94.76
634.012	92.875
636.905	93.909
639.797	81.368
642.69	41.415
645.583	32.733
648.476	9.28
651.368	87.897
654.261	72.506
657.154	64.19
660.046	110.838
662.939	95.029
665.832	23.162
668.724	46.001
671.617	101.751
674.51	121.716
677.403	76.374
680.295	13.874
683.188	45.299
686.081	102.672
688.973	111.74
691.866	69.921
694.759	60.448
697.652	129.803
700.544	93.181
703.437	45.425
706.33	52.751
709.222	31.241
712.115	10.151
715.008	6.727
717.901	76.711
720.793	127.266
723.686	78.421
726.579	58.538
729.471	81.686
732.364	1.121
735.257	32.87
738.149	69.333
741.042	26.995
743.935	68.97
746.828	104.701
749.72	208.422
752.613	181.79
755.506	194.774
758.398	202.147
761.291	212.22
764.184	227.865
767.076	421.638
769.969	669.414
772.862	988.796
775.755	1326.55
778.647	1906.09
781.54	2056.37
784.433	1843.85
787.325	1588.6
790.218	1515.4
793.111	1405.57
796.003	1123.91
798.896	860.548
801.789	613.259
804.682	440.529
807.574	274.045
810.467	239.166
813.36	177.444
816.252	128.709
819.145	85.519
822.038	75.411
824.93	21.383
827.823	79.431
830.716	77.261
833.609	61.702
836.501	102.818
839.394	0.534
842.287	26.176
845.179	16.234
848.072	10.371
850.965	2.714
853.857	13.245
856.75	11.955
859.643	3.726
862.536	46.634
865.428	97.079
868.321	52.362
871.214	45.343
874.106	50.677
876.999	98.761
879.892	23.548
882.784	95.63
885.677	50.41
888.57	105.329
891.463	122.53
894.355	151.145
897.248	155.24
900.141	144.304
903.033	98.847
905.926	83.943
908.819	71.695
911.711	36.943
914.604	33.745
917.497	103.219
920.39	34.818
923.282	130.739
926.175	112.415
929.068	75.784
931.96	104.685
934.853	91.727
937.746	146.033
940.638	70.139
943.531	63.612
946.424	83.46
949.317	109.1
952.209	67.646
955.102	57.553
957.995	50.003
960.888	46.808
963.78	50.996
966.673	58.144
969.566	97.969
972.458	65.834
975.351	0.995
978.244	76.757
981.136	53.605
984.029	64.867
986.922	17.375
989.815	121.095
992.707	48.889
995.6	13.18
998.493	91.086
1001.38	13.911
1004.28	33.115
1007.17	30.002
1010.06	8.886
1012.96	27.943
1015.85	58.099
1018.74	45.973
1021.63	59.619
1024.53	94.912
1027.42	139.954
1030.31	168.827
1033.2	147.284
1036.1	92.31
1038.99	197.245
1041.88	139.096
1044.78	188.265
1047.67	205.626
1050.56	217.95
1053.45	228.557
1056.35	280.626
1059.24	280.181
1062.13	352.598
1065.03	363.424
1067.92	596.97
1070.81	856.819
1073.7	1181.36
1076.6	1372.55
1079.49	1009.18
1082.38	599.044
1085.27	466.077
1088.17	277.938
1091.06	207.113
1093.95	174.557
1096.84	113.241
1099.74	213.687
1102.63	126.621
1105.52	100.957
1108.41	70.491
1111.31	41.612
1114.2	14.675
1117.09	68.709
1119.99	55.602
1122.88	44.761
1125.77	55.638
1128.66	0.557
1131.56	123.42
1134.45	74.022
1137.34	79.085
1140.23	22.019
1143.13	51.882
1146.02	7.303
1148.91	3.376
1151.81	20.519
1154.7	34.538
1157.59	33.177
1160.48	4.541
1163.38	58.324
1166.27	2.976
1169.16	14.501
1172.06	48.817
1174.95	117.241
1177.84	190.436
1180.73	140.815
1183.62	250.655
1186.52	345.572
1189.41	272.136
1192.3	356.847
1195.2	253.181
1198.09	152.925
1200.98	171.531
1203.87	181.207
1206.77	10.747
1209.66	125.676
1212.55	177.786
1215.44	126.923
1218.34	90.929
1221.23	43.46
1224.12	75.686
1227.02	49.098
1229.91	42.963
1232.8	54.802
1235.69	81.132
1238.59	121.337
1241.48	53.546
1244.37	101.338
1247.27	136.733
1250.16	102.138
1253.05	101.857
1255.94	57.647
1258.84	98.168
1261.73	89.367
1264.62	28.044
1267.51	44.874
1270.41	107.656
1273.3	183.188
1276.19	155.953
1279.09	65.628
1281.98	67.833
1284.87	113.142
1287.76	47.894
1290.66	108.908
1293.55	2.396
