Measurement: Raman, 514 nm, unoriented, Raman Data Processed
Mineral: Crocoite
Rruff sample: R050044
Ideal chemistry: Pb^2+^Cr^6+^O_4_
Locality: Red Ledge mine, Dundas, Tasmania
Source: Eugene Schlepp
Description: Red crystal fragment
Measured chemistry: Pb_1.02_Cr_0.99_O_4_
Raman shift (cm-1)	intensity
163.613	0
167.78	91.686
171.945	394.684
176.108	189.166
180.268	282.808
184.426	246.978
188.582	502.362
192.736	583.399
196.887	501.268
201.036	669.598
205.184	496.473
209.328	559.866
213.471	429.953
217.611	302.536
221.75	369.098
225.886	279.37
230.019	222.997
234.151	289.488
238.281	84.491
242.408	161.395
246.533	189.391
250.656	76.805
254.776	86.743
258.895	61.205
263.011	10.447
267.125	41.808
271.237	0.688
275.346	29.48
279.454	46.167
283.559	31.439
287.662	19.896
291.763	23.249
295.862	35.716
299.959	68.532
304.053	233.478
308.146	360.911
312.236	483.519
316.324	613.25
320.409	997.032
324.493	1467.37
328.574	1783.28
332.654	1968.48
336.731	2247.72
340.806	2248.96
344.879	2118.01
348.949	2012.97
353.018	1734.89
357.084	1529.92
361.148	1458.74
365.21	1426.12
369.27	1698.88
373.328	2186.58
377.384	2391.64
381.437	1818.77
385.488	1265.53
389.538	1150.52
393.585	1211.46
397.63	1099.77
401.672	1038.03
405.713	802.864
409.752	671.64
413.788	579.765
417.822	530.505
421.854	475.342
425.884	509.181
429.912	421.332
433.938	489.718
437.962	459.199
441.983	545.498
446.003	505.226
450.02	564.374
454.035	489.125
458.048	459.751
462.059	457.954
466.068	491.011
470.075	350.756
474.08	488.773
478.082	430.928
482.083	483.723
486.081	472.033
490.077	489.426
494.072	413.937
498.064	394.524
502.054	445.199
506.041	468.498
510.027	445.762
514.011	386.048
517.993	379.375
521.972	339.786
525.95	379.328
529.925	481.057
533.898	355.024
537.869	381.27
541.839	367.859
545.806	344.85
549.771	351.286
553.734	286.199
557.694	310.61
561.653	307.546
565.61	284.043
569.565	384.619
573.517	401.958
577.468	235.161
581.416	148.381
585.362	111.437
589.307	34.999
593.249	85.353
597.189	49.669
601.127	125.597
605.064	51.349
608.998	64.378
612.93	85.182
616.86	47.007
620.787	91.063
624.713	122.189
628.637	6.552
632.559	24.322
636.479	5.692
640.396	39.436
644.312	127.376
648.226	28.779
652.137	101.388
656.047	33.457
659.954	90.139
663.86	147.885
667.763	84.104
671.665	151.095
675.564	126.506
679.462	223.033
683.357	179.618
687.25	243.538
691.142	306.453
695.031	298.488
698.918	381.401
702.804	402.243
706.687	486.056
710.568	511.899
714.447	557.238
718.325	588.758
722.2	656.473
726.073	685.691
729.944	818.624
733.814	758.118
737.681	895.299
741.546	1008.14
745.409	1236.99
749.27	1203.59
753.13	1421.21
756.987	1579.03
760.842	1705.3
764.695	1875.35
768.547	2119.8
772.396	2428.32
776.243	2730.91
780.089	3070.28
783.932	3507.51
787.773	4107.92
791.613	4888.72
795.45	5696.06
799.285	6552.78
803.119	7871.46
806.95	9850.9
810.78	12299.9
814.607	14650.7
818.433	17611.8
822.256	21283.3
826.078	24275.2
829.898	26307.6
833.715	27390.4
837.531	26853.5
841.345	24567.2
845.157	21571.2
848.966	18555.6
852.774	15250.4
856.58	12985.6
860.384	10791.4
864.186	9157.34
867.986	7925.97
871.784	7073.33
875.581	6000.45
879.375	5358.3
883.167	4747.31
886.957	4135.77
890.746	3676.13
894.532	3426.58
898.317	2876.41
902.099	2639.18
905.88	2194.14
909.659	1929.89
913.435	1960.42
917.21	1682.18
920.983	1480.21
924.754	1394.2
928.523	1217.62
932.29	1162.61
936.056	1016.48
939.819	902.011
943.58	847.98
947.34	908.065
951.097	634.108
954.853	591.83
958.606	565.608
962.358	626.731
966.108	494.498
969.856	466.922
973.602	419.584
977.346	154.434
981.088	279.271
984.828	263.795
988.567	187.062
992.303	227.646
996.038	136.695
999.77	87.679
1003.5	106.774
1007.23	121.541
1010.96	91.551
1014.68	76.199
1018.4	102.458
1022.13	25.84
1025.85	15.684
1029.56	41.893
1033.28	58.557
1036.99	74.293
1040.7	2.914
1044.41	64.908
1048.12	39.216
1051.83	40.35
1055.53	25.52
1059.24	114.401
1062.94	22.249
1066.63	82.985
1070.33	60.539
1074.03	54.012
1077.72	74.7
1081.41	21.484
1085.1	78.627
1088.79	72.681
1092.47	28.315
1096.16	90.648
1099.84	22.466
1103.52	7.214
1107.2	46.396
1110.87	45.689
1114.55	68.61
1118.22	26.63
1121.89	48.82
1125.56	8.041
1129.23	50.905
1132.89	27.184
1136.56	70.775
1140.22	62.879
1143.88	50.274
1147.53	115.781
1151.19	118.208
1154.84	217.454
1158.5	140.198
1162.15	188.861
1165.8	166.352
1169.44	200.169
1173.09	261.291
1176.73	290.372
1180.37	275.638
1184.01	343.135
1187.65	297.609
1191.28	369.636
1194.92	345.091
1198.55	296.879
1202.18	370.906
1205.81	423.012
1209.43	393.235
1213.06	346.95
1216.68	320.215
1220.3	358.813
1223.92	432.2
1227.54	477.479
1231.15	495.076
1234.77	400.602
1238.38	417.825
1241.99	440.034
1245.6	302.068
1249.21	286.266
1252.81	302.219
1256.41	444.643
1260.01	326.187
1263.61	290.362
1267.21	271.758
1270.81	327.931
1274.4	159.906
1277.99	181.762
1281.58	103.901
1285.17	153.746
1288.76	143.137
1292.34	217.975
1295.93	242.575
1299.51	154.598
1303.09	136.058
1306.66	97.466
1310.24	113.012
1313.82	42.262
1317.39	139.17
1320.96	144.388
1324.53	140.288
1328.09	113.78
1331.66	95.495
1335.22	141.792
1338.79	155.923
1342.35	3.844
1345.9	105.198
1349.46	105.441
1353.01	123.077
1356.57	165.242
1360.12	66.977
1363.67	168.057
1367.21	123.735
1370.76	12.869
1374.3	25.222
1377.85	19.25
1381.39	115.228
1384.93	154.924
1388.46	149.568
1392	212.894
1395.53	225.593
1399.06	207.99
1402.59	157.04
1406.12	140.2
1409.65	150.198
1413.17	87.836
1416.69	25.246
1420.22	42.359
1423.74	129.104
1427.25	119.857
1430.77	162.216
1434.28	222.064
1437.8	93.477
1441.31	239.181
1444.82	231.773
1448.32	127.905
1451.83	113.078
1455.33	96.99
1458.83	226.046
1462.34	228.152
1465.83	261.912
1469.33	261.27
1472.83	269.471
1476.32	192.134
1479.81	295.033
1483.3	188.894
1486.79	88.979
1490.28	130.906
1493.76	72.962
1497.24	78.928
1500.72	9.01
1504.2	81.803
1507.68	28.827
1511.16	39.844
1514.63	53.369
