Measurement: Raman, 785 nm, unoriented, Raman Data Processed
Mineral: Crocoite
Rruff sample: R050044
Ideal chemistry: Pb^2+^Cr^6+^O_4_
Locality: Red Ledge mine, Dundas, Tasmania
Source: Eugene Schlepp
Description: Red crystal fragment
Measured chemistry: Pb_1.02_Cr_0.99_O_4_
Raman shift (cm-1)	intensity
110.413	18.198
113.305	31.4009
116.198	63.5348
119.091	101.999
121.984	164.458
124.876	282.329
127.769	465.87
130.662	745.875
133.554	1015.09
136.447	901.957
139.34	705.612
142.232	680.254
145.125	715.677
148.018	749.954
150.911	705.495
153.803	590.702
156.696	506.237
159.589	485.04
162.481	495.599
165.374	522.333
168.267	543.936
171.16	600.764
174.052	644.44
176.945	683.204
179.838	711.504
182.73	720.53
185.623	686.841
188.516	602.518
191.408	535.317
194.301	482.084
197.194	443.272
200.087	418.212
202.979	400.201
205.872	366.691
208.765	376.286
211.657	342.059
214.55	346.462
217.443	344.559
220.335	351.875
223.228	349.263
226.121	340.338
229.013	328.504
231.906	329.743
234.799	341.663
237.692	330.839
240.584	335.407
243.477	340.555
246.37	335.235
249.262	338.941
252.155	344.07
255.048	337.067
257.941	341.286
260.833	356.964
263.726	339.531
266.619	367.068
269.511	357.687
272.404	364.563
275.297	377.616
278.19	384.878
281.082	389.055
283.975	402.708
286.868	416.589
289.76	437.111
292.653	435.405
295.546	477.883
298.438	479.13
301.331	515.604
304.224	567.757
307.116	623.412
310.009	724.417
312.902	872.836
315.795	1034.73
318.687	1303.88
321.58	1726.67
324.473	2447.99
327.365	2992.16
330.258	3350.67
333.151	4411.68
336.043	6296.85
338.936	7172.45
341.829	5572.22
344.721	6130.06
347.614	8482.48
350.507	11091.4
353.4	15114.4
356.292	21560.6
359.185	23796.8
362.078	16060.6
364.97	8617.27
367.863	5389.47
370.756	4420.79
373.649	5173.39
376.541	6884.3
379.434	4835.68
382.327	2212.38
385.219	1457.78
388.112	1404.73
391.005	1532.19
393.897	1734.74
396.79	2287
399.683	3128.51
402.575	2661.04
405.468	1216.02
408.361	664.223
411.254	514.01
414.146	451.967
417.039	414.942
419.932	400.121
422.824	379.692
425.717	356.848
428.61	353.993
431.502	341.575
434.395	345.675
437.288	350.78
440.181	346.865
443.073	342.771
445.966	336.654
448.859	321.163
451.751	293.282
454.644	279.412
457.537	267.722
460.43	256.419
463.322	247.148
466.215	246.779
469.108	252.425
472	252.588
474.893	247.73
477.786	244.463
480.678	244.627
483.571	226.069
486.464	224.377
489.356	210.04
492.249	197.291
495.142	194.546
498.035	188
500.927	177.485
503.82	170.249
506.713	168.791
509.605	157.3
512.498	148.553
515.391	144.243
518.284	138.719
521.176	140.648
524.069	130.622
526.962	126.083
529.854	115.932
532.747	115.988
535.64	119.584
538.533	108.993
541.425	110.136
544.318	105.966
547.211	100.018
550.103	99.5169
552.996	91.7061
555.889	90.4919
558.781	85.694
561.674	83.163
564.567	79.9291
567.459	72.6154
570.352	73.6694
573.245	76.3943
576.138	77.3162
579.03	71.6739
581.923	65.3952
584.816	64.4599
587.708	69.161
590.601	63.1665
593.494	59.43
596.386	62.0397
599.279	60.2437
602.172	60.46
605.064	52.2861
607.957	59.9323
610.85	54.0999
613.743	54.1416
616.635	55.306
619.528	53.4737
622.421	67.546
625.313	65.1343
628.206	66.4158
631.099	83.5687
633.991	80.7455
636.884	89.9275
639.777	81.6811
642.67	84.1924
645.562	83.7529
648.455	85.5753
651.348	92.0647
654.24	98.4829
657.133	98.7607
660.026	103.706
662.918	111.622
665.811	109.199
668.704	109.034
671.597	115.982
674.489	113.911
677.382	127.023
680.275	140.546
683.167	139.496
686.06	154.057
688.953	166.132
691.846	178.421
694.738	197.079
697.631	197.841
700.524	201.639
703.416	212.86
706.309	219.284
709.202	226.993
712.094	222.817
714.987	228.416
717.88	239.133
720.773	245.601
723.665	253.006
726.558	272.377
729.451	268.031
732.343	273.871
735.236	282.943
738.129	296.215
741.021	320.957
743.914	330.182
746.807	360.41
749.699	385.827
752.592	417.094
755.485	435.964
758.378	453.734
761.27	497.979
764.163	523.787
767.056	556.125
769.948	627.75
772.841	680.196
775.734	753.433
778.626	845.398
781.519	963.088
784.412	1101.87
787.305	1279.83
790.197	1502.67
793.09	1711.1
795.983	1980.93
798.875	2216.02
801.768	2422.42
804.661	2690.95
807.553	3062.49
810.446	3609.96
813.339	4381.07
816.232	5581.46
819.124	7152.59
822.017	9202.1
824.91	11449.1
827.802	14375.9
830.695	19133.8
833.588	26558.5
836.481	36498.5
839.373	42119.6
842.266	33478.8
845.159	21875.6
848.051	15807.5
850.944	13742.8
853.837	12862.7
856.729	11270.4
859.622	8569.3
862.515	6315.74
865.408	4789.49
868.3	3795.63
871.193	3124.03
874.086	2622.84
876.978	2249.52
879.871	1916.71
882.764	1735.48
885.656	1529.14
888.549	1398.35
891.442	1250.75
894.335	1099.35
897.227	1013.5
900.12	931.818
903.013	806.376
905.905	734.198
908.798	660.829
911.691	597.136
914.583	550.236
917.476	514.013
920.369	477.301
923.261	450.179
926.154	407.994
929.047	397.614
931.94	373.947
934.832	352.217
937.725	319.057
940.618	320.241
943.51	290.096
946.403	275.492
949.296	266.78
952.188	245.826
955.081	234.886
957.974	221.542
960.867	214.691
963.759	199.151
966.652	193.693
969.545	184.808
972.437	171.704
975.33	169.17
978.223	169.098
981.115	158.271
984.008	157.366
986.901	149.891
989.794	151.81
992.686	137.577
995.579	142.319
998.472	136.076
1001.36	124.048
1004.26	120.23
1007.15	118.06
1010.04	118.051
1012.93	107.294
1015.83	101.285
1018.72	106.031
1021.61	97.3014
1024.51	100.638
1027.4	95.8304
1030.29	97.0862
1033.18	91.92
1036.08	91.4619
1038.97	83.6489
1041.86	80.0338
1044.76	78.0686
1047.65	86.4555
1050.54	71.0533
1053.43	72.2004
1056.33	75.3581
1059.22	75.0505
1062.11	75.9579
1065	68.7385
1067.9	62.8856
1070.79	67.3832
1073.68	63.5485
1076.58	63.812
1079.47	55.0129
1082.36	59.8387
1085.25	62.7286
1088.14	57.8568
1091.04	55.739
1093.93	57.187
1096.82	55.4713
1099.72	53.5054
1102.61	50.4076
1105.5	51.3157
1108.39	48.945
1111.29	49.3664
1114.18	44.2592
1117.07	46.2567
1119.96	44.9965
1122.86	42.9378
1125.75	41.8805
1128.64	44.4277
1131.54	41.1445
1134.43	40.1011
1137.32	45.0799
1140.21	40.2836
1143.11	38.5468
1146	44.8874
1148.89	44.2073
1151.79	41.1475
1154.68	44.7467
1157.57	46.1584
1160.46	49.5706
1163.36	53.9107
1166.25	50.1319
1169.14	55.4429
1172.03	60.9875
1174.93	64.2256
1177.82	63.3599
1180.71	68.9808
1183.6	68.7328
1186.5	71.9024
1189.39	77.6652
1192.28	80.4432
1195.17	81.7316
1198.07	85.7077
1200.96	89.019
1203.85	83.8295
1206.75	88.5847
1209.64	87.7789
1212.53	78.2854
1215.42	73.8121
1218.32	74.5623
1221.21	65.2589
1224.1	62.2926
1226.99	57.1978
1229.89	55.3389
1232.78	54.1833
