Measurement: Raman, 514 nm, unoriented, Raman Data Processed
Mineral: Crocoite
Rruff sample: R050044
Ideal chemistry: Pb^2+^Cr^6+^O_4_
Locality: Red Ledge mine, Dundas, Tasmania
Source: Eugene Schlepp
Description: Red crystal fragment
Measured chemistry: Pb_1.02_Cr_0.99_O_4_
Raman shift (cm-1)	intensity
80.823	0
85.009	102.319
89.193	279.697
93.375	685.486
97.554	563.257
101.732	340.786
105.908	270.333
110.082	513.74
114.254	571.084
118.424	713.194
122.592	914.737
126.758	1625.02
130.922	2877.79
135.083	3175.87
139.243	2369.99
143.401	1524.24
147.557	1052.54
151.711	665.929
155.863	428.968
160.013	364.597
164.161	237.561
168.308	87.134
172.452	195.026
176.594	216.093
180.734	253.817
184.872	268.948
189.008	228.413
193.143	190.913
197.275	178.011
201.405	177.308
205.534	280.028
209.66	128.098
213.784	63.469
217.907	114.031
222.027	27.74
226.146	50.601
230.263	106.238
234.377	94.829
238.49	26.224
242.601	12.808
246.709	19.906
250.816	22.893
254.921	28.964
259.024	57.107
263.125	31.094
267.224	0.164
271.321	88.628
275.416	95.661
279.51	45.427
283.601	59.062
287.69	7.754
291.778	7.327
295.863	51.484
299.947	59.102
304.029	0.576
308.108	38.333
312.186	118.874
316.262	142.109
320.336	120.304
324.408	197.815
328.478	275.927
332.546	427.104
336.612	719.653
340.677	616.504
344.739	639.479
348.799	736.126
352.858	1000.52
356.915	1983.76
360.969	1783.33
365.022	996.501
369.073	763.079
373.122	1186.24
377.169	2202.26
381.215	680.026
385.258	328.208
389.299	290.658
393.339	444.612
397.376	642.368
401.412	688.44
405.446	315.769
409.478	286.159
413.508	251.646
417.536	284.824
421.562	213.547
425.586	240.073
429.609	243.268
433.629	224.196
437.648	276.944
441.665	187.842
445.68	202.098
449.693	203.634
453.704	167.271
457.713	200.461
461.721	203.08
465.726	199.343
469.73	126.178
473.731	250.059
477.731	250.676
481.729	240.952
485.725	179.658
489.72	200.401
493.712	182.386
497.703	231.609
501.691	219.949
505.678	241.183
509.663	210.113
513.646	199.55
517.627	232.652
521.607	163.41
525.584	112.982
529.56	169.017
533.534	159.676
537.506	181.952
541.476	112.882
545.444	89.858
549.41	147.525
553.375	216.23
557.337	83.519
561.298	81.385
565.257	68.029
569.214	104.87
573.17	31.593
577.123	46.417
581.075	81.101
585.024	63.258
588.972	75.867
592.918	66.888
596.863	67.915
600.805	59.42
604.746	53.531
608.685	33.163
612.621	18.689
616.557	75.74
620.49	60.954
624.421	56.019
628.351	59.587
632.279	39.202
636.205	65.934
640.129	51.442
644.051	65.716
647.972	79.385
651.89	42.127
655.807	41.76
659.722	47.792
663.636	171.229
667.547	124.555
671.457	40.778
675.365	74.914
679.271	160.27
683.175	328.067
687.077	233.383
690.978	281.767
694.877	305.343
698.774	396
702.669	485.458
706.562	625.044
710.454	479.051
714.344	377.833
718.232	445.44
722.118	550.348
726.002	419.77
729.885	444.991
733.766	415.757
737.645	504.891
741.522	614.413
745.397	712.394
749.271	713.791
753.143	746.727
757.013	780.383
760.881	882.453
764.748	904.489
768.613	960.596
772.476	853.901
776.337	1034.04
780.196	995.796
784.054	1273.44
787.91	1246.95
791.764	1390.98
795.616	1650.35
799.467	1825.09
803.316	2032.19
807.163	2388.96
811.008	2705.41
814.851	3272.72
818.693	4226.27
822.533	5902.41
826.371	8347.96
830.208	12357.9
834.042	21350.4
837.875	37002.2
841.706	33960.9
845.536	19253.2
849.363	12331.1
853.189	10058.3
857.013	7976.4
860.836	5299.16
864.656	3679.67
868.475	2772.86
872.292	2412.68
876.108	1839.19
879.922	1667.31
883.733	1468.08
887.544	1413.4
891.352	1435.27
895.159	1352.83
898.964	1359
902.767	1097.75
906.568	1150.08
910.368	1046.97
914.166	936.448
917.962	865.611
921.757	906.347
925.55	670.694
929.341	498.592
933.13	454.075
936.918	401.146
940.703	420.857
944.488	289.04
948.27	274.677
952.051	46.79
955.83	189.564
959.607	272.295
963.383	277.818
967.156	272.085
970.928	284.468
974.699	211.665
978.468	100.871
982.234	100.506
986	158.664
989.763	214.314
993.525	127.217
997.285	70.064
1001.04	232.576
1004.8	45.532
1008.55	178.079
1012.31	286.246
1016.06	115.398
1019.81	42.925
1023.56	53.943
1027.31	45
1031.05	176.489
1034.79	194.207
1038.53	204.718
1042.27	117.683
1046.01	162.584
1049.75	169.753
1053.48	180.955
1057.22	150.666
1060.95	212.15
1064.68	220.713
1068.4	260.105
1072.13	274.16
1075.86	181.051
1079.58	201.054
1083.3	81.928
1087.02	152.367
1090.74	148.228
1094.45	108.096
1098.17	28.166
1101.88	20.828
1105.59	4.412
1109.3	62.193
1113.01	112.159
1116.71	84.136
1120.42	2.39
1124.12	375.347
1127.82	43.402
1131.52	76.375
1135.22	94.478
1138.91	42.997
1142.61	58.014
1146.3	325.483
1149.99	235.077
1153.68	152.248
1157.37	96.963
1161.06	99.76
1164.74	41.115
1168.42	49.832
1172.1	0.507
1175.78	114.182
1179.46	161.234
1183.14	163.29
1186.81	107.712
1190.48	168.038
1194.15	390.807
1197.83	394.809
1201.49	281.083
1205.16	329.681
1208.82	299.092
1212.49	290.5
1216.15	268.363
1219.81	246.504
1223.46	233.495
1227.12	280.438
1230.78	408.491
1234.43	409.346
1238.08	365.089
1241.73	322.718
1245.38	249.126
1249.03	220.9
1252.67	278.289
1256.31	332.638
1259.95	355.55
1263.6	360.935
1267.23	263.2
1270.87	173.559
1274.51	142.259
1278.14	195.317
1281.77	250.39
1285.4	226.867
1289.03	328.755
1292.66	249.773
1296.28	227.915
1299.91	164.913
1303.53	138.691
1307.15	194.922
1310.77	202.722
1314.38	56.861
1318	59.208
1321.61	7.697
1325.23	49.307
1328.84	131.765
1332.45	96.91
1336.06	87.329
1339.66	51.475
1343.27	48.08
1346.87	23.115
1350.47	374.824
1354.07	46.421
1357.67	215.127
1361.26	248.006
1364.86	175.421
1368.45	335.571
1372.04	278.326
1375.63	291.457
1379.22	123.601
1382.81	128.095
1386.39	205.169
1389.98	97.214
1393.56	93.384
1397.14	278.61
1400.72	178.282
1404.3	194.024
1407.87	61.682
1411.45	138.643
1415.02	141.824
1418.59	147.594
1422.16	107.053
1425.73	354.56
1429.29	109.881
1432.86	49.505
1436.42	197.965
1439.98	209.348
1443.54	182.576
1447.1	365.622
1450.66	109.164
1454.21	213.115
1457.77	149.356
1461.32	149.539
1464.87	172.677
1468.42	118.77
1471.96	87.672
1475.51	127.138
1479.06	136.831
1482.6	80.328
1486.14	49.267
1489.68	0
