Measurement: Raman, 532 nm, unoriented, Raman Data Processed
Mineral: Crocoite
Rruff sample: R050044
Ideal chemistry: Pb^2+^Cr^6+^O_4_
Locality: Red Ledge mine, Dundas, Tasmania
Source: Eugene Schlepp
Description: Red crystal fragment
Measured chemistry: Pb_1.02_Cr_0.99_O_4_
Raman shift (cm-1)	intensity
170.393	0
173.286	60.0435
176.178	63.4946
179.071	104.931
181.964	30.9434
184.856	52.144
187.749	61.3555
190.642	52.543
193.535	82.3154
196.427	117.463
199.32	34.4551
202.213	53.9214
205.105	43.2607
207.998	65.3408
210.891	87.5908
213.783	78.6138
216.676	84.2148
219.569	73.4981
222.462	59.5972
225.354	14.3325
228.247	22.9605
231.14	65.1289
234.032	43.5112
236.925	55.7793
239.818	14.6885
242.71	33.5317
245.603	65.6436
248.496	57.2398
251.388	4.58057
254.281	10.8267
257.174	58.5845
260.067	25.102
262.959	16.0972
265.852	7.37646
268.745	10.5117
271.637	36.0127
274.53	42.855
277.423	33.6201
280.315	5.41064
283.208	14.3149
286.101	11.2437
288.994	42.2861
291.886	15.6577
294.779	65.2622
297.672	3.24805
300.564	24.438
303.457	88.7915
306.35	122.459
309.243	79.001
312.135	175.027
315.028	213.128
317.921	253.26
320.813	378.071
323.706	521.578
326.599	716.659
329.491	896.38
332.384	1067.41
335.277	1324.6
338.17	1401.95
341.062	1255.2
343.955	1092.69
346.848	1217.77
349.74	1195.33
352.633	1178.96
355.526	1171.3
358.418	1126.5
361.311	1026.24
364.204	929.566
367.097	941.592
369.989	1107
372.882	1228.26
375.775	1334.95
378.667	995.064
381.56	527.095
384.453	316.115
387.346	253.124
390.238	262.29
393.131	298.767
396.024	351.815
398.916	348.642
401.809	211.289
404.702	119.37
407.594	18.4541
410.487	60.6836
413.38	31.9932
416.272	13.3398
419.165	17.5469
422.058	51.4365
424.951	35.6084
427.843	22.6816
430.736	14.3271
433.629	56.125
436.521	38.9824
439.414	74.8633
442.307	45.6602
445.2	86.7363
448.092	58.3203
450.985	76.3164
453.878	103.811
456.77	73.8926
459.663	87.1846
462.556	56.8359
465.448	18.3535
468.341	63.0684
471.234	7.14844
474.127	101.228
477.019	72.1484
479.912	51.498
482.805	108.506
485.697	68.9658
488.59	40.9961
491.483	26.8955
494.375	33.626
497.268	49.4746
500.161	99.6738
503.053	24.333
505.946	25.1094
508.839	7.4707
511.732	42.3477
514.624	31.8262
517.517	25.7588
520.41	65.2627
523.302	85.9004
526.195	14.4375
529.088	110.48
531.981	26.6426
534.873	43.0029
537.766	76.8428
540.659	104.869
543.551	49.2246
546.444	60.6162
549.337	71.0801
552.229	86.7676
555.122	45.8066
558.015	71.6562
560.908	118.865
563.8	77.332
566.693	22.1299
569.586	2.38477
572.478	68.1885
575.371	22.1289
578.264	73.5693
581.156	30.335
584.049	7.33301
586.942	47.8916
589.835	12.331
592.727	65.3389
595.62	15.7842
598.513	110.647
601.405	97.4678
604.298	62.793
607.191	60.7529
610.083	25.9639
612.976	142.408
615.869	125.269
618.762	154.656
621.654	131.754
624.547	122.382
627.44	120.327
630.332	144.894
633.225	91.958
636.118	162.971
639.01	231.134
641.903	141.841
644.796	175.875
647.689	212.426
650.581	136.196
653.474	210.34
656.367	223.282
659.259	221.967
662.152	242.589
665.045	234.77
667.938	181.398
670.83	224.509
673.723	247.913
676.616	213.357
679.508	276.707
682.401	281.167
685.294	269.411
688.186	210.205
691.079	278.078
693.972	376.378
696.865	291.896
699.757	293.448
702.65	234.451
705.543	183.285
708.435	211.356
711.328	204.849
714.221	147.815
717.113	167.002
720.006	64.8584
722.899	61.5029
725.792	43.8369
728.684	12.4092
731.577	3.04981
734.47	77.2891
737.362	86.416
740.255	72.9756
743.148	35.8047
746.04	9.90039
748.933	144.54
751.826	65.4902
754.719	37.877
757.611	45.6367
760.504	21.3848
763.397	34.541
766.289	75.5742
769.182	160.453
772.075	264.197
774.967	376.543
777.86	560.15
780.753	739.252
783.646	932.383
786.538	1131.29
789.431	1504.82
792.324	1742.65
795.216	2115.48
798.109	2610.74
801.002	3048.91
803.894	3655.15
806.787	4426.87
809.68	5499.74
812.573	6761.87
815.465	8497.53
818.358	10671.5
821.251	13489.7
824.143	16538.3
827.036	20072.7
829.929	23214.3
832.822	25646.6
835.714	25984.2
838.607	24502.5
841.5	21549.8
844.392	18112
847.285	15269.9
850.178	12745.9
853.07	10471.5
855.963	8475.48
858.856	6800.87
861.749	5185.69
864.641	4120.6
867.534	3289.25
870.427	2679.81
873.319	2155.6
876.212	1809.72
879.105	1429.04
881.997	1223.02
884.89	1040.88
887.783	852.424
890.676	631.144
893.568	445.695
896.461	332.641
899.354	299.312
902.246	238.361
905.139	203.606
908.032	30.6484
910.924	20.5898
913.817	26.9043
916.71	14.8867
919.602	27.5391
922.495	66.0039
925.388	44.4531
928.281	11.3848
931.173	33.9336
934.066	34.1094
936.959	36.2168
939.851	75.6875
942.744	22.5703
945.637	18.1113
948.529	9.3418
951.422	51.4707
954.315	103.975
957.208	283.482
960.1	132.152
962.993	317.731
965.886	232.113
968.778	238.758
971.671	309.734
974.564	312.928
977.457	456.389
980.349	286.463
983.242	572.863
986.135	251.51
989.027	396.305
991.92	324.213
994.813	291.084
997.705	217.9
1000.6	254.772
1003.49	272.973
1006.38	241.652
1009.28	168.82
1012.17	137.541
1015.06	197.25
1017.95	206.607
1020.85	107.316
1023.74	130.531
1026.63	97.8203
1029.53	141.438
1032.42	116.391
1035.31	129
1038.2	247.969
1041.1	112.769
1043.99	118.873
1046.88	103.787
1049.77	109.863
1052.67	122.006
1055.56	164.525
1058.45	160.092
1061.35	185.289
1064.24	119.953
1067.13	191.041
1070.02	195.369
1072.92	75.4277
1075.81	162.588
1078.7	143.307
1081.59	59.3203
1084.49	163.764
1087.38	85.2266
1090.27	168.891
1093.16	187.871
1096.06	154.273
1098.95	199.777
1101.84	53.8984
1104.73	98.0801
1107.63	49.7188
1110.52	74.0137
1113.41	81.8008
1116.31	96.8906
1119.2	8.54297
1122.09	17.8945
1124.98	176.277
1127.88	146.539
1130.77	10.2598
1133.66	5.12695
1136.56	58.0547
1139.45	143.666
1142.34	223.477
1145.23	123.561
1148.13	98.9902
1151.02	145.652
1153.91	134.541
1156.8	168.537
1159.7	195.637
1162.59	140.731
1165.48	119.699
1168.38	14.5684
1171.27	60.1836
1174.16	138.348
1177.05	102.291
1179.95	71.8731
1182.84	157.033
1185.73	127.443
1188.62	148.357
1191.52	83.9512
1194.41	102.213
1197.3	187.723
1200.19	84.8164
1203.09	98.8066
1205.98	54.6387
1208.87	14.4043
1211.77	78.7969
1214.66	26.5996
1217.55	11.3672
1220.44	60.3359
1223.34	160.596
1226.23	155.42
1229.12	38.3887
1232.01	54.4746
1234.91	37.8008
1237.8	125.205
1240.69	106.617
1243.59	0.421875
1246.48	107.852
1249.37	130.07
1252.26	124.562
1255.16	220.736
1258.05	160.24
1260.94	69.8633
1263.83	3.64648
1266.73	54.5117
1269.62	212.676
1272.51	128.902
1275.4	121.293
1278.3	139.582
1281.19	41.0449
1284.08	121.279
1286.98	65.7246
1289.87	159.725
1292.76	32.6172
