Measurement: Raman, 532 nm, unoriented, Raman Data Processed
Mineral: Crocoite
Rruff sample: R040053
Ideal chemistry: Pb^2+^Cr^6+^O_4_
Locality: Dundas, Tasmania
Source: Bob Downs
Description: Reddish-orange prismatic crystal
Measured chemistry: (Pb_.995_Mn_.005_)CrO_4_
Raman shift (cm-1)	intensity
128.754	0
131.647	59.9072
134.539	94.104
137.432	368.54
140.325	533.446
143.217	648.996
146.11	655.579
149.003	521.858
151.895	427.202
154.788	454.815
157.681	488.201
160.574	562.278
163.466	587.659
166.359	600.892
169.252	532.077
172.144	456.733
175.037	512.825
177.93	448.828
180.823	424.034
183.715	425.662
186.608	318.095
189.501	394.465
192.393	309.997
195.286	232.403
198.179	192.744
201.071	206.036
203.964	207.999
206.857	259.62
209.75	226.693
212.642	116.782
215.535	89.0254
218.428	130.227
221.32	141.322
224.213	93.2725
227.106	62.9297
229.999	105.501
232.891	114.147
235.784	33.2988
238.677	65.5967
241.569	67.5781
244.462	83.3623
247.355	83.6494
250.247	28.5225
253.14	47.2734
256.033	46
258.925	15.4482
261.818	62.9316
264.711	20
267.604	21.1816
270.496	11.544
273.389	31.0977
276.282	44.0488
279.174	10.6875
282.067	43.9082
284.96	50.7539
287.853	45.9512
290.745	81.834
293.638	4.33496
296.531	45.7607
299.423	80.5127
302.316	112.571
305.209	179.266
308.101	300.764
310.994	388.489
313.887	521.562
316.779	734.038
319.672	872.578
322.565	1215.82
325.458	1469.19
328.35	1529.92
331.243	1500.62
334.136	1600.37
337.028	1729.9
339.921	1743.15
342.814	1645.69
345.707	1656.88
348.599	1765.41
351.492	1810.19
354.385	1710.72
357.277	1718.95
360.17	1579.59
363.063	1357.37
365.955	1118.1
368.848	1095.69
371.741	1220.83
374.634	1312
377.526	1337.4
380.419	931.21
383.312	556.954
386.204	611.312
389.097	625.615
391.99	558.716
394.882	722.489
397.775	743.852
400.668	480.828
403.561	231.951
406.453	80.5684
409.346	31.0322
412.239	6.91992
415.131	30.8291
418.024	41.4815
420.917	33.2666
423.81	40.4883
426.702	12.9404
429.595	68.3272
432.488	7.56152
435.38	14.792
438.273	30.5889
441.166	72.3769
444.058	134.109
446.951	47.4756
449.844	102.379
452.736	66.5664
455.629	80.6748
458.522	95.0147
461.415	150.755
464.307	97.9072
467.2	114.019
470.093	98.1758
472.985	140.042
475.878	47.4043
478.771	57.6025
481.663	98.7754
484.556	80.4014
487.449	99.7109
490.342	51.21
493.234	33.7275
496.127	40.3057
499.02	4.04004
501.912	16.5449
504.805	46.2422
507.698	31.1289
510.591	18.3213
513.483	27.0684
516.376	104.082
519.269	137.736
522.161	35.4902
525.054	100.947
527.947	59.9912
530.84	42.0879
533.732	3.0918
536.625	30.1406
539.518	3.73535
542.41	0.918945
545.303	46.1387
548.196	66.2471
551.088	45.8438
553.981	80.4414
556.874	82.6904
559.766	10.8379
562.659	100.524
565.552	211.682
568.445	188.269
571.337	106.727
574.23	79.4961
577.123	217.794
580.015	212.593
582.908	173.627
585.801	449.614
588.693	263.421
591.586	305.383
594.479	506.777
597.372	519.508
600.264	490.749
603.157	604.708
606.05	703.342
608.942	819.73
611.835	851.028
614.728	971.156
617.62	1003.69
620.513	1103.38
623.406	1218.86
626.299	1306.51
629.191	1236.47
632.084	1198.06
634.977	1054.51
637.869	806.361
640.762	596.045
643.655	382.083
646.548	293.054
649.44	306.805
652.333	291.731
655.226	171.665
658.118	213.147
661.011	154.794
663.904	123.772
666.796	77.5283
669.689	216.287
672.582	88.5967
675.475	2.45508
678.367	103.544
681.26	203.865
684.153	258.444
687.045	259.187
689.938	245.678
692.831	316.336
695.723	505.471
698.616	306.393
701.509	289.674
704.402	300.581
707.294	284.773
710.187	89.8291
713.08	158.904
715.972	223.246
718.865	195.237
721.758	129.727
724.65	51.0381
727.543	80.3027
730.436	47.9473
733.329	59.9688
736.221	67.5606
739.114	123.199
742.007	104.902
744.899	72.5234
747.792	35.541
750.685	310.67
753.577	132.481
756.47	8.01953
759.363	49.1777
762.256	44.4219
765.148	149.315
768.041	322.59
770.934	536.988
773.826	693.936
776.719	902.332
779.612	1274.81
782.505	1662.88
785.397	2004.94
788.29	2547.63
791.183	3203.98
794.075	3948.47
796.968	4551.2
799.861	5589.09
802.753	6730.99
805.646	8392.51
808.539	10490.6
811.432	13391.9
814.324	16288.9
817.217	20178.5
820.11	25197.6
823.002	30227.4
825.895	35243.8
828.788	40069.8
831.68	43662.3
834.573	46082.7
837.466	45352.3
840.359	40397.7
843.251	33118.9
846.144	26572.3
849.037	21093.2
851.929	17078.5
854.822	13771
857.715	11052
860.607	9001.71
863.5	7200.91
866.393	5841.1
869.285	4695.69
872.178	3844.26
875.071	3171.37
877.964	2677.06
880.856	2143.56
883.749	1702.62
886.642	1426.14
889.534	1100.31
892.427	1020.24
895.32	743.859
898.213	555.586
901.105	290.906
903.998	174.307
906.891	96.8281
909.783	13.2441
912.676	102.16
915.569	139.348
918.462	149.742
921.354	126.598
924.247	35.2285
927.14	90.9473
930.032	6.38672
932.925	36.3262
935.818	97.6816
938.71	16.7832
941.603	11.0312
944.496	60.6562
947.389	23.9648
950.281	7.64453
953.174	49.9941
956.067	176.225
958.959	188.764
961.852	102.731
964.745	337.027
967.637	235.107
970.53	352.185
973.423	348.285
976.316	410.357
979.208	410.772
982.101	320.471
984.994	355.17
987.886	332.971
990.779	287.361
993.672	283.482
996.564	352.844
999.457	302.625
1002.35	380.502
1005.24	281.148
1008.13	213.402
1011.03	336.728
1013.92	324.656
1016.81	175.541
1019.71	155.254
1022.6	266.412
1025.49	334.566
1028.38	315.109
1031.28	367.006
1034.17	295.463
1037.06	345.785
1039.95	278.664
1042.85	290.926
1045.74	110.318
1048.63	191.654
1051.53	376.164
1054.42	264.975
1057.31	322.959
1060.2	269.711
1063.1	151.125
1065.99	182.193
1068.88	70.9356
1071.78	246.59
1074.67	149.853
1077.56	79.8418
1080.45	87.0527
1083.35	183.684
1086.24	217.562
1089.13	201.115
1092.02	183.486
1094.92	228.908
1097.81	227.074
1100.7	143.025
1103.59	225.44
1106.49	189.877
1109.38	116.133
1112.27	131.008
1115.16	156.943
1118.06	8.5293
1120.95	26.7832
1123.84	62.3789
1126.74	38.1602
1129.63	212.727
1132.52	86.8086
1135.41	98.7754
1138.31	26.7246
1141.2	71.2168
1144.09	88.6894
1146.98	39.918
1149.88	10.6777
1152.77	141.606
1155.66	166.619
1158.56	74.4004
1161.45	57.1016
1164.34	15.2832
1167.23	71.791
1170.13	42.3848
1173.02	242.504
1175.91	217.082
1178.81	280.504
1181.7	307.598
1184.59	174.152
1187.48	66.4219
1190.38	187.172
1193.27	162.035
1196.16	142.766
1199.05	144.76
1201.95	154.315
1204.84	114.561
1207.73	158.477
1210.62	188.328
1213.52	145.883
1216.41	59.8945
1219.3	77.0137
1222.19	47.3613
1225.09	76.0156
1227.98	61.6699
1230.87	63.3438
1233.77	295.883
1236.66	257.934
1239.55	138.025
1242.44	96.2285
1245.34	141.184
1248.23	229.461
1251.12	1.44141
