Measurement: Raman, 785 nm, unoriented, Raman Data Processed
Mineral: Crocoite
Rruff sample: R040053
Ideal chemistry: Pb^2+^Cr^6+^O_4_
Locality: Dundas, Tasmania
Source: Bob Downs
Description: Reddish-orange prismatic crystal
Measured chemistry: (Pb_.995_Mn_.005_)CrO_4_
Raman shift (cm-1)	intensity
87.2978	0
90.6727	9.72638
94.0475	20.6969
97.4223	21.7316
100.797	32.5373
104.172	14.0457
107.547	0.429686
110.922	11.4788
114.296	7.50784
117.671	2.96952
121.046	50.7313
124.421	373.464
127.796	1481.64
131.171	3028.72
134.545	3032.28
137.92	2164.27
141.295	1719.94
144.67	1923.64
148.044	1930.7
151.419	1524.16
154.794	1101.19
158.169	825.998
161.544	695.025
164.919	691.318
168.293	680.22
171.668	611.597
175.043	583.361
178.418	523.981
181.793	486.515
185.167	434.598
188.542	388.099
191.917	293.223
195.292	279.581
198.667	249.285
202.042	222.621
205.416	210.293
208.791	179.528
212.166	188.061
215.541	174.228
218.916	146.705
222.291	143.886
225.665	107.199
229.04	111.238
232.415	112.177
235.79	107.836
239.165	87.2259
242.539	51.2125
245.914	30.7454
249.289	36.0516
252.664	26.6225
256.039	24.6848
259.413	2.12701
262.788	1.91992
266.163	1.30926
269.538	11.6122
272.913	13.0944
276.288	21.8365
279.662	5.01459
283.037	32.2704
286.412	71.2062
289.787	24.3137
293.162	30.926
296.536	24.5018
299.911	98.3509
303.286	162.628
306.661	270.633
310.036	377.049
313.411	564.917
316.785	849.088
320.16	1235.38
323.535	1914.85
326.91	2833.62
330.285	4618.36
333.659	7582.41
337.034	11298.1
340.409	8393.28
343.784	8216.72
347.159	14322.5
350.534	28733.2
353.908	53401.8
357.283	78508.1
360.658	56846.9
364.033	23717.7
367.408	11850.1
370.782	9865.92
374.157	13448.5
377.532	16151.9
380.907	6170.25
384.282	2409.71
387.656	1801.26
391.031	2042.85
394.406	3325.33
397.781	5550.11
401.156	6727.53
404.531	1776.56
407.905	447.764
411.28	162.207
414.655	61.519
418.03	1.98193
421.405	14.2823
424.779	41.0308
428.154	33.7595
431.529	28.9703
434.904	1.69421
438.279	57.4793
441.654	69.6887
445.028	86.2175
448.403	64.5901
451.778	26.311
455.153	15.5548
458.528	4.4455
461.902	8.01123
465.277	13.1419
468.652	55.2092
472.027	91.7961
475.402	146.461
478.777	140.325
482.151	129.931
485.526	128.433
488.901	98.5741
492.276	72.9326
495.651	60.6481
499.025	46.5975
502.4	38.0523
505.775	66.5746
509.15	54.1256
512.525	59.3416
515.899	47.9657
519.274	23.5415
522.649	23.3207
526.024	7.74719
529.399	11.5595
532.774	0.151154
536.148	18.0484
539.523	12.3705
542.898	25.1962
546.273	14.6094
549.648	0.355148
553.023	19.6543
556.397	22.2853
559.772	10.7177
563.147	2.84901
566.522	2.2789
569.897	17.9565
573.271	5.69565
576.646	9.67982
580.021	14.0092
583.396	2.25583
586.771	1.72899
590.145	17.2988
593.52	1.53433
596.895	12.3908
600.27	12.5253
603.645	13.6564
607.019	13.7036
610.394	18.6283
613.769	27.2156
617.144	33.0987
620.519	40.1136
623.894	51.0032
627.268	60.3808
630.643	72.9224
634.018	73.1222
637.393	82.9807
640.768	88.2079
644.143	101.126
647.517	86.3806
650.892	103.273
654.267	98.6309
657.642	123.087
661.017	117.458
664.391	117.171
667.766	101.169
671.141	124.451
674.516	121.672
677.891	171.564
681.265	176.064
684.64	231.565
688.015	266.734
691.39	289.932
694.765	329.562
698.14	329.284
701.514	351.462
704.889	332.714
708.264	313.447
711.639	269.338
715.014	254.595
718.389	212.079
721.763	177.097
725.138	143.849
728.513	103.973
731.888	63.8846
735.263	15.8516
738.637	17.9499
742.012	14.3345
745.387	57.8357
748.762	34.8768
752.137	60.8809
755.511	53.4293
758.886	61.8773
762.261	44.687
765.636	29.6433
769.011	18.0612
772.386	110.767
775.76	206.271
779.135	372.986
782.51	634.337
785.885	979.084
789.26	1439.31
792.635	1951.85
796.009	2529.79
799.384	3051.46
802.759	3611.35
806.134	4186.73
809.509	5013.06
812.883	6426.66
816.258	8892.54
819.633	12967.8
823.008	18378.3
826.383	24353.2
829.757	34177.8
833.132	56528.6
836.507	93818.5
839.882	109288
843.257	66749
846.631	37658.2
850.006	26973.8
853.381	22644.5
856.756	17819.6
860.131	11647.4
863.506	7677.89
866.88	5435.9
870.255	3948.04
873.63	2920.38
877.005	2232.75
880.38	1643.85
883.755	1276.65
887.129	942.591
890.504	676.187
893.879	485.129
897.254	274.561
900.629	171.845
904.003	65.4039
907.378	34.6328
910.753	45.2443
914.128	76.3388
917.503	78.6816
920.877	74.1096
924.252	39.4794
927.627	15.795
931.002	1.66693
934.377	8.84784
937.751	17.4142
941.126	34.0798
944.501	69.8846
947.876	84.7463
951.251	83.6019
954.626	116.471
958	156.667
961.375	176.404
964.75	194.631
968.125	206.929
971.5	219.399
974.875	219.789
978.249	210.642
981.624	214.062
984.999	199.88
988.374	185.931
991.749	171.697
995.123	172.873
998.498	166.879
1001.87	173.195
1005.25	152.151
1008.62	143.094
1012	134.287
1015.37	143.053
1018.75	117.319
1022.12	84.2837
1025.5	105.183
1028.87	95.8929
1032.25	104.848
1035.62	72.7456
1039	81.4739
1042.37	77.5327
1045.75	82.3074
1049.12	58.3394
1052.49	62.7499
1055.87	50.7644
1059.24	73.3461
1062.62	52.2333
1065.99	40.937
1069.37	68.5151
1072.74	41.6695
1076.12	40.912
1079.49	32.9128
1082.87	42.0432
1086.24	39.0167
1089.62	37.8615
1092.99	27.2292
1096.37	16.3993
1099.74	17.0427
1103.12	19.854
1106.49	17.9007
1109.87	4.02544
1113.24	25.9675
1116.62	12.8618
1119.99	21.2902
1123.37	6.01797
1126.74	8.42038
1130.12	0.656525
1133.49	3.30778
1136.87	13.4682
1140.24	7.77948
1143.62	4.38299
1146.99	1.90799
1150.37	3.82871
1153.74	16.9916
1157.12	15.6952
1160.49	15.5098
1163.86	24.5095
1167.24	28.0172
1170.61	22.1331
1173.99	27.328
1177.36	43.5781
1180.74	46.7162
1184.11	51.2552
1187.49	71.29
1190.86	96.8649
1194.24	92.6412
1197.61	90.6762
1200.99	73.0035
1204.36	74.6726
1207.74	47.5826
1211.11	66.4591
1214.49	55.9939
1217.86	51.0928
1221.24	35.743
1224.61	23.4969
1227.99	36.5494
1231.36	16.9042
1234.73	15.1086
1238.11	15.8805
1241.48	6.00277
1244.86	16.4558
1248.23	1.01963
1251.61	18.6967
1254.98	16.9085
1258.36	16.9366
1261.73	23.0092
1265.11	17.8477
1268.48	6.69125
1271.86	0
