Measurement: Raman, 514 nm, unoriented, Raman Data Processed
Mineral: Crocoite
Rruff sample: R040053
Ideal chemistry: Pb^2+^Cr^6+^O_4_
Locality: Dundas, Tasmania
Source: Bob Downs
Description: Reddish-orange prismatic crystal
Measured chemistry: (Pb_.995_Mn_.005_)CrO_4_
Raman shift (cm-1)	intensity
98.947	0
103.124	3.399
107.3	90.86
111.473	141.36
115.644	193.316
119.813	363.067
123.981	677.749
128.146	1257.66
132.309	1473.47
136.47	1135.37
140.63	737.806
144.787	473.739
148.942	317.05
153.096	193.973
157.247	98.156
161.396	100.677
165.544	72.517
169.689	21.819
173.833	38.49
177.974	47.429
182.114	8.292
186.251	109.159
190.387	93.987
194.52	45.712
198.652	52.976
202.782	64.381
206.909	50.664
211.035	29.024
215.159	6.44
219.281	39.896
223.4	28.367
227.518	31.837
231.634	21.712
235.748	11.723
239.86	6.83
243.97	162.602
248.079	30.977
252.185	2.257
256.289	5.361
260.391	2.821
264.492	29.189
268.59	40.313
272.687	30.575
276.781	6.771
280.874	19.714
284.964	33.759
289.053	39.108
293.14	52.557
297.225	62.632
301.308	33.534
305.389	69.92
309.468	52.411
313.545	55.847
317.62	75.707
321.693	109.13
325.765	132.132
329.834	167.24
333.902	369.177
337.967	295.894
342.031	319.464
346.093	371.877
350.153	522.252
354.21	837.62
358.267	804.658
362.321	565.587
366.373	398.699
370.423	601.72
374.471	874.667
378.518	407.719
382.563	200.668
386.605	172.637
390.646	168.135
394.685	262.831
398.722	357.365
402.757	202.244
406.79	139.373
410.821	43.626
414.851	86.628
418.878	90.928
422.904	97.027
426.927	72.58
430.949	39.042
434.969	91.777
438.987	65.765
443.003	58.519
447.018	64.376
451.03	49.578
455.041	97.223
459.049	35.817
463.056	61.016
467.061	57.145
471.064	126.479
475.065	128.068
479.064	106.989
483.062	95.847
487.057	99.305
491.051	97.933
495.043	106.185
499.032	112.88
503.02	108.899
507.007	89.629
510.991	74.216
514.973	70.71
518.954	64.014
522.933	75.18
526.91	69.331
530.885	61.074
534.858	5.792
538.829	69.333
542.799	67.733
546.766	59.989
550.732	60.101
554.696	92.091
558.658	41.945
562.618	16.669
566.576	72.246
570.533	16.522
574.488	53.789
578.44	48.947
582.391	17.09
586.341	8.302
590.288	1.69
594.233	43.862
598.177	11.35
602.119	18.732
606.059	4.861
609.997	22.08
613.933	20.375
617.868	22.739
621.801	38.111
625.731	26.232
629.66	23.399
633.588	8.939
637.513	21.355
641.437	19.561
645.358	9.645
649.278	2.604
653.196	33.419
657.113	4.288
661.027	41.474
664.94	44.39
668.851	41.07
672.76	22.811
676.667	46.588
680.572	76.392
684.476	94.838
688.378	151.267
692.278	127.258
696.176	207.725
700.072	208.93
703.967	195.907
707.86	198.36
711.751	149.266
715.64	137.245
719.527	193.158
723.413	151.865
727.297	164.215
731.179	173.942
735.059	179.425
738.937	206.082
742.814	215.123
746.689	305.736
750.562	320.401
754.433	272.689
758.303	348.419
762.17	383.337
766.036	427.92
769.901	373.906
773.763	343.181
777.624	464.113
781.482	493.536
785.339	498.404
789.195	538.71
793.048	582.991
796.9	806.228
800.75	776.17
804.598	841.652
808.445	955.272
812.289	1140.69
816.132	1427.09
819.973	1945.13
823.813	2881.31
827.65	4090.59
831.486	6817.08
835.32	13673.8
839.152	19816.7
842.983	11825.8
846.812	6214.06
850.639	4341.55
854.464	4043.28
858.288	2872.24
862.11	1815.85
865.93	1238.19
869.748	1018.75
873.564	760.713
877.379	638.762
881.192	580.676
885.004	566.606
888.813	557.404
892.621	537.349
896.427	548.52
900.232	485.89
904.034	443.458
907.835	499.258
911.634	418.256
915.432	357.47
919.227	319
923.021	304.627
926.813	253.476
930.604	162.568
934.393	173.876
938.18	163.886
941.965	144.13
945.749	41.031
949.53	48.098
953.311	77.322
957.089	82.71
960.866	29.249
964.641	38.94
968.414	66.825
972.185	58.374
975.955	70.498
979.723	119.775
983.49	100.136
987.254	82.271
991.017	124.074
994.779	36.213
998.538	68.132
1002.3	91.771
1006.05	120.878
1009.81	30.542
1013.56	36.752
1017.31	50.55
1021.06	1.199
1024.81	63.108
1028.55	27.866
1032.3	59.878
1036.04	107.977
1039.78	54.72
1043.52	42.739
1047.26	27.7
1050.99	73.698
1054.73	100.753
1058.46	104.832
1062.19	1.09
1065.92	97.997
1069.65	39.089
1073.37	61.179
1077.1	80.272
1080.82	79.494
1084.54	26.025
1088.26	110.177
1091.97	20.438
1095.69	15.58
1099.4	16.924
1103.12	16.972
1106.83	33.098
1110.54	5.274
1114.24	8.277
1117.95	26.863
1121.65	153.811
1125.35	200.605
1129.06	3.379
1132.75	48.358
1136.45	5.599
1140.15	36.151
1143.84	18.968
1147.53	0.905
1151.22	36.185
1154.91	9.341
1158.6	13.621
1162.28	31.967
1165.97	45.33
1169.65	50.747
1173.33	5.284
1177.01	44.346
1180.69	65.663
1184.36	46.68
1188.04	103.65
1191.71	97.371
1195.38	116.372
1199.05	106.46
1202.71	85.242
1206.38	167.457
1210.04	127.199
1213.71	153.658
1217.37	139.847
1221.03	112.375
1224.68	91.41
1228.34	46.407
1231.99	107.915
1235.65	161.615
1239.3	120.187
1242.95	139.636
1246.59	138.833
1250.24	91.839
1253.88	132.735
1257.53	88.391
1261.17	165.52
1264.81	111.703
1268.45	148.884
1272.08	52.832
1275.72	44.17
1279.35	76.218
1282.98	125.99
1286.61	76.971
1290.24	104.817
1293.87	84.293
1297.49	70.865
1301.11	96.493
1304.73	57.187
1308.36	117.431
1311.97	107.957
1315.59	114.148
1319.2	56.475
1322.82	76.641
1326.43	63.218
1330.04	8.543
1333.65	67.811
1337.26	78.786
1340.86	33.671
1344.47	37.438
1348.07	20.06
1351.67	41.612
1355.27	94.033
1358.87	136.343
1362.46	46.564
1366.06	39.75
1369.65	118.755
1373.24	57.61
1376.83	80.48
1380.42	52.81
1384	49.446
1387.59	62.993
1391.17	88.584
1394.75	57.218
1398.33	92.264
1401.91	58.07
1405.49	34.329
1409.06	38.773
1412.64	53.475
1416.21	125.412
1419.78	151.364
1423.35	169.817
1426.91	140.275
1430.48	138.413
1434.05	48.408
1437.61	110.801
1441.17	86.871
1444.73	73.142
1448.29	77.134
1451.84	42.057
1455.4	93.811
1458.95	71.643
1462.5	165.473
1466.05	195.126
1469.6	13.884
1473.15	139.095
1476.69	121.56
1480.24	59.128
1483.78	32.649
1487.32	19.556
1490.86	102.722
1494.39	109.228
1497.93	57.206
1501.46	37.122
1505	7.584
1508.53	59.53
1512.06	2.886
1515.59	49.27
1519.11	0
