Measurement: Raman, 785 nm, unoriented, Raman Data Processed
Mineral: Crookesite
Rruff sample: R061025
Ideal chemistry: Cu_7_TlSe_4_
Locality: Skrikerum mine, Ostergotland, Sweden
Source: Michael Scott
Description: Lead gray metallic massive associated with umangite
Measured chemistry: Cu_7.01_Tl_0.99_Se_4.00_ ; (light phase) Tl not measured but estimated by difference and stoichiometry ; the dark phase is Cu_3.00_Se_2.00_ (umangite, with trace amounts of S)
Raman shift (cm-1)	intensity
154.794	0
157.686	67.7769
160.579	467.253
163.472	1027.96
166.365	1509.89
169.257	1639.82
172.15	1518.51
175.043	1128.99
177.935	791.811
180.828	562.006
183.721	547.815
186.613	413.423
189.506	322.903
192.399	260.434
195.292	199.648
198.184	133.054
201.077	80.2996
203.97	32.179
206.862	6.66846
209.755	69.1211
212.648	24.1216
215.541	98.5674
218.433	230.868
221.326	442.909
224.219	656.135
227.111	771.401
230.004	774.589
232.897	685.858
235.789	626.551
238.682	494.071
241.575	528.361
244.468	613.025
247.36	896.67
250.253	1323.3
253.146	1783.12
256.038	2265.07
258.931	2462.36
261.824	1910.22
264.716	1050.79
267.609	448.535
270.502	110.946
273.394	35.9591
276.287	12.4718
279.18	25.7041
282.073	22.0726
284.965	15.2878
287.858	28.761
290.751	10.4723
293.643	25.4285
296.536	83.5903
299.429	41.7434
302.321	101.299
305.214	95.999
308.107	99.5121
311	131.942
313.892	113.738
316.785	94.9202
319.678	102.963
322.57	121.752
325.463	137.316
328.356	159.163
331.248	181.222
334.141	190.176
337.034	158.669
339.926	159.923
342.819	168.777
345.712	99.704
348.605	138.473
351.497	158.418
354.39	100.753
357.283	108.042
360.175	63.6274
363.068	62.2931
365.961	43.1466
368.853	66.0555
371.746	57.3962
374.639	60.5132
377.532	51.7736
380.424	37.5324
383.317	35.0714
386.21	29.8844
389.102	24.629
391.995	35.9763
394.888	36.2079
397.781	41.1357
400.673	45.2227
403.566	31.6222
406.459	25.4526
409.351	17.1553
412.244	1.66211
415.137	27.39
418.029	19.6606
420.922	20.5331
423.815	1.98914
426.707	5.64587
429.6	38.9402
432.493	11.5317
435.386	11.8059
438.278	31.9673
441.171	16.3546
444.064	19.5795
446.956	46.5333
449.849	44.9919
452.742	13.168
455.635	31.7014
458.527	14.1528
461.42	27.0359
464.313	12.6272
467.205	23.0803
470.098	0.308105
472.991	3.54114
475.883	17.8092
478.776	31.0679
481.669	28.1849
484.562	24.889
487.454	27.981
490.347	42.7274
493.24	46.0923
496.132	40.7936
499.025	45.4506
501.918	50.1735
504.81	58.0421
507.703	32.5067
510.596	80.2649
513.489	70.8483
516.381	60.3744
519.274	63.8776
522.167	49.2233
525.059	79.0858
527.952	50.6522
530.845	16.2014
533.737	22.0863
536.63	3.63098
539.523	66.1603
542.415	29.6245
545.308	44.8013
548.201	16.4963
551.094	51.157
553.986	58.6261
556.879	21.8654
559.772	24.9434
562.664	36.0381
565.557	20.827
568.45	9.89917
571.342	21.9145
574.235	31.1647
577.128	48.1012
580.021	38.1921
582.913	37.7477
585.806	25.4822
588.699	23.1046
591.591	44.8927
594.484	13.707
597.377	2.93616
600.269	31.7327
603.162	33.919
606.055	36.7401
608.948	49.5275
611.84	40.0842
614.733	32.0258
617.626	58.5084
620.518	58.7462
623.411	23.6495
626.304	48.6384
629.197	40.8176
632.089	18.458
634.982	42.6462
637.875	63.8995
640.767	44.4209
643.66	44.7398
646.553	0.006348
649.445	26.9338
652.338	54.6351
655.231	15.5605
658.124	53.6267
661.016	23.1645
663.909	28.1874
666.802	30.9913
669.694	28.8281
672.587	0.454224
675.48	5.74939
678.372	6.45166
681.265	34.7221
684.158	38.569
687.05	38.6311
689.943	32.1187
692.836	37.5107
695.729	39.183
698.621	42.7201
701.514	16.5404
704.407	17.9393
707.299	19.26
710.192	14.3121
713.085	42.5154
715.977	2.80176
718.87	19.5436
721.763	37.8648
724.655	16.9175
727.548	27.7843
730.441	39.9996
733.334	7.81506
736.226	19.7399
739.119	9.18103
742.012	27.792
744.904	12.2231
747.797	23.0072
750.69	2.3269
753.582	40.0233
756.475	6.10522
759.368	30.931
762.261	27.6224
765.153	45.6736
768.046	1.5625
770.939	20.0358
773.831	75.1073
776.724	59.4576
779.617	48.9474
782.51	87.0415
785.402	78.9905
788.295	83.7969
791.188	45.0104
794.08	59.0892
796.973	44.5904
799.866	19.3546
802.758	31.9485
805.651	39.3977
808.544	38.5944
811.437	16.0099
814.329	36.5447
817.222	24.615
820.115	22.3383
823.007	35.0708
825.9	25.7805
828.793	43.0348
831.685	25.5587
834.578	24.3506
837.471	26.4159
840.364	17.271
843.256	19.7217
846.149	0.162109
849.042	25.3463
851.934	46.2744
854.827	15.1735
857.72	20.7944
860.612	3.73938
863.505	3.57471
866.398	14.6001
869.29	22.9235
872.183	4.45496
875.076	6.17456
877.969	31.4965
880.861	18.7721
883.754	5.4596
886.647	5.177
889.539	1.3291
892.432	21.1516
895.325	24.1656
898.217	50.7539
901.11	36.0426
904.003	22.9547
906.896	2.24207
909.788	39.1052
912.681	16.2541
915.574	21.1024
918.466	5.83569
921.359	39.7131
924.252	24.8135
927.144	20.1362
930.037	3.73377
932.93	48.1996
935.823	50.5007
938.715	43.5367
941.608	33.9246
944.501	46.5701
947.393	16.2795
950.286	7.37707
953.179	23.5769
956.072	41.0452
958.964	42.671
961.857	23.9967
964.75	54.0458
967.642	62.5441
970.535	32.7876
973.428	42.904
976.32	37.7273
979.213	13.2096
982.106	14.1862
984.999	29.063
987.891	29.5485
990.784	18.5869
993.677	9.86975
996.569	39.4617
999.462	46.7748
1002.36	28.8746
1005.25	24.2941
1008.14	41.9728
1011.03	23.641
1013.92	48.0972
1016.82	27.5166
1019.71	15.5701
1022.6	9.49744
1025.5	1.76038
1028.39	18.8486
1031.28	39.4952
1034.17	29.2054
1037.07	53.0222
1039.96	18.1421
1042.85	41.3871
1045.74	32.5223
1048.64	31.5787
1051.53	39.0717
1054.42	19.8944
1057.32	8.41846
1060.21	45.8015
1063.1	35.5907
1065.99	18.8575
1068.89	4.74255
1071.78	19.9413
1074.67	30.5648
1077.57	27.3193
1080.46	53.4889
1083.35	39.2385
1086.24	17.9589
1089.14	50.1222
1092.03	17.6528
1094.92	23.6575
1097.81	7.78503
1100.71	33.3724
1103.6	13.535
1106.49	8.12085
1109.38	64.4977
1112.28	11.2508
1115.17	12.4891
1118.06	19.1763
1120.95	16.35
1123.85	19.2714
1126.74	28.1428
1129.63	12.8204
1132.53	25.4287
1135.42	12.2489
1138.31	48.3815
1141.2	1.23389
1144.1	12.8417
1146.99	36.1129
1149.88	19.3657
1152.78	26.7024
1155.67	26.9314
1158.56	33.0691
1161.45	1.16894
1164.35	3.17969
1167.24	12.9268
1170.13	24.129
1173.02	18.4204
1175.92	33.2898
1178.81	31.111
1181.7	5.20935
1184.6	24.6532
1187.49	32.0183
1190.38	14.9185
1193.27	11.2745
1196.17	22.6244
1199.06	32.8718
1201.95	35.5674
1204.84	39.7694
1207.74	44.8894
1210.63	46.6054
1213.52	43.1774
1216.41	43.0295
1219.31	37.1923
1222.2	14.5306
1225.09	8.02502
1227.98	26.5708
1230.88	35.1338
1233.77	11.4147
1236.66	16.7346
1239.56	14.1711
1242.45	40.9764
1245.34	44.2861
1248.23	21.2423
1251.13	24.9125
1254.02	54.5425
1256.91	23.3377
1259.81	53.3788
1262.7	16.5617
1265.59	26.1603
1268.48	0
