Measurement: Raman, 532 nm, unoriented, Raman Data Processed
Mineral: Crookesite
Rruff sample: R061025
Ideal chemistry: Cu_7_TlSe_4_
Locality: Skrikerum mine, Ostergotland, Sweden
Source: Michael Scott
Description: Lead gray metallic massive associated with umangite
Measured chemistry: Cu_7.01_Tl_0.99_Se_4.00_ ; (light phase) Tl not measured but estimated by difference and stoichiometry ; the dark phase is Cu_3.00_Se_2.00_ (umangite, with trace amounts of S)
Raman shift (cm-1)	intensity
175.519	0
178.412	79.1216
181.305	105.337
184.197	142.726
187.09	154.448
189.983	195.315
192.875	182.528
195.768	94.4988
198.661	40.3272
201.554	12.5293
204.446	9.80493
207.339	10.3538
210.232	29.582
213.124	97.4128
216.017	208.082
218.91	388.168
221.802	550.831
224.695	724.693
227.588	864.107
230.481	890.608
233.373	813.521
236.266	785.288
239.159	887.493
242.051	1185.61
244.944	1750.73
247.837	2702.79
250.729	4202.47
253.622	5719.35
256.515	6910.61
259.407	6230.81
262.3	5013.43
265.193	2635.88
268.086	1035.7
270.978	454.166
273.871	225.935
276.764	153.517
279.656	53.8385
282.549	41.1127
285.442	6.49548
288.334	16.2304
291.227	1.61975
294.12	23.9678
297.012	17.2574
299.905	8.66345
302.798	37.4815
305.691	73.0801
308.583	58.233
311.476	70.4001
314.369	70.7482
317.261	65.5618
320.154	75.5101
323.047	54.3649
325.94	71.7799
328.832	57.2094
331.725	86.8516
334.618	73.9171
337.51	74.7618
340.403	74.8951
343.296	39.9482
346.188	59.7094
349.081	102.76
351.974	109.333
354.866	83.0629
357.759	66.8178
360.652	78.5939
363.545	59.0533
366.437	67.6617
369.33	62.537
372.223	36.3639
375.115	52.3431
378.008	78.696
380.901	33.6167
383.793	19.1232
386.686	48.5249
389.579	2.8335
392.472	17.7147
395.364	43.844
398.257	34.4155
401.15	13.8455
404.042	3.34534
406.935	0.422363
409.828	33.3058
412.721	5.25915
415.613	12.6085
418.506	12.4794
421.399	27.6747
424.291	17.349
427.184	38.7051
430.077	61.111
432.969	61.9381
435.862	69.1484
438.755	61.3206
441.647	46.8114
444.54	84.8009
447.433	74.647
450.326	68.0006
453.218	68.9071
456.111	45.6261
459.004	34.5726
461.896	74.4326
464.789	68.0422
467.682	27.9482
470.575	38.6386
473.467	16.369
476.36	28.007
479.253	27.6532
482.145	46.1457
485.038	90.8457
487.931	47.831
490.823	106.165
493.716	106.969
496.609	135.109
499.501	164.885
502.394	213.036
505.287	249.486
508.18	266.753
511.072	276.372
513.965	241.553
516.858	247.01
519.75	197.573
522.643	132.266
525.536	111.147
528.428	90.3425
531.321	64.1348
534.214	9.98669
537.106	29.1189
539.999	18.6018
542.892	31.173
545.785	22.1041
548.677	4.83325
551.57	26.4449
554.463	1.69849
557.355	13.1555
560.248	19.4536
563.141	23.1322
566.034	49.2906
568.926	1.97022
571.819	11.6899
574.712	11.7394
577.604	32.8436
580.497	15.1548
583.39	35.2213
586.282	29.1531
589.175	26.0729
592.068	40.348
594.961	35.0098
597.853	63.7424
600.746	41.3406
603.639	60.0185
606.531	43.9825
609.424	25.642
612.317	55.3478
615.209	90.1819
618.102	43.5505
620.995	102.834
623.888	81.3953
626.78	68.7738
629.673	57.4511
632.566	79.2028
635.458	73.7141
638.351	84.26
641.244	65.0155
644.136	54.4202
647.029	52.7784
649.922	60.3182
652.814	27.886
655.707	25.937
658.6	26.1163
661.493	29.9299
664.385	32.2369
667.278	24.5177
670.171	39.0326
673.063	11.8068
675.956	30.3008
678.849	16.1073
681.741	6.73645
684.634	15.9349
687.527	27.3011
690.42	37.9152
693.312	29.8917
696.205	34.0621
699.098	31.8516
701.99	4.26318
704.883	46.5452
707.776	25.6215
710.668	21.6079
713.561	24.219
716.454	38.913
719.347	33.8148
722.239	9.0846
725.132	8.71435
728.025	9.04297
730.917	11.6197
733.81	9.01233
736.703	12.5214
739.596	36.3571
742.488	7.46582
745.381	10.9834
748.274	54.1471
751.166	55.1069
754.059	53.3954
756.952	55.6653
759.844	42.245
762.737	47.9358
765.63	40.7465
768.522	99.0769
771.415	92.9163
774.308	116.02
777.201	136.121
780.093	140.936
782.986	163.791
785.879	145.157
788.771	158.458
791.664	192.324
794.557	159.212
797.449	176.409
800.342	143.905
803.235	163.065
806.128	134.975
809.02	125.37
811.913	126.267
814.806	115.397
817.698	101.433
820.591	103.306
823.484	95.584
826.376	118.084
829.269	85.3398
832.162	99.7484
835.054	62.6453
837.947	36.1644
840.84	63.4053
843.733	57.3236
846.625	13.2468
849.518	15.9268
852.411	21.0577
855.303	1.00183
858.196	21.1898
861.089	7.66296
863.981	2.81628
866.874	34.2059
869.767	4.20252
872.66	4.02429
875.552	23.5941
878.445	11.9774
881.338	8.89123
884.23	7.95679
887.123	9.72021
890.016	27.6296
892.908	24.5658
895.801	32.802
898.694	30.0818
901.587	31.379
904.479	28.8851
907.372	9.60205
910.265	4.75549
913.157	8.32251
916.05	47.8428
918.943	26.701
921.835	50.3213
924.728	44.1992
927.621	54.1858
930.514	10.9125
933.406	29.4528
936.299	1.33313
939.192	38.3209
942.084	3.30554
944.977	7.95325
947.87	14.7636
950.763	17.2172
953.655	43.1929
956.548	67.5225
959.441	72.1637
962.333	19.6182
965.226	18.2139
968.119	0.507446
971.011	33.4849
973.904	23.9091
976.797	27.2459
979.689	12.2941
982.582	54.1577
985.475	7.47021
988.368	37.2245
991.26	13.0446
994.153	30.8002
997.046	19.4217
999.938	9.12549
1002.83	45.9764
1005.72	17.193
1008.62	9.87634
1011.51	34.1907
1014.4	39.0872
1017.29	40.313
1020.19	36.6156
1023.08	31.0787
1025.97	62.1747
1028.87	57.7522
1031.76	65.4622
1034.65	49.0886
1037.54	4.94128
1040.44	57.4813
1043.33	14.1212
1046.22	94.7642
1049.11	18.2266
1052.01	27.1079
1054.9	56.9463
1057.79	41.686
1060.68	36.9531
1063.58	76.6096
1066.47	30.9675
1069.36	16.8552
1072.26	10.8516
1075.15	8.64087
1078.04	5.91821
1080.93	54.0818
1083.83	30.803
1086.72	23.5217
1089.61	24.2378
1092.51	68.5933
1095.4	10.1499
1098.29	31.0315
1101.18	47.2578
1104.08	12.7053
1106.97	25.4285
1109.86	40.7082
1112.75	36.1445
1115.65	18.6719
1118.54	23.2895
1121.43	18.4084
1124.32	8.46289
1127.22	46.9238
1130.11	38.1348
1133	4.93311
1135.89	7.53271
1138.79	29.4158
1141.68	40.6003
1144.57	48.2922
1147.47	6.67432
1150.36	48.4097
1153.25	26.5671
1156.14	29.0149
1159.04	13.5845
1161.93	15.4221
1164.82	1.27222
1167.71	17.7283
1170.61	62.9273
1173.5	19.9512
1176.39	13.2944
1179.29	26.9936
1182.18	7.10791
1185.07	35.7107
1187.96	13.3555
1190.86	30.49
1193.75	38.2341
1196.64	16.0188
1199.54	16.3057
1202.43	23.1509
1205.32	17.0269
1208.21	13.3184
1211.11	65.7402
1214	21.115
1216.89	10.4416
1219.78	2.36597
1222.68	28.8511
1225.57	60.1074
1228.46	34.6155
1231.35	17.0933
1234.25	22.0039
1237.14	74.7734
1240.03	23.398
1242.92	69.009
1245.82	78.1438
1248.71	31.6035
1251.6	24.7053
1254.5	36.2771
1257.39	44.9395
1260.28	8.72168
1263.17	47.4717
1266.07	30.7078
1268.96	61.0601
1271.85	47.8679
1274.74	66.1724
1277.64	41.5942
1280.53	56.7978
1283.42	0.23877
1286.32	50.0298
1289.21	21.1914
