Measurement: Raman, 780 nm, unoriented, Raman Data Processed
Mineral: Cryolithionite
Rruff sample: R080051
Ideal chemistry: Na_3_Al_2_(LiF_4_)_3_
Locality: Zapot mine, Zapot amazonite-topaz-zinnwaldite pegmatite, Gillis Range, Mineral Co., Nevada, USA
Source: Michael Scott
Description: Vitreous colorless fragment
Raman shift (cm-1)	intensity
116.709	0
120.084	0.020706
123.459	0.238998
126.833	0.298935
130.208	0.982372
133.583	1.82684
136.958	7.8928
140.333	10.7323
143.708	9.49363
147.082	4.39018
150.457	3.19363
153.832	3.64698
157.207	7.38467
160.582	8.31461
163.956	6.24283
167.331	4.36611
170.706	2.96425
174.081	0.975754
177.456	0.137865
180.831	0.308035
184.205	0.952679
187.58	2.23125
190.955	2.53502
194.33	1.8641
197.705	0.912249
201.079	0.268759
204.454	0.395996
207.829	0.627581
211.204	0.429476
214.579	0.939228
217.953	1.0813
221.328	1.42344
224.703	1.22039
228.078	1.46481
231.453	1.29791
234.827	1.10806
238.202	1.13557
241.577	0.626419
244.952	1.00773
248.327	0.914791
251.702	0.687832
255.076	0.629354
258.451	0.123293
261.826	0.014347
265.201	0.382597
268.576	0.775843
271.95	0.580307
275.325	0.132435
278.7	0.086866
282.075	0.037899
285.45	0.561228
288.825	0.102068
292.199	0.056885
295.574	0.28047
298.949	1.0307
302.324	1.631
305.699	1.7306
309.074	1.88913
312.448	2.99586
315.823	3.72927
319.198	4.90634
322.573	6.20076
325.948	8.34074
329.322	11.7372
332.697	16.5998
336.072	22.7205
339.447	30.8672
342.822	41.9022
346.197	54.1722
349.571	66.976
352.946	74.2134
356.321	64.4987
359.696	44.9666
363.071	26.4185
366.445	15.9422
369.82	12.0001
373.195	10.9879
376.57	12.3084
379.945	15.9934
383.32	21.226
386.694	26.9834
390.069	31.3131
393.444	29.8126
396.819	20.2534
400.193	11.0732
403.568	7.5306
406.943	5.00531
410.318	4.21547
413.693	4.10829
417.068	2.57814
420.442	1.54203
423.817	0.646683
427.192	0.213968
430.567	0.10317
433.942	0.347713
437.317	0.211176
440.691	0.109146
444.066	0.237059
447.441	0.024595
450.816	0.264656
454.191	0.344067
457.565	0.224127
460.94	0.274609
464.315	0.317774
467.69	0.032997
471.065	0.300066
474.44	0.8414
477.814	0.649075
481.189	1.00066
484.564	0.416164
487.939	1.01871
491.314	1.44647
494.688	1.72953
498.063	1.51837
501.438	2.25262
504.813	3.03525
508.188	3.59312
511.562	3.97737
514.937	5.06027
518.312	6.73075
521.687	7.64393
525.062	9.59766
528.437	12.114
531.811	15.2646
535.186	19.5895
538.561	26.7863
541.936	37.5711
545.311	54.4981
548.686	79.5951
552.06	109.708
555.435	146.697
558.81	201.657
562.185	273.179
565.56	319.782
568.934	248.361
572.309	140.466
575.684	75.7265
579.059	42.3281
582.434	25.7459
585.808	16.4022
589.183	10.9863
592.558	7.03268
595.933	5.06947
599.308	2.40558
602.683	1.73234
606.057	0.745167
609.432	0.326733
612.807	0.13522
616.182	0.096889
619.557	0.779491
622.931	0.169807
626.306	0.296608
629.681	0.220211
633.056	0.106541
636.431	0.165287
639.806	0.523773
643.18	0.222397
646.555	0.075813
649.93	0.396091
653.305	0.581612
656.68	1.03607
660.054	0.774132
663.429	1.08624
666.804	0.343292
670.179	0.683601
673.554	1.0346
676.928	0.507866
680.303	1.15701
683.678	0.853195
687.053	0.340199
690.428	1.07618
693.803	0.261375
697.177	0.692661
700.552	0.540787
703.927	0.531124
707.302	0.607918
710.677	0.58604
714.052	0.850807
717.426	1.00411
720.801	0.310955
724.176	0.497822
727.551	0.059174
730.926	0.490288
734.3	0.843689
737.675	0.20525
741.05	0.093636
744.425	0.137783
747.8	0.14938
751.174	0.127064
754.549	0.444252
757.924	0.125206
761.299	0.505371
764.674	1.04721
768.048	0.72628
771.423	0.411915
774.798	0.735229
778.173	0.54467
781.548	0.742973
784.923	1.06467
788.297	0.422585
791.672	0.491993
795.047	0.839085
798.422	0.617218
801.797	0.634747
805.172	1.0107
808.546	1.70671
811.921	1.01395
815.296	1.27834
818.671	0.948483
822.046	1.32907
825.42	1.71091
828.795	1.28041
832.17	1.59863
835.545	1.76041
838.92	1.85112
842.294	1.24987
845.669	1.99613
849.044	1.33843
852.419	1.48967
855.794	0.726208
859.169	1.34642
862.543	1.38023
865.918	1.76963
869.293	1.03534
872.668	1.44587
876.043	1.43774
879.418	1.19543
882.792	0.919552
886.167	0.459011
889.542	0.511887
892.917	1.10844
896.292	0.588379
899.666	0.87151
903.041	0.189743
906.416	0.149384
909.791	0.003311
913.166	0.199432
916.54	0.218056
919.915	0.444286
923.29	0.134045
926.665	0.369923
930.04	0.010498
933.414	0.095352
936.789	0.213375
940.164	0.037445
943.539	0.230324
946.914	0.19598
950.289	0.222069
953.663	0.421932
957.038	0.585537
960.413	0.320251
963.788	0.514671
967.163	0.608208
970.538	0.743881
973.912	0.002945
977.287	0.056988
980.662	0.503891
984.037	0.242912
987.412	0.209831
990.786	0.600361
994.161	0.397846
997.536	0.84848
1000.91	0.642128
1004.29	0.540405
1007.66	0.967899
1011.03	0.143852
1014.41	0.326427
1017.78	0.589008
1021.16	0.581753
1024.54	0.025425
1027.91	1.22178
1031.28	0.48777
1034.66	0.43195
1038.03	0.944496
1041.41	0.764595
1044.78	0.940636
1048.16	0.25021
1051.53	0.794209
1054.91	0.823944
1058.28	1.30875
1061.66	0.44455
1065.03	0.860985
1068.41	1.36078
1071.78	0.314991
1075.16	0.972038
1078.53	0.650066
1081.91	0.62682
1085.28	0.123508
1088.66	0.920204
1092.03	0.559166
1095.41	0.607899
1098.78	0.298046
1102.15	0.56036
1105.53	0.128731
1108.9	0.561623
1112.28	0.622959
1115.65	0.423645
1119.03	0.194958
1122.4	0.746372
1125.78	0.870213
1129.15	0.299973
1132.53	0.362713
1135.9	0.975136
1139.28	1.84279
1142.65	0.082222
1146.03	0.282928
1149.4	0.685204
1152.78	0.418602
1156.15	0.344223
1159.53	0.916553
1162.9	0.772141
1166.28	0.790874
1169.65	0.969681
1173.03	0.195152
1176.4	0.969635
1179.78	0.850483
1183.15	0.963249
1186.53	0.956814
1189.9	0.933376
1193.28	1.00747
1196.65	0.770374
1200.03	0.860191
1203.4	0.979519
1206.78	0.663349
1210.15	1.13207
1213.52	1.49386
1216.9	1.04435
1220.27	1.00682
1223.65	1.06315
1227.02	1.05429
1230.4	1.6304
1233.77	1.38732
1237.15	0.536816
1240.52	0.033428
1243.9	0.562599
1247.27	0.442158
1250.65	0.65926
1254.02	0.376873
1257.4	1.34066
1260.77	1.0901
1264.15	1.28509
1267.52	1.18306
1270.9	0.539444
1274.27	0.422668
1277.65	0.504704
1281.02	0.73991
1284.39	0.276417
