Measurement: Raman, 532 nm, unoriented, Raman Data Processed
Mineral: Cryolite
Rruff sample: R120026
Ideal chemistry: Na_3_AlF_6_
Locality: Francon quarry, Montréal, Québec, Canada
Source: Donald Doell
Description: Colorless, pseudo-octahedral crystals
Raman shift (cm-1)	intensity
196.558	0
199.451	1.00191
202.343	1.76686
205.236	1.0341
208.129	6.38565
211.021	8.91104
213.914	7.94629
216.807	4.20808
219.699	8.69488
222.592	3.62811
225.485	7.01097
228.377	8.20757
231.27	7.41367
234.163	5.75326
237.056	5.87555
239.948	5.54698
242.841	4.75659
245.734	6.12466
248.626	3.91014
251.519	5.90633
254.412	0.204071
257.305	1.66055
260.197	1.31587
263.09	3.10327
265.983	1.13098
268.875	3.52466
271.768	0.481232
274.661	0.462982
277.553	2.09686
280.446	1.72284
283.339	0.023529
286.232	1.93817
289.124	0.64386
292.017	2.24686
294.91	0.676666
297.802	1.79852
300.695	3.62881
303.588	3.64337
306.481	8.13528
309.373	12.9641
312.266	14.7716
315.159	18.6402
318.051	20.55
320.944	25.5028
323.837	34.1491
326.729	42.7376
329.622	58.8012
332.515	80.6208
335.408	109.845
338.3	134.62
341.193	155.223
344.086	151.758
346.978	124.301
349.871	87.1162
352.764	60.1711
355.656	37.5916
358.549	25.5251
361.442	19.7239
364.334	12.2639
367.227	11.811
370.12	12.0423
373.012	20.7403
375.905	24.5426
378.798	38.7263
381.691	53.5482
384.583	76.3513
387.476	106.561
390.369	119.301
393.261	114.786
396.154	95.7377
399.047	72.3767
401.94	53.5313
404.832	32.9652
407.725	22.5395
410.618	12.6175
413.51	12.3515
416.403	7.21951
419.296	3.69165
422.188	2.61102
425.081	0.57428
427.974	2.10974
430.866	1.53967
433.759	2.25299
436.652	0.366547
439.545	0.83963
442.437	3.52747
445.33	0.635529
448.223	0.339233
451.115	0.72229
454.008	2.34946
456.901	0.115723
459.793	1.24228
462.686	1.94192
465.579	1.65927
468.472	0.751373
471.364	2.63898
474.257	3.08862
477.15	3.95456
480.042	5.93466
482.935	7.71085
485.828	9.22412
488.721	7.48911
491.613	5.49368
494.506	8.40298
497.399	8.92352
500.291	11.6153
503.184	14.7555
506.077	16.252
508.969	16.5718
511.862	20.5277
514.755	23.9458
517.648	29.4531
520.54	34.9644
523.433	43.5382
526.326	57.9988
529.218	77.2567
532.111	100.115
535.004	134.761
537.896	194.99
540.789	290.807
543.682	421.58
546.575	600.484
549.467	839.299
552.36	1048.37
555.253	961.014
558.145	600.494
561.038	326.471
563.931	186.521
566.823	117.658
569.716	73.2616
572.609	49.5773
575.502	32.9578
578.394	23.6183
581.287	21.896
584.18	13.1229
587.072	10.2038
589.965	6.43323
592.858	4.10391
595.75	4.45389
598.643	3.40237
601.536	0.784515
604.428	1.14777
607.321	0.149963
610.214	1.48526
613.107	0.016174
615.999	1.26675
618.892	0.217529
621.785	1.63916
624.677	0.153992
627.57	1.83258
630.463	0.532257
633.356	1.94125
636.248	1.01874
639.141	1.53809
642.034	2.02487
644.926	2.53145
647.819	5.93205
650.712	2.76453
653.604	2.53394
656.497	3.01305
659.39	5.11232
662.283	3.96339
665.175	3.71577
668.068	4.98186
670.961	4.87871
673.853	3.2131
676.746	6.31
679.639	4.27017
682.531	5.4371
685.424	5.17935
688.317	3.78998
691.21	2.09724
694.102	2.53477
696.995	5.08949
699.888	1.08137
702.78	2.13609
705.673	2.52452
708.566	3.42735
711.458	3.94237
714.351	1.03473
717.244	0.198303
720.136	3.81282
723.029	2.94688
725.922	4.29915
728.815	3.97678
731.707	2.66756
734.6	3.89096
737.493	0.601135
740.385	4.13022
743.278	2.91724
746.171	3.77537
749.063	2.16022
751.956	5.45912
754.849	3.65604
757.742	2.04185
760.634	3.27141
763.527	3.23439
766.42	1.17908
769.312	3.07826
772.205	1.12744
775.098	2.11415
777.99	5.65796
780.883	2.58047
783.776	2.93964
786.669	3.38313
789.561	0.157623
792.454	1.10877
795.347	2.95743
798.239	0.450897
801.132	1.88429
804.025	2.06778
806.918	2.27228
809.81	0.519028
812.703	1.29367
815.596	2.66632
818.488	3.99097
821.381	4.87057
824.274	2.50645
827.166	2.80513
830.059	3.94461
832.952	1.83647
835.845	0.369278
838.737	0.194168
841.63	4.01291
844.523	3.5277
847.415	0.128204
850.308	3.31267
853.201	6.34247
856.093	1.67741
858.986	1.56296
861.879	0.359863
864.771	2.93047
867.664	0.165924
870.557	1.61742
873.45	5.05389
876.342	0.265182
879.235	3.2894
882.128	0.996872
885.02	0.899628
887.913	2.85274
890.806	1.45795
893.698	1.93005
896.591	3.50896
899.484	2.92891
902.377	4.58908
905.269	2.21181
908.162	1.16832
911.055	4.14738
913.947	1.77521
916.84	3.0136
919.733	3.97607
922.625	1.87685
925.518	5.42886
928.411	2.58296
931.304	3.38953
934.196	1.93031
937.089	2.27571
939.982	1.32539
942.875	4.70816
945.767	4.05562
948.66	4.81343
951.553	0.960297
954.445	5.20044
957.338	1.79994
960.231	1.2585
963.123	2.71732
966.016	3.58211
968.909	2.30116
971.802	3.75021
974.694	5.93957
977.587	3.47861
980.48	3.43666
983.372	3.21901
986.265	4.43074
989.158	4.14679
992.05	2.87189
994.943	4.08517
997.836	2.61421
1000.73	3.10594
1003.62	1.72873
1006.51	3.04326
1009.41	1.31671
1012.3	2.69438
1015.19	1.46091
1018.09	1.82678
1020.98	3.70914
1023.87	2.71501
1026.76	1.81821
1029.66	1.67308
1032.55	1.28363
1035.44	2.01935
1038.33	4.26659
1041.23	1.55043
1044.12	1.34933
1047.01	2.98247
1049.9	4.62744
1052.8	4.87237
1055.69	4.2635
1058.58	5.14365
1061.47	1.25015
1064.37	2.21138
1067.26	4.65977
1070.15	2.29799
1073.05	3.33562
1075.94	0.996017
1078.83	4.30641
1081.72	1.88754
1084.62	2.67642
1087.51	1.22308
1090.4	1.87955
1093.3	1.98093
1096.19	2.1855
1099.08	3.8685
1101.97	0.079529
1104.87	3.10317
1107.76	7.04511
1110.65	3.11163
1113.54	0.074371
1116.44	1.99626
1119.33	3.81433
1122.22	0.58374
1125.12	3.17908
1128.01	2.00174
1130.9	1.88464
1133.79	0.184723
1136.68	1.36833
1139.58	1.47546
1142.47	3.22742
1145.36	0.777832
1148.26	4.15865
1151.15	2.49899
1154.04	0.288651
1156.93	1.72984
1159.83	0.050949
1162.72	2.47624
1165.61	2.93875
1168.51	0.260834
1171.4	3.63881
1174.29	5.56509
1177.18	3.09395
1180.08	2.68161
1182.97	2.93662
1185.86	1.20309
1188.75	2.07941
1191.65	3.75793
1194.54	1.22298
1197.43	5.73035
1200.33	2.79656
1203.22	1.17825
1206.11	3.10637
1209	7.31911
1211.9	5.07648
1214.79	5.51138
1217.68	6.35942
1220.57	3.76027
1223.47	3.57457
1226.36	4.9496
1229.25	0.16095
1232.14	2.60242
1235.04	0.11026
1237.93	3.35587
1240.82	0.458572
1243.71	5.71118
1246.61	3.71385
1249.5	0.650452
1252.39	6.00084
1255.29	4.47568
1258.18	3.48576
1261.07	2.73406
1263.96	1.92552
1266.86	3.63258
1269.75	3.33565
1272.64	4.2735
1275.54	1.37593
1278.43	3.75995
1281.32	0.144501
1284.21	6.16286
1287.11	0.963593
1290	0.427277
1292.89	4.30902
1295.78	2.77429
1298.68	3.90213
1301.57	0.712708
