Measurement: Raman, 780 nm, unoriented, Raman Data Processed
Mineral: Cryolite
Rruff sample: R120027
Ideal chemistry: Na_3_AlF_6_
Locality: Francon quarry, Montréal, Québec, Canada
Source: Donald Doell
Description: Pale brownish-yellow massive
Raman shift (cm-1)	intensity
132.583	0
135.476	0.433716
138.369	4.49164
141.262	5.80603
144.154	1.34546
147.047	7.88196
149.94	1.10852
152.832	9.78351
155.725	10.3896
158.618	6.63574
161.51	10.8057
164.403	6.44531
167.296	7.76477
170.189	7.14886
173.081	4.82062
175.974	5.40064
178.867	5.61114
181.759	11.1259
184.652	7.87396
187.545	11.9695
190.437	15.5447
193.33	16.8156
196.223	22.0122
199.115	13.4382
202.008	19.0682
204.901	12.7501
207.794	13.8309
210.686	7.76379
213.579	8.64227
216.472	2.43701
219.364	5.19324
222.257	5.17474
225.15	2.10455
228.042	0.323975
230.935	0.741089
233.828	4.00812
236.721	2.87457
239.613	1.60663
242.506	3.33929
245.399	4.69897
248.291	4.43298
251.184	0.049988
254.077	3.10297
256.969	2.88849
259.862	0.248108
262.755	0.88855
265.648	3.35193
268.54	0.839233
271.433	0.828613
274.326	1.86121
277.218	0.882019
280.111	2.04022
283.004	0.371033
285.897	0.481628
288.789	1.63245
291.682	1.57111
294.575	1.45429
297.467	2.18805
300.36	1.74683
303.253	2.26215
306.145	6.43732
309.038	8.47467
311.931	9.8017
314.824	15.9695
317.716	21.9469
320.609	30.2597
323.502	36.3732
326.394	51.2898
329.287	68.3668
332.18	86.2194
335.072	104.935
337.965	126.371
340.858	143.056
343.75	141.977
346.643	113.176
349.536	87.2446
352.429	58.5732
355.321	39.0768
358.214	24.0411
361.107	17.6322
364	13.5026
366.892	9.85925
369.785	12.2475
372.678	17.139
375.57	21.8724
378.463	34.5855
381.356	47.9701
384.248	64.5135
387.141	89.848
390.034	113.407
392.926	131.164
395.819	128.243
398.712	106.273
401.605	78.5951
404.497	52.944
407.39	33.328
410.283	20.8737
413.175	14.2852
416.068	7.16998
418.961	5.22925
421.853	3.86688
424.746	0.711853
427.639	0.75708
430.532	1.7312
433.424	0.429138
436.317	2.6944
439.21	1.63226
442.102	2.65387
444.995	2.08624
447.888	0.024597
450.781	1.99847
453.673	2.18036
456.566	0.997742
459.459	3.29431
462.351	3.77179
465.244	1.20361
468.137	0.147888
471.029	0.541565
473.922	3.34589
476.815	4.36945
479.707	3.59753
482.6	4.07599
485.493	1.74316
488.386	0.804443
491.278	6.4281
494.171	5.69043
497.064	6.03192
499.956	7.63281
502.849	10.2335
505.742	11.6476
508.635	11.243
511.527	19.1573
514.42	22.3953
517.313	30.1461
520.205	32.1734
523.098	44.5034
525.991	55.0375
528.883	80.0257
531.776	121.163
534.669	173.923
537.562	252.302
540.454	349.401
543.347	458.825
546.24	618.483
549.132	825.197
552.025	983.729
554.918	857.714
557.81	538.374
560.703	300.408
563.596	169.648
566.489	103.615
569.381	65.6695
572.274	43.5649
575.167	29.065
578.059	17.3042
580.952	13.7021
583.845	9.68964
586.737	7.97913
589.63	4.24744
592.523	1.27527
595.415	1.34631
598.308	0.074768
601.201	1.51959
604.094	0.201294
606.986	0.979675
609.879	1.58978
612.772	0.790405
615.664	2.81799
618.557	1.72626
621.45	3.5827
624.342	3.87408
627.235	2.37763
630.128	4.22778
633.021	5.1524
635.913	5.67499
638.806	3.23932
641.699	3.41943
644.591	6.44995
647.484	5.08765
650.377	3.15607
653.269	2.60632
656.162	7.47968
659.055	3.38001
661.948	2.46008
664.84	3.02716
667.733	0.494263
670.626	2.36414
673.518	2.75751
676.411	1.48035
679.304	1.87848
682.197	4.32593
685.089	1.45148
687.982	5.76032
690.875	3.12323
693.767	4.7796
696.66	1.16693
699.553	2.73755
702.445	2.88617
705.338	4.62286
708.231	1.83203
711.124	1.8977
714.016	1.46845
716.909	2.81555
719.802	1.47546
722.694	2.19403
725.587	0.980408
728.48	0.874573
731.372	6.90265
734.265	1.53723
737.158	2.28052
740.051	0.724365
742.943	2.3999
745.836	1.67651
748.729	1.34149
751.621	1.98718
754.514	0.064575
757.407	1.36334
760.299	3.02942
763.192	0.888
766.085	1.97839
768.977	2.23572
771.87	0.364075
774.763	4.12433
777.656	0.986084
780.548	1.86121
783.441	5.24322
786.334	3.49396
789.226	3.74078
792.119	6.62903
795.012	7.14886
797.904	7.67865
800.797	7.14856
803.69	6.34363
806.583	8.34949
809.475	7.1568
812.368	9.19629
815.261	7.28162
818.153	8.21063
821.046	9.84271
823.939	10.2394
826.832	7.61224
829.724	7.97455
832.617	5.84711
835.51	7.45935
838.402	9.85803
841.295	10.4969
844.188	10.5646
847.08	11.8681
849.973	8.85333
852.866	9.51819
855.759	7.3869
858.651	12.3765
861.544	6.82251
864.437	7.30231
867.329	9.00922
870.222	6.87952
873.115	6.92425
876.007	10.5421
878.9	8.52509
881.793	7.24823
884.686	6.24561
887.578	2.44604
890.471	3.35992
893.364	5.66901
896.256	2.05975
899.149	0.881653
902.042	2.43524
904.934	0.856567
907.827	3.66736
910.72	0.935181
913.612	0.609741
916.505	2.7052
919.398	4.7912
922.291	0.646545
925.183	3.01526
928.076	0.789856
930.969	0.083923
933.861	1.9696
936.754	0.692322
939.647	0.920776
942.539	0.008118
945.432	0.156067
948.325	2.1264
951.218	1.94257
954.11	3.67773
957.003	1.69147
959.896	4.87378
962.788	5.95343
965.681	5.01166
968.574	8.32165
971.466	5.15546
974.359	6.68549
977.252	11.1934
980.145	13.0446
983.037	23.8248
985.93	37.4831
988.823	52.8193
991.715	31.1841
994.608	20.4969
997.501	6.37567
1000.39	7.39618
1003.29	3.8299
1006.18	4.70929
1009.07	2.92462
1011.96	3.41016
1014.86	0.0177
1017.75	1.48444
1020.64	2.34808
1023.53	1.65076
1026.43	2.03717
1029.32	0.111694
1032.21	3.29443
1035.11	3.49707
1038	0.314819
1040.89	5.05402
1043.78	2.7655
1046.68	1.8631
1049.57	3.00726
1052.46	3.94373
1055.36	6.28009
1058.25	5.94311
1061.14	4.63007
1064.03	4.0484
1066.93	3.85046
1069.82	4.09552
1072.71	3.37183
1075.6	1.15912
1078.5	3.92267
1081.39	4.70075
1084.28	4.52533
1087.17	3.0683
1090.07	4.04059
1092.96	6.31689
1095.85	5.2323
1098.74	0.496948
1101.64	2.34119
1104.53	1.76727
1107.42	0.197449
1110.32	3.80994
1113.21	0.377502
1116.1	2.58575
1118.99	1.93164
1121.89	3.77606
1124.78	1.28088
1127.67	4.93927
1130.57	5.547
1133.46	6.1416
1136.35	6.81824
1139.24	8.39008
1142.14	3.90442
1145.03	4.66309
1147.92	3.57037
1150.81	2.87036
1153.71	0.143005
1156.6	0.074829
1159.49	2.21368
1162.38	2.71021
1165.28	2.55817
1168.17	3.51508
1171.06	1.42151
1173.96	4.3595
1176.85	3.48865
1179.74	3.89417
1182.63	2.68774
1185.53	6.70233
1188.42	6.19763
1191.31	5.19647
1194.2	8.93835
1197.1	3.94891
1199.99	5.82147
1202.88	7.91071
1205.78	5.62268
1208.67	4.89429
1211.56	4.92908
1214.45	4.94183
1217.35	2.50153
1220.24	2.73144
1223.13	2.23395
1226.02	4.10498
1228.92	2.68829
1231.81	4.62659
1234.7	4.87653
1237.6	7.15845
1240.49	4.10309
1243.38	0.973877
1246.27	4.18628
1249.17	3.71179
1252.06	7.20105
1254.95	6.98553
1257.84	6.97961
1260.74	4.69782
1263.63	4.39545
1266.52	4.02795
1269.41	1.07001
1272.31	3.41681
1275.2	0.145447
1278.09	3.92999
1280.98	0.09436
1283.88	2.61664
