Measurement: Raman, 532 nm, unoriented, Raman Data Processed
Mineral: Cryolithionite
Rruff sample: R080051
Ideal chemistry: Na_3_Al_2_(LiF_4_)_3_
Locality: Zapot mine, Zapot amazonite-topaz-zinnwaldite pegmatite, Gillis Range, Mineral Co., Nevada, USA
Source: Michael Scott
Description: Vitreous colorless fragment
Raman shift (cm-1)	intensity
93.8848	0
97.2596	0.395079
100.634	0.160434
104.009	2.97135
107.384	7.74841
110.759	7.60821
114.134	11.7406
117.508	16.359
120.883	16.3636
124.258	18.9211
127.633	18.6511
131.008	23.5692
134.383	23.9051
137.757	29.2115
141.132	30.8891
144.507	29.0737
147.882	25.1073
151.257	20.5857
154.631	20.7845
158.006	21.0415
161.381	22.954
164.756	19.0661
168.131	16.7711
171.506	14.0552
174.88	11.003
178.255	8.36816
181.63	9.75135
185.005	10.0549
188.38	12.748
191.754	11.1828
195.129	11.6754
198.504	10.865
201.879	14.0622
205.254	13.4227
208.629	8.76623
212.003	5.04109
215.378	3.79322
218.753	3.35747
222.128	2.91798
225.503	3.41655
228.877	2.47744
232.252	1.6735
235.627	1.31091
239.002	1.77077
242.377	0.965458
245.751	0.95377
249.126	0.909405
252.501	0.597939
255.876	0.254574
259.251	0.17506
262.626	0.71851
266	0.172005
269.375	0.323639
272.75	0.078686
276.125	0.823296
279.5	0.958828
282.875	0.310646
286.249	0.668118
289.624	0.203003
292.999	0.151779
296.374	1.37472
299.748	2.07284
303.123	2.33042
306.498	5.18924
309.873	5.52523
313.248	6.81758
316.623	8.73236
319.997	11.1708
323.372	13.791
326.747	18.9887
330.122	24.7038
333.497	36.41
336.872	50.8132
340.246	71.2366
343.621	100.412
346.996	138.537
350.371	172.882
353.746	184.653
357.12	147.263
360.495	96.6513
363.87	59.0584
367.245	40.2493
370.62	35.4732
373.995	40.1523
377.369	52.6868
380.744	78.4228
384.119	118.242
387.494	146.706
390.869	149.225
394.243	127.809
397.618	79.1713
400.993	45.0324
404.368	26.8484
407.743	18.8243
411.118	14.0368
414.492	12.2323
417.867	7.21815
421.242	5.13232
424.617	3.21412
427.991	1.59687
431.366	0.776417
434.741	0.53767
438.116	0.800407
441.491	0.026848
444.866	0.852203
448.24	0.634647
451.615	0.507389
454.99	0.629238
458.365	0.181747
461.74	1.26669
465.115	1.0607
468.489	0.374237
471.864	0.8815
475.239	0.83329
478.614	0.917999
481.989	2.18222
485.363	3.23728
488.738	3.77653
492.113	5.10148
495.488	6.03536
498.863	7.38251
502.238	9.7889
505.612	12.0696
508.987	13.2791
512.362	15.8217
515.737	19.9263
519.112	23.2025
522.486	29.2654
525.861	34.1873
529.236	43.512
532.611	55.0023
535.986	69.1522
539.361	91.2425
542.735	121.387
546.11	169.361
549.485	244.917
552.86	360.885
556.235	526.548
559.609	774.173
562.984	1105.61
566.359	1285.35
569.734	995.98
573.109	559.579
576.484	299.598
579.858	171.783
583.233	105.135
586.608	67.0287
589.983	43.7404
593.357	29.2746
596.732	19.7299
600.107	13.049
603.482	9.61999
606.857	5.56872
610.232	2.50815
613.606	0.832352
616.981	0.385612
620.356	0.055984
623.731	0.425926
627.106	0.709923
630.481	0.890793
633.855	0.629848
637.23	0.460583
640.605	0.457546
643.98	0.364956
647.355	0.25325
650.729	0.108593
654.104	0.386822
657.479	1.08107
660.854	1.62968
664.229	1.57772
667.604	1.44574
670.978	2.26767
674.353	1.81169
677.728	3.01508
681.103	3.03042
684.478	3.11349
687.852	1.76905
691.227	3.1458
694.602	2.65787
697.977	1.78704
701.352	1.17092
704.726	0.975021
708.101	2.16736
711.476	1.21288
714.851	1.03119
718.226	1.64085
721.601	1.49126
724.975	1.07207
728.35	0.789764
731.725	0.605927
735.1	0.704765
738.475	1.63416
741.849	1.36902
745.224	0.656929
748.599	0.452766
751.974	0.199341
755.349	0.523293
758.723	1.4428
762.098	0.211113
765.473	0.860794
768.848	0.645859
772.223	1.13927
775.598	0.410919
778.972	0.20462
782.347	0.265709
785.722	0.749153
789.097	1.01238
792.472	0.740898
795.846	0.67115
799.221	0.522179
802.596	0.927879
805.971	1.32018
809.346	1.4867
812.721	1.157
816.095	1.14505
819.47	0.199898
822.845	0.298683
826.22	0.663834
829.595	0.871826
832.97	0.008972
836.344	0.231323
839.719	1.48886
843.094	0.811836
846.469	0.34185
849.844	0.956566
853.218	0.812614
856.593	0.00499
859.968	0.591499
863.343	0.669579
866.718	0.175606
870.092	0.523239
873.467	1.29155
876.842	0.849464
880.217	1.02251
883.592	0.968124
886.967	0.311905
890.341	0.408432
893.716	0.375374
897.091	0.171211
900.466	0.558716
903.841	0.88781
907.216	0.789795
910.59	0.534698
913.965	0.524727
917.34	0.57074
920.715	0.638611
924.09	0.258347
927.464	0.7593
930.839	0.508774
934.214	0.007149
937.589	0.893944
940.964	0.722061
944.338	0.59549
947.713	0.671318
951.088	1.16482
954.463	0.629753
957.838	1.18276
961.212	0.952911
964.587	0.929985
967.962	0.968925
971.337	1.36414
974.712	1.201
978.087	0.876801
981.461	1.12617
984.836	0.526306
988.211	1.19914
991.586	0.873024
994.961	1.3304
998.335	1.86537
1001.71	1.44123
1005.09	1.83628
1008.46	1.36071
1011.84	0.511894
1015.21	0.182892
1018.58	1.10535
1021.96	0.121368
1025.33	0.457352
1028.71	1.11676
1032.08	1.19224
1035.46	1.30645
1038.83	1.75221
1042.21	1.42448
1045.58	1.62511
1048.96	1.28845
1052.33	0.379517
1055.71	1.18928
1059.08	0.956131
1062.46	0.13031
1065.83	0.924782
1069.21	0.977562
1072.58	0.553497
1075.96	1.234
1079.33	0.984077
1082.71	0.479988
1086.08	1.18874
1089.45	1.16864
1092.83	0.084549
1096.2	0.609108
1099.58	1.21916
1102.95	1.39648
1106.33	1.04774
1109.7	1.04885
1113.08	1.27947
1116.45	0.340164
1119.83	0.653618
1123.2	0.585846
1126.58	0.025726
1129.95	1.02489
1133.33	0.242302
1136.7	0.706314
1140.08	0.866714
1143.45	0.202965
1146.83	0.114098
1150.2	0.32048
1153.58	0.492737
1156.95	1.51218
1160.33	0.076828
1163.7	1.3716
1167.08	1.10237
1170.45	0.711128
1173.83	0.93679
1177.2	1.08668
1180.58	1.16828
1183.95	1.80382
1187.33	0.682358
1190.7	0.593361
1194.08	0.617264
1197.45	0.677307
1200.82	1.57446
1204.2	1.161
1207.57	0.465637
1210.95	0.665512
1214.32	0.310959
1217.7	0.31749
1221.07	0.782089
1224.45	1.48766
1227.82	0.841873
1231.2	1.08079
1234.57	0.762543
1237.95	0.307495
1241.32	1.04085
1244.7	0.554474
1248.07	1.43022
1251.45	0.426285
1254.82	0.740723
1258.2	0.86055
1261.57	0.661102
1264.95	1.94878
1268.32	0.653351
1271.7	1.22005
1275.07	1.29372
1278.44	1.38275
1281.82	0.889282
1285.19	0.713318
1288.57	1.10681
1291.94	1.83157
1295.32	1.49074
1298.69	0.935577
1302.07	0.996674
1305.44	0
