Measurement: Raman, 532 nm, unoriented, Raman Data Processed
Mineral: Cryolite
Rruff sample: R050287
Ideal chemistry: Na_3_AlF_6_
Locality: Ivigtut, Greenland
Source: Marcus Origlieri
Description: Colorless fragment
Measured chemistry: Na_3.00_Al_1.00_F_6.00_
Raman shift (cm-1)	intensity
92.3535	0
95.7283	0.578775
99.1031	0.243925
102.478	0.102151
105.853	0.732115
109.228	1.26914
112.602	1.97911
115.977	4.24597
119.352	7.2405
122.727	7.46102
126.102	8.56101
129.476	10.0393
132.851	11.7241
136.226	10.3298
139.601	10.6467
142.976	8.21732
146.351	7.20384
149.725	7.13395
153.1	7.48188
156.475	7.68189
159.85	7.95978
163.225	7.76733
166.6	7.53625
169.974	6.43849
173.349	5.54559
176.724	3.98488
180.099	4.01379
183.474	3.89977
186.848	3.55265
190.223	3.25307
193.598	3.15289
196.973	3.18054
200.348	2.70759
203.722	2.64806
207.097	2.38525
210.472	2.28156
213.847	1.85011
217.222	1.17379
220.597	0.86496
223.971	0.912023
227.346	0.940636
230.721	0.852721
234.096	0.568098
237.471	0.671946
240.845	0.197371
244.22	0.487847
247.595	0.206451
250.97	0.530938
254.345	0.209235
257.719	0.637986
261.094	0.067275
264.469	0.479782
267.844	0.21186
271.219	0.483631
274.594	0.43777
277.968	0.281628
281.343	0.098204
284.718	0.396986
288.093	0.093433
291.468	0.048807
294.842	0.565182
298.217	0.203142
301.592	0.432898
304.967	1.39405
308.342	1.92333
311.717	2.34276
315.091	4.35372
318.466	5.41315
321.841	7.66295
325.216	10.3195
328.591	13.5987
331.966	16.8905
335.34	20.462
338.715	20.0827
342.09	18.6458
345.465	16.5263
348.84	13.2517
352.214	9.50852
355.589	5.75616
358.964	3.58139
362.339	2.4363
365.714	1.61119
369.089	2.51299
372.463	2.73465
375.838	4.98235
379.213	8.04556
382.588	12.1143
385.963	19.2454
389.337	25.4436
392.712	28.55
396.087	24.8676
399.462	18.8944
402.837	11.9963
406.212	7.65433
409.586	4.56657
412.961	2.86828
416.336	1.51829
419.711	0.456308
423.086	0.349932
426.46	0.199154
429.835	0.058004
433.21	0.249645
436.585	0.243866
439.96	0.00182
443.334	0.291632
446.709	0.324869
450.084	0.276163
453.459	0.205898
456.834	0.127638
460.209	0.210564
463.583	0.053202
466.958	0.243347
470.333	0.574726
473.708	0.894611
477.083	0.269747
480.457	0.23205
483.832	1.07111
487.207	0.728714
490.582	1.40705
493.957	1.15206
497.332	1.83773
500.706	1.65454
504.081	2.42014
507.456	2.82727
510.831	3.30061
514.206	3.76938
517.58	5.44928
520.955	6.41289
524.33	8.98214
527.705	10.6692
531.08	15.2216
534.455	22.6868
537.829	35.2966
541.204	53.2251
544.579	81.6382
547.954	122.993
551.329	170.766
554.703	166.357
558.078	98.7801
561.453	49.116
564.828	25.8742
568.203	15.2624
571.577	9.291
574.952	6.21927
578.327	3.96041
581.702	3.09094
585.077	1.65012
588.452	1.06543
591.826	0.274097
595.201	0.702522
598.576	0.336733
601.951	0.254192
605.326	0.089062
608.7	0.096994
612.075	0.100756
615.45	0.564037
618.825	0.122347
622.2	0.204239
625.574	0.047611
628.949	0.538126
632.324	0.451916
635.699	0.241224
639.074	0.321571
642.449	0.444021
645.823	0.936792
649.198	0.446722
652.573	0.804382
655.948	0.997652
659.323	0.468145
662.697	0.863726
666.072	0.649693
669.447	0.663481
672.822	0.558018
676.197	0.659527
679.572	0.31002
682.946	0.75428
686.321	0.322025
689.696	0.265594
693.071	0.159779
696.446	0.272812
699.821	0.007011
703.195	0.489836
706.57	0.120838
709.945	0.540138
713.32	0.767696
716.695	0.690676
720.069	0.77038
723.444	0.409939
726.819	0.861786
730.194	0.610758
733.569	0.647903
736.943	0.658819
740.318	0.425512
743.693	0.52774
747.068	0.592197
750.443	0.808313
753.818	0.344315
757.192	0.177771
760.567	0.42012
763.942	0.27949
767.317	0.1597
770.692	0.610207
774.067	0.265125
777.441	0.007084
780.816	0.202799
784.191	0.669657
787.566	0.315891
790.941	0.852982
794.315	0.921391
797.69	0.251963
801.065	0.612261
804.44	0.368469
807.815	0.643478
811.189	0.618814
814.564	0.670025
817.939	0.948397
821.314	0.354317
824.689	0.354198
828.063	0.52363
831.438	0.047091
834.813	0.904999
838.188	0.429756
841.563	0.372845
844.938	0.595676
848.312	1.14806
851.687	0.516655
855.062	0.117672
858.437	0.4058
861.812	0.621496
865.187	0.043249
868.561	0.53894
871.936	0.322041
875.311	0.274881
878.686	0.685263
882.061	0.015327
885.435	0.214687
888.81	0.794634
892.185	0.997293
895.56	0.348116
898.935	0.325909
902.309	1.14027
905.684	0.933405
909.059	0.253939
912.434	0.052832
915.809	0.368763
919.184	0.143557
922.558	0.050129
925.933	0.67206
929.308	0.343235
932.683	1.05273
936.058	0.330042
939.433	0.956324
942.807	0.94787
946.182	0.110655
949.557	0.150444
952.932	0.283873
956.307	0.406342
959.681	0.930166
963.056	0.749676
966.431	0.573044
969.806	0.148373
973.181	0.460003
976.556	0.717276
979.93	1.33373
983.305	0.560606
986.68	1.05494
990.055	1.02058
993.43	0.645329
996.804	0.55335
1000.18	0.564026
1003.55	0.084555
1006.93	0.855947
1010.3	0.71559
1013.68	0.405464
1017.05	0.758537
1020.43	0.170439
1023.8	0.18368
1027.18	0.453979
1030.55	0.732304
1033.93	0.889568
1037.3	0.434591
1040.68	1.56687
1044.05	0.511635
1047.43	0.445601
1050.8	1.11549
1054.18	1.09095
1057.55	0.417635
1060.93	0.50845
1064.3	0.959654
1067.68	0.297819
1071.05	0.280575
1074.42	0.326019
1077.8	0.742214
1081.17	0.854628
1084.55	0.74305
1087.92	0.572084
1091.3	0.388397
1094.67	0.282085
1098.05	0.970465
1101.42	0.375803
1104.8	0.127676
1108.17	0.779547
1111.55	0.240417
1114.92	0.637367
1118.3	0.308462
1121.67	0.653444
1125.05	0.438618
1128.42	0.443157
1131.8	0.427141
1135.17	0.26844
1138.55	0.314405
1141.92	0.491707
1145.3	0.217911
1148.67	0.580296
1152.05	0.049681
1155.42	0.085819
1158.8	0.647345
1162.17	0.3062
1165.55	0.310459
1168.92	0.536913
1172.3	0.595945
1175.67	0.108559
1179.04	0.537531
1182.42	0.550964
1185.79	0.562731
1189.17	1.4707
1192.54	0.082926
1195.92	0.832411
1199.29	0.442963
1202.67	0.497149
1206.04	0.42709
1209.42	0.548412
1212.79	0.300747
1216.17	0.419962
1219.54	0.287901
1222.92	0.714359
1226.29	0.068588
1229.67	0.103666
1233.04	0.796867
1236.42	0.530455
1239.79	0.431984
1243.17	0.295984
1246.54	0.518578
1249.92	0.373789
1253.29	0.665489
1256.66	0.689064
1260.04	0.713305
1263.41	0.194336
1266.79	0.40943
1270.16	0.615299
1273.54	0.772062
1276.91	0.383873
1280.29	0.105064
1283.66	0.786894
1287.04	1.01531
1290.41	0.569839
1293.79	0.85223
1297.16	0.172081
1300.54	0.671722
1303.91	0.138933
