Measurement: Raman, 532 nm, unoriented, Raman Data Processed
Mineral: Cryolite
Rruff sample: R120027
Ideal chemistry: Na_3_AlF_6_
Locality: Francon quarry, Montréal, Québec, Canada
Source: Donald Doell
Description: Pale brownish-yellow massive
Raman shift (cm-1)	intensity
222.11	0
225.003	4.53015
227.895	7.94098
230.788	4.22812
233.681	3.73209
236.573	5.00891
239.466	8.00946
242.359	5.75699
245.252	2.92584
248.144	4.49567
251.037	7.19428
253.93	3.24667
256.822	4.12933
259.715	8.81195
262.608	5.01944
265.5	3.64114
268.393	3.47382
271.286	3.40213
274.179	6.96002
277.071	5.37155
279.964	3.86957
282.857	0.684052
285.75	0.144562
288.642	0.800262
291.535	0.602325
294.428	0.793091
297.32	0.379272
300.213	0.524689
303.106	1.11746
305.998	3.35312
308.891	4.93652
311.784	5.98004
314.676	4.94629
317.569	8.97275
320.462	9.5603
323.355	15.4676
326.247	18.6057
329.14	28.8091
332.033	39.7854
334.925	51.1596
337.818	61.7416
340.711	68.2014
343.603	68.6978
346.496	56.6656
349.389	40.7045
352.282	28.1237
355.174	22.4947
358.067	15.6427
360.96	10.4852
363.852	8.86401
366.745	4.96429
369.638	6.09119
372.531	11.3097
375.423	6.54651
378.316	12.445
381.209	16.674
384.101	23.8449
386.994	35.1309
389.887	47.5063
392.779	54.579
395.672	60.0133
398.565	56.428
401.457	45.5823
404.35	32.6329
407.243	21.0477
410.136	10.447
413.028	11.0809
415.921	5.97021
418.814	1.80505
421.706	2.77423
424.599	0.428772
427.492	1.32544
430.385	1.11444
433.277	0.128479
436.17	0.517578
439.063	0.068298
441.955	1.29242
444.848	2.00702
447.741	4.1546
450.633	2.4776
453.526	1.38867
456.419	4.91168
459.312	1.25836
462.204	2.09723
465.097	0.059753
467.99	1.61169
470.882	1.83514
473.775	1.35205
476.668	0.895203
479.56	2.31329
482.453	2.95728
485.346	3.44098
488.238	2.10345
491.131	3.72076
494.024	4.05304
496.917	5.63043
499.809	6.43121
502.702	7.09204
505.595	4.52466
508.487	6.85974
511.38	10.9445
514.273	12.0958
517.165	13.5323
520.058	16.3165
522.951	20.3957
525.844	35.0278
528.736	38.1004
531.629	52.1018
534.522	70.5305
537.414	102.526
540.307	152.608
543.2	219.833
546.092	316.284
548.985	458.628
551.878	590.531
554.771	594.849
557.663	407.137
560.556	227.017
563.449	134.577
566.341	84.9622
569.234	61.8922
572.127	40.6833
575.019	30.5205
577.912	22.5702
580.805	16.5973
583.698	14.139
586.59	14.2724
589.483	9.21344
592.376	5.72375
595.268	8.42963
598.161	5.46533
601.054	1.90283
603.947	0.292297
606.839	0.262329
609.732	0.160522
612.625	0.17334
615.517	0.286377
618.41	3.12189
621.303	2.06421
624.195	1.61334
627.088	3.17981
629.981	0.363708
632.874	2.40112
635.766	2.6236
638.659	3.06604
641.552	1.87897
644.444	0.145264
647.337	2.25122
650.23	2.06677
653.122	1.45429
656.015	2.72345
658.908	4.79578
661.801	4.13306
664.693	4.11151
667.586	0.217102
670.479	1.77887
673.371	1.32312
676.264	5.56653
679.157	2.80572
682.049	5.16455
684.942	7.2724
687.835	5.46393
690.727	6.95606
693.62	6.34467
696.513	6.92957
699.406	2.36292
702.298	0.908325
705.191	2.31213
708.084	4.2074
710.976	4.14545
713.869	3.05951
716.762	0.872009
719.654	0.421753
722.547	0.012146
725.44	2.29907
728.333	5.55548
731.225	3.28888
734.118	2.38489
737.011	0.227112
739.903	1.98901
742.796	2.01001
745.689	1.52405
748.582	1.53552
751.474	3.77112
754.367	3.09228
757.26	3.95569
760.152	1.46094
763.045	3.57086
765.938	3.43573
768.83	3.94543
771.723	1.33759
774.616	2.87408
777.509	3.64801
780.401	1.5766
783.294	0.409668
786.187	0.152466
789.079	0.355957
791.972	4.56079
794.865	3.33563
797.757	2.78729
800.65	1.10156
803.543	0.313232
806.436	2.27246
809.328	4.24628
812.221	4.10583
815.114	4.84015
818.006	2.79462
820.899	5.0274
823.792	6.77972
826.684	3.30933
829.577	6.3797
832.47	8.28046
835.362	6.29364
838.255	5.39142
841.148	9.67468
844.041	14.1041
846.933	14.2715
849.826	17.5795
852.719	21.2147
855.611	12.8882
858.504	17.6472
861.397	8.18945
864.289	9.11938
867.182	4.28894
870.075	2.0014
872.968	3.58881
875.86	5.00446
878.753	3.06421
881.646	2.79187
884.538	4.28192
887.431	5.53473
890.324	6.15387
893.216	0.438904
896.109	2.13617
899.002	1.05634
901.895	3.16168
904.787	0.585266
907.68	1.53699
910.573	3.43164
913.465	1.3678
916.358	1.8468
919.251	1.31
922.144	0.092224
925.036	2.66553
927.929	4.70081
930.822	3.68585
933.714	0.663879
936.607	0.240051
939.5	0.824158
942.392	0.832214
945.285	2.97412
948.178	4.65997
951.071	4.03455
953.963	6.46014
956.856	8.01617
959.749	8.39105
962.641	13.93
965.534	20.3384
968.427	26.3906
971.319	19.5364
974.212	12.2411
977.105	11.2008
979.997	12.4681
982.89	17.2656
985.783	27.4482
988.676	43.4232
991.568	33.1063
994.461	19.506
997.354	12.5441
1000.25	8.28589
1003.14	3.50543
1006.03	2.12769
1008.92	3.97528
1011.82	3.3053
1014.71	0.507446
1017.6	2.17737
1020.5	0.933594
1023.39	5.03082
1026.28	1.41742
1029.17	3.46576
1032.07	1.3045
1034.96	8.50226
1037.85	3.81201
1040.74	8.00311
1043.64	5.44922
1046.53	6.95947
1049.42	15.4521
1052.32	17.6946
1055.21	22.0774
1058.1	15.676
1060.99	9.81128
1063.89	6.89252
1066.78	3.18909
1069.67	4.40558
1072.56	4.00134
1075.46	2.28162
1078.35	0.819336
1081.24	1.75641
1084.13	3.76392
1087.03	3.55176
1089.92	0.56134
1092.81	2.52893
1095.71	3.95123
1098.6	6.06433
1101.49	3.20905
1104.38	0.721558
1107.28	3.62726
1110.17	2.68219
1113.06	3.65375
1115.95	6.12732
1118.85	0.814209
1121.74	4.34357
1124.63	3.38666
1127.53	5.93274
1130.42	3.07965
1133.31	2.84845
1136.2	6.26709
1139.1	5.02911
1141.99	5.11353
1144.88	0.36145
1147.77	4.32745
1150.67	2.75781
1153.56	4.63769
1156.45	5.61755
1159.35	1.87335
1162.24	3.27393
1165.13	4.526
1168.02	1.82568
1170.92	1.50488
1173.81	1.16016
1176.7	2.43176
1179.59	5.02332
1182.49	5.02564
1185.38	3.89429
1188.27	3.86682
1191.16	3.474
1194.06	4.39441
1196.95	2.66223
1199.84	7.63708
1202.73	6.16724
1205.63	3.0022
1208.52	6.80969
1211.41	8.14502
1214.31	7.80457
1217.2	4.56079
1220.09	1.7832
1222.98	4.19299
1225.88	4.35938
1228.77	3.51538
1231.66	5.35864
1234.56	0.328491
1237.45	1.06299
1240.34	3.27624
1243.23	9.65625
1246.13	8.2085
1249.02	6.41113
1251.91	5.67871
1254.8	2.29468
1257.7	6.64465
1260.59	2.36084
1263.48	4.87305
1266.38	5.21289
1269.27	5.62524
1272.16	4.62219
1275.05	9.42615
1277.95	2.80786
1280.84	0.477661
1283.73	1.81616
