Measurement: Raman, 780 nm, unoriented, Raman Data Processed
Mineral: Cryolite
Rruff sample: R120026
Ideal chemistry: Na_3_AlF_6_
Locality: Francon quarry, Montréal, Québec, Canada
Source: Donald Doell
Description: Colorless, pseudo-octahedral crystals
Raman shift (cm-1)	intensity
101.246	2.61473
104.621	5.28462
107.996	4.10246
111.37	0.66655
114.745	0.837753
118.12	4.02272
121.495	6.37782
124.87	9.58212
128.244	12.3095
131.619	11.0164
134.994	3.60322
138.369	3.0638
141.744	1.50715
145.119	1.46729
148.493	0.010162
151.868	2.65057
155.243	7.94614
158.618	12.7459
161.993	16.6496
165.367	17.3245
168.742	14.0246
172.117	11.1079
175.492	8.18984
178.867	7.3326
182.242	5.37815
185.616	7.00169
188.991	4.58053
192.366	7.22189
195.741	10.0117
199.115	9.45665
202.49	10.1401
205.865	7.47543
209.24	7.36295
212.615	8.60395
215.99	4.57317
219.364	4.08521
222.739	6.77412
226.114	5.37411
229.489	7.46249
232.864	9.67963
236.238	6.26736
239.613	6.76368
242.988	5.81329
246.363	5.04358
249.738	3.22897
253.113	4.40163
256.487	1.70222
259.862	0.283867
263.237	1.43237
266.612	0.547718
269.987	1.52469
273.361	0.547649
276.736	0.741745
280.111	0.481304
283.486	0.102871
286.861	0.572453
290.236	1.75198
293.61	0.304054
296.985	1.41993
300.36	0.243492
303.735	2.3095
307.11	4.71775
310.485	6.23239
313.859	8.51982
317.234	10.5059
320.609	13.9947
323.984	19.6984
327.359	22.7373
330.733	32.2797
334.108	44.2978
337.483	57.9292
340.858	73.7812
344.233	80.464
347.608	69.1279
350.982	53.9598
354.357	35.9077
357.732	21.4965
361.107	13.565
364.482	7.34343
367.856	4.63976
371.231	4.31478
374.606	8.72456
377.981	12.98
381.356	19.5512
384.731	33.4507
388.105	54.1716
391.48	65.3165
394.855	68.2525
398.23	64.9697
401.605	53.2218
404.979	33.2603
408.354	20.5041
411.729	8.77442
415.104	7.83324
418.479	4.05283
421.853	2.14278
425.228	0.217125
428.603	1.33822
431.978	0.909355
435.353	0.397339
438.728	0.875153
442.102	2.22179
445.477	0.617409
448.852	1.33253
452.227	0.429668
455.602	0.731781
458.976	0.240993
462.351	0.246822
465.726	0.444107
469.101	0.21759
472.476	2.32497
475.851	0.744881
479.225	2.43051
482.6	4.02397
485.975	5.38682
489.35	6.28328
492.725	6.43391
496.099	4.23488
499.474	5.51706
502.849	9.20401
506.224	10.2875
509.599	11.2935
512.973	15.0566
516.348	17.8129
519.723	22.0999
523.098	26.2325
526.473	37.8255
529.848	46.5786
533.222	65.4713
536.597	95.7351
539.972	145.301
543.347	233.58
546.722	392.389
550.096	641.743
553.471	791.703
556.846	544.905
560.221	271.979
563.596	137.159
566.971	75.6172
570.345	47.9987
573.72	28.269
577.095	18.5123
580.47	13.2248
583.845	7.31268
587.22	1.30943
590.594	3.61191
593.969	2.5382
597.344	2.1036
600.719	1.25035
604.094	0.220993
607.468	0.324795
610.843	0.37685
614.218	0.255386
617.593	0.304855
620.968	0.54734
624.342	1.13094
627.717	0.228802
631.092	0.248413
634.467	0.847118
637.842	0.432194
641.217	1.4017
644.591	2.18781
647.966	2.49792
651.341	1.57174
654.716	2.97701
658.091	1.70126
661.466	3.91488
664.84	2.67884
668.215	3.57041
671.59	1.74293
674.965	3.57173
678.34	1.87563
681.714	1.83755
685.089	1.98211
688.464	2.43122
691.839	1.00949
695.214	0.811817
698.588	0.994987
701.963	1.67932
705.338	1.23644
708.713	2.58021
712.088	1.0731
715.463	2.65924
718.837	1.52438
722.212	1.97584
725.587	1.4607
728.962	1.33245
732.337	0.659832
735.712	1.14883
739.086	1.64428
742.461	3.30747
745.836	1.76219
749.211	2.5242
752.586	2.00364
755.96	0.581165
759.335	1.84883
762.71	1.37182
766.085	2.94218
769.46	0.0429
772.835	1.21502
776.209	1.79168
779.584	1.87586
782.959	2.31613
786.334	0.359859
789.709	1.19086
793.083	0.01281
796.458	2.0746
799.833	3.32229
803.208	1.03648
806.583	2.61198
809.957	3.46321
813.332	2.64129
816.707	2.83844
820.082	1.65049
823.457	1.31685
826.832	1.58011
830.206	0.533882
833.581	0.757454
836.956	2.64409
840.331	2.03053
843.706	1.77982
847.08	2.73494
850.455	1.40095
853.83	0.558941
857.205	2.17063
860.58	1.25119
863.955	0.703186
867.329	1.32567
870.704	1.27796
874.079	2.41428
877.454	1.06824
880.829	2.54451
884.203	0.77623
887.578	2.93311
890.953	1.93085
894.328	0.037586
897.703	1.49625
901.077	0.368168
904.452	1.72187
907.827	0.843903
911.202	2.50199
914.577	2.4745
917.952	2.21508
921.326	0.695232
924.701	1.66645
928.076	0.346001
931.451	1.23677
934.826	3.90982
938.201	1.74257
941.575	4.12995
944.95	3.25498
948.325	2.83549
951.7	2.45954
955.075	2.75672
958.449	2.31584
961.824	2.14128
965.199	1.73222
968.574	1.936
971.949	1.04575
975.323	1.57968
978.698	1.91348
982.073	1.58055
985.448	3.06235
988.823	1.06065
992.198	2.73819
995.572	2.68004
998.947	0.538445
1002.32	1.74525
1005.7	2.80905
1009.07	0.570156
1012.45	0.51524
1015.82	0.943115
1019.2	1.38847
1022.57	0.930916
1025.95	0.814568
1029.32	2.03313
1032.69	3.3282
1036.07	1.33029
1039.44	3.17422
1042.82	2.7379
1046.19	0.979637
1049.57	1.39776
1052.94	2.60103
1056.32	1.92956
1059.69	1.43589
1063.07	1.56641
1066.44	2.22316
1069.82	2.03401
1073.19	1.57267
1076.57	1.41505
1079.94	2.61958
1083.32	1.81917
1086.69	3.26046
1090.07	0.045837
1093.44	1.70826
1096.82	2.50968
1100.19	0.907898
1103.57	0.124775
1106.94	1.99519
1110.32	0.188023
1113.69	2.1149
1117.07	1.55282
1120.44	1.0313
1123.82	0.333778
1127.19	0.476402
1130.57	1.37624
1133.94	1.30554
1137.32	1.24774
1140.69	1.32224
1144.06	1.04105
1147.44	0.241058
1150.81	1.35859
1154.19	0.718391
1157.56	1.71832
1160.94	2.66197
1164.31	1.66847
1167.69	2.89186
1171.06	1.47294
1174.44	2.18849
1177.81	2.86462
1181.19	2.40856
1184.56	1.16149
1187.94	1.82344
1191.31	3.45458
1194.69	3.61667
1198.06	2.56871
1201.44	2.39675
1204.81	1.41467
1208.19	2.9328
1211.56	4.65763
1214.94	0.217133
1218.31	3.44405
1221.68	1.84089
1225.06	1.85631
1228.43	5.2096
1231.81	1.05058
1235.18	3.01565
1238.56	2.70474
1241.93	1.64935
1245.31	3.02446
1248.68	3.36512
1252.06	1.77614
1255.43	1.955
1258.81	0.672379
1262.18	1.31328
1265.56	0.734848
1268.93	1.40487
1272.31	1.06442
1275.68	3.49052
1279.06	1.54707
1282.43	0.013325
1285.81	0
