Measurement: Raman, 514 nm, unoriented, Raman Data Processed
Mineral: Cryolite
Rruff sample: R050287
Ideal chemistry: Na_3_AlF_6_
Locality: Ivigtut, Greenland
Source: Marcus Origlieri
Description: Colorless fragment
Measured chemistry: Na_3.00_Al_1.00_F_6.00_
Raman shift (cm-1)	intensity
80.823	0
85.009	160.585
89.193	472.339
93.375	637.776
97.554	306.382
101.732	114.456
105.908	115.479
110.082	104.442
114.254	242.734
118.424	316.653
122.592	508.041
126.758	661.716
130.922	838.508
135.083	614.105
139.243	510.164
143.401	272.73
147.557	286.976
151.711	247.011
155.863	221.002
160.013	306.218
164.161	426.979
168.308	333.973
172.452	345.836
176.594	278.748
180.734	229.074
184.872	305.418
189.008	264.083
193.143	332.134
197.275	383.538
201.405	399.269
205.534	529.303
209.66	417.604
213.784	169.126
217.907	123.845
222.027	8.755
226.146	4.857
230.263	31.151
234.377	21.643
238.49	13.677
242.601	3.19
246.709	24.884
250.816	46.462
254.921	53.129
259.024	34.742
263.125	44.683
267.224	69.146
271.321	26.293
275.416	18.174
279.51	35.834
283.601	5.67
287.69	0.705
291.778	65.005
295.863	69.786
299.947	103.923
304.029	108.511
308.108	231.468
312.186	402.496
316.262	571.614
320.336	831.798
324.408	1359.04
328.478	2107.26
332.546	3269.33
336.612	3502.23
340.677	2915.97
344.739	2263.69
348.799	1654.02
352.858	1102.25
356.915	716.231
360.969	450.343
365.022	401.584
369.073	289.992
373.122	312.545
377.169	446.262
381.215	722.143
385.258	1226.17
389.299	1986.35
393.339	2335.3
397.376	2124.9
401.412	1438.48
405.446	1015.07
409.478	556.178
413.508	351.667
417.536	276.944
421.562	222.855
425.586	184.212
429.609	123.407
433.629	171.806
437.648	110.403
441.665	145.101
445.68	134.458
449.693	105.096
453.704	187.399
457.713	128.791
461.721	204.269
465.726	171.833
469.73	308.506
473.731	355.133
477.731	283.946
481.729	389.84
485.725	599.813
489.72	494.73
493.712	543.646
497.703	635.859
501.691	783.155
505.678	905.565
509.663	1042.49
513.646	1124.03
517.627	1439.92
521.607	1690.63
525.584	2100.31
529.56	2788.15
533.534	3731.82
537.506	5609.2
541.476	9208.46
545.444	16912.4
549.41	31822.1
553.375	40636
557.337	26140.3
561.298	12181.8
565.257	6163.28
569.214	3407.15
573.17	2068.64
577.123	1446.58
581.075	1039.19
585.024	702.65
588.972	587.582
592.918	389.241
596.863	352.183
600.805	253.287
604.746	284.437
608.685	110.642
612.621	133.157
616.557	161.385
620.49	110.646
624.421	50.856
628.351	10.982
632.279	31.227
636.205	30.366
640.129	97.54
644.051	25.36
647.972	6.334
651.89	31.354
655.807	24.595
659.722	72.517
663.636	21.408
667.547	50.222
671.457	11.051
675.365	26.604
679.271	2.218
683.175	43.787
687.077	10.629
690.978	77.649
694.877	67.989
698.774	25.961
702.669	34.177
706.562	96.819
710.454	53.536
714.344	30.762
718.232	2.888
722.118	13.932
726.002	49.22
729.885	35.137
733.766	18.92
737.645	80.545
741.522	85.982
745.397	11.809
749.271	25.154
753.143	79.058
757.013	84.592
760.881	157.49
764.748	30.489
768.613	67.994
772.476	54.872
776.337	101.678
780.196	137.417
784.054	108.205
787.91	136.932
791.764	58.466
795.616	156.929
799.467	123.455
803.316	74.993
807.163	195.248
811.008	120.437
814.851	225.56
818.693	102.56
822.533	176.121
826.371	183.789
830.208	182.663
834.042	171.954
837.875	193.389
841.706	155.757
845.536	175.148
849.363	52.435
853.189	11.361
857.013	107.324
860.836	56.683
864.656	94.509
868.475	46.774
872.292	39.302
876.108	6.036
879.922	98.408
883.733	78.672
887.544	42.404
891.352	20.24
895.159	70.88
898.964	43.496
902.767	29.542
906.568	62.996
910.368	103.158
914.166	58.297
917.962	30.849
921.757	76.194
925.55	133.206
929.341	41.513
933.13	132.515
936.918	49.7
940.703	101.242
944.488	117.144
948.27	87.046
952.051	87.948
955.83	192.086
959.607	59.979
963.383	119.25
967.156	117.471
970.928	79.749
974.699	115.961
978.468	144.197
982.234	72.43
986	212.138
989.763	196.538
993.525	167.251
997.285	231.765
1001.04	267.068
1004.8	147.227
1008.55	113.587
1012.31	218.426
1016.06	104.477
1019.81	132.408
1023.56	129.79
1027.31	252.017
1031.05	185.323
1034.79	307.496
1038.53	124.186
1042.27	267.731
1046.01	183.911
1049.75	199.253
1053.48	234.699
1057.22	314.831
1060.95	170.977
1064.68	119.611
1068.4	283.898
1072.13	173.022
1075.86	243.211
1079.58	126.787
1083.3	24.725
1087.02	39.734
1090.74	109.372
1094.45	114.626
1098.17	209.477
1101.88	37.786
1105.59	121.811
1109.3	0.601
1113.01	30.074
1116.71	30.663
1120.42	144.06
1124.12	93.242
1127.82	51.708
1131.52	62.97
1135.22	9.584
1138.91	35.402
1142.61	82.722
1146.3	59.543
1149.99	10.433
1153.68	120.989
1157.37	2.23
1161.06	108.45
1164.74	21.848
1168.42	84.65
1172.1	126.228
1175.78	64.929
1179.46	167.349
1183.14	145.226
1186.81	78.426
1190.48	209.716
1194.15	89.977
1197.83	117.124
1201.49	23.504
1205.16	133.588
1208.82	49.371
1212.49	77.193
1216.15	130.834
1219.81	79.608
1223.46	28.732
1227.12	97.39
1230.78	145.813
1234.43	142.423
1238.08	135.858
1241.73	141.928
1245.38	82.951
1249.03	30.458
1252.67	89.083
1256.31	144.91
1259.95	143.799
1263.6	132.562
1267.23	105.938
1270.87	40.656
1274.51	75.696
1278.14	1.444
1281.77	126.584
1285.4	137.744
1289.03	94.519
1292.66	7.538
1296.28	59.539
1299.91	66.506
1303.53	11.272
1307.15	90.081
1310.77	91.339
1314.38	16.748
1318	132.329
1321.61	42.715
1325.23	137.949
1328.84	58.226
1332.45	35.684
1336.06	144.202
1339.66	13.056
1343.27	107.837
1346.87	148.728
1350.47	106.933
1354.07	114.415
1357.67	220.003
1361.26	50.088
1364.86	205.905
1368.45	168.167
1372.04	135.624
1375.63	116.999
1379.22	19.835
1382.81	128.045
1386.39	251.111
1389.98	88.365
1393.56	97.523
1397.14	185.667
1400.72	44.631
1404.3	141.757
1407.87	57.402
1411.45	1.106
1415.02	149.048
1418.59	56.562
1422.16	174.953
1425.73	177.359
1429.29	75.17
1432.86	92.3
1436.42	146.138
1439.98	53.044
1443.54	118.402
1447.1	92.755
