Measurement: Raman, 780 nm, unoriented, Raman Data Processed
Mineral: Cryolite
Rruff sample: R050287
Ideal chemistry: Na_3_AlF_6_
Locality: Ivigtut, Greenland
Source: Marcus Origlieri
Description: Colorless fragment
Measured chemistry: Na_3.00_Al_1.00_F_6.00_
Raman shift (cm-1)	intensity
93.4877	0
96.8625	1.25455
100.237	0.424993
103.612	0.511891
106.987	0.78125
110.362	0.18663
113.737	0.033315
117.111	0.1995
120.486	0.489414
123.861	0.661119
127.236	0.864736
130.611	1.32418
133.986	0.90904
137.36	0.667864
140.735	0.500482
144.11	0.148316
147.485	0.667942
150.859	0.342002
154.234	1.29313
157.609	1.73953
160.984	2.01941
164.359	2.33238
167.734	1.91939
171.108	1.53001
174.483	0.75254
177.858	0.524428
181.233	0.396324
184.608	0.682097
187.982	0.532232
191.357	0.805474
194.732	0.686106
198.107	1.04846
201.482	1.40337
204.857	0.967009
208.231	0.81359
211.606	0.620866
214.981	0.241743
218.356	0.406909
221.731	0.328864
225.106	0.222565
228.48	0.130134
231.855	0.457952
235.23	0.049124
238.605	0.28871
241.98	0.219236
245.354	0.278224
248.729	0.007085
252.104	9.2e-05
255.479	0.053858
258.854	0.011111
262.228	0.306612
265.603	0.370613
268.978	0.040021
272.353	0.386587
275.728	0.08959
279.103	0.017125
282.477	0.127987
285.852	0.257999
289.227	0.141664
292.602	0.29243
295.977	0.06706
299.351	0.076677
302.726	0.353508
306.101	0.270907
309.476	0.687161
312.851	0.607907
316.226	0.9266
319.6	1.46981
322.975	1.95421
326.35	2.38124
329.725	3.28687
333.1	4.10497
336.474	4.99122
339.849	5.28945
343.224	5.50252
346.599	5.18245
349.974	4.38557
353.349	3.57442
356.723	2.09378
360.098	1.23975
363.473	0.568502
366.848	0.902969
370.223	1.01959
373.597	1.93115
376.972	2.68854
380.347	3.55729
383.722	5.97389
387.097	8.12178
390.471	10.1955
393.846	10.8622
397.221	10.0419
400.596	8.03222
403.971	5.59179
407.346	3.54724
410.72	2.10174
414.095	1.49639
417.47	0.882896
420.845	0.565046
424.22	0.209189
427.594	0.356048
430.969	0.391544
434.344	0.160389
437.719	0.45857
441.094	0.131293
444.469	0.138923
447.843	0.214082
451.218	0.030341
454.593	0.098283
457.968	0.055073
461.343	0.169739
464.717	0.331936
468.092	0.248653
471.467	0.370212
474.842	0.020074
478.217	0.537265
481.591	0.178561
484.966	0.629848
488.341	0.682374
491.716	0.576845
495.091	0.53004
498.466	0.995373
501.84	1.11492
505.215	1.51294
508.59	1.30486
511.965	1.59014
515.34	1.95256
518.715	2.98746
522.089	3.27335
525.464	4.75353
528.839	6.75816
532.214	10.5492
535.589	14.9353
538.963	20.9453
542.338	30.2169
545.713	43.6025
549.088	65.1071
552.463	83.3255
555.837	64.8224
559.212	33.6465
562.587	16.8895
565.962	9.56612
569.337	5.38671
572.712	3.61891
576.086	2.39773
579.461	1.40662
582.836	1.19779
586.211	0.439789
589.586	0.554291
592.96	0.662302
596.335	0.118516
599.71	0.287037
603.085	0.148326
606.46	0.118137
609.835	0.049453
613.209	0.135707
616.584	0.014616
619.959	0.04943
623.334	0.410151
626.709	0.241376
630.083	0.083549
633.458	0.056481
636.833	0.217503
640.208	0.341982
643.583	0.022104
646.957	0.275587
650.332	0.257224
653.707	0.208318
657.082	0.054802
660.457	0.415369
663.832	0.397455
667.206	0.377955
670.581	0.20464
673.956	0.047163
677.331	0.392171
680.706	0.164041
684.081	0.231317
687.455	0.143393
690.83	0.206241
694.205	0.310182
697.58	0.30011
700.955	0.077138
704.329	0.090975
707.704	0.137519
711.079	0.454786
714.454	0.11184
717.829	0.196422
721.203	0.040981
724.578	0.016403
727.953	0.066396
731.328	0.169443
734.703	0.194259
738.077	0.064885
741.452	0.025402
744.827	0.080306
748.202	0.089913
751.577	0.144285
754.952	0.05152
758.326	0.071103
761.701	0.065238
765.076	0.104872
768.451	0.109284
771.826	0.08432
775.201	0.131152
778.575	0.206089
781.95	0.157635
785.325	0.261378
788.7	0.23763
792.075	0.358073
795.449	0.449799
798.824	0.382982
802.199	0.174787
805.574	0.475008
808.949	0.178815
812.323	0.289939
815.698	0.393456
819.073	0.440896
822.448	0.187895
825.823	0.211355
829.198	0.239355
832.572	0.138967
835.947	0.326775
839.322	0.265352
842.697	0.306293
846.072	0.473449
849.447	0.123322
852.821	0.32002
856.196	0.282726
859.571	0.163086
862.946	0.281192
866.321	0.180142
869.695	0.194556
873.07	0.215531
876.445	0.482794
879.82	0.110991
883.195	0.131419
886.569	0.194283
889.944	0.057112
893.319	0.059016
896.694	0.430157
900.069	0.092098
903.443	0.005683
906.818	0.308966
910.193	0.110419
913.568	0.159827
916.943	0.295872
920.318	0.160649
923.692	0.312908
927.067	0.1264
930.442	0.275921
933.817	0.155857
937.192	0.100336
940.567	0.314594
943.941	0.006931
947.316	0.218447
950.691	0.130957
954.066	0.135055
957.441	0.152742
960.815	0.336315
964.19	0.246134
967.565	0.119672
970.94	0.117027
974.315	0.338999
977.689	0.084579
981.064	0.107995
984.439	0.245132
987.814	0.392205
991.189	0.28472
994.563	0.219021
997.938	0.237322
1001.31	0.181021
1004.69	0.330739
1008.06	0.197828
1011.44	0.277056
1014.81	0.114642
1018.19	0.353435
1021.56	0.182302
1024.94	0.060222
1028.31	0.149858
1031.69	0.10177
1035.06	0.23706
1038.44	0.162393
1041.81	0.159478
1045.19	0.162256
1048.56	0.308223
1051.93	0.208283
1055.31	0.307037
1058.68	0.18352
1062.06	0.216893
1065.43	0.41009
1068.81	0.1642
1072.18	0.345967
1075.56	0.25715
1078.93	0.291107
1082.31	0.263398
1085.68	0.16969
1089.06	0.059268
1092.43	0.047755
1095.81	0.071672
1099.18	0.259395
1102.56	0.156103
1105.93	0.023638
1109.31	0.306471
1112.68	0.094518
1116.06	0.035151
1119.43	0.17737
1122.81	0.127347
1126.18	0.227618
1129.56	0.259251
1132.93	0.119703
1136.31	0.022024
1139.68	0.005554
1143.06	0.161995
1146.43	0.192149
1149.81	0.184487
1153.18	0.103033
1156.56	0.082787
1159.93	0.150133
1163.3	0.274591
1166.68	0.07059
1170.05	0.080238
1173.43	0.469662
1176.8	0.156622
1180.18	0.394876
1183.55	0.237368
1186.93	0.234615
1190.3	0.13565
1193.68	0.341457
1197.05	0.155578
1200.43	0.467355
1203.8	0.299568
1207.18	0.233234
1210.55	0.025208
1213.93	0.059052
1217.3	0.116375
1220.68	0.267242
1224.05	0.334631
1227.43	0.473319
1230.8	0.033202
1234.18	0.2959
1237.55	0.246423
1240.92	0.231575
1244.3	0.269521
1247.67	0.116131
1251.05	0.453608
1254.42	0.09144
1257.8	0.420647
1261.17	0.360411
1264.55	0.168615
1267.92	0.10741
1271.3	0.206117
1274.67	0.295552
1278.05	0.036367
1281.42	0.073776
1284.8	0.132795
