Measurement: Raman, 532 nm, unoriented, Raman Data Processed
Mineral: Cubanite
Rruff sample: R061068
Ideal chemistry: CuFe_2_S_3_
Locality: Henderson #2 mine, Chibougamau, Quebec, Canada
Source: Lloyd Twaites
Description: Bronze metallic prismatic crystals
Measured chemistry: Cu_1.00_Fe_2.00_S_3.00_
Raman shift (cm-1)	intensity
116.262	0
119.637	118.845
123.011	488.001
126.386	502.725
129.761	418.156
133.136	202.696
136.511	152.512
139.886	128.037
143.26	106.333
146.635	63.1722
150.01	21.2994
153.385	26.078
156.76	11.4687
160.134	23.1647
163.509	33.634
166.884	55.7179
170.259	160.126
173.634	100.994
177.008	167.264
180.383	151.344
183.758	131.667
187.133	1.63678
190.508	45.057
193.883	6.49664
197.257	1.46448
200.632	14.807
204.007	25.8636
207.382	19.5657
210.757	4.00281
214.131	2.0249
217.506	10.2371
220.881	21.2132
224.256	5.50336
227.631	14.1238
231.006	25.1354
234.38	29.127
237.755	30.7009
241.13	59.2568
244.505	132.564
247.88	131.235
251.254	137
254.629	229.825
258.004	291.295
261.379	380.496
264.754	429.993
268.128	581.838
271.503	646.874
274.878	786.683
278.253	1021.23
281.628	1128.46
285.003	1180.07
288.377	1063.15
291.752	682.51
295.127	260.718
298.502	89.1547
301.877	47.0388
305.252	47.765
308.626	95.2467
312.001	87.3839
315.376	41.4836
318.751	29.4944
322.125	43.0752
325.5	154.789
328.875	229.402
332.25	272.798
335.625	244.641
339	174.104
342.375	119.648
345.749	69.6985
349.124	85.3912
352.499	109.647
355.874	139.26
359.248	203.631
362.623	261.45
365.998	405.954
369.373	593.195
372.748	741.242
376.123	431.989
379.497	192.043
382.872	145.363
386.247	130.771
389.622	81.1429
392.997	30.2086
396.372	1.6687
399.746	14.5985
403.121	22.0924
406.496	15.946
409.871	28.0866
413.246	1.59943
416.62	1.3045
419.995	13.6324
423.37	22.8932
426.745	18.7549
430.12	60.4639
433.494	57.054
436.869	70.0386
440.244	111.723
443.619	145.148
446.994	209.49
450.368	303.777
453.743	431.543
457.118	594.326
460.493	803.549
463.868	994.987
467.243	1187.07
470.617	1185.44
473.992	1026.79
477.367	717.677
480.742	435.16
484.117	250.326
487.491	156.949
490.866	122.047
494.241	75.9588
497.616	64.9903
500.991	58.1904
504.366	4.11774
507.74	31.1946
511.115	46.4898
514.49	31.3204
517.865	26.6302
521.24	44.3665
524.614	15.1687
527.989	36.3426
531.364	40.7448
534.739	9.39032
538.114	11.1622
541.489	8.67316
544.863	22.6897
548.238	34.4455
551.613	33.579
554.988	50.6592
558.363	42.7692
561.737	26.649
565.112	55.1808
568.487	17.1914
571.862	35.4106
575.237	24.7944
578.611	26.0935
581.986	17.0463
585.361	28.3655
588.736	37.352
592.111	21.2053
595.486	18.9501
598.86	30.4994
602.235	16.7342
605.61	33.5593
608.985	12.236
612.36	15.9271
615.735	16.2719
619.109	24.4959
622.484	27.632
625.859	10.3886
629.234	6.58569
632.609	13.6989
635.983	3.32959
639.358	5.01807
642.733	9.50018
646.108	3.45068
649.483	3.67822
652.857	2.60706
656.232	28.4691
659.607	51.6772
662.982	4.20679
666.357	27.4603
669.731	3.38995
673.106	30.556
676.481	21.1442
679.856	27.2935
683.231	1.00208
686.606	22.0247
689.98	21.8556
693.355	44.2069
696.73	31.5345
700.105	25.2106
703.48	45.2309
706.855	74.0807
710.229	45.1792
713.604	51.6566
716.979	62.5372
720.354	48.9472
723.729	34.2639
727.103	25.9644
730.478	44.0717
733.853	52.491
737.228	29.77
740.603	3.53235
743.977	28.4339
747.352	29.8312
750.727	15.2925
754.102	18.6976
757.477	14.7557
760.852	60.657
764.226	56.9132
767.601	14.5044
770.976	15.7524
774.351	17.2516
777.726	11.4291
781.1	30.8153
784.475	0.242432
787.85	17.1393
791.225	17.6193
794.6	11.3852
797.975	3.49634
801.349	19.2386
804.724	4.1297
808.099	1.17145
811.474	7.42816
814.849	2.54907
818.223	21.2856
821.598	30.5861
824.973	17.7028
828.348	20.7783
831.723	45.3813
835.097	62.7296
838.472	56.8944
841.847	49.6911
845.222	66.942
848.597	58.7252
851.972	39.2248
855.346	56.0588
858.721	26.6582
862.096	35.5418
865.471	54.4367
868.846	18.1493
872.221	36.4795
875.595	8.03229
878.97	6.13068
882.345	35.1135
885.72	36.8471
889.095	40.9279
892.469	43.7517
895.844	13.5685
899.219	27.4638
902.594	45.5686
905.969	72.1148
909.343	44.5211
912.718	43.8522
916.093	66.2019
919.468	55.2455
922.843	52.5859
926.217	70.0187
929.592	24.7994
932.967	51.0887
936.342	31.0867
939.717	33.5306
943.092	46.9426
946.466	40.4348
949.841	55.3253
953.216	21.432
956.591	3.3902
959.966	2.44537
963.341	32.6486
966.715	14.7073
970.09	11.2068
973.465	42.6182
976.84	18.8178
980.215	47.6868
983.589	38.9481
986.964	27.6912
990.339	32.0052
993.714	33.803
997.089	2.73718
1000.46	0.153503
1003.84	2.58069
1007.21	0.879822
1010.59	3.93115
1013.96	12.3197
1017.34	6.40832
1020.71	40.2314
1024.09	32.3387
1027.46	39.5808
1030.84	27.6392
1034.21	27.0245
1037.59	53.1532
1040.96	36.1672
1044.34	52.8206
1047.71	32.8508
1051.09	41.7844
1054.46	31.1992
1057.84	14.1641
1061.21	43.0971
1064.59	55.361
1067.96	50.6199
1071.33	25.6174
1074.71	32.5903
1078.08	59.9534
1081.46	18.5448
1084.83	36.2437
1088.21	65.1587
1091.58	14.6741
1094.96	9.98865
1098.33	32.083
1101.71	25.13
1105.08	57.4919
1108.46	20.8298
1111.83	47.2089
1115.21	39.9623
1118.58	46.5757
1121.96	28.3994
1125.33	23.7035
1128.71	35.9019
1132.08	5.51367
1135.46	30.7062
1138.83	56.2833
1142.21	20.4475
1145.58	5.71863
1148.95	18.213
1152.33	2.15857
1155.7	8.72534
1159.08	21.3031
1162.45	13.5826
1165.83	16.9238
1169.2	72.692
1172.58	41.3508
1175.95	26.8247
1179.33	29.4869
1182.7	30.7373
1186.08	30.5221
1189.45	31.5177
1192.83	32.0692
1196.2	6.79285
1199.58	55.3993
1202.95	15.8353
1206.33	19.2596
1209.7	10.0129
1213.08	45.9196
1216.45	18.1798
1219.83	19.9541
1223.2	33.7565
1226.58	13.0438
1229.95	44.1844
1233.33	44.0126
1236.7	57.5966
1240.08	13.6577
1243.45	6.17481
1246.83	5.70813
1250.2	33.6162
1253.58	25.6916
1256.95	39.9531
1260.32	27.9043
1263.7	44.4085
1267.07	8.2749
1270.45	33.8688
1273.82	18.0682
1277.2	40.2665
1280.57	28.3977
1283.95	3.81372
1287.32	41.5824
1290.7	75.2661
1294.07	26.7211
1297.45	25.6273
