Measurement: Raman, 532 nm, unoriented, Raman Data Processed
Mineral: Cubic zirconia
Rruff sample: X080012
Ideal chemistry: ZrO_2_
Locality: Synthetic
Source: Gemological Institute of America
Description: Faceted colorless gemstone, 1.88 ct
Raman shift (cm-1)	intensity
157.058	0
159.951	14.8214
162.843	18.3995
165.736	20.5931
168.629	14.8892
171.521	9.00488
174.414	8.26623
177.307	10.9454
180.199	11.8397
183.092	16.8683
185.985	35.7562
188.877	23.2281
191.77	13.9486
194.663	13.8029
197.556	3.13708
200.448	3.35461
203.341	3.39905
206.234	7.03992
209.126	5.52356
212.019	8.62952
214.912	0.772949
217.804	14.1925
220.697	28.2322
223.59	33.6245
226.483	42.0887
229.375	48.5343
232.268	55.2096
235.161	63.6665
238.053	70.8943
240.946	85.6205
243.839	89.5582
246.732	89.1446
249.624	91.2201
252.517	98.6281
255.41	103.401
258.302	110.597
261.195	103.412
264.088	103.251
266.98	100.107
269.873	100.674
272.766	89.0841
275.659	93.5806
278.551	91.1211
281.444	93.7557
284.337	95.5592
287.229	95.8768
290.122	101.992
293.015	105.98
295.907	106.717
298.8	117.437
301.693	120.026
304.586	125.982
307.478	139.632
310.371	149.897
313.264	150.773
316.156	152.524
319.049	140.598
321.942	119.17
324.834	99.8218
327.727	80.876
330.62	55.4211
333.512	32.8959
336.405	21.1305
339.298	1.13757
342.191	6.3429
345.083	3.80542
347.976	0.66333
350.869	7.15064
353.761	17.3002
356.654	23.3297
359.547	35.2803
362.44	45.4373
365.332	55.3595
368.225	59.6091
371.118	66.8572
374.01	82.6582
376.903	84.7328
379.796	83.465
382.688	78.4122
385.581	72.5409
388.474	61.2589
391.366	55.5964
394.259	53.868
397.152	49.3726
400.045	43.8499
402.937	31.3928
405.83	32.3774
408.723	30.1351
411.615	29.1061
414.508	33.7258
417.401	33.0157
420.293	31.3169
423.186	34.3276
426.079	34.7296
428.972	32.3044
431.864	29.6715
434.757	23.7362
437.65	17.8091
440.542	9.4364
443.435	10.0358
446.328	0.709351
449.221	5.2782
452.113	6.16858
455.006	5.4425
457.899	9.63171
460.791	5.13953
463.684	1.3811
466.577	4.63904
469.469	7.15735
472.362	10.4086
475.255	6.40234
478.147	7.85669
481.04	5.67444
483.933	1.33862
486.826	1.31433
489.718	5.39844
492.611	3.53955
495.504	0.48938
498.396	7.03589
501.289	11.5911
504.182	15.527
507.075	18.6987
509.967	22.0155
512.86	21.8945
515.753	20.9225
518.645	30.2585
521.538	39.0609
524.431	52.2522
527.323	67.2673
530.216	82.2803
533.109	98.5186
536.001	113.649
538.894	138.826
541.787	153.461
544.68	173.982
547.572	186.902
550.465	202.342
553.358	217.73
556.25	228.519
559.143	251.512
562.036	270.695
564.928	291.284
567.821	311.886
570.714	334.977
573.607	363.375
576.499	388.013
579.392	416.718
582.285	453.235
585.177	481.977
588.07	527.947
590.963	557.826
593.856	599.568
596.748	642.646
599.641	685.257
602.534	726.007
605.426	767.891
608.319	797.152
611.212	811.837
614.104	801.082
616.997	768.478
619.89	719.262
622.783	650.011
625.675	566.88
628.568	473.897
631.461	379.678
634.353	277.343
637.246	197.887
640.139	130.035
643.031	74.6049
645.924	35.1587
648.817	6.5788
651.71	4.51477
654.602	12.9783
657.495	12.844
660.388	13.6216
663.28	12.1682
666.173	4.46484
669.066	6.65509
671.958	13.4765
674.851	20.7054
677.744	28.8391
680.636	38.6894
683.529	47.703
686.422	54.5897
689.315	60.6639
692.207	67.2091
695.1	68.7676
697.993	73.0008
700.885	74.1025
703.778	76.0594
706.671	75.4074
709.563	74.6514
712.456	71.2384
715.349	60.1413
718.242	51.0558
721.134	40.2512
724.027	31.1451
726.92	26.2701
729.812	20.2236
732.705	17.9054
735.598	16.3999
738.49	12.3115
741.383	12.5345
744.276	10.0099
747.169	9.02014
750.061	6.64688
752.954	7.03067
755.847	3.50928
758.739	7.13358
761.632	2.46103
764.525	3.83505
767.418	1.98788
770.31	1.11865
773.203	3.08548
776.096	2.89093
778.988	5.67044
781.881	10.2036
784.774	2.08112
787.666	4.67169
790.559	3.64059
793.452	4.04839
796.345	3.34442
799.237	5.27651
802.13	5.04909
805.023	2.39104
807.915	1.46548
810.808	1.72185
813.701	1.11232
816.593	1.08661
819.486	0.08876
822.379	0.175873
825.271	0.817535
828.164	2.43251
831.057	0.630692
833.95	1.01912
836.842	0.041702
839.735	1.29629
842.628	1.4568
845.52	2.41238
848.413	0.063278
851.306	0.751816
854.198	1.68373
857.091	1.8234
859.984	2.05371
862.877	3.50981
865.769	3.17909
868.662	0.797699
871.555	0.490601
874.447	2.5694
877.34	0.761902
880.233	0.212189
883.125	2.53973
886.018	0.535431
888.911	0.437439
891.804	0.598389
894.696	0.243958
897.589	1.23254
900.482	0.34729
903.374	2.58939
906.267	0.20047
909.16	0.746796
912.053	1.70358
914.945	1.7876
917.838	0.284454
920.731	4.00803
923.623	2.45355
926.516	3.48395
929.409	6.62546
932.301	4.81946
935.194	6.42062
938.087	8.88278
940.98	7.32263
943.872	6.30603
946.765	10.0767
949.658	11.6393
952.55	13.0911
955.443	14.1578
958.336	15.2002
961.228	16.4461
964.121	16.7718
967.014	17.2667
969.907	18.1681
972.799	19.5727
975.692	20.0572
978.585	21.8022
981.477	20.8406
984.37	21.6272
987.263	19.9279
990.155	21.0663
993.048	18.9242
995.941	17.2289
998.833	15.4437
1001.73	15.9191
1004.62	14.5502
1007.51	14.1723
1010.4	12.8474
1013.3	11.8029
1016.19	11.6422
1019.08	9.44347
1021.98	9.31503
1024.87	8.0666
1027.76	6.24765
1030.65	5.77493
1033.55	4.53952
1036.44	4.79868
1039.33	1.46436
1042.22	3.86794
1045.12	2.75598
1048.01	2.3667
1050.9	0.390076
1053.8	0.610992
1056.69	0.794235
1059.58	1.00636
1062.47	0.429871
1065.37	1.61888
1068.26	0.39151
1071.15	0.107269
1074.04	0.514282
1076.94	0.213181
1079.83	0.165726
1082.72	0.971146
1085.62	0.160049
1088.51	1.46909
1091.4	0.104813
1094.29	0.000473
1097.18	0.629333
1100.08	0.39743
1102.97	0.682022
1105.86	0.000771
1108.76	1.29096
1111.65	0.185432
1114.54	0.045456
1117.43	0.686165
1120.33	1.28477
1123.22	0.920395
1126.11	1.46133
1129.01	1.73824
1131.9	1.52023
1134.79	2.29438
1137.68	1.98064
1140.58	1.69939
1143.47	2.52845
1146.36	2.93459
1149.25	1.34705
1152.15	2.65626
1155.04	2.83847
1157.93	3.74675
1160.83	3.33945
1163.72	3.27364
1166.61	3.87676
1169.5	2.34563
1172.4	3.24203
1175.29	3.33252
1178.18	2.50855
1181.07	3.72144
1183.97	3.39685
1186.86	3.25891
1189.75	3.20698
1192.64	2.44724
1195.54	2.34897
1198.43	2.72275
1201.32	3.43928
1204.21	2.55078
1207.11	2.73359
1210	2.98334
1212.89	2.93723
1215.79	2.79685
1218.68	2.29977
1221.57	2.08608
1224.46	2.95588
1227.36	1.85649
1230.25	1.66648
1233.14	1.81753
1236.04	1.31435
1238.93	1.65757
1241.82	1.1533
1244.71	1.18388
1247.61	1.69442
1250.5	1.3597
1253.39	1.13448
1256.28	0.288761
1259.18	0.713421
1262.07	0.908867
1264.96	0.090015
1267.86	0.98542
1270.75	0.382374
1273.64	1.65299
1276.53	1.16254
1279.42	0.901749
1282.32	2.04606
1285.21	0.806099
1288.1	0.539478
1291	0.425175
1293.89	0.114475
1296.78	0.003746
1299.67	0.726799
1302.57	0.107231
