Measurement: Raman, 532 nm, unoriented, Raman Data Processed
Mineral: Cumengeite
Rruff sample: R060079
Ideal chemistry: Pb_21_Cu_20_Cl_42_(OH)_40_6H_2_O
Locality: Amelia mine, Santa Rosalia, Baja California, Mexico
Source: Marcus Origlieri
Description: Blue pseudocubo-octahedral crystal
Raman shift (cm-1)	intensity
179.081	0
181.973	28.5361
184.866	128.514
187.759	252.342
190.651	360.518
193.544	447.762
196.437	463.887
199.33	439.314
202.222	389.1
205.115	338.765
208.008	259.68
210.9	169.174
213.793	107.752
216.686	61.2964
219.578	35.0457
222.471	17.6095
225.364	8.61572
228.257	17.4447
231.149	17.5977
234.042	4.02271
236.935	7.72327
239.827	38.9536
242.72	56.9915
245.613	79.5194
248.506	99.1968
251.398	117.942
254.291	116.871
257.184	105.383
260.076	91.6691
262.969	89.6333
265.862	92.2476
268.754	96.4853
271.647	100.97
274.54	104.766
277.433	107.773
280.325	106.015
283.218	96.9796
286.111	87.2856
289.003	79.9883
291.896	78.948
294.789	78.0585
297.681	85.4023
300.574	95.4061
303.467	101.071
306.36	101.604
309.252	93.0729
312.145	76.9622
315.038	57.515
317.93	38.2506
320.823	21.6079
323.716	12.8456
326.608	8.33292
329.501	4.70334
332.394	5.97412
335.286	8.8996
338.179	19.5871
341.072	28.9376
343.965	40.6808
346.857	57.2458
349.75	71.2053
352.643	74.9856
355.535	71.9061
358.428	63.3439
361.321	60.5718
364.214	63.0789
367.106	66.2082
369.999	73.3007
372.892	77.0932
375.784	78.6128
378.677	71.3108
381.57	55.5892
384.462	41.1385
387.355	28.4373
390.248	19.8912
393.14	7.65163
396.033	1.75784
398.926	3.96434
401.819	6.89465
404.711	5.72792
407.604	7.77731
410.497	6.29639
413.389	1.02025
416.282	4.53809
419.175	13.4599
422.067	24.1783
424.96	37.2886
427.853	53.6008
430.746	74.9851
433.638	108.024
436.531	142.213
439.424	184.333
442.316	229.857
445.209	277.05
448.102	324.149
450.995	376.36
453.887	441.771
456.78	517.178
459.673	561.211
462.565	530.345
465.458	424.007
468.351	308.036
471.243	236.866
474.136	201.424
477.029	191.601
479.921	196.2
482.814	209.613
485.707	222.445
488.6	236.473
491.492	245.967
494.385	256.243
497.278	256.78
500.17	254.603
503.063	238.947
505.956	222.18
508.849	196.236
511.741	164.979
514.634	139.738
517.527	115.067
520.419	93.941
523.312	71.6418
526.205	56.9604
529.097	42.5311
531.99	30.5763
534.883	23.5186
537.775	18.1789
540.668	10.1354
543.561	5.83137
546.454	4.80611
549.346	1.95234
552.239	0.733398
555.132	0.837738
558.024	1.62472
560.917	2.00072
563.81	2.3155
566.702	2.23466
569.595	2.55725
572.488	1.86178
575.381	1.49284
578.273	2.0751
581.166	0.834396
584.059	0.812773
586.951	1.07573
589.844	1.47913
592.737	1.93989
595.63	2.2426
598.522	3.32781
601.415	4.32005
604.308	6.25954
607.2	5.55438
610.093	7.03483
612.986	7.77453
615.878	8.57825
618.771	9.52092
621.664	11.3516
624.557	9.88013
627.449	11.1507
630.342	11.3799
633.235	12.6528
636.127	13.168
639.02	18.6886
641.913	20.0025
644.805	26.8588
647.698	30.6087
650.591	36.6388
653.484	46.9203
656.376	56.5616
659.269	68.8179
662.162	82.3452
665.054	94.5832
667.947	104.185
670.84	115.072
673.732	122.867
676.625	122.984
679.518	117.467
682.41	107.216
685.303	97.3881
688.196	81.4701
691.089	68.5331
693.981	58.4238
696.874	51.0876
699.767	45.6035
702.659	39.1171
705.552	36.5691
708.445	34.295
711.337	32.2294
714.23	29.1571
717.123	26.8096
720.015	21.8687
722.908	17.6868
725.801	12.9822
728.694	8.3785
731.586	7.12179
734.479	4.64874
737.372	2.92608
740.264	1.21455
743.157	0.542038
746.05	1.39429
748.942	2.23966
751.835	3.533
754.728	1.68156
757.621	0.292175
760.513	1.19242
763.406	2.45338
766.299	6.25845
769.191	10.3489
772.084	13.7573
774.977	20.1765
777.87	22.2848
780.762	26.3037
783.655	34.975
786.548	40.2184
789.44	45.2383
792.333	47.8786
795.226	51.8107
798.118	51.0792
801.011	48.4147
803.904	48.2671
806.797	45.5211
809.689	42.3563
812.582	38.3756
815.475	38.647
818.367	40.4954
821.26	41.3897
824.153	41.0337
827.045	39.839
829.938	39.2205
832.831	37.6026
835.723	33.6496
838.616	28.1825
841.509	22.0774
844.402	19.015
847.294	16.2732
850.187	14.5775
853.08	12.4708
855.972	10.0706
858.865	9.06218
861.758	7.09237
864.65	6.07388
867.543	3.86951
870.436	3.12463
873.329	2.39033
876.221	2.51579
879.114	1.3819
882.007	4.0975
884.899	4.52674
887.792	6.52217
890.685	8.15449
893.577	8.21124
896.47	6.51798
899.363	5.51546
902.256	3.37125
905.148	1.69324
908.041	0.096237
910.934	2.16024
913.826	0.957676
916.719	0.936108
919.612	1.44817
922.505	0.966927
925.397	0.667763
928.29	0.758133
931.183	2.34233
934.075	3.34783
936.968	2.26766
939.861	3.88383
942.753	5.18436
945.646	4.94199
948.539	7.36706
951.432	8.62681
954.324	9.19206
957.217	11.7171
960.11	14.8541
963.002	21.5037
965.895	24.5815
968.788	28.5498
971.68	33.8712
974.573	38.4053
977.466	44.3693
980.359	49.3653
983.251	53.1468
986.144	54.4545
989.037	53.9545
991.929	48.0288
994.822	41.9236
997.715	34.4069
1000.61	28.6205
1003.5	25.2788
1006.39	20.8417
1009.28	20.7756
1012.18	19.2559
1015.07	19.1932
1017.96	18.7435
1020.86	17.8771
1023.75	15.6748
1026.64	15.5888
1029.53	12.4043
1032.43	10.7805
1035.32	9.74302
1038.21	7.29419
1041.11	5.796
1044	4.70736
1046.89	3.33261
1049.78	3.64748
1052.68	1.82023
1055.57	1.52377
1058.46	1.54475
1061.35	0.708797
1064.25	1.23313
1067.14	1.23107
1070.03	0.565014
1072.92	0.011578
1075.82	0.303894
1078.71	0.353804
1081.6	0.412956
1084.5	0.273661
1087.39	0.155556
1090.28	0.135473
1093.17	0.546341
1096.07	0.414356
1098.96	0.695518
1101.85	0.657526
1104.74	-0.150285
1107.64	0.465914
1110.53	1.23253
1113.42	1.61094
1116.32	1.74202
1119.21	1.04676
1122.1	1.82929
1124.99	1.85868
1127.89	1.70429
1130.78	2.10435
1133.67	1.3275
1136.56	2.00862
1139.46	2.64857
1142.35	1.69062
1145.24	2.20766
1148.13	1.83837
1151.03	0.625189
1153.92	1.30017
1156.81	1.71836
1159.71	5.80725
1162.6	1.42625
1165.49	1.3456
1168.38	1.1318
1171.28	1.64737
1174.17	1.67887
1177.06	1.53235
1179.95	0.693827
1182.85	0.504597
1185.74	1.44206
1188.63	0.073618
1191.53	0.537903
1194.42	1.19206
1197.31	0.624769
1200.2	0.399334
1203.1	0.875439
1205.99	1.06694
1208.88	0.562071
1211.77	0.773691
1214.67	0.957518
1217.56	0.6875
1220.45	0.204014
1223.35	1.10138
1226.24	0.518091
1229.13	0.681725
1232.02	0.820698
1234.92	0.65547
1237.81	0.59314
1240.7	1.45521
1243.59	0.097713
1246.49	0.726368
1249.38	0.793283
1252.27	0.870964
1255.16	0.826439
1258.06	1.13565
1260.95	0.264782
1263.84	0.599625
1266.74	0.145086
1269.63	0.708575
1272.52	0.320582
1275.41	0.180331
1278.31	0.797827
1281.2	0.568626
1284.09	0.160475
1286.98	0.111866
1289.88	1.16992
1292.77	0.432709
1295.66	1.01145
1298.56	0.385235
1301.45	0.445795
1304.34	0.026518
