Measurement: Raman, 532 nm, unoriented, Raman Data Processed
Mineral: Cuprite
Rruff sample: R050384
Ideal chemistry: Cu^1+^_2_O
Locality: Lavender Pit, Bisbee, Warren District, Cochise County, Arizona, USA
Source: University of Arizona Mineral Museum
Description: Deep red to nearly black cubes
Measured chemistry: Cu_2.00_O
Raman shift (cm-1)	intensity
120.798	0
124.173	0.620483
127.548	11.0098
130.923	30.3018
134.298	52.9718
137.673	72.3625
141.047	81.2413
144.422	83.8469
147.797	83.2976
151.172	72.7709
154.547	58.8622
157.921	50.9342
161.296	45.4245
164.671	39.9946
168.046	44.6257
171.421	57.3823
174.796	74.9176
178.17	96.5639
181.545	109.112
184.92	125.915
188.295	163.001
191.67	158.93
195.044	167.292
198.419	201.118
201.794	219.556
205.169	229.641
208.544	263.969
211.918	316.555
215.293	350.092
218.668	361.84
222.043	274.178
225.418	154.4
228.792	94.4154
232.167	65.2771
235.542	49.391
238.917	36.8662
242.292	23.815
245.667	12.8043
249.041	3.97604
252.416	3.26312
255.791	0.474854
259.166	3.00211
262.541	4.54858
265.916	3.41367
269.29	2.14673
272.665	1.62225
276.04	4.18652
279.415	5.76663
282.79	9.11719
286.164	9.65433
289.539	16.7976
292.914	18.9771
296.289	22.1594
299.664	19.4782
303.038	22.5997
306.413	22.696
309.788	26.6718
313.163	22.7752
316.538	21.5208
319.913	18.8696
323.287	17.3878
326.662	15.4217
330.037	10.9592
333.412	4.25235
336.787	5.42938
340.161	0.73465
343.536	2.32956
346.911	2.07477
350.286	1.54877
353.661	1.38385
357.036	0.99472
360.41	3.63223
363.785	2.10022
367.16	3.45309
370.535	7.30493
373.91	10.2106
377.284	12.3419
380.659	13.9161
384.034	20.407
387.409	19.7541
390.784	29.5523
394.159	32.1696
397.533	31.2892
400.908	39.4708
404.283	43.8887
407.658	45.3475
411.033	48.1124
414.407	44.8356
417.782	42.5546
421.157	31.3875
424.532	25.0254
427.907	17.7248
431.281	17.1804
434.656	9.55646
438.031	5.1936
441.406	1.75818
444.781	0.807495
448.156	3.65131
451.53	0.959167
454.905	4.15558
458.28	2.30633
461.655	0.587708
465.03	3.57727
468.404	5.0882
471.779	5.88159
475.154	8.10394
478.529	8.21399
481.904	8.72907
485.279	14.5167
488.653	14.015
492.028	8.37036
495.403	5.75903
498.778	3.8512
502.153	9.36578
505.527	4.88507
508.902	2.73529
512.277	5.84405
515.652	5.02032
519.027	5.95697
522.402	4.33252
525.776	4.95575
529.151	0.093811
532.526	1.49591
535.901	4.32575
539.276	2.44421
542.65	0.953674
546.025	4.6178
549.4	4.00598
552.775	3.21722
556.15	1.383
559.525	1.7381
562.899	1.71399
566.274	2.61658
569.649	0.313293
573.024	0.375122
576.399	13.6267
579.774	8.52722
583.148	9.61633
586.523	2.86938
589.898	4.4892
593.273	8.25275
596.648	12.7938
600.022	19.2681
603.397	23.5746
606.772	24.8225
610.147	40.6143
613.522	47.4899
616.896	56.5012
620.271	65.8552
623.646	60.319
627.021	66.9408
630.396	63.2188
633.77	58.1908
637.145	48.1953
640.52	45.0005
643.895	35.5283
647.27	29.7787
650.645	27.7733
654.019	14.6882
657.394	19.1744
660.769	11.2971
664.144	9.70654
667.519	3.70203
670.894	2.64002
674.268	4.49109
677.643	6.79932
681.018	0.637451
684.393	1.19727
687.768	5.32288
691.142	1.17432
694.517	0.831421
697.892	4.95911
701.267	8.67004
704.642	2.01929
708.016	0.644165
711.391	12.1824
714.766	5.67835
718.141	5.94971
721.516	6.79138
724.891	4.54016
728.265	12.1764
731.64	14.8768
735.015	4.81299
738.39	6.44958
741.765	4.53735
745.139	12.1708
748.514	5.53442
751.889	0.456055
755.264	3.34998
758.639	2.23999
762.014	5.81006
765.388	4.18799
768.763	4.59839
772.138	10.2744
775.513	5.46497
778.888	1.31116
782.263	5.21655
785.637	4.29236
789.012	8.52795
792.387	16.4985
795.762	12.1294
799.136	6.11084
802.511	12.9005
805.886	6.31104
809.261	12.1148
812.636	8.04407
816.011	7.77283
819.385	6.57971
822.76	14.2788
826.135	5.28064
829.51	7.98486
832.885	9.14722
836.26	2.9447
839.634	5.55164
843.009	14.8711
846.384	6.33252
849.759	2.69312
853.134	5.23828
856.508	3.64087
859.883	0.676514
863.258	9.18115
866.633	9.83154
870.008	2.88696
873.383	7.40234
876.757	5.1189
880.132	1.57861
883.507	3.57104
886.882	7.50952
890.257	8.51294
893.631	13.7913
897.006	8.00464
900.381	9.3916
903.756	3.43701
907.131	15.5627
910.505	6.2124
913.88	0.804443
917.255	10.1924
920.63	15.53
924.005	16.301
927.38	14.7275
930.754	18.8154
934.129	0.505615
937.504	3.89356
940.879	0.265137
944.254	5.58057
947.629	4.07739
951.003	5.1665
954.378	13.843
957.753	7.58667
961.128	1.48584
964.503	1.35938
967.877	11.7832
971.252	9.7334
974.627	10.3484
978.002	5.6875
981.377	14.0212
984.751	16.7439
988.126	16.4004
991.501	10.2336
994.876	9.09155
998.251	5.37891
1001.63	1.29517
1005	0.002686
1008.38	11.1221
1011.75	13.1457
1015.12	16.7146
1018.5	25.2683
1021.87	3.87207
1025.25	15.769
1028.62	12.4407
1032	7.04419
1035.37	10.8921
1038.75	16.8306
1042.12	9.01416
1045.5	10.7773
1048.87	4.78833
1052.25	13.8152
1055.62	17.8643
1059	31.2561
1062.37	14.9224
1065.75	27.2485
1069.12	11.2925
1072.5	20.5039
1075.87	5.19141
1079.25	19.9575
1082.62	16.7529
1086	15.9482
1089.37	4.25439
1092.75	2.24707
1096.12	10.75
1099.49	1.43115
1102.87	26.6294
1106.24	12.0483
1109.62	2.53272
1112.99	18.7715
1116.37	9.11377
1119.74	9.17773
1123.12	7.41162
1126.49	3.00879
1129.87	19.9053
1133.24	19.5044
1136.62	23.9292
1139.99	32.104
1143.37	28.4482
1146.74	22.1333
1150.12	12.8921
1153.49	1.90234
1156.87	7.43311
1160.24	10.8721
1163.62	14.5005
1166.99	26.9678
1170.37	32.1934
1173.74	26.769
1177.12	23.4697
1180.49	23.7837
1183.87	12.9453
1187.24	19.9126
1190.62	27.4507
1193.99	29.6084
1197.37	14.1177
1200.74	13.4863
1204.12	5.94824
1207.49	24.9126
1210.86	12.4805
1214.24	17.2173
1217.61	19.3945
1220.99	15.9917
1224.36	0.949219
1227.74	24.4795
1231.11	21.5117
1234.49	37.71
1237.86	19.5674
1241.24	8.70996
1244.61	3.83594
1247.99	11.165
1251.36	38.6538
1254.74	12.751
1258.11	13.4326
1261.49	28.54
1264.86	32.6299
1268.24	1.19824
1271.61	27.8721
1274.99	9.16309
1278.36	15.8926
