Measurement: Raman, 532 nm, unoriented, Raman Data Processed
Mineral: Cuprite
Rruff sample: R140763
Ideal chemistry: Cu^1+^_2_O
Locality: Milpillas mine, Municipio de Santa Cruz, Sonora, Mexico
Source: Marcus Origlieri
Description: Semimetallic deep red, massive
Raman shift (cm-1)	intensity
89.7832	0
93.158	6.29823
96.5328	2.57283
99.9077	0.632278
103.282	3.25554
106.657	19.4746
110.032	27.5213
113.407	32.6022
116.782	35.4965
120.157	30.6018
123.531	34.0558
126.906	38.1025
130.281	52.6161
133.656	68.9863
137.031	83.7275
140.405	96.9716
143.78	104.723
147.155	101.249
150.53	86.1589
153.905	68.0388
157.28	62.696
160.654	55.8483
164.029	46.7149
167.404	39.7946
170.779	49.847
174.154	68.7577
177.528	97.0064
180.903	111.98
184.278	142.306
187.653	175.479
191.028	192.095
194.403	193.192
197.777	230.66
201.152	265.013
204.527	276.029
207.902	332.832
211.277	411.284
214.651	484.326
218.026	529.168
221.401	449.801
224.776	276.652
228.151	165.117
231.525	113.329
234.9	80.7652
238.275	58.5147
241.65	40.6848
245.025	25.121
248.4	13.0353
251.774	4.97423
255.149	2.8849
258.524	3.20146
261.899	4.67519
265.274	3.80418
268.649	4.21634
272.023	1.15095
275.398	0.914932
278.773	4.17264
282.148	6.79849
285.523	10.3612
288.897	14.9732
292.272	17.2272
295.647	21.9366
299.022	24.2808
302.397	24.9239
305.772	27.3148
309.146	24.5071
312.521	26.9741
315.896	24.5787
319.271	21.0117
322.646	18.7879
326.02	13.0859
329.395	8.76736
332.77	2.98422
336.145	2.52176
339.52	1.61401
342.894	1.27423
346.269	0.128296
349.644	1.46945
353.019	0.054749
356.394	1.03174
359.769	2.25958
363.143	3.07269
366.518	4.18924
369.893	5.56827
373.268	9.46097
376.643	11.374
380.017	15.4095
383.392	22.229
386.767	25.5571
390.142	33.2119
393.517	37.2719
396.892	44.0838
400.266	51.8843
403.641	55.5162
407.016	62.9618
410.391	58.3449
413.766	59.2973
417.14	53.573
420.515	45.6039
423.89	38.1043
427.265	30.12
430.64	24.178
434.014	18.8835
437.389	10.5638
440.764	9.20099
444.139	4.0025
447.514	2.97681
450.889	1.40741
454.263	1.36905
457.638	1.82849
461.013	3.92459
464.388	3.98065
467.763	9.15225
471.137	10.6633
474.512	11.9056
477.887	12.6429
481.262	14.8934
484.637	12.4585
488.012	16.0291
491.386	10.5903
494.761	12.1951
498.136	9.73865
501.511	9.13644
504.886	8.97189
508.26	7.33545
511.635	8.5878
515.01	5.97253
518.385	6.47647
521.76	4.69949
525.135	2.28537
528.509	0.887726
531.884	0.563446
535.259	0.258301
538.634	0.105835
542.009	1.84723
545.384	0.698975
548.758	4.04471
552.133	1.24298
555.508	5.87366
558.883	0.014832
562.258	0.891113
565.632	0.282288
569.007	0.741394
572.382	3.26471
575.757	4.50207
579.132	5.11603
582.506	9.88104
585.881	10.8401
589.256	11.7383
592.631	11.2325
596.006	16.3118
599.381	18.5795
602.755	24.383
606.13	31.5828
609.505	44.6228
612.88	55.4957
616.255	68.6504
619.63	79.5774
623.004	89.374
626.379	87.1852
629.754	85.2465
633.129	75.8952
636.504	69.0289
639.878	61.249
643.253	57.9711
646.628	49.1171
650.003	37.8392
653.378	30.2264
656.752	20.5687
660.127	16.9449
663.502	13.6442
666.877	12.1168
670.252	8.57892
673.626	7.1217
677.001	3.76959
680.376	2.70087
683.751	1.03552
687.126	6.66412
690.501	1.58502
693.875	0.166931
697.25	1.60394
700.625	1.07471
704	0.637817
707.375	1.63776
710.75	3.04382
714.124	3.9751
717.499	2.49853
720.874	2.82233
724.249	6.29132
727.624	6.28186
730.998	8.67462
734.373	4.42261
737.748	4.25604
741.123	5.65765
744.498	5.95886
747.872	10.3611
751.247	5.86127
754.622	5.26715
757.997	3.3468
761.372	0.672729
764.747	4.5578
768.121	2.51923
771.496	0.754395
774.871	1.59387
778.246	2.7456
781.621	2.86438
784.995	8.35168
788.37	4.50146
791.745	3.29309
795.12	5.61267
798.495	6.36585
801.87	5.75574
805.244	8.3169
808.619	11.9802
811.994	8.6405
815.369	11.6011
818.744	8.72815
822.119	7.07715
825.493	5.81702
828.868	0.141602
832.243	2.46887
835.618	0.474854
838.993	2.88867
842.367	0.680176
845.742	5.6217
849.117	0.431641
852.492	0.263184
855.867	6.19482
859.241	5.40857
862.616	1.85522
865.991	3.22485
869.366	6.26489
872.741	0.908325
876.115	2.20642
879.49	0.062988
882.865	1.48254
886.24	0.836426
889.615	4.93616
892.99	11.1465
896.364	12.2508
899.739	10
903.114	13.3717
906.489	9.68835
909.864	9.74329
913.239	11.2725
916.613	15.9779
919.988	14.2633
923.363	9.93054
926.738	12.8173
930.113	11.3967
933.487	13.2048
936.862	2.39319
940.237	10.5875
943.612	11.9386
946.987	9.41406
950.361	15.655
953.736	8.9198
957.111	1.73047
960.486	2.32458
963.861	0.42395
967.236	8.71997
970.61	10.6746
973.985	15.4858
977.36	15.5998
980.735	12.2556
984.11	15.9895
987.485	18.5632
990.859	15.1095
994.234	10.2225
997.609	9.15002
1000.98	18.7505
1004.36	14.3755
1007.73	14.9521
1011.11	9.86206
1014.48	11.0749
1017.86	14.6853
1021.23	5.10303
1024.61	5.62573
1027.98	13.0923
1031.36	9.10425
1034.73	7.96851
1038.11	14.333
1041.48	12.4297
1044.86	18.4363
1048.23	15.6121
1051.61	13.2918
1054.98	10.1335
1058.36	4.80469
1061.73	3.55518
1065.11	7.66919
1068.48	6.38281
1071.86	6.14136
1075.23	6.08936
1078.6	3.65869
1081.98	2.90185
1085.35	1.70776
1088.73	1.51172
1092.1	1.70776
1095.48	2.0044
1098.85	4.56396
1102.23	1.6477
1105.6	0.371582
1108.98	1.13989
1112.35	14.0102
1115.73	9.57178
1119.1	5.65283
1122.48	8.04126
1125.85	4.22656
1129.23	5.07812
1132.6	2.36328
1135.98	7.73804
1139.35	11.0915
1142.73	13.2253
1146.1	3.46094
1149.48	5.56763
1152.85	12.219
1156.22	15.2769
1159.6	9.50146
1162.97	12.8906
1166.35	8.13843
1169.72	1.87817
1173.1	11.3267
1176.47	16.1619
1179.85	18.2346
1183.22	18.335
1186.6	23.5566
1189.97	23.9661
1193.35	22.9785
1196.72	30.8169
1200.1	13.248
1203.47	18.5005
1206.85	16.999
1210.22	16.1736
1213.6	26.1162
1216.97	12.6694
1220.35	13.2031
1223.72	23.8608
1227.1	4.18604
1230.47	4.76611
1233.85	0.088379
1237.22	15.0601
1240.6	6.93652
1243.97	17.1519
1247.35	16.062
1250.72	22.209
1254.1	28.9336
1257.47	31.7114
1260.85	24.6899
1264.22	16.9502
1267.59	14.9663
1270.97	6.30078
1274.34	16.3726
1277.72	23.1855
1281.09	21.1606
1284.47	16.644
1287.84	14.1406
1291.22	27.373
1294.59	22.3838
1297.97	13.7778
1301.34	7.92578
