Measurement: Raman, 780 nm, unoriented, Raman Data Processed
Mineral: Cuprosklodowskite
Rruff sample: R060570
Ideal chemistry: Cu^2+^(U^6+^O_2_)_2_(SiO_3_OH)_2_6H_2_O
Locality: Musonoi Extension mine, near Kolwezi, Shaba Province, Zaire
Source: Michael Scott
Description: Green colored acicular crystals
Raman shift (cm-1)	intensity
146.521	0
149.414	0.081085
152.307	0.211693
155.199	3.03426
158.092	6.06936
160.985	8.54886
163.877	12.5064
166.77	13.7943
169.663	14.424
172.555	13.3598
175.448	14.3018
178.341	18.2768
181.234	23.1092
184.126	32.7374
187.019	41.3154
189.912	49.8798
192.804	65.0032
195.697	80.242
198.59	99.132
201.482	120.016
204.375	143.763
207.268	150.805
210.161	131.957
213.053	94.4899
215.946	58.118
218.839	37.9218
221.731	22.4996
224.624	14.2494
227.517	7.49481
230.409	4.22081
233.302	1.42278
236.195	0.383011
239.088	0.265339
241.98	1.86217
244.873	0.114288
247.766	0.315842
250.658	1.04353
253.551	1.45953
256.444	2.5705
259.336	3.47944
262.229	5.74505
265.122	6.88105
268.014	8.00404
270.907	10.1079
273.8	8.67408
276.693	9.45302
279.585	7.50485
282.478	6.13299
285.371	3.41378
288.263	3.15319
291.156	3.06168
294.049	4.77523
296.942	4.99596
299.834	6.0549
302.727	5.8363
305.62	4.6168
308.512	3.77262
311.405	2.71815
314.298	1.14277
317.19	0.818684
320.083	0.364647
322.976	0.179258
325.868	0.56004
328.761	1.37988
331.654	0.386515
334.547	0.794331
337.439	1.12726
340.332	1.05763
343.225	1.08055
346.117	1.22087
349.01	1.33938
351.903	1.64274
354.796	1.43682
357.688	2.76097
360.581	1.82578
363.474	2.30924
366.366	1.06383
369.259	3.2917
372.152	1.93646
375.044	3.01782
377.937	0.942493
380.83	2.74858
383.722	2.30539
386.615	2.17813
389.508	1.23872
392.401	1.97484
395.293	1.12386
398.186	1.54015
401.079	0.490147
403.971	0.5049
406.864	1.38776
409.757	0.347601
412.649	0.188692
415.542	0.276726
418.435	1.65817
421.327	1.82512
424.22	0.527115
427.113	0.825599
430.006	0.323437
432.898	1.11165
435.791	1.51245
438.684	1.03039
441.576	0.262521
444.469	1.20504
447.362	1.13966
450.255	0.007013
453.147	0.123852
456.04	1.40065
458.933	1.61418
461.825	2.7911
464.718	3.43835
467.611	3.2872
470.503	4.8585
473.396	4.56193
476.289	3.85365
479.182	5.20828
482.074	2.9411
484.967	3.3296
487.86	2.83597
490.752	1.66435
493.645	2.1627
496.538	1.73165
499.43	1.26143
502.323	0.482075
505.216	0.752481
508.108	1.14261
511.001	1.66725
513.894	1.47435
516.787	0.552769
519.679	2.24573
522.572	3.88624
525.465	3.79993
528.357	5.91318
531.25	6.30716
534.143	8.25225
537.035	9.33663
539.928	8.92081
542.821	6.95885
545.713	5.40418
548.606	3.90114
551.499	2.43331
554.392	1.4328
557.284	1.75152
560.177	0.859258
563.07	1.51244
565.962	0.048732
568.855	1.91774
571.748	1.25704
574.64	0.013616
577.533	0.088269
580.426	0.231726
583.319	2.79136
586.211	0.358898
589.104	0.543427
591.997	0.518191
594.889	0.738972
597.782	0.44594
600.675	0.686636
603.567	0.865231
606.46	0.487108
609.353	0.9422
612.246	1.61937
615.138	0.033562
618.031	1.14762
620.924	0.645325
623.816	1.05573
626.709	1.38928
629.602	1.57729
632.494	1.62586
635.387	0.20566
638.28	1.27702
641.173	1.59378
644.065	2.03984
646.958	1.24842
649.851	0.978628
652.743	1.90226
655.636	1.57231
658.529	1.96173
661.421	2.32764
664.314	2.14736
667.207	2.20082
670.1	2.83565
672.992	1.95185
675.885	1.73276
678.778	1.4852
681.67	0.997289
684.563	0.796605
687.456	1.29101
690.348	0.433893
693.241	0.635038
696.134	0.195505
699.027	0.20848
701.919	0.114911
704.812	0.342161
707.705	0.364516
710.597	1.56978
713.49	0.377896
716.383	0.698509
719.275	0.468847
722.168	0.809101
725.061	0.730433
727.953	0.935345
730.846	0.186512
733.739	0.548382
736.632	1.69384
739.524	3.01231
742.417	3.55084
745.31	5.51054
748.202	7.3476
751.095	9.04528
753.988	11.9531
756.88	16.5184
759.773	22.6756
762.666	29.0563
765.559	39.8933
768.451	52.8869
771.344	65.7884
774.237	83.0049
777.129	102.471
780.022	121.447
782.915	140.876
785.808	159.461
788.7	174.721
791.593	181.836
794.486	183.8
797.378	176.256
800.271	165.116
803.164	157.63
806.056	147.355
808.949	138.037
811.842	124.931
814.734	108.445
817.627	87.6741
820.52	67.6925
823.413	49.8895
826.305	38.6004
829.198	29.7136
832.091	23.8214
834.983	19.6683
837.876	15.5257
840.769	10.8601
843.661	8.09941
846.554	6.86256
849.447	4.85992
852.34	3.34332
855.232	2.74736
858.125	1.77638
861.018	1.31629
863.91	0.612455
866.803	0.180182
869.696	0.413244
872.588	0.649984
875.481	0.799443
878.374	0.245161
881.266	0.326581
884.159	0.870543
887.052	0.385376
889.945	0.698533
892.837	0.033217
895.73	0.818577
898.623	0.532967
901.515	1.04975
904.408	1.49508
907.301	2.40829
910.193	2.43353
913.086	3.98941
915.979	4.88586
918.872	5.86544
921.764	5.16018
924.657	4.6466
927.55	3.56022
930.442	3.06303
933.335	2.87818
936.228	2.04244
939.12	0.854156
942.013	1.55932
944.906	1.81587
947.799	1.22735
950.691	2.08225
953.584	3.86107
956.477	5.16585
959.369	6.49168
962.262	10.5243
965.155	13.7966
968.047	21.9213
970.94	30.098
973.833	34.3947
976.726	30.3904
979.618	21.0564
982.511	12.6303
985.404	8.39982
988.296	5.69393
991.189	3.27138
994.082	1.48767
996.974	2.12725
999.867	1.91822
1002.76	0.435723
1005.65	0.200751
1008.54	1.2914
1011.44	0.526542
1014.33	0.018586
1017.22	0.234726
1020.12	0.421938
1023.01	0.476377
1025.9	0.061741
1028.79	0.68733
1031.69	0.544827
1034.58	0.022549
1037.47	0.113128
1040.37	0.187949
1043.26	1.07866
1046.15	1.10059
1049.04	0.813276
1051.94	0.173243
1054.83	0.698554
1057.72	1.54346
1060.61	1.61481
1063.51	0.867912
1066.4	0.847491
1069.29	1.34051
1072.18	0.559545
1075.08	0.693574
1077.97	2.11678
1080.86	1.26366
1083.76	0.944113
1086.65	1.56004
1089.54	1.0438
1092.43	0.35642
1095.33	1.08182
1098.22	1.406
1101.11	0.283071
1104	1.23839
1106.9	0.117472
1109.79	0.360598
1112.68	1.46111
1115.58	1.86383
1118.47	0.675269
1121.36	1.17623
1124.25	0.973763
1127.15	0.443277
1130.04	1.91565
1132.93	0.766205
1135.82	0.298889
1138.72	0.184967
1141.61	1.4303
1144.5	0.301687
1147.39	0.917515
1150.29	0.676081
1153.18	1.66618
1156.07	1.36267
1158.97	0.465117
1161.86	0.927695
1164.75	1.2399
1167.64	1.39022
1170.54	1.4962
1173.43	1.58341
1176.32	1.47969
1179.21	0.920503
1182.11	1.23243
1185	1.35252
1187.89	1.83263
1190.79	1.14582
1193.68	1.19049
1196.57	0.673325
1199.46	0.572196
1202.36	0.908525
1205.25	0.932308
1208.14	0.847758
1211.03	1.2309
1213.93	0.1293
1216.82	0.562597
1219.71	0.139163
1222.61	0.086762
1225.5	0.521897
1228.39	1.20274
1231.28	1.00842
1234.18	1.08667
1237.07	1.45344
1239.96	0.708046
1242.85	1.62873
1245.75	0.901873
1248.64	0.537017
1251.53	0.534676
1254.42	1.21352
1257.32	0.784446
1260.21	1.06029
1263.1	0.225768
1265.99	0.082929
1268.89	0.759683
1271.78	0.929855
1274.67	1.44458
1277.57	0.112319
1280.46	0.46105
1283.35	0.167527
