Measurement: Raman, 532 nm, unoriented, Raman Data Processed
Mineral: Cuprosklodowskite
Rruff sample: R060570
Ideal chemistry: Cu(UO_2_)_2_(SiO_3_OH)_2_6H_2_O
Locality: Musonoi Extension mine, near Kolwezi, Shaba Province, Zaire
Source: Michael Scott
Description: Green colored acicular crystals
Raman shift (cm-1)	intensity
115.737	0
119.112	5280.65
122.486	4821.11
125.861	3868.36
129.236	5979.09
132.611	8096.26
135.986	4415.4
139.36	1378.5
142.735	1004.23
146.11	619.156
149.485	2114.69
152.86	6770.2
156.234	12690.1
159.609	21235.1
162.984	30163
166.359	35802.1
169.734	36274.1
173.109	35916.4
176.483	37558.1
179.858	42685.4
183.233	50018.1
186.608	59042.1
189.983	68376.9
193.357	79605.2
196.732	96360.9
200.107	123542
203.482	155475
206.857	172826
210.232	146493
213.606	99081
216.981	67129.9
220.356	48057
223.731	32806.6
227.106	19669.5
230.48	10660.6
233.855	4120.77
237.23	848.984
240.605	554.93
243.98	442.859
247.355	384.996
250.729	2118.07
254.104	4205.34
257.479	8099.91
260.854	14155.8
264.229	22875.6
267.603	33020.8
270.978	45166.8
274.353	53666.2
277.728	47565.5
281.103	31255.8
284.478	20978.8
287.852	18778.3
291.227	23586.9
294.602	34017.5
297.977	48225.7
301.352	58919.3
304.727	55246.2
308.101	37291.3
311.476	20061.2
314.851	10291.8
318.226	4946.86
321.601	1935.08
324.975	461.418
328.35	207.643
331.725	686.119
335.1	753.498
338.475	446.129
341.849	64.914
345.224	588.598
348.599	1199.82
351.974	2098.39
355.349	2979.93
358.724	3822.29
362.098	5018.61
365.473	6095.54
368.848	8180.32
372.223	11140.7
375.598	15103.2
378.973	20462.7
382.347	23726.5
385.722	25074.1
389.097	22802.5
392.472	18382
395.847	13393.2
399.221	9334.69
402.596	5851.19
405.971	3707.68
409.346	2313.99
412.721	1570.63
416.095	1287.25
419.47	1275.41
422.845	1927.62
426.22	2373.36
429.595	2757.86
432.97	3181.36
436.344	3121.95
439.719	2332.22
443.094	1275.95
446.469	243.879
449.844	421.107
453.218	715.965
456.593	122.238
459.968	2109.2
463.343	5330.54
466.718	9769.3
470.093	14244.8
473.467	16786.2
476.842	16094.6
480.217	13385
483.592	10348.8
486.967	7754.64
490.341	5988.22
493.716	4372.18
497.091	3462.41
500.466	2907.59
503.841	2508.01
507.216	2573.19
510.59	3022.04
513.965	3986.99
517.34	5734.31
520.715	8761.71
524.09	13443.2
527.464	19778
530.839	27420.3
534.214	34391.1
537.589	36394.4
540.964	29338.1
544.339	19810.9
547.713	12412.3
551.088	7664.6
554.463	4639.85
557.838	2748.62
561.213	1642.89
564.588	900.098
567.962	476.98
571.337	249.395
574.712	24.865
578.087	116.98
581.461	204.314
584.836	684.662
588.211	34.084
591.586	83.643
594.961	143.664
598.336	222.762
601.71	289.869
605.085	404.691
608.46	561.4
611.835	806.904
615.21	1116.81
618.584	1363.89
621.959	1258.82
625.334	1456.99
628.709	1580.22
632.084	1464.44
635.459	1693.07
638.833	1991.14
642.208	1965.23
645.583	2197.01
648.958	2429.73
652.333	2528.73
655.708	2410.04
659.082	2400.26
662.457	1976.76
665.832	1575.88
669.207	1513.95
672.582	1254.64
675.956	936.504
679.331	893.109
682.706	358.105
686.081	407.633
689.456	31.117
692.831	320.543
696.205	539.381
699.58	800.016
702.955	881.57
706.33	1095.7
709.705	860.598
713.08	835.072
716.454	183.316
719.829	350.291
723.204	1532.38
726.579	2853.94
729.954	4496.82
733.328	6921.82
736.703	10234.9
740.078	15004.9
743.453	20375.9
746.828	28334.9
750.203	38787
753.577	51628.6
756.952	72767.5
760.327	99320.8
763.702	134372
767.076	183776
770.451	246719
773.826	323146
777.201	409822
780.576	500028
783.951	585865
787.325	650138
790.7	668784
794.075	634782
797.45	569014
800.825	495257
804.2	428836
807.574	369524
810.949	314222
814.324	257399
817.699	197772
821.074	142788
824.448	100520
827.823	72324.2
831.198	53584.9
834.573	39264
837.948	27050.8
841.323	16705.4
844.697	8801.65
848.072	4171.07
851.447	1496.98
854.822	137.521
858.197	1008.26
861.571	1300.06
864.946	1428.34
868.321	1474.28
871.696	1328.73
875.071	931.096
878.446	290.953
881.82	656.617
885.195	2362.14
888.57	4990.98
891.945	9451.39
895.32	15857.9
898.695	21306.8
902.069	21441.2
905.444	20814.3
908.819	24590
912.194	32707.4
915.568	40998.2
918.943	43413.7
922.318	37983.6
925.693	29050
929.068	20996
932.443	15013.6
935.817	11301.2
939.192	9505.04
942.567	9442.42
945.942	11306.6
949.317	16086.2
952.692	19327.5
956.066	28258
959.441	43908.7
962.816	70597.1
966.191	113909
969.566	175740
972.94	224498
976.315	187769
979.69	111639
983.065	62558.9
986.44	37697.4
989.815	24187.7
993.189	16782.3
996.564	12139.6
999.939	9174.45
1003.31	6641.76
1006.69	4732.6
1010.06	3254.5
1013.44	1987.18
1016.81	1113.48
1020.19	586.693
1023.56	12.887
1026.94	191.396
1030.31	292.02
1033.69	272.469
1037.06	429.692
1040.44	363.687
1043.81	305.054
1047.19	113.845
1050.56	55.149
1053.94	261.996
1057.31	467.586
1060.69	587.153
1064.06	833.288
1067.43	796.018
1070.81	801.726
1074.18	854.383
1077.56	934.845
1080.93	854.274
1084.31	866.983
1087.68	1187.84
1091.06	660.506
1094.43	593.396
1097.81	440.133
1101.18	283.718
1104.56	52.465
1107.93	130.125
1111.31	312.909
1114.68	316.804
1118.06	257.658
1121.43	118.894
1124.81	176.375
1128.18	299.769
1131.56	213.787
1134.93	213.179
1138.31	265.742
1141.68	216.275
1145.06	223.64
1148.43	206.705
1151.81	116.389
1155.18	181.786
1158.56	229.935
1161.93	351.164
1165.31	182.836
1168.68	220.089
1172.06	193.496
1175.43	223.22
1178.8	145.185
1182.18	249.341
1185.55	259.363
1188.93	240.158
1192.3	266.269
1195.68	236.458
1199.05	157.56
1202.43	228.37
1205.8	296.791
1209.18	181.486
1212.55	171.455
1215.93	128.75
1219.3	136.132
1222.68	328.098
1226.05	72.148
1229.43	127.533
1232.8	166.875
1236.18	185.983
1239.55	57.033
1242.93	82.158
1246.3	490.961
1249.68	68.932
1253.05	143.284
1256.42	4.41
1259.8	164.104
1263.17	25.45
1266.55	26.557
1269.92	28.417
1273.3	175.651
1276.67	78.031
1280.05	157.079
1283.42	22.619
1286.8	25.722
1290.17	36.944
1293.55	188.976
1296.92	0
