Measurement: Raman, 514 nm, unoriented, Raman Data Processed
Mineral: Cuprite
Rruff sample: R050384
Ideal chemistry: Cu^1+^_2_O
Locality: Lavender Pit, Bisbee, Warren District, Cochise County, Arizona, USA
Source: University of Arizona Mineral Museum
Description: Deep red to nearly black cubes
Measured chemistry: Cu_2.00_O
Raman shift (cm-1)	intensity
54.266	0
58.464	112.357
62.661	30.29
66.856	77.028
71.048	573.791
75.239	1248.06
79.427	1924.16
83.614	2723.65
87.798	2990.09
91.981	4280.85
96.161	4015.64
100.34	4362.61
104.516	4479.72
108.691	5198.77
112.864	4321.01
117.034	4822.9
121.203	4781.03
125.369	4152.58
129.534	4436.02
133.696	4822.28
137.857	5621.15
142.016	5960.73
146.172	5760.16
150.327	5098.19
154.48	4824.14
158.63	4444.16
162.779	4223.36
166.926	3627.77
171.07	3658.41
175.213	3926.28
179.354	4473.36
183.493	5340.62
187.63	6221.02
191.765	6684.62
195.898	7417.47
200.029	7904.52
204.158	8612.45
208.285	10817.8
212.41	13020.5
216.533	15105.8
220.654	13830
224.773	9361.09
228.891	5826.55
233.006	4064.2
237.119	3015.9
241.231	2263.26
245.34	1601.92
249.448	1078.61
253.553	990.123
257.657	885.31
261.758	488.031
265.858	394.165
269.956	313.623
274.052	271.341
278.146	229.263
282.237	209.344
286.327	256.544
290.416	301.83
294.502	238.121
298.586	337.31
302.668	410.356
306.749	367.268
310.827	334.059
314.903	191.735
318.978	195.294
323.051	173.731
327.121	17.04
331.19	24.194
335.257	137.926
339.322	78.5
343.385	92.526
347.446	159.109
351.505	158.339
355.563	109.102
359.618	110.422
363.672	59.412
367.723	37.991
371.773	120.699
375.821	241.044
379.866	409.093
383.91	490.787
387.952	680.117
391.992	793.534
396.031	1100.31
400.067	1340.48
404.101	1540.61
408.134	1769.04
412.165	1833.53
416.193	1719.95
420.22	1532.19
424.245	1371.25
428.268	1268.1
432.289	961.734
436.309	804.176
440.326	714.423
444.342	499.468
448.355	556.306
452.367	454.969
456.377	406.426
460.385	407.675
464.391	491.713
468.395	547.531
472.398	568.122
476.398	536.479
480.397	688.604
484.394	668.492
488.389	593.088
492.382	546.398
496.373	463.068
500.362	360.841
504.349	402.041
508.335	289.299
512.319	176.782
516.3	129.896
520.28	81.632
524.259	74.246
528.235	15.665
532.209	133.403
536.182	34.562
540.152	18.233
544.121	80.847
548.088	24.342
552.053	41.571
556.017	9.576
559.978	27.313
563.938	115.573
567.895	152.51
571.851	186.615
575.805	250.782
579.758	255.683
583.708	282.621
587.657	456.005
591.603	453.344
595.548	630.902
599.491	618.735
603.432	870.323
607.372	1077.82
611.309	1422.84
615.245	1851.38
619.179	2337.05
623.111	2483.14
627.041	2865.05
630.97	2578.91
634.896	2302.11
638.821	2318.33
642.744	2323.31
646.665	1908.37
650.584	1623.03
654.502	1394.01
658.418	1121.51
662.331	904.892
666.244	796.933
670.154	736.996
674.062	586.089
677.969	373.851
681.874	371.045
685.777	448.916
689.678	773.829
693.577	338.605
697.475	286.34
701.371	329.038
705.265	191.679
709.157	374.909
713.047	216.513
716.936	325.311
720.823	224.233
724.708	172.76
728.591	315.513
732.472	226.788
736.352	171.85
740.23	446.018
744.106	74.877
747.98	131.619
751.853	84.796
755.723	167.661
759.592	203.771
763.459	61.727
767.325	181.137
771.188	135.854
775.05	141.271
778.91	212.423
782.768	184.25
786.625	256.984
790.479	191.209
794.332	178.426
798.183	206.716
802.033	263.272
805.88	254.701
809.726	126.758
813.57	213.449
817.413	139.599
821.253	128.344
825.092	137.209
828.929	111.016
832.764	118.284
836.598	212.256
840.429	178.525
844.259	3.477
848.088	46.576
851.914	19.27
855.739	72.382
859.562	0.938
863.383	91.208
867.203	93.316
871.02	357.683
874.836	24.669
878.65	52.012
882.463	119.083
886.274	7.911
890.083	123.42
893.89	81.476
897.695	7.349
901.499	58.553
905.301	146.991
909.102	100.829
912.9	94.74
916.697	23.413
920.492	85.798
924.285	20.163
928.077	132.869
931.867	51.784
935.655	2.436
939.442	246.115
943.226	81.102
947.009	132.285
950.791	42.967
954.57	71.311
958.348	21.961
962.124	70.479
965.899	132.192
969.671	137.984
973.442	152.949
977.211	149.014
980.979	143.637
984.745	322.078
988.509	182.618
992.271	312.092
996.032	301.263
999.791	351.256
1003.55	150.928
1007.3	300.817
1011.06	241.335
1014.81	276.376
1018.56	469.742
1022.31	445.198
1026.06	460.833
1029.8	387.136
1033.55	406.198
1037.29	444.479
1041.03	505.891
1044.77	581.838
1048.5	372.044
1052.24	439.098
1055.97	610.554
1059.7	576.582
1063.43	537.41
1067.16	406.455
1070.89	353.514
1074.61	291.391
1078.34	257.699
1082.06	293.027
1085.78	300.195
1089.5	297.525
1093.21	278.959
1096.93	421.447
1100.64	291.988
1104.35	197.668
1108.06	66.086
1111.77	80.5
1115.48	219.789
1119.18	131.137
1122.89	608.193
1126.59	369.562
1130.29	12.5
1133.99	301.021
1137.68	344.367
1141.38	8.377
1145.07	210.734
1148.76	209.064
1152.45	186.645
1156.14	113.51
1159.83	104.969
1163.51	220.434
1167.19	292.123
1170.88	159.021
1174.56	251.836
1178.23	164.938
1181.91	18.018
1185.59	233.188
1189.26	151.74
1192.93	255.488
1196.6	66.246
1200.27	31.416
1203.94	230.939
