Measurement: Raman, 780 nm, unoriented, Raman Data Processed
Mineral: Cuprite
Rruff sample: R050384
Ideal chemistry: Cu^1+^_2_O
Locality: Lavender Pit, Bisbee, Warren District, Cochise County, Arizona, USA
Source: University of Arizona Mineral Museum
Description: Deep red to nearly black cubes
Measured chemistry: Cu_2.00_O
Raman shift (cm-1)	intensity
120.486	0
123.861	1.29535
127.236	26.9264
130.611	88.1648
133.986	159.374
137.36	239.809
140.735	306.497
144.11	385.276
147.485	405.678
150.859	356.617
154.234	254.457
157.609	202.466
160.984	173.273
164.359	154.954
167.734	192.68
171.108	288.502
174.483	405.196
177.858	535.6
181.233	520.264
184.608	493.48
187.982	463.445
191.357	432.206
194.732	374.265
198.107	363.796
201.482	365.643
204.857	322.901
208.231	334.994
211.606	364.255
214.981	363.45
218.356	326.412
221.731	246.018
225.106	145.077
228.48	86.6823
231.855	57.7882
235.23	31.0847
238.605	15.6402
241.98	7.3685
245.354	1.15701
248.729	1.35416
252.104	4.53572
255.479	8.03061
258.854	8.07845
262.228	6.98685
265.603	0.181702
268.978	4.7113
272.353	13.3939
275.728	18.8864
279.103	23.2922
282.477	30.3383
285.852	34.8949
289.227	38.4182
292.602	43.8588
295.977	46.393
299.351	49.6199
302.726	49.8488
306.101	48.9362
309.476	48.0198
312.851	44.6181
316.226	35.9183
319.6	28.1316
322.975	19.495
326.35	15.5437
329.725	10.6281
333.1	8.23611
336.474	4.5175
339.849	2.08702
343.224	0.490105
346.599	0.361961
349.974	0.402359
353.349	0.002876
356.723	0.171532
360.098	2.32426
363.473	1.99899
366.848	3.02898
370.223	4.84784
373.597	8.54745
376.972	8.21957
380.347	11.8201
383.722	16.2806
387.097	18.6346
390.471	24.5163
393.846	28.9553
397.221	33.677
400.596	36.948
403.971	42.8977
407.346	47.9634
410.72	52.1656
414.095	54.2132
417.47	56.032
420.845	56.5638
424.22	52.7664
427.594	45.3392
430.969	39.6463
434.344	31.6876
437.719	22.6346
441.094	12.3895
444.469	3.67903
447.843	1.05086
451.218	0.491837
454.593	0.681
457.968	5.3517
461.343	9.74663
464.717	16.8304
468.092	23.0499
471.467	32.0155
474.842	41.6042
478.217	50.3679
481.592	55.5514
484.966	55.9204
488.341	49.4642
491.716	38.2026
495.091	30.3924
498.466	24.7495
501.841	22.7911
505.215	22.5524
508.59	22.1256
511.965	21.6794
515.34	18.5461
518.715	13.8009
522.089	10.7088
525.464	7.98898
528.839	4.01126
532.214	2.48254
535.589	0.845169
538.963	0.59816
542.338	0.406174
545.713	0.62674
549.088	0.944298
552.463	1.50711
555.837	2.19724
559.212	1.01142
562.587	2.09319
565.962	0.833679
569.337	0.367523
572.712	1.04102
576.086	3.11292
579.461	4.64667
582.836	7.47328
586.211	11.5812
589.586	11.6894
592.96	15.1471
596.335	15.3778
599.71	13.2007
603.085	15.8344
606.46	22.4634
609.835	32.1771
613.209	43.5357
616.584	58.1056
619.959	71.7922
623.334	83.4131
626.709	92.7006
630.083	97.4779
633.458	97.902
636.833	97.029
640.208	92.9968
643.583	86.7555
646.957	78.144
650.332	66.2609
653.707	54.8681
657.082	41.7414
660.457	31.9849
663.832	24.9708
667.206	22.0734
670.581	19.2499
673.956	17.4062
677.331	16.7462
680.706	14.8095
684.081	16.3727
687.455	15.2631
690.83	15.9318
694.205	15.7972
697.58	13.3285
700.955	13.1986
704.329	11.007
707.704	9.18242
711.079	11.3299
714.454	12.4022
717.829	12.75
721.203	13.9148
724.578	12.5682
727.953	13.0259
731.328	11.2267
734.703	9.19177
738.078	6.97459
741.452	4.58011
744.827	2.23898
748.202	1.31528
751.577	0.481483
754.952	0.59211
758.327	2.34615
761.701	2.13554
765.076	1.21426
768.451	1.05673
771.826	0.596199
775.201	3.67514
778.575	5.55411
781.95	5.09973
785.325	7.23196
788.7	10.1032
792.075	11.7757
795.449	11.8019
798.824	10.4903
802.199	10.4534
805.574	8.84906
808.949	7.70792
812.323	7.45807
815.698	5.02945
819.073	4.99844
822.448	3.46264
825.823	2.19762
829.198	3.12398
832.572	2.45927
835.947	3.62308
839.322	1.16519
842.697	2.72311
846.072	1.35824
849.447	2.89643
852.821	2.64766
856.196	2.98514
859.571	3.16785
862.946	1.8932
866.321	1.98771
869.695	0.763519
873.07	1.31853
876.445	0.118912
879.82	1.51079
883.195	0.913757
886.569	1.63084
889.944	1.4016
893.319	2.51612
896.694	1.63446
900.069	1.58532
903.444	0.373581
906.818	0.585556
910.193	1.12647
913.568	0.847664
916.943	1.31254
920.318	0.707474
923.692	2.64922
927.067	1.98914
930.442	1.78268
933.817	0.80365
937.192	1.04878
940.567	1.86566
943.941	1.93881
947.316	2.05885
950.691	1.4496
954.066	1.10239
957.441	1.34022
960.815	1.10494
964.19	0.943306
967.565	1.0703
970.94	1.04381
974.315	0.536697
977.689	0.284477
981.064	0.225128
984.439	0.724258
987.814	0.532951
991.189	1.8803
994.564	0.475662
997.938	0.45002
1001.31	1.3104
1004.69	1.25539
1008.06	2.72381
1011.44	4.23305
1014.81	4.49757
1018.19	6.06058
1021.56	7.81389
1024.94	9.30429
1028.31	11.8224
1031.69	11.1128
1035.06	12.6954
1038.44	15.2277
1041.81	16.0783
1045.19	17.6781
1048.56	18.1506
1051.94	17.428
1055.31	18.6919
1058.68	18.6416
1062.06	20.2211
1065.43	19.5694
1068.81	19.4433
1072.18	18.168
1075.56	16.3109
1078.93	13.1941
1082.31	10.5372
1085.68	6.43401
1089.06	3.78652
1092.43	3.00455
1095.81	1.31205
1099.18	1.34672
1102.56	1.08989
1105.93	0.629868
1109.31	1.35612
1112.68	1.65997
1116.06	2.3429
1119.43	1.36569
1122.81	2.62716
1126.18	2.0773
1129.56	2.11716
1132.93	1.15133
1136.31	2.5069
1139.68	1.42487
1143.06	0.852409
1146.43	0.029282
1149.81	0.033096
1153.18	0.19603
1156.56	0.512306
1159.93	0.649612
1163.3	0.31131
1166.68	0.707451
1170.05	1.06945
1173.43	1.4378
1176.8	1.19517
1180.18	1.11209
1183.55	0.667282
1186.93	2.03335
1190.3	0.196625
1193.68	3.07094
1197.05	2.57269
1200.43	2.47316
1203.8	3.24333
1207.18	4.20615
1210.55	3.7534
1213.93	3.99883
1217.3	4.19744
1220.68	3.63834
1224.05	2.06718
1227.43	2.39691
1230.8	2.66028
1234.18	1.9928
1237.55	2.22456
1240.92	0.698524
1244.3	2.34576
1247.67	2.10183
1251.05	1.00677
1254.42	0.817657
1257.8	0.085892
1261.17	1.19836
1264.55	0.119186
1267.92	1.03452
1271.3	0.485413
1274.67	0.563614
1278.05	0
