Measurement: Raman, 780 nm, unoriented, Raman Data Processed
Mineral: Cuprite
Rruff sample: R140763
Ideal chemistry: Cu^1+^_2_O
Locality: Milpillas mine, Municipio de Santa Cruz, Sonora, Mexico
Source: Marcus Origlieri
Description: Semimetallic deep red, massive
Raman shift (cm-1)	intensity
90.5957	0
93.9705	65.9461
97.3453	75.6993
100.72	72.5521
104.095	84.2822
107.47	89.8994
110.845	49.5703
114.219	21.7805
117.594	1.03909
120.969	8.05023
124.344	0.958191
127.719	18.8917
131.094	53.0581
134.468	104.556
137.843	142.304
141.218	191.757
144.593	244.169
147.968	264.594
151.342	225.062
154.717	176.646
158.092	137.557
161.467	99.2576
164.842	89.5524
168.216	112.568
171.591	181.557
174.966	319.556
178.341	373.064
181.716	372.172
185.09	401.451
188.465	414.984
191.84	379.663
195.215	332.235
198.59	352.276
201.965	260.495
205.339	220.424
208.714	241.69
212.089	273.913
215.464	294.794
218.839	273.495
222.214	195.854
225.588	127.272
228.963	100.367
232.338	72.6833
235.713	53.8031
239.088	46.5635
242.462	35.6394
245.837	30.7473
249.212	25.1928
252.587	17.6564
255.962	5.95865
259.336	2.52067
262.711	6.24647
266.086	5.62069
269.461	3.09141
272.836	2.25572
276.211	0.38652
279.585	2.94939
282.96	4.33273
286.335	7.26795
289.71	12.6629
293.085	15.2274
296.459	14.8896
299.834	16.6827
303.209	17.6268
306.584	18.7173
309.959	19.7954
313.334	19.9152
316.708	19.8969
320.083	17.1726
323.458	14.7256
326.833	9.7673
330.207	7.2622
333.582	3.51625
336.957	2.24748
340.332	0.984806
343.707	0.003841
347.082	1.21096
350.456	0.462578
353.831	1.08194
357.206	1.31332
360.581	1.16734
363.956	2.14628
367.33	2.51078
370.705	4.27461
374.08	5.43702
377.455	6.93449
380.83	8.84303
384.205	9.07246
387.579	12.1217
390.954	14.5768
394.329	16.536
397.704	19.4869
401.079	23.1679
404.453	25.0024
407.828	28.4292
411.203	31.4841
414.578	36.2163
417.953	37.4575
421.327	38.0304
424.702	37.099
428.077	34.4253
431.452	31.0761
434.827	25.929
438.202	20.0494
441.576	11.959
444.951	4.5136
448.326	1.95393
451.701	0.979797
455.076	0.027664
458.45	1.04787
461.825	2.76872
465.2	6.16481
468.575	9.40343
471.95	12.398
475.325	20.8447
478.699	28.3605
482.074	38.3803
485.449	41.4016
488.824	37.0402
492.199	26.8691
495.573	19.0381
498.948	13.4523
502.323	12.4227
505.698	12.154
509.073	13.3316
512.447	13.368
515.822	12.1655
519.197	10.7304
522.572	8.73966
525.947	7.05898
529.322	4.92538
532.696	2.99013
536.071	1.85718
539.446	1.46014
542.821	1.59586
546.196	1.87531
549.57	1.48273
552.945	0.316055
556.32	0.723503
559.695	1.12297
563.07	0.709648
566.444	0.705734
569.819	2.32167
573.194	0.600441
576.569	0.46093
579.944	1.13475
583.319	2.20503
586.693	2.15126
590.068	4.96038
593.443	6.02232
596.818	4.97021
600.193	3.38982
603.567	4.86665
606.942	8.96133
610.317	14.7348
613.692	22.8167
617.067	32.7072
620.442	45.063
623.816	56.5532
627.191	60.9524
630.566	65.9982
633.941	66.7221
637.316	66.7939
640.69	66.0965
644.065	58.5774
647.44	56.4584
650.815	50.0664
654.19	40.2874
657.564	31.1739
660.939	21.0783
664.314	16.4585
667.689	15.2195
671.064	13.3519
674.439	12.2285
677.813	11.6146
681.188	11.2488
684.563	11.0866
687.938	12.2387
691.313	13.2732
694.688	12.8074
698.062	12.5755
701.437	10.4374
704.812	9.13574
708.187	9.26094
711.562	8.8133
714.936	10.4587
718.311	12.2587
721.686	12.5808
725.061	13.5326
728.436	11.7392
731.81	13.1651
735.185	11.7163
738.56	10.2819
741.935	6.93378
745.31	3.17019
748.684	2.68992
752.059	0.879929
755.434	0.086296
758.809	0.402035
762.184	1.49294
765.559	1.50578
768.933	1.35763
772.308	0.262741
775.683	0.70871
779.058	2.20544
782.433	3.25974
785.808	5.66352
789.182	6.08572
792.557	7.95275
795.932	7.99791
799.307	7.61258
802.682	7.25787
806.056	5.45899
809.431	5.67713
812.806	4.09545
816.181	5.02711
819.556	3.75134
822.93	1.90903
826.305	1.86894
829.68	1.64411
833.055	0.200924
836.43	0.315929
839.804	1.62863
843.179	0.778717
846.554	1.13427
849.929	1.13682
853.304	1.49153
856.679	0.89669
860.053	1.24069
863.428	1.10405
866.803	0.651318
870.178	0.439579
873.553	0.654739
876.927	0.440479
880.302	0.285618
883.677	1.0917
887.052	1.6308
890.427	1.21917
893.802	1.11843
897.176	1.50614
900.551	1.18853
903.926	1.24941
907.301	1.83643
910.676	0.066059
914.05	1.45735
917.425	1.76417
920.8	1.40201
924.175	1.30191
927.55	1.4574
930.924	2.25775
934.299	1.31259
937.674	1.70029
941.049	0.648762
944.424	1.65369
947.799	2.16601
951.173	1.30809
954.548	1.17551
957.923	1.75596
961.298	1.27696
964.673	0.532753
968.047	0.704327
971.422	0.763466
974.797	0.677013
978.172	0.735146
981.547	0.038582
984.922	0.31044
988.296	0.625484
991.671	0.670116
995.046	0.045147
998.421	0.471218
1001.8	0.86771
1005.17	1.9507
1008.54	1.55299
1011.92	2.28141
1015.29	3.54192
1018.67	4.58534
1022.04	4.97116
1025.42	6.62726
1028.79	8.78951
1032.17	9.63853
1035.54	11.9687
1038.92	11.2526
1042.29	14.0853
1045.67	13.479
1049.04	14.6333
1052.42	14.2223
1055.79	15.4558
1059.17	16.124
1062.54	16.6734
1065.92	16.1595
1069.29	16.8744
1072.67	17.0219
1076.04	16.3764
1079.42	13.8788
1082.79	10.8505
1086.17	7.07746
1089.54	4.19793
1092.92	2.81004
1096.29	0.772377
1099.66	1.49941
1103.04	1.33676
1106.41	1.80058
1109.79	1.34913
1113.16	0.127571
1116.54	0.385475
1119.91	0.793705
1123.29	2.99845
1126.66	1.64564
1130.04	2.19142
1133.41	1.73604
1136.79	2.0033
1140.16	2.31039
1143.54	0.602631
1146.91	0.837685
1150.29	0.011162
1153.66	0.859261
1157.04	0.919617
1160.41	0.420303
1163.79	0.203171
1167.16	0.409039
1170.54	0.191113
1173.91	0.723488
1177.29	0.457088
1180.66	0.064159
1184.04	0.53759
1187.41	1.23804
1190.79	0.875053
1194.16	1.46406
1197.54	2.10148
1200.91	2.96707
1204.28	2.57618
1207.66	3.42116
1211.03	3.10495
1214.41	3.69569
1217.78	2.45414
1221.16	1.9305
1224.53	3.61066
1227.91	2.54116
1231.28	2.26408
1234.66	2.12483
1238.03	0.918488
1241.41	0.599068
1244.78	0.901825
1248.16	1.40116
1251.53	0.269337
1254.91	0.626461
1258.28	0.986534
1261.66	0.885529
1265.03	0.990063
1268.41	1.36069
1271.78	0.367092
1275.16	0.490318
1278.53	0.542168
1281.9	0.832714
