Measurement: Raman, 532 nm, unoriented, Raman Data Processed
Mineral: Cuprite
Rruff sample: R050374
Ideal chemistry: Cu^1+^_2_O
Locality: unknown
Source: Eugene Schlepp
Description: Aggregate of deep red cubes
Measured chemistry: Cu_2.00_O
Raman shift (cm-1)	intensity
125.138	0
128.512	0.75827
131.887	11.4364
135.262	18.4956
138.637	28.4424
142.012	28.9463
145.386	33.0106
148.761	32.6003
152.136	24.1372
155.511	15.0487
158.886	10.1453
162.26	8.24803
165.635	5.93669
169.01	10.0926
172.385	19.9439
175.76	32.8425
179.135	42.8689
182.509	55.3593
185.884	68.9694
189.259	82.975
192.634	89.0577
196.009	99.3898
199.383	122.7
202.758	127.713
206.133	136.206
209.508	163.411
212.883	190.687
216.257	215.249
219.632	214.409
223.007	146.414
226.382	79.5932
229.757	53.227
233.132	38.1585
236.506	27.6524
239.881	21.6121
243.256	13.5943
246.631	6.98672
250.006	3.42015
253.381	0.887569
256.755	1.72093
260.13	1.59878
263.505	1.45525
266.88	1.06345
270.255	0.453629
273.629	1.27562
277.004	3.40232
280.379	4.33248
283.754	3.85752
287.129	6.44931
290.503	9.99633
293.878	10.7053
297.253	10.6992
300.628	11.9191
304.003	13.7727
307.378	14.2212
310.752	13.7532
314.127	12.4225
317.502	11.7849
320.877	8.3928
324.252	8.01767
327.627	5.82396
331.001	3.80959
334.376	3.08715
337.751	1.40453
341.126	0.84346
344.5	0.449116
347.875	0.127995
351.25	0.241409
354.625	0.506325
358	0.320972
361.375	0.889572
364.75	1.15522
368.124	0.463081
371.499	2.5724
374.874	3.38052
378.249	4.56199
381.623	5.96224
384.998	9.16529
388.373	11.6332
391.748	14.4
395.123	17.0727
398.498	21.0522
401.872	22.4486
405.247	25.1703
408.622	25.4654
411.997	26.4011
415.372	24.5863
418.747	24.0304
422.121	19.9212
425.496	16.6205
428.871	12.5841
432.246	10.0519
435.621	7.4697
438.995	2.76072
442.37	1.82847
445.745	1.65933
449.12	0.083996
452.495	0.364765
455.87	0.412277
459.244	0.710659
462.619	0.587757
465.994	1.39277
469.369	2.41555
472.744	3.7021
476.118	5.48635
479.493	5.40655
482.868	7.20226
486.243	8.0282
489.618	6.13642
492.993	6.87791
496.367	5.81265
499.742	6.40881
503.117	5.66096
506.492	6.51484
509.867	4.52796
513.241	5.2363
516.616	5.44186
519.991	3.75272
523.366	3.63801
526.741	4.00198
530.115	2.8964
533.49	2.58726
536.865	2.35098
540.24	0.876938
543.615	0.209038
546.99	0.034569
550.364	0.404388
553.739	0.591339
557.114	0.641495
560.489	0.528152
563.864	0.649788
567.239	0.406082
570.613	0.175438
573.988	2.12872
577.363	2.61072
580.738	2.71827
584.112	3.26252
587.487	4.90739
590.862	6.21141
594.237	8.33725
597.612	10.3328
600.987	13.7495
604.361	16.8823
607.736	20.5982
611.111	27.5239
614.486	31.7393
617.861	39.547
621.236	44.5138
624.61	47.2382
627.985	47.2154
631.36	45.7925
634.735	42.2501
638.11	37.2059
641.484	33.8263
644.859	30.411
648.234	26.8283
651.609	21.3897
654.984	15.0946
658.359	10.5512
661.733	8.8374
665.108	5.0873
668.483	3.17306
671.858	2.60044
675.233	1.70102
678.607	2.71462
681.982	0.794441
685.357	0.919785
688.732	1.27153
692.107	0.266396
695.481	0.683685
698.856	0.527206
702.231	0.860329
705.606	1.1992
708.981	0.56855
712.356	0.62384
715.73	2.2952
719.105	1.93794
722.48	2.03702
725.855	2.10436
729.23	3.9588
732.605	1.11704
735.979	1.73268
739.354	0.178802
742.729	0.802139
746.104	0.649971
749.479	1.72932
752.853	0.256775
756.228	1.44795
759.603	0.151649
762.978	0.092346
766.353	0.216934
769.727	0.284004
773.102	0.124786
776.477	1.41007
779.852	1.44572
783.227	3.27059
786.602	3.37817
789.976	4.43778
793.351	3.06188
796.726	4.51405
800.101	5.13077
803.476	5.31385
806.851	4.01894
810.225	4.26353
813.6	3.22493
816.975	4.75581
820.35	3.83768
823.725	4.74181
827.099	3.34138
830.474	3.33537
833.849	2.43475
837.224	2.62752
840.599	2.09161
843.973	2.40992
847.348	3.39186
850.723	3.78152
854.098	1.21958
857.473	1.19913
860.847	0.797012
864.222	0.906464
867.597	2.54697
870.972	1.01528
874.347	0.496643
877.722	1.47475
881.096	0.393379
884.471	2.03032
887.846	0.655151
891.221	1.42979
894.596	0.701378
897.971	0.118446
901.345	0.0811
904.72	1.75809
908.095	2.36392
911.47	0.765846
914.845	0.694397
918.219	1.14349
921.594	1.26084
924.969	1.47929
928.344	2.51001
931.719	1.56494
935.093	2.60934
938.468	1.40566
941.843	1.39957
945.218	1.4938
948.593	3.16924
951.968	0.72506
955.342	3.42203
958.717	2.70237
962.092	0.82486
965.467	0.626144
968.842	0.90361
972.216	3.10301
975.591	0.674713
978.966	0.237076
982.341	1.69691
985.716	0.20079
989.091	0.458435
992.465	0.940765
995.84	2.56798
999.215	0.901672
1002.59	1.01297
1005.97	1.76233
1009.34	2.57484
1012.71	2.40924
1016.09	2.35515
1019.46	2.601
1022.84	1.81003
1026.21	1.97058
1029.59	5.57642
1032.96	5.33655
1036.34	4.79242
1039.71	5.52232
1043.09	6.76402
1046.46	5.1601
1049.84	4.91078
1053.21	6.45033
1056.59	4.52962
1059.96	6.22153
1063.34	5.00247
1066.71	5.09274
1070.09	4.46355
1073.46	2.39456
1076.84	3.09186
1080.21	0.076752
1083.59	1.01611
1086.96	1.17206
1090.34	0.067429
1093.71	0.716583
1097.09	1.55937
1100.46	0.698364
1103.83	0.73616
1107.21	0.810593
1110.58	0.418243
1113.96	0.814011
1117.33	2.21606
1120.71	0.120392
1124.08	1.16763
1127.46	1.30565
1130.83	2.09155
1134.21	2.58801
1137.58	1.45485
1140.96	1.46039
1144.33	1.95606
1147.71	3.31772
1151.08	4.10901
1154.46	3.46887
1157.83	1.94087
1161.21	5.49841
1164.58	2.65001
1167.96	2.22383
1171.33	1.07754
1174.71	3.18002
1178.08	2.56804
1181.45	0.213211
1184.83	0.602783
1188.2	1.3548
1191.58	2.02362
1194.95	2.09631
1198.33	0.157867
1201.7	1.03906
1205.08	2.65164
1208.45	2.65765
1211.83	0.722809
1215.2	0.467346
1218.58	0.099213
1221.95	0.250214
1225.33	0.604187
1228.7	0.566254
1232.08	1.4588
1235.45	1.09024
1238.83	0.660034
1242.2	1.28995
1245.58	1.02881
1248.95	4.27652
1252.33	2.94244
1255.7	3.17761
1259.08	2.27884
1262.45	1.70572
1265.83	2.93188
1269.2	4.59638
1272.58	4.80551
1275.95	4.34903
1279.33	6.58954
1282.7	2.28992
1286.07	3.4902
1289.45	3.83594
1292.82	4.49872
1296.2	0.166229
1299.57	1.9205
1302.95	0.009644
