Measurement: Raman, 532 nm, unoriented, Raman Data Processed
Mineral: Curite
Rruff sample: R060728
Ideal chemistry: Pb_3+x_[(UO_2_)_4_O_4+x_(OH)_3-x_]_2_2H_2_O
Locality: Swambo, Katanga, Zaire
Source: Bob Jenkins
Description: Orange massive coating
Raman shift (cm-1)	intensity
145.629	0
148.521	21.2393
151.414	122.218
154.307	463.008
157.199	814.269
160.092	1143.15
162.985	1132.51
165.877	824.936
168.77	492.065
171.663	358.5
174.555	263.229
177.448	322.92
180.341	350.99
183.234	428.141
186.126	311.91
189.019	176.782
191.912	131.279
194.804	19.1709
197.697	145.807
200.59	43.0088
203.482	85.5156
206.375	351.413
209.268	683.639
212.161	991.537
215.053	1395.48
217.946	1815.16
220.839	2020.59
223.731	1890.26
226.624	1554.62
229.517	1039.45
232.41	698.998
235.302	532.176
238.195	447.219
241.088	496.519
243.98	636.875
246.873	707.149
249.766	769.139
252.658	701.468
255.551	501.008
258.444	477.018
261.336	350.952
264.229	454.56
267.122	610.614
270.015	719.875
272.907	769.736
275.8	1067.23
278.693	1265.09
281.585	1455.59
284.478	1542.85
287.371	1503.95
290.263	1510.98
293.156	1526.95
296.049	1690.83
298.942	1946
301.834	2011.59
304.727	1800.04
307.62	1338.67
310.512	815.934
313.405	444.404
316.298	261.275
319.19	71.1299
322.083	46.6328
324.976	46.6572
327.868	38.4121
330.761	20.0547
333.654	53.2119
336.547	23.1133
339.439	25.4824
342.332	146.478
345.225	152.716
348.117	139.293
351.01	210.436
353.903	189.537
356.796	251.116
359.688	155.627
362.581	99.3203
365.474	56.9795
368.366	61.6914
371.259	66.8115
374.152	80.4043
377.044	66.6621
379.937	42.957
382.83	78.5039
385.723	8.72461
388.615	40.75
391.508	42.0879
394.401	71.0908
397.293	61.6133
400.186	72.6143
403.079	23.5244
405.971	22.3604
408.864	2.9043
411.757	1.94727
414.65	85.1475
417.542	155.725
420.435	127.324
423.328	172.649
426.22	220.022
429.113	249.526
432.006	316.942
434.898	391.023
437.791	482.56
440.684	616.35
443.576	767.245
446.469	954.047
449.362	1020.49
452.254	1148.01
455.147	1181.59
458.04	1078.57
460.933	945.981
463.825	764.733
466.718	720.43
469.611	664.735
472.503	603.996
475.396	532.544
478.289	369.463
481.181	342.103
484.074	362.178
486.967	334.92
489.86	252.647
492.752	194.712
495.645	180.719
498.538	173.197
501.43	178.449
504.323	142.158
507.216	141.832
510.108	187.033
513.001	41.084
515.894	86.1348
518.787	39.7998
521.679	25.4619
524.572	67.125
527.465	29.4854
530.357	27.5645
533.25	29.2998
536.143	3.82129
539.036	54.0918
541.928	96.3389
544.821	78.1543
547.714	89.6123
550.606	151.027
553.499	136.435
556.392	119.1
559.284	192.568
562.177	224.999
565.07	224.598
567.963	166.829
570.855	189.688
573.748	134.721
576.641	220.907
579.533	146.416
582.426	208.506
585.319	302.728
588.211	268.867
591.104	300.786
593.997	223.919
596.89	161.939
599.782	116.123
602.675	56.8603
605.568	130.269
608.46	142.898
611.353	127.839
614.246	218.73
617.138	117.476
620.031	133.825
622.924	186.905
625.816	179.565
628.709	130.361
631.602	196.606
634.495	104.321
637.387	34.8633
640.28	9.51074
643.173	23.7314
646.065	14.7393
648.958	64.2031
651.851	90.4463
654.743	134.434
657.636	25.4766
660.529	14.8477
663.422	2.18262
666.314	24.5986
669.207	39.1943
672.1	23.6045
674.992	29.9736
677.885	17.0371
680.778	55.8701
683.67	55.4277
686.563	147.582
689.456	76.043
692.349	97.3848
695.241	149.088
698.134	102.525
701.027	15.4004
703.919	14.3262
706.812	34.8975
709.705	69.4678
712.597	14.7119
715.49	8.21094
718.383	43.5137
721.276	51.2783
724.168	12.7432
727.061	135.627
729.954	64.2002
732.846	200.904
735.739	236.273
738.632	414.633
741.524	605.409
744.417	858.409
747.31	1099.7
750.203	1332.74
753.095	1475.68
755.988	2053.14
758.881	2348.45
761.773	2790.21
764.666	3134.29
767.559	3423.27
770.451	3712.76
773.344	4026.52
776.237	3935.85
779.13	4146.87
782.022	4428.55
784.915	4459.67
787.807	4526.56
790.7	4269.67
793.593	3810.78
796.486	3186.1
799.378	2726.71
802.271	2340.44
805.164	2294.48
808.056	2167.98
810.949	2630.88
813.842	3114.72
816.734	4198.25
819.627	5831.84
822.52	8386.53
825.413	11832.2
828.305	15161.6
831.198	15762
834.091	11888.2
836.983	7237.8
839.876	4092.45
842.769	2476.73
845.661	1455.12
848.554	802.844
851.447	422.324
854.34	233.709
857.232	108.598
860.125	30.2246
863.018	16.3721
865.91	44.5947
868.803	117.57
871.696	109.602
874.588	63.5068
877.481	21.0049
880.374	6.16992
883.266	97.4297
886.159	155.713
889.052	124.685
891.945	210.295
894.837	310.384
897.73	340.553
900.623	395.264
903.515	267.33
906.408	327.528
909.301	351.992
912.193	301.894
915.086	305.359
917.979	308.784
920.872	314.094
923.764	316.736
926.657	333.859
929.55	225.957
932.442	165.011
935.335	54.2725
938.228	173.182
941.12	88.4971
944.013	42.4111
946.906	25.3418
949.799	24.2432
952.691	60.2725
955.584	40.7978
958.477	13.8935
961.369	110.101
964.262	106.911
967.155	176.576
970.047	80.584
972.94	89.6533
975.833	69.8877
978.726	131.184
981.618	113.113
984.511	126.675
987.404	96.207
990.296	185.644
993.189	5.25
996.082	136.707
998.974	169.44
1001.87	217.48
1004.76	278.155
1007.65	278.153
1010.54	476.036
1013.44	710.332
1016.33	922.56
1019.22	1141.3
1022.12	1365.98
1025.01	1344.39
1027.9	1096.66
1030.79	828.502
1033.69	668.863
1036.58	570.4
1039.47	455.918
1042.37	351.142
1045.26	187.025
1048.15	35.8086
1051.04	129.753
1053.94	147.2
1056.83	177.162
1059.72	81.4619
1062.61	63.9082
1065.51	51.9062
1068.4	26.2764
1071.29	98.4922
1074.18	45.7793
1077.08	8.34082
1079.97	27.0146
1082.86	47.0566
1085.76	60.5185
1088.65	78.917
1091.54	20.7588
1094.43	92.2744
1097.33	115.755
1100.22	120.873
1103.11	135.731
1106	102.69
1108.9	101.544
1111.79	85.4531
1114.68	41.081
1117.58	73.7793
1120.47	19.7412
1123.36	46.5293
1126.25	95.9375
1129.15	142.038
1132.04	121.201
1134.93	75.1084
1137.82	91.3096
1140.72	88.1924
1143.61	132.523
1146.5	95.6885
1149.39	11.1904
1152.29	65.625
1155.18	125.068
1158.07	156.935
1160.97	41.7197
1163.86	18.9854
1166.75	7.85938
1169.64	53.6406
1172.54	69.3857
1175.43	121.676
1178.32	159.31
1181.21	130.581
1184.11	110.208
1187	155.052
1189.89	130.512
1192.79	17.2949
1195.68	94.6231
1198.57	60.8857
1201.46	54.2041
1204.36	158.036
1207.25	37.0195
1210.14	165.601
1213.03	140.901
1215.93	219.852
1218.82	82.7842
1221.71	104.969
1224.61	162.484
1227.5	44.0654
1230.39	80.0244
1233.28	121.997
1236.18	167.256
1239.07	171.439
1241.96	159.472
1244.85	121.704
1247.75	170.277
1250.64	60.4092
1253.53	55.793
1256.42	43.6934
1259.32	156.616
1262.21	74.417
1265.1	19.5918
1267.99	32.1699
1270.89	138.803
1273.78	128.616
1276.67	100.692
1279.57	60.4785
1282.46	84.4678
1285.35	61.3662
1288.24	27.9385
1291.14	1.33301
