Measurement: Raman, 532 nm, unoriented, Raman Data Processed
Mineral: Curite
Rruff sample: R070328
Ideal chemistry: Pb_3+x_[(UO_2_)_4_O_4+x_(OH)_3-x_]_2_2H_2_O
Locality: Kasolo mine, Shinkolobwe, Shaba Zaire
Source: James Shigley
Description: Orange acicular crystals on a quartz matrix and associated with torbernite
Raman shift (cm-1)	intensity
137.609	0
140.984	234.379
144.358	270.704
147.733	93.446
151.108	19.5652
154.483	80.3323
157.858	54.6836
161.233	12.8049
164.607	7.09058
167.982	31.6929
171.357	181.594
174.732	386.587
178.107	700.679
181.482	866.216
184.856	795.521
188.231	500.353
191.606	300.912
194.981	161.302
198.356	89.3005
201.731	152.628
205.105	235.489
208.48	291.897
211.855	303.819
215.23	227.022
218.605	107.184
221.979	108.844
225.354	47.1702
228.729	8.83496
232.104	44.0408
235.479	84.0054
238.853	74.2331
242.228	196.998
245.603	337.741
248.978	406.028
252.353	411.47
255.727	435.082
259.102	502.321
262.477	594.401
265.852	695.419
269.227	766.058
272.602	792.435
275.976	655.065
279.351	417.023
282.726	221.34
286.101	153.972
289.476	93.801
292.851	69.7571
296.225	39.6641
299.6	12.0686
302.975	23.3386
306.35	10.1272
309.725	11.4966
313.099	50.8276
316.474	14.772
319.849	62.1343
323.224	119.489
326.599	178.782
329.974	212.38
333.348	243.946
336.723	295.648
340.098	349.396
343.473	318.707
346.848	268.931
350.223	335.13
353.597	361.022
356.972	421.582
360.347	441.14
363.722	446.123
367.097	361.11
370.471	338.793
373.846	291.174
377.221	280.307
380.596	266.478
383.971	270.981
387.346	260.449
390.72	220.484
394.095	214.487
397.47	123.226
400.845	64.5376
404.219	54.7153
407.594	25.5195
410.969	7.19385
414.344	49.1797
417.719	13.4898
421.094	45.4365
424.469	10.377
427.843	17.0537
431.218	86.4731
434.593	151.793
437.968	200.215
441.343	261.281
444.717	316.25
448.092	363.606
451.467	390.21
454.842	480.231
458.217	497.813
461.591	413.856
464.966	455.053
468.341	408.04
471.716	464.174
475.091	397.562
478.466	384.504
481.84	407.832
485.215	463.056
488.59	446.358
491.965	513.271
495.34	528.274
498.714	572.783
502.089	563.27
505.464	572.54
508.839	497.295
512.214	431.66
515.589	407.456
518.963	393.315
522.338	340.72
525.713	359.373
529.088	322.635
532.463	273.203
535.837	291.743
539.212	329.161
542.587	360.992
545.962	354.521
549.337	378.725
552.712	416.502
556.086	407.573
559.461	316.538
562.836	344.986
566.211	303.742
569.586	247.515
572.96	220.623
576.335	133.742
579.71	86.6997
583.085	135.469
586.46	43.126
589.835	6.31738
593.209	12.1743
596.584	24.8023
599.959	7.96191
603.334	4.01807
606.709	15.7993
610.083	40.3911
613.458	25.0708
616.833	95.5625
620.208	101.873
623.583	152.076
626.958	188.561
630.332	189.17
633.707	243.875
637.082	309.649
640.457	307.156
643.832	290.283
647.207	300.764
650.581	273.577
653.956	251.179
657.331	192.108
660.706	192.894
664.081	135.77
667.455	139.237
670.83	3.03076
674.205	0.385742
677.58	5.07861
680.955	26.7979
684.33	25.1431
687.704	79.311
691.079	45.5962
694.454	33.5767
697.829	22.0596
701.204	1.09863
704.578	60.2144
707.953	114.178
711.328	212.632
714.703	291.219
718.078	450.216
721.452	665.152
724.827	883.358
728.202	1258.16
731.577	1533.11
734.952	1986.37
738.327	2465.18
741.701	2990.05
745.076	3985.28
748.451	4308.71
751.826	5375.31
755.201	6382.75
758.576	7601.53
761.95	8958.17
765.325	10037.3
768.7	10853.9
772.075	11642.6
775.45	12169.6
778.824	12888.3
782.199	13685.7
785.574	14053.9
788.949	13714.1
792.324	12254.4
795.698	10238.8
799.073	8150.34
802.448	6246.77
805.823	4714.92
809.198	3649.38
812.573	2751.17
815.947	2104.8
819.322	1575.43
822.697	1101.62
826.072	830.336
829.447	559.87
832.822	334.632
836.196	170.093
839.571	106.63
842.946	39.6572
846.321	24.0967
849.696	4.62598
853.07	42.3188
856.445	67.7017
859.82	38.9775
863.195	28.7085
866.57	6.00342
869.944	21.4956
873.319	27.9883
876.694	28.082
880.069	24.1416
883.444	62.7461
886.819	160.135
890.193	84.7314
893.568	95.4771
896.943	73.0195
900.318	123.603
903.693	141.726
907.067	176.093
910.442	193.286
913.817	228.808
917.192	193.273
920.567	138.614
923.942	131.136
927.316	156.283
930.691	51.7681
934.066	111.007
937.441	121.999
940.816	129.378
944.191	168.988
947.565	97.7944
950.94	139.562
954.315	152.841
957.69	113.214
961.065	129.273
964.439	68.2222
967.814	101.553
971.189	104.684
974.564	94.0942
977.939	75.0444
981.313	61.0879
984.688	93.3804
988.063	63.9556
991.438	81.5278
994.813	77.8574
998.188	10.9209
1001.56	93.8525
1004.94	41.4316
1008.31	87.6675
1011.69	20.5273
1015.06	49.4062
1018.44	37.0391
1021.81	64.6191
1025.19	67.6797
1028.56	46.3301
1031.94	19.2617
1035.31	28.2256
1038.68	42.9541
1042.06	33.332
1045.43	31.2871
1048.81	8.2666
1052.18	37.4873
1055.56	84.0478
1058.93	40.6309
1062.31	41.1289
1065.68	86.4463
1069.06	36.2471
1072.43	14.6299
1075.81	33.1318
1079.18	30.0059
1082.56	27.6621
1085.93	51.3935
1089.31	15.334
1092.68	83.5303
1096.06	69.8769
1099.43	18.9287
1102.81	34.3506
1106.18	72.918
1109.56	69.5244
1112.93	38.9922
1116.31	58.7412
1119.68	46.1211
1123.06	31.7461
1126.43	43.1533
1129.81	72.1494
1133.18	70.3877
1136.56	93.6123
1139.93	87.4141
1143.31	36.7666
1146.68	71.0996
1150.05	22.3184
1153.43	61.0215
1156.8	57.373
1160.18	82.3477
1163.55	72.8428
1166.93	72.0498
1170.3	130.529
1173.68	126.306
1177.05	48.8838
1180.43	13.708
1183.8	13.9619
1187.18	90.0273
1190.55	9.37305
1193.93	109.223
1197.3	125.126
1200.68	54.8027
1204.05	49.5557
1207.43	52.5977
1210.8	69.8477
1214.18	66.7998
1217.55	66.6377
1220.93	27.3135
1224.3	55.4307
1227.67	123.462
1231.05	94.3008
1234.42	83.3379
1237.8	113.287
1241.17	129.863
1244.55	61.6445
1247.92	60.6797
1251.3	51.835
1254.67	135.548
1258.05	107.916
1261.42	77.1191
1264.8	75.4307
1268.17	106.778
1271.55	141.423
1274.92	56.5166
1278.3	72.6397
1281.67	69.5713
1285.05	88.6426
1288.42	78.3955
1291.8	86.5117
1295.17	83.9053
1298.55	76.1269
1301.92	83.3516
1305.3	2.31445
1308.67	83.8994
