Measurement: Raman, 532 nm, unoriented, Raman Data Processed
Mineral: Curienite
Rruff sample: R050548
Ideal chemistry: Pb(UO_2_)_2_(VO_4_)_2_5H_2_O
Locality: Mounana mine, Franceville, Haut-Ogooué, Gabon
Source: University of Arizona Mineral Museum
Description: Groups of heavily striated orange bladed crystals
Measured chemistry: (Pb_0.83_Ba_0.17_)_Σ=1_(U_1.00_O_2_)_2_(V_1.00_O_4_)_2_·5.1H_2_O
Raman shift (cm-1)	intensity
152.155	0
155.048	156.629
157.94	266.43
160.833	742.336
163.726	1247.31
166.618	1677.93
169.511	1524.37
172.404	1292.09
175.297	956.438
178.189	1011.68
181.082	1412.12
183.975	1952.8
186.867	2242.53
189.76	2005.95
192.653	1466.68
195.545	801.555
198.438	481.688
201.331	457.68
204.224	875.234
207.116	1549.79
210.009	2411.99
212.902	3443.35
215.794	4940.72
218.687	6758.23
221.58	8516.55
224.472	10469.3
227.365	12189.5
230.258	13532.7
233.15	13958.9
236.043	13714.5
238.936	13099.2
241.829	12306.7
244.721	10887.1
247.614	8671.78
250.507	6589.39
253.399	5453.45
256.292	4668.26
259.185	3568.69
262.077	2124.1
264.97	915.715
267.863	79.4316
270.756	457.731
273.648	618.398
276.541	342.918
279.434	152.68
282.326	663.756
285.219	1093.91
288.112	1574.46
291.005	2168.24
293.897	3051.52
296.79	4143.87
299.683	5443.02
302.575	6396.91
305.468	6426.34
308.361	5238.33
311.253	3565.34
314.146	2029.24
317.039	982.287
319.932	429.812
322.824	353.373
325.717	416.812
328.61	613.254
331.502	959.002
334.395	1579.43
337.288	2454.13
340.18	3494.55
343.073	4212.9
345.966	4612.67
348.858	5037.57
351.751	5720.75
354.644	7097.92
357.536	9297.3
360.429	12027.2
363.322	15082.7
366.215	18238.6
369.107	20228.5
372	19401.1
374.893	15673.4
377.785	11027
380.678	7242.41
383.571	4798.24
386.464	3481.43
389.356	2914.19
392.249	2963.6
395.142	3227.61
398.034	3880.85
400.927	4749.3
403.82	5561.97
406.712	5915.92
409.605	5554.66
412.498	4501.98
415.39	3167.58
418.283	2005.67
421.176	1142.02
424.069	551.686
426.961	157.701
429.854	59.9297
432.747	202.44
435.639	233.471
438.532	250.102
441.425	180.451
444.317	42.1914
447.21	174.504
450.103	553.283
452.996	957.283
455.888	1438.17
458.781	2009.95
461.674	2585.25
464.566	3222.05
467.459	3638.18
470.352	3690.77
473.245	3380.17
476.137	3015.48
479.03	2718.81
481.923	2546.94
484.815	2425.83
487.708	2258.52
490.601	2075.65
493.493	1909.12
496.386	1885.61
499.279	2090.25
502.171	2612.73
505.064	3400.02
507.957	4467.09
510.85	5720.07
513.742	7048.93
516.635	8168.71
519.528	9066.71
522.42	9524.69
525.313	9384.17
528.206	8598.44
531.098	7142.12
533.991	5532.93
536.884	3970.44
539.777	2706.6
542.669	1742.86
545.562	945.087
548.455	441.465
551.347	140.155
554.24	62.2998
557.133	167.77
560.025	129.53
562.918	74.9551
565.811	430.681
568.704	864.887
571.596	1328.5
574.489	1792.02
577.382	2172.63
580.274	2320.44
583.167	2208.84
586.06	1927.47
588.952	1525.99
591.845	1142.53
594.738	927.631
597.631	800.104
600.523	849.269
603.416	899.157
606.309	937.975
609.201	945.593
612.094	751.231
614.987	477.938
617.88	225.465
620.772	5.2334
623.665	11.2315
626.558	76.4863
629.45	258.062
632.343	576.865
635.236	1071.72
638.128	1685.18
641.021	2313.84
643.914	2903.72
646.807	3073.26
649.699	2913.84
652.592	2338.12
655.485	1712.39
658.377	1128.19
661.27	649.475
664.163	298.652
667.055	75.0547
669.948	25.9824
672.841	108.967
675.734	143.34
678.626	140.098
681.519	113.533
684.412	22.4004
687.304	49.6973
690.197	328.283
693.09	674.514
695.982	1079.97
698.875	1759.91
701.768	2560.24
704.66	3597.21
707.553	4869.77
710.446	6491.05
713.339	8600.19
716.231	11463.5
719.124	15290.2
722.017	20455.8
724.909	27302.5
727.802	36190.2
730.695	47217.5
733.587	59766.6
736.48	71878.6
739.373	81090.2
742.266	83753.1
745.158	78174.5
748.051	65862.1
750.944	51433.7
753.836	38577.9
756.729	28332.1
759.622	20524.1
762.514	14756.8
765.407	10488.9
768.3	7374.6
771.193	5027.99
774.085	3245.45
776.978	1905.84
779.871	946.564
782.763	327.682
785.656	10.2051
788.549	199.894
791.441	86.2578
794.334	318.793
797.227	867.492
800.12	1711.54
803.012	3037.82
805.905	5053.29
808.798	7872.71
811.69	11360.2
814.583	15938.5
817.476	20015.6
820.368	21882.9
823.261	19774.3
826.154	15097.2
829.047	10332.4
831.939	6617.47
834.832	3954.63
837.725	2261.43
840.617	1232.06
843.51	552.24
846.403	73.2988
849.295	170.318
852.188	215.588
855.081	35.0332
857.973	124.529
860.866	230.713
863.759	503.705
866.652	815.975
869.544	1121.42
872.437	1609.77
875.33	1917.36
878.222	1465.23
881.115	593.436
884.008	122.988
886.9	51.2617
889.793	87.9629
892.686	80.1973
895.579	8.86914
898.471	113.756
901.364	271.369
904.257	470.19
907.149	631.59
910.042	879.146
912.935	1166.45
915.827	1614.77
918.72	2197.59
921.613	2777.17
924.506	3485.35
927.398	4560.47
930.291	5861.61
933.184	7559.42
936.076	9827.05
938.969	12829.8
941.862	16969.7
944.755	22763.2
947.647	31002.1
950.54	42417.2
953.433	57011.4
956.325	73170.9
959.218	88677.9
962.111	96860.7
965.003	88868.2
967.896	67074.3
970.789	46211.6
973.682	32223.3
976.574	23929.8
979.467	18763.4
982.36	14176.5
985.252	9532.01
988.145	6036.94
991.038	3865.91
993.93	2523.71
996.823	1734.08
999.716	1176.47
1002.61	832.458
1005.5	513.939
1008.39	328.017
1011.29	183.795
1014.18	99.1221
1017.07	0.321289
1019.97	37.8682
1022.86	32.8164
1025.75	81.5713
1028.64	62.6699
1031.54	76.6152
1034.43	23.4824
1037.32	21.0166
1040.21	48.084
1043.11	24.3193
1046	14.9385
1048.89	13.9199
1051.78	3.70703
1054.68	75.4453
1057.57	95.5498
1060.46	64.0107
1063.36	131.338
1066.25	104.981
1069.14	140.814
1072.03	184.456
1074.93	177.121
1077.82	212.07
1080.71	223.673
1083.6	236.309
1086.5	198.683
1089.39	165.046
1092.28	174.295
1095.17	158.539
1098.07	141.422
1100.96	169.345
1103.85	158.275
1106.75	169.051
1109.64	147.744
1112.53	137.941
1115.42	97.8936
1118.32	103.875
1121.21	94.7022
1124.1	86.8418
1126.99	82.7695
1129.89	74.1387
1132.78	86.8945
1135.67	80.5303
1138.57	66.8447
1141.46	29.7441
1144.35	64.0156
1147.24	51.5156
1150.14	65.5703
1153.03	59.8623
1155.92	59.9023
1158.81	31.1768
1161.71	31.0215
1164.6	58.9287
1167.49	35.2022
1170.38	41.3193
1173.28	16.9688
1176.17	18.3291
1179.06	24.3232
1181.96	41.1494
1184.85	43.957
1187.74	22.3418
1190.63	19.6279
1193.53	49.2402
1196.42	45.2529
1199.31	40.5293
1202.2	8.61914
1205.1	12.1787
1207.99	3.29492
1210.88	8.95605
1213.78	22.1074
1216.67	46.2607
1219.56	52.7188
1222.45	23.3291
1225.35	24.5225
1228.24	15.2495
1231.13	1.26611
1234.02	7.35059
1236.92	1.97754
1239.81	8.23389
1242.7	15.7715
1245.6	13.7729
1248.49	27.0791
1251.38	11.6426
1254.27	10.9741
1257.17	2.15478
1260.06	33.564
1262.95	36.6382
1265.84	39.5185
1268.74	43.0532
1271.63	28.7969
1274.52	42.5752
1277.41	68.7041
1280.31	51.1841
1283.2	38.0078
1286.09	47.4673
1288.99	14.2021
1291.88	22.7969
1294.77	5.65576
1297.66	31.8179
1300.56	15.7715
1303.45	0
