Measurement: Raman, 785 nm, unoriented, Raman Data Processed
Mineral: Curite
Rruff sample: R060728
Ideal chemistry: Pb_3+x_[(UO_2_)_4_O_4+x_(OH)_3-x_]_2_2H_2_O
Locality: Swambo, Katanga, Zaire
Source: Bob Jenkins
Description: Orange massive coating
Raman shift (cm-1)	intensity
152.383	0
155.276	60.1065
158.169	2.85938
161.062	205.125
163.954	352.171
166.847	347.264
169.74	343.686
172.632	451.571
175.525	855.176
178.418	1456.33
181.311	2001.41
184.203	1959.35
187.096	1496.74
189.989	1042.73
192.881	649.607
195.774	553.944
198.667	678.358
201.559	999.911
204.452	1481.88
207.345	2088.15
210.238	2497.31
213.13	2502.52
216.023	2206.54
218.916	2054.82
221.808	1710.14
224.701	1245.22
227.594	768.302
230.486	424.207
233.379	323.877
236.272	324.125
239.165	384.622
242.057	716.723
244.95	1010.41
247.843	1272.68
250.735	1387.74
253.628	1323.64
256.521	1321.93
259.413	1441.37
262.306	1804.82
265.199	2253.31
268.091	2731.1
270.984	2843.7
273.877	2639.46
276.77	2062.44
279.662	1495.59
282.555	929.523
285.448	686.152
288.34	482.221
291.233	301.372
294.126	85.4453
297.018	1.0791
299.911	83.8057
302.804	14.0098
305.697	151.352
308.589	303.493
311.482	255.267
314.375	80.499
317.267	29.3208
320.16	82.2031
323.053	32.9097
325.945	60.0532
328.838	165.398
331.731	278.173
334.624	314.511
337.516	315.61
340.409	368.638
343.302	346.939
346.194	352.233
349.087	402.851
351.98	492.366
354.872	547.369
357.765	678.914
360.658	704.342
363.551	761.145
366.443	825.235
369.336	882.305
372.229	885.724
375.121	850.184
378.014	708.28
380.907	571.665
383.799	531.515
386.692	501.69
389.585	486.118
392.478	443.12
395.37	417.441
398.263	327.523
401.156	199.541
404.048	73.9971
406.941	26.3281
409.834	78.2905
412.727	109.814
415.619	82.4348
418.512	5.00708
421.405	36.9172
424.297	140.214
427.19	192.29
430.083	285.244
432.975	481.556
435.868	627.401
438.761	907.113
441.654	1223.95
444.546	1464.99
447.439	1770.93
450.332	2063.74
453.224	2243.18
456.117	2379.18
459.01	2407.41
461.902	2356.91
464.795	2303.59
467.688	2273.57
470.581	2160.16
473.473	2020.09
476.366	1892.13
479.259	1751.08
482.151	1630.67
485.044	1590.87
487.937	1573.51
490.829	1570.44
493.722	1572.64
496.615	1549.03
499.508	1554.46
502.4	1470.02
505.293	1326.2
508.186	1134.51
511.078	915.214
513.971	771.934
516.864	608.38
519.756	470.603
522.649	349.662
525.542	272.288
528.435	231.22
531.327	195.484
534.22	145.989
537.113	170.778
540.005	243.878
542.898	358.213
545.791	460.906
548.683	470.68
551.576	550.302
554.469	621.108
557.362	627.645
560.254	628.842
563.147	610.184
566.04	591.654
568.932	553.675
571.825	479.069
574.718	362.179
577.61	288.408
580.503	207.302
583.396	124.718
586.289	121.027
589.181	56.376
592.074	78.3677
594.967	45.8648
597.859	24.6421
600.752	66.2754
603.645	34.1714
606.537	50.6013
609.43	7.48608
612.323	41.3789
615.216	91.0339
618.108	97.4158
621.001	135.89
623.894	145.735
626.786	150.125
629.679	153.08
632.572	191.874
635.464	178.838
638.357	158.979
641.25	180.775
644.143	173.824
647.035	156.292
649.928	165.377
652.821	152.545
655.713	97.6941
658.606	86.3132
661.499	17.4912
664.391	77.3696
667.284	89.55
670.177	114.642
673.07	129.145
675.962	95.9175
678.855	75.7336
681.748	22.0149
684.64	86.5137
687.533	286.631
690.426	504.608
693.318	773.214
696.211	1129.82
699.104	1416.93
701.997	1494.99
704.889	1400.91
707.782	1236.49
710.675	1039.11
713.567	869.764
716.46	718.745
719.353	719.221
722.245	641.557
725.138	678.91
728.031	637.688
730.924	638.785
733.816	780.238
736.709	854.823
739.602	1053.74
742.494	1301.41
745.387	1550.39
748.28	1948.05
751.172	2385.55
754.065	3062.85
756.958	3709.43
759.851	4523.99
762.743	5383.13
765.636	6189.46
768.529	6887.96
771.421	7486.65
774.314	7872.77
777.207	8180.75
780.099	8767.28
782.992	9335.56
785.885	10041.8
788.778	10250.8
791.67	9696.48
794.563	8315.35
797.456	6796.79
800.348	5371.64
803.241	4276.67
806.134	3452.12
809.026	2880.15
811.919	2641.04
814.812	2464.85
817.705	2621.01
820.597	3191.24
823.49	3911.28
826.383	4754.98
829.275	4800.27
832.168	3226.58
835.061	1573.53
837.953	669.619
840.846	300.476
843.739	48.3855
846.631	65.1631
849.524	118.072
852.417	97.5391
855.31	78.8291
858.202	95.1759
861.095	66.3827
863.988	57.2151
866.88	13.8494
869.773	18.2214
872.666	63.55
875.558	94.3318
878.451	138.272
881.344	165.664
884.237	211.179
887.129	247.105
890.022	284.865
892.915	288.86
895.807	298.33
898.7	311.564
901.593	348.47
904.485	343.225
907.378	380.346
910.271	367.288
913.164	312.601
916.056	270.666
918.949	254.819
921.842	224.704
924.734	205.509
927.627	192.878
930.52	192.103
933.412	147.809
936.305	172.416
939.198	145.511
942.091	148.677
944.983	156.818
947.876	120.367
950.769	104.048
953.661	124.768
956.554	117.137
959.447	76.9202
962.339	103.3
965.232	107.897
968.125	86.7286
971.018	60.9347
973.91	60.8636
976.803	46.7847
979.696	58.2103
982.588	35.9103
985.481	17.9638
988.374	23.0774
991.266	10.5016
994.159	3.56775
997.052	32.1127
999.945	28.5698
1002.84	54.7273
1005.73	36.5441
1008.62	59.7888
1011.51	69.0497
1014.41	119.003
1017.3	201.809
1020.19	246.815
1023.09	347.011
1025.98	370.818
1028.87	308.401
1031.76	210.263
1034.66	118.044
1037.55	84.9796
1040.44	71.4565
1043.34	61.9462
1046.23	26.3035
1049.12	9.29797
1052.01	0.43457
1054.91	14.7035
1057.8	12.7107
1060.69	9.32056
1063.58	12.1625
1066.48	3.24207
1069.37	17.7897
1072.26	7.48669
1075.15	12.73
1078.05	2.84033
1080.94	7.3429
1083.83	23.4198
1086.73	5.20801
1089.62	2.63684
1092.51	13.318
1095.4	6.61829
1098.3	14.5345
1101.19	3.64917
1104.08	5.99683
1106.97	39.905
1109.87	33.3309
1112.76	26.4944
1115.65	33.5349
1118.55	34.9763
1121.44	39.7163
1124.33	16.5039
1127.22	46.3614
1130.12	50.3679
1133.01	51.9589
1135.9	26.7129
1138.79	38.8463
1141.69	37.0906
1144.58	56.2789
1147.47	28.9288
1150.37	28.5101
1153.26	38.2972
1156.15	3.14587
1159.04	38.2706
1161.94	15.9762
1164.83	18.2969
1167.72	0.642212
1170.61	26.5256
1173.51	0.496582
1176.4	25.7069
1179.29	54.2881
1182.18	34.2749
1185.08	62.0001
1187.97	28.4023
1190.86	27.056
1193.76	47.7941
1196.65	36.9434
1199.54	45.4898
1202.43	79.8606
1205.33	82.8689
1208.22	83.3071
1211.11	97.5846
1214	97.7673
1216.9	109.411
1219.79	90.8612
1222.68	85.2335
1225.58	88.2504
1228.47	40.7585
1231.36	67.9482
1234.25	35.6317
1237.15	34.0846
1240.04	3.18127
1242.93	44.1078
1245.82	40.697
1248.72	46.8217
1251.61	16.7672
1254.5	1.93921
1257.39	6.91602
1260.29	16.1851
1263.18	24.1475
1266.07	35.7544
