Measurement: Raman, 780 nm, unoriented, Raman Data Processed
Mineral: Curienite
Rruff sample: R050548
Ideal chemistry: Pb(UO_2_)_2_(VO_4_)_2_5H_2_O
Locality: Mounana mine, Franceville, Haut-Ogooué, Gabon
Source: University of Arizona Mineral Museum
Description: Groups of heavily striated orange bladed crystals
Measured chemistry: (Pb_0.83_Ba_0.17_)_Σ=1_(U_1.00_O_2_)_2_(V_1.00_O_4_)_2_·5.1H_2_O
Raman shift (cm-1)	intensity
129.982	0
132.875	28.0085
135.767	6.64526
138.66	7.62134
141.553	31.9477
144.446	87.7739
147.338	132.447
150.231	198.348
153.124	286.123
156.016	389.976
158.909	510.272
161.802	658.498
164.694	751.86
167.587	818.222
170.48	815.923
173.373	824.703
176.265	847.605
179.158	960.946
182.051	1127.09
184.943	1243.33
187.836	1209.23
190.729	1003.69
193.621	718.792
196.514	442.562
199.407	287.856
202.299	197.815
205.192	213.575
208.085	270.46
210.978	386.642
213.87	559.333
216.763	792.888
219.656	1042.99
222.548	1338.52
225.441	1660.66
228.334	2005.18
231.226	2265.92
234.119	2482.99
237.012	2560.99
239.905	2543.28
242.797	2402.19
245.69	2037.04
248.583	1484.89
251.475	1045.29
254.368	766.954
257.261	561.085
260.154	343.916
263.046	129.289
265.939	26.3252
268.832	102.731
271.724	126.525
274.617	66.5654
277.51	74.6626
280.402	268.557
283.295	508.982
286.188	724.216
289.08	943.5
291.973	1212.97
294.866	1543.44
297.759	1906.28
300.651	2213.06
303.544	2362.66
306.437	2100.95
309.329	1582.84
312.222	1000.31
315.115	557.515
318.007	283.424
320.9	188.251
323.793	133.258
326.686	6.87781
329.578	19.5144
332.471	116.321
335.364	277.572
338.256	503.631
341.149	777.753
344.042	1072.37
346.935	1402.69
349.827	1856.09
352.72	2296.25
355.613	2914.81
358.505	3664.21
361.398	4556.69
364.291	5505.01
367.183	6294.66
370.076	6487.24
372.969	5781.67
375.861	4387.23
378.754	3052.85
381.647	2101.22
384.54	1523.14
387.432	1224.28
390.325	1129.35
393.218	1145.62
396.11	1271.89
399.003	1457.27
401.896	1654.18
404.788	1769.8
407.681	1706.51
410.574	1454.97
413.467	1105.46
416.359	742.421
419.252	454.751
422.145	269.702
425.037	124.746
427.93	31.5467
430.823	16.6912
433.716	60.8184
436.608	62.5868
439.501	54.1106
442.394	35.0851
445.286	6.35413
448.179	74.3844
451.072	158.675
453.964	270.412
456.857	392.698
459.75	529.579
462.642	712.133
465.535	867.467
468.428	965.748
471.321	1011.02
474.213	968.089
477.106	944.896
479.999	918.367
482.891	911.648
485.784	888.9
488.677	821.573
491.57	733.128
494.462	656.472
497.355	640.635
500.248	698.859
503.14	847.82
506.033	1062.17
508.926	1344.56
511.818	1664.7
514.711	1976.44
517.604	2269.49
520.496	2472.86
523.389	2539.49
526.282	2428.84
529.175	2127.15
532.067	1717.94
534.96	1279.37
537.853	904.884
540.745	590.509
543.638	364.043
546.531	202.168
549.423	88.8358
552.316	9.96423
555.209	18.5482
558.102	36.355
560.994	17.5863
563.887	22.5554
566.78	96.1925
569.672	179.043
572.565	285.535
575.458	392.852
578.351	453.263
581.243	458.815
584.136	415.352
587.029	341.767
589.921	257.372
592.814	182.69
595.707	138.554
598.599	126.762
601.492	132.167
604.385	150.665
607.278	169.623
610.17	150.918
613.063	125.015
615.956	75.8512
618.848	17.9506
621.741	3.60706
624.634	12.2251
627.526	3.02283
630.419	49.8529
633.312	112.295
636.205	186.466
639.097	275.08
641.99	358.81
644.883	419.048
647.775	441.367
650.668	393.332
653.561	289.268
656.453	183.706
659.346	100.212
662.239	47.0601
665.131	5.026
668.024	9.26135
670.917	8.38709
673.81	6.96643
676.702	0.810303
679.595	2.81897
682.488	1.25024
685.38	1.65881
688.273	10.0124
691.166	41.1818
694.058	95.5339
696.951	168.21
699.844	269.949
702.737	391.475
705.629	563.659
708.522	782.44
711.415	1053.25
714.307	1401.59
717.2	1892.08
720.093	2551.71
722.986	3434.7
725.878	4540.8
728.771	5891.91
731.664	7466.43
734.556	9095.36
737.449	10565.4
740.342	11523.4
743.234	11487.3
746.127	10266.6
749.02	8402.66
751.913	6475.8
754.805	4791.68
757.698	3491.73
760.591	2486.29
763.483	1771.17
766.376	1218.99
769.269	852.277
772.161	557.21
775.054	345.571
777.947	191.171
780.84	86.054
783.732	17.2732
786.625	29.1677
789.518	40.9606
792.41	19.2058
795.303	17.652
798.196	107.303
801.088	228.272
803.981	433.996
806.874	711.253
809.766	1054.18
812.659	1481.33
815.552	1961.49
818.445	2418.15
821.337	2519.27
824.23	2189.2
827.123	1651.71
830.015	1130.77
832.908	723.282
835.801	447.328
838.693	268.211
841.586	170.055
844.479	101.873
847.372	55.5368
850.264	32.0529
853.157	47.1199
856.05	62.3945
858.942	107.976
861.835	163.915
864.728	221.27
867.62	290.643
870.513	398.156
873.406	554.7
876.299	602.659
879.191	376.346
882.084	166.848
884.977	50.6628
887.869	11.3414
890.762	6.36472
893.655	24.5157
896.548	21.7464
899.44	10.0075
902.333	8.23199
905.226	7.44437
908.118	29.8459
911.011	59.9457
913.904	88.9402
916.796	128.392
919.689	174.817
922.582	232.502
925.474	311.587
928.367	417.741
931.26	538.254
934.153	707.044
937.045	934.812
939.938	1226.99
942.831	1587.34
945.723	2074.49
948.616	2743.28
951.509	3580.12
954.401	4539.94
957.294	5527.42
960.187	6425.09
963.08	6688.56
965.972	5851.44
968.865	4307.38
971.758	2985.15
974.65	2133.94
977.543	1649.22
980.436	1289.38
983.328	950.694
986.221	604.543
989.114	381.42
992.006	239.935
994.899	172.228
997.792	120.826
1000.68	72.5172
1003.58	48.3456
1006.47	29.5714
1009.36	16.0014
1012.25	11.0345
1015.15	3.94034
1018.04	1.39752
1020.93	0.487137
1023.83	4.54475
1026.72	7.09633
1029.61	3.77033
1032.5	3.93591
1035.4	3.04459
1038.29	0.168854
1041.18	1.63313
1044.08	6.06872
1046.97	13.289
1049.86	8.06247
1052.75	10.159
1055.65	8.18921
1058.54	10.4069
1061.43	11.6526
1064.32	13.418
1067.22	15.8515
1070.11	20.6924
1073	22.4308
1075.89	13.452
1078.79	22.8665
1081.68	20.627
1084.57	21.8265
1087.47	16.9321
1090.36	15.9854
1093.25	12.8288
1096.14	15.8183
1099.04	10.6571
1101.93	7.42465
1104.82	7.00461
1107.71	11.0807
1110.61	11.4808
1113.5	11.9665
1116.39	9.21979
1119.29	8.4055
1122.18	13.3974
1125.07	6.39321
1127.96	3.53217
1130.86	6.71812
1133.75	8.33936
1136.64	0.911903
1139.53	1.98791
1142.43	3.16494
1145.32	3.33804
1148.21	4.45757
1151.11	7.06526
1154	6.60117
1156.89	8.21186
1159.78	1.15341
1162.68	2.79943
1165.57	4.1945
1168.46	4.63693
1171.35	8.38515
1174.25	1.01335
1177.14	6.15633
1180.03	4.44334
1182.92	2.99463
1185.82	5.07916
1188.71	3.78957
1191.6	2.03241
1194.49	7.19029
1197.39	9.66489
1200.28	12.5882
1203.17	10.0645
1206.07	7.42241
1208.96	10.774
1211.85	8.14197
1214.74	6.33134
1217.64	9.00042
1220.53	4.35813
1223.42	8.84759
1226.32	3.72324
1229.21	11.5522
1232.1	8.12107
1234.99	5.92084
1237.89	6.35604
1240.78	4.78698
1243.67	4.945
1246.56	2.61324
1249.46	-0.582542
1252.35	5.3575
1255.24	12.3132
1258.13	6.94122
1261.03	1.30128
1263.92	9.22601
1266.81	3.60905
1269.71	-0.149134
1272.6	6.05407
1275.49	2.90112
1278.38	0.734196
1281.28	7.14183
1284.17	1.795
