Measurement: Raman, 785 nm, unoriented, Raman Data Processed
Mineral: Curite
Rruff sample: R070328
Ideal chemistry: Pb_3+x_[(UO_2_)_4_O_4+x_(OH)_3-x_]_2_2H_2_O
Locality: Kasolo mine, Shinkolobwe, Shaba Zaire
Source: James Shigley
Description: Orange acicular crystals on a quartz matrix and associated with torbernite
Raman shift (cm-1)	intensity
123.912	0
126.805	58.7462
129.697	17.2905
132.59	3.35132
135.483	31.0316
138.376	242.784
141.268	712.217
144.161	1333.65
147.054	1669.24
149.946	1740.63
152.839	1525.25
155.732	1248.39
158.625	1178.16
161.517	1376.89
164.41	1733.26
167.303	2225.17
170.195	2902.56
173.088	3813.52
175.981	5092.85
178.873	6771.05
181.766	7911.75
184.659	7228.45
187.552	5510.78
190.444	3992.54
193.337	3024.2
196.23	2711.31
199.122	2703.19
202.015	2931.77
204.908	3256.8
207.8	3688.01
210.693	3986.52
213.586	3582.55
216.478	2911.47
219.371	2439.21
222.264	1981.05
225.157	1406.8
228.049	883.431
230.942	571.91
233.835	444.015
236.727	569.523
239.62	810.523
242.513	1263.32
245.405	1692.87
248.298	2029.3
251.191	2149.91
254.084	2073.71
256.976	2056.83
259.869	2237.47
262.762	2522.59
265.654	2862.32
268.547	3104.93
271.44	3156.07
274.332	2871.85
277.225	2269.13
280.118	1564.87
283.011	894.984
285.903	490.663
288.796	260.839
291.689	121.832
294.581	52.113
297.474	-1.08889
300.367	12.942
303.26	29.2889
306.152	17.5226
309.045	5.14518
311.938	23.7021
314.83	11.3771
317.723	26.9258
320.616	152.574
323.508	270.147
326.401	385.532
329.294	550.514
332.187	686.174
335.079	774.53
337.972	890.87
340.865	942.433
343.757	992.377
346.65	1027.34
349.543	1062.18
352.435	1193.22
355.328	1334.19
358.221	1462.98
361.113	1680.83
364.006	1749.6
366.899	1648.8
369.792	1426.95
372.684	1212.65
375.577	1005.88
378.47	963.277
381.362	887.497
384.255	888.936
387.148	846.886
390.041	860.15
392.933	798.628
395.826	699.726
398.719	568.187
401.611	353.378
404.504	223.828
407.397	71.4416
410.289	27.4175
413.182	19.9783
416.075	9.50987
418.967	4.33042
421.86	17.8839
424.753	13.2446
427.646	115.156
430.538	226.791
433.431	346.496
436.324	612.68
439.216	807.293
442.109	1076.86
445.002	1361.64
447.894	1570.65
450.787	1791.14
453.68	1820.52
456.573	1847.38
459.465	1777.34
462.358	1729.72
465.251	1634.47
468.143	1553.75
471.036	1475.77
473.929	1355.46
476.822	1228.45
479.714	1168.7
482.607	1068.58
485.5	1026.35
488.392	1020.85
491.285	1102.37
494.178	1118.36
497.07	1190.33
499.963	1219.65
502.856	1120.52
505.748	1104.23
508.641	952.862
511.534	861.962
514.427	692.056
517.319	578.469
520.212	472.067
523.105	404.59
525.997	314.184
528.89	325.06
531.783	315.671
534.676	285.307
537.568	339.642
540.461	365.191
543.354	420.937
546.246	536.637
549.139	644.848
552.032	750.077
554.924	806.136
557.817	833.367
560.71	825.097
563.602	858.185
566.495	836.214
569.388	753.199
572.281	653.456
575.173	574.233
578.066	418.534
580.959	320.248
583.851	186.261
586.744	129.227
589.637	39.2495
592.529	28.9834
595.422	-10.6601
598.315	2.99216
601.208	18.9605
604.1	6.81571
606.993	-5.94029
609.886	12.2381
612.778	-0.465498
615.671	28.3885
618.564	65.4901
621.457	118.204
624.349	176.568
627.242	263.193
630.135	333.308
633.027	399.276
635.92	554.704
638.813	549.243
641.705	558.477
644.598	581.039
647.491	589.834
650.384	583.588
653.276	563.527
656.169	529.792
659.062	452.956
661.954	370.314
664.847	329.081
667.74	204.996
670.632	164.294
673.525	102.75
676.418	17.9659
679.311	28.325
682.203	-4.59151
685.096	22.7694
687.989	22.4717
690.881	21.6124
693.774	1.97804
696.667	8.59987
699.559	-11.9902
702.452	6.61044
705.345	46.1694
708.237	121.781
711.13	261.477
714.023	398.342
716.916	617.68
719.808	924.187
722.701	1258.48
725.594	1674.24
728.486	2138.82
731.379	2697.57
734.272	3242.53
737.164	3867.29
740.057	4602.77
742.95	5361.12
745.843	6287.43
748.735	7448.82
751.628	8879.82
754.521	10559.2
757.413	12643.6
760.306	14653.1
763.199	16684.9
766.091	18744
768.984	20663.8
771.877	21919.2
774.77	23180
777.662	24155.5
780.555	25572.3
783.448	27067.1
786.34	28293.4
789.233	28258.9
792.126	26315.3
795.019	22813.2
797.911	18624.7
800.804	14823.1
803.697	11613.5
806.589	9154.98
809.482	7095.4
812.375	5601.81
815.267	4475.74
818.16	3514.28
821.053	2609.29
823.946	1939.35
826.838	1427.39
829.731	993.419
832.624	620.588
835.516	399.788
838.409	272.976
841.302	119.894
844.194	41.5188
847.087	29.983
849.98	42.604
852.872	32.6473
855.765	28.5692
858.658	34.4848
861.551	45.4749
864.443	42.568
867.336	28.5
870.229	42.057
873.121	52.1686
876.014	43.5898
878.907	76.2274
881.799	113.657
884.692	195.722
887.585	196.125
890.478	178.832
893.37	206.22
896.263	203.41
899.156	202.137
902.048	211.339
904.941	209.741
907.834	217.671
910.726	229.314
913.619	245.983
916.512	239.377
919.405	230.482
922.297	235.696
925.19	210.539
928.083	215.559
930.975	211.61
933.868	199.278
936.761	169.646
939.654	175.805
942.546	162.44
945.439	181.551
948.332	191.532
951.224	180.864
954.117	161.105
957.01	164.605
959.902	155.922
962.795	141.612
965.688	113.898
968.581	97.368
971.473	75.1677
974.366	57.5836
977.259	74.4788
980.151	54.3578
983.044	56.4918
985.937	57.4924
988.829	58.1629
991.722	61.6735
994.615	66.8708
997.508	57.3111
1000.4	41.1056
1003.29	49.2709
1006.19	34.0125
1009.08	9.32465
1011.97	32.4369
1014.86	13.8781
1017.76	9.85019
1020.65	26.0055
1023.54	12.2834
1026.43	4.75098
1029.33	14.3051
1032.22	18.9434
1035.11	17.1633
1038.01	8.48544
1040.9	11.6311
1043.79	4.64407
1046.68	24.2636
1049.58	4.01581
1052.47	2.75073
1055.36	1.40704
1058.25	5.16129
1061.15	16.9809
1064.04	10.0213
1066.93	8.27698
1069.83	10.1703
1072.72	5.13104
1075.61	8.23639
1078.5	6.26361
1081.4	8.34051
1084.29	23.3424
1087.18	9.34058
1090.07	15.1962
1092.97	15.8984
1095.86	0.659424
1098.75	8.43195
1101.64	17.5972
1104.54	6.04817
1107.43	19.812
1110.32	10.5598
1113.21	2.5226
1116.11	19.8515
1119	15.6965
1121.89	24.0104
1124.79	30.4061
1127.68	25.9287
1130.57	11.631
1133.46	15.3464
1136.36	10.0406
1139.25	26.1295
1142.14	36.6762
1145.04	8.43782
1147.93	13.4259
1150.82	18.4845
1153.71	29.1114
1156.61	22.9044
1159.5	21.3304
1162.39	31.0953
1165.28	31.1035
1168.18	3.20561
1171.07	13.3115
1173.96	28.9221
1176.86	14.4889
1179.75	26.012
1182.64	12.603
1185.53	30.8019
1188.43	2.21718
1191.32	28.4761
1194.21	41.3024
1197.1	39.754
1200	25.7214
1202.89	28.3588
1205.78	28.0608
1208.67	23.454
1211.57	36.4899
1214.46	43.8946
1217.35	28.5555
1220.24	44.8239
1223.14	31.7152
1226.03	20.2111
1228.92	21.4291
1231.82	2.2092
