Measurement: Raman, 780 nm, unoriented, Raman Data Processed
Mineral: Cuspidine
Rruff sample: R130002
Ideal chemistry: Ca_4_(Si_2_O_7_)F_2_
Locality: Huanggang(?), Inner Mongolia, China
Source: Robert Lavinsky
Description: Colorless, striated, prismatic crystals associated with black vesuvianite
Raman shift (cm-1)	intensity
101.806	0
105.181	0.658264
108.556	0.589836
111.931	2.49686
115.305	4.01422
118.68	0.467491
122.055	1.83347
125.43	2.23882
128.805	2.60303
132.179	3.18377
135.554	6.60739
138.929	10.7744
142.304	16.1248
145.679	22.0941
149.054	15.4255
152.428	12.4648
155.803	9.97334
159.178	8.6053
162.553	7.99245
165.928	4.86256
169.302	1.21007
172.677	0.098713
176.052	1.13756
179.427	0.493408
182.802	0.678288
186.177	0.653027
189.551	1.78323
192.926	1.51471
196.301	3.537
199.676	3.65852
203.051	6.48546
206.425	6.76129
209.8	7.11021
213.175	7.59954
216.55	6.66386
219.925	6.50225
223.299	6.78013
226.674	8.62826
230.049	13.1357
233.424	16.1422
236.799	16.8189
240.173	15.9669
243.548	17.1216
246.923	17.9597
250.298	18.23
253.673	16.6767
257.048	14.3128
260.422	9.1591
263.797	7.20914
267.172	6.42522
270.547	4.31059
273.922	1.91567
277.296	2.78236
280.671	6.32053
284.046	10.2835
287.421	12.1769
290.796	18.4808
294.171	28.4383
297.545	28.7855
300.92	26.1919
304.295	15.2708
307.67	6.86043
311.045	5.80171
314.42	6.42794
317.794	0.63187
321.169	1.69343
324.544	1.33043
327.919	1.17156
331.293	5.88174
334.668	11.1945
338.043	12.7449
341.418	15.5179
344.793	22.6458
348.168	32.2568
351.542	31.8083
354.917	26.1015
358.292	25.0058
361.667	21.6729
365.042	15.3636
368.416	15.4395
371.791	18.0393
375.166	26.2838
378.541	35.2719
381.916	33.424
385.291	23.2973
388.665	13.5454
392.04	7.92421
395.415	5.16363
398.79	0.921967
402.165	1.18903
405.539	3.39417
408.914	7.37038
412.289	14.3758
415.664	21.1775
419.039	23.7868
422.413	15.4101
425.788	5.00122
429.163	0.143753
432.538	1.6501
435.913	0.826271
439.288	0.187569
442.662	2.92845
446.037	3.77917
449.412	6.16997
452.787	7.25113
456.162	8.73438
459.536	11.015
462.911	15.5947
466.286	22.5597
469.661	34.5836
473.036	51.2421
476.411	76.0579
479.785	109.552
483.16	154.166
486.535	196.87
489.91	217.264
493.285	196.013
496.659	146.723
500.034	103.168
503.409	72.4503
506.784	50.3047
510.159	33.152
513.534	21.3229
516.908	13.3956
520.283	7.9682
523.658	4.26683
527.033	2.77341
530.408	2.55842
533.782	3.64335
537.157	6.55058
540.532	8.59411
543.907	6.95601
547.282	5.90203
550.656	5.70441
554.031	4.61277
557.406	2.89229
560.781	1.98697
564.156	0.027077
567.53	0.21854
570.905	0.170567
574.28	0.407959
577.655	0.346138
581.03	0.451118
584.405	0.921875
587.779	0.317844
591.154	0.287811
594.529	0.265709
597.904	1.84536
601.279	3.99599
604.654	4.5266
608.028	7.52504
611.403	9.97974
614.778	13.5156
618.153	16.7578
621.528	20.5777
624.902	24.6493
628.277	26.2267
631.652	25.9538
635.027	25.6604
638.402	24.5818
641.776	25.1193
645.151	32.0146
648.526	49.4462
651.901	72.7845
655.276	59.8185
658.65	27.1406
662.025	13.942
665.4	9.04573
668.775	8.4497
672.15	9.16711
675.525	11.4817
678.899	14.9001
682.274	16.2695
685.649	17.9656
689.024	19.3278
692.399	19.4195
695.774	17.8517
699.148	16.5956
702.523	15.9087
705.898	12.9991
709.273	11.4934
712.648	9.41118
716.022	6.58178
719.397	5.14337
722.772	2.32125
726.147	0.649033
729.522	0.431545
732.896	1.00073
736.271	0.645828
739.646	0.17284
743.021	0.920105
746.396	2.51881
749.77	3.79168
753.145	6.18517
756.52	7.54581
759.895	9.11408
763.27	10.5357
766.645	10.0236
770.019	9.2616
773.394	7.73912
776.769	6.58303
780.144	5.09657
783.519	3.62664
786.894	2.13675
790.268	0.789303
793.643	0.331581
797.018	0.101219
800.393	0.844601
803.768	0.927727
807.142	1.4829
810.517	1.80472
813.892	2.36021
817.267	3.00077
820.642	3.154
824.016	2.32394
827.391	1.99656
830.766	1.93965
834.141	1.59316
837.516	2.38575
840.89	2.61108
844.265	4.70099
847.64	5.69256
851.015	7.20815
854.39	9.05946
857.765	9.02583
861.139	10.6001
864.514	9.38476
867.889	8.10327
871.264	5.87967
874.639	3.7954
878.013	2.43431
881.388	0.141518
884.763	0.352726
888.138	0.720963
891.513	0.767456
894.888	3.66438
898.262	10.351
901.637	25.2634
905.012	62.8734
908.387	142.929
911.762	126.118
915.136	40.9372
918.511	16.0192
921.886	7.94635
925.261	4.4112
928.636	3.38101
932.01	1.63067
935.385	0.88987
938.76	0.733788
942.135	1.60721
945.51	2.40255
948.885	0.346966
952.259	0.530254
955.634	0.557423
959.009	0.124348
962.384	1.88836
965.759	5.47042
969.133	9.38913
972.508	14.4407
975.883	20.3266
979.258	15.1639
982.633	9.36622
986.008	7.03869
989.382	7.24284
992.757	7.96084
996.132	7.09275
999.507	5.20799
1002.88	4.52283
1006.26	4.17332
1009.63	4.72599
1013.01	4.7293
1016.38	5.01193
1019.76	5.99268
1023.13	5.86595
1026.51	5.80725
1029.88	4.43859
1033.26	3.35345
1036.63	2.88519
1040.01	0.960796
1043.38	0.5051
1046.75	1.07436
1050.13	0.748428
1053.5	0.763851
1056.88	1.0367
1060.25	0.684814
1063.63	0.358765
1067	0.178185
1070.38	0.712234
1073.75	1.39419
1077.13	2.45567
1080.5	2.54156
1083.88	4.4491
1087.25	6.1725
1090.63	8.09235
1094	10.7221
1097.38	16.243
1100.75	23.9334
1104.13	34.4506
1107.5	49.2824
1110.88	66.8463
1114.25	88.8825
1117.62	111.526
1121	135.549
1124.38	158.547
1127.75	173.018
1131.12	174.934
1134.5	163.296
1137.87	140.888
1141.25	116.457
1144.62	94.0484
1148	78.5934
1151.37	67.6693
1154.75	61.6978
1158.12	57.1509
1161.5	54.316
1164.87	50.2331
1168.25	45.2665
1171.62	38.472
1175	32.6008
1178.37	28.8751
1181.75	23.438
1185.12	19.738
1188.5	17.1704
1191.87	13.6096
1195.25	8.03586
1198.62	6.08658
1202	1.7841
1205.37	1.38626
1208.74	3.36305
1212.12	5.15323
1215.49	2.8344
1218.87	0.955551
1222.24	5.00423
1225.62	16.0166
1228.99	29.8282
1232.37	51.8013
1235.74	82.9308
1239.12	119.564
1242.49	167.916
1245.87	221.47
1249.24	261.607
1252.62	289.069
1255.99	290.769
1259.37	261.449
1262.74	213.265
1266.12	160.014
1269.49	114.568
1272.87	72.0956
1276.24	38.9293
1279.62	9.71555
1282.99	0.500702
