Measurement: Raman, 780 nm, unoriented, Raman Data Processed
Mineral: CuZnCl(OH)3
Rruff sample: R140401
Ideal chemistry: CuZnCl(OH)_3_
Locality: Rowley mine, Maricopa County, Arizona, USA
Source: Bob Jenkins
Description: Thin platy blue crystals, associated with colorless hexagonal tabular simonkolleite (R130616). The compound, chemical formula CuZnCl(OH)<sub>3</sub>, was found on a metallic mining artifact of copper composition.
Measured chemistry: Cu_0.94_Zn_1.06_Cl_0.99_(OH)_3.01_
Raman shift (cm-1)	intensity
100.72	0
104.095	1.32404
107.47	6.06977
110.845	13.895
114.219	23.1719
117.594	21.8792
120.969	11.7042
124.344	3.59286
127.719	0.827514
131.094	0.380767
134.468	0.175612
137.843	0.454476
141.218	1.19208
144.593	4.37731
147.968	11.4688
151.342	22.4815
154.717	36.5267
158.092	48.4933
161.467	52.0103
164.842	46.9295
168.216	38.3221
171.591	29.2327
174.966	22.2481
178.341	17.2769
181.716	15.0367
185.09	14.0746
188.465	14.2238
191.84	13.5853
195.215	14.3083
198.59	16.8849
201.965	18.235
205.339	21.8235
208.714	22.7663
212.089	22.526
215.464	19.1659
218.839	14.0757
222.214	11.3388
225.588	7.20037
228.963	5.61099
232.338	3.58507
235.713	3.27988
239.088	2.20823
242.462	1.37986
245.837	0.760974
249.212	0.186207
252.587	0.111088
255.962	0.240757
259.336	0.418637
262.711	0.128699
266.086	0.090085
269.461	0.085729
272.836	0.059914
276.211	0.011984
279.585	0.020602
282.96	0.681182
286.335	0.315514
289.71	0.024329
293.085	0.953124
296.459	1.47997
299.834	2.90755
303.209	3.97097
306.584	4.42758
309.959	6.50328
313.334	8.50445
316.708	8.19146
320.083	7.38413
323.458	6.00945
326.833	4.03165
330.207	2.88167
333.582	2.08553
336.957	2.04855
340.332	2.21531
343.707	2.56888
347.082	2.77512
350.456	3.81459
353.831	4.51532
357.206	4.91847
360.581	4.8129
363.956	3.85403
367.33	3.01256
370.705	2.16275
374.08	0.91393
377.455	0.823884
380.83	0.549574
384.205	0.153813
387.579	0.02551
390.954	0.05844
394.329	0.055876
397.704	0.149189
401.079	0.388572
404.453	1.19286
407.828	0.925067
411.203	2.75302
414.578	2.85639
417.953	3.25975
421.327	5.78191
424.702	6.51658
428.077	8.66664
431.452	9.2301
434.827	10.755
438.202	12.9021
441.576	14.5038
444.951	17.2669
448.326	19.4211
451.701	20.2831
455.076	19.4104
458.45	17.4626
461.825	17.2587
465.2	17.2801
468.575	17.2941
471.95	16.5311
475.325	13.2586
478.699	10.6919
482.074	7.81049
485.449	4.7282
488.824	3.04141
492.199	2.12601
495.573	1.58324
498.948	0.554427
502.323	0.149484
505.698	0.080417
509.073	0.121842
512.447	0.074366
515.822	0.056519
519.197	0.133908
522.572	0.101686
525.947	0.012384
529.322	0.016936
532.696	0.019216
536.071	0.496564
539.446	0.4875
542.821	0.75318
546.196	0.65717
549.57	0.102625
552.945	0.481241
556.32	0.776496
559.695	0.430448
563.07	0.623989
566.444	0.861903
569.819	1.19261
573.194	0.699784
576.569	1.09769
579.944	0.103597
583.319	1.08007
586.693	0.218392
590.068	0.298683
593.443	0.63766
596.818	0.255112
600.193	0.190664
603.567	0.054183
606.942	0.36172
610.317	0.437763
613.692	0.079754
617.067	0.011362
620.442	0.640846
623.816	0.483844
627.191	0.196995
630.566	0.375004
633.941	0.329223
637.316	0.293293
640.69	0.822949
644.065	1.13832
647.44	1.57114
650.815	1.12329
654.19	1.42799
657.564	1.34826
660.939	1.28429
664.314	1.95183
667.689	1.75287
671.064	2.28417
674.439	1.67361
677.813	1.99837
681.188	1.62672
684.563	1.75039
687.938	0.660056
691.313	1.18057
694.688	0.995147
698.062	0.702681
701.437	0.049532
704.812	0.077479
708.187	0.231688
711.562	0.477381
714.936	0.694932
718.311	0.015545
721.686	0.078215
725.061	0.398675
728.436	0.034542
731.81	0.289756
735.185	0.112239
738.56	0.001259
741.935	0.059107
745.31	0.238151
748.684	0.006916
752.059	0.45832
755.434	0.213379
758.809	0.621131
762.184	0.48841
765.559	0.547822
768.933	1.29723
772.308	1.39709
775.683	1.28171
779.058	0.725045
782.433	1.39779
785.808	1.69324
789.182	1.59109
792.557	1.27624
795.932	1.50862
799.307	1.14526
802.682	1.15203
806.056	1.15127
809.431	0.948354
812.806	0.360124
816.181	0.662062
819.556	0.310119
822.93	0.230875
826.305	0.345882
829.68	0.753573
833.055	0.552215
836.43	1.45847
839.804	1.64557
843.179	2.35666
846.554	2.49897
849.929	2.19386
853.304	2.75363
856.679	3.06931
860.053	2.21142
863.428	2.76905
866.803	2.30165
870.178	1.42898
873.553	1.05539
876.927	1.06286
880.302	0.728068
883.677	0.250974
887.052	0.099566
890.427	0.646968
893.802	0.021338
897.176	0.194796
900.551	0.009523
903.926	0.16736
907.301	0.29915
910.676	0.073159
914.05	0.933211
917.425	0.486736
920.8	0.408495
924.175	0.010039
927.55	0.597032
930.924	0.212181
934.299	0.170838
937.674	0.316256
941.049	0.603629
944.424	0.287551
947.799	0.862885
951.173	0.413477
954.548	0.369773
957.923	0.513283
961.298	0.271796
964.673	0.19749
968.047	0.318653
971.422	0.138135
974.797	0.414078
978.172	0.202403
981.547	0.006584
984.922	0.68199
988.296	0.36396
991.671	0.23019
995.046	0.42507
998.421	0.675243
1001.8	0.26335
1005.17	0.143827
1008.54	0.12547
1011.92	0.150002
1015.29	0.642821
1018.67	1.08911
1022.04	0.268665
1025.42	0.191718
1028.79	0.00835
1032.17	0.291586
1035.54	0.03844
1038.92	0.301794
1042.29	0.333662
1045.67	0.732999
1049.04	0.220795
1052.42	0.773933
1055.79	0.097171
1059.17	0.442331
1062.54	0.874641
1065.92	0.249171
1069.29	0.730943
1072.67	0.76316
1076.04	0.410684
1079.42	0.16126
1082.79	0.204128
1086.17	0.057328
1089.54	1.22004
1092.92	0.468519
1096.29	0.490403
1099.66	0.4652
1103.04	0.682411
1106.41	0.48946
1109.79	0.919512
1113.16	0.514712
1116.54	0.278968
1119.91	0.411004
1123.29	0.447651
1126.66	0.968865
1130.04	0.708712
1133.41	0.808987
1136.79	0.436726
1140.16	0.628103
1143.54	0.806125
1146.91	0.061621
1150.29	0.248754
1153.66	0.651867
1157.04	0.705402
1160.41	0.108578
1163.79	1.27906
1167.16	0.011683
1170.54	0.092685
1173.91	0.59344
1177.29	0.358017
1180.66	0.118116
1184.04	0.453506
1187.41	1.05836
1190.79	0.441152
1194.16	0.62098
1197.54	0.632678
1200.91	0.527143
1204.28	0.554081
1207.66	0.555777
1211.03	0.809278
1214.41	0.627381
1217.78	0.635049
1221.16	0.788159
1224.53	0.48867
1227.91	0.704746
1231.28	0.040552
1234.66	0.437902
1238.03	0.229272
1241.41	0.049214
1244.78	0.470517
1248.16	0.409574
1251.53	0.095052
1254.91	0.040853
1258.28	0.453154
1261.66	0.194733
1265.03	0.567222
1268.41	0.001009
1271.78	0.513579
1275.16	0.723365
1278.53	0.544221
1281.9	0.546967
