Measurement: Raman, 532 nm, unoriented, Raman Data Processed
Mineral: Cyanochroite
Rruff sample: R061035
Ideal chemistry: K_2_Cu(SO_4_)_2_6H_2_O
Locality: Tolbachik Volcano, Main Fracture, N. Breakthrough, Kamchatka, Russia
Source: Michael Scott
Description: Blue-green grainy crust
Raman shift (cm-1)	intensity
152.861	0
155.753	12.1514
158.646	1.30371
161.539	43.3882
164.431	63.8801
167.324	28.5151
170.217	1.42627
173.109	0.893555
176.002	5.82861
178.895	93.2781
181.788	81.0325
184.68	114.786
187.573	119.568
190.466	80.1316
193.358	97.396
196.251	42.1768
199.144	30.7346
202.036	83.0212
204.929	93.438
207.822	93.9771
210.714	193.325
213.607	202.038
216.5	243.31
219.393	307.047
222.285	298.305
225.178	300.579
228.071	276.106
230.963	271.388
233.856	248.362
236.749	240.132
239.642	215.258
242.534	271.077
245.427	261.707
248.32	298.642
251.212	262.204
254.105	230.774
256.998	219.487
259.89	256.131
262.783	259.342
265.676	251.036
268.568	200.632
271.461	153.208
274.354	146.978
277.247	128.651
280.139	103.963
283.032	66.606
285.925	109.229
288.817	67.8252
291.71	46.5271
294.603	58.416
297.495	39.8745
300.388	40.2942
303.281	22.2341
306.174	65.8625
309.066	19.8237
311.959	17.4861
314.852	14.3435
317.744	2.19092
320.637	2.2395
323.53	15.5515
326.422	26.5112
329.315	2.89624
332.208	31.0552
335.101	18.7827
337.993	43.231
340.886	45.7363
343.779	52.9812
346.671	66.8259
349.564	118.046
352.457	117.141
355.349	128.277
358.242	151.039
361.135	100.043
364.027	121.567
366.92	73.6299
369.813	31.9182
372.706	46.4822
375.598	50.0317
378.491	22.5142
381.384	1.36939
384.276	38.1299
387.169	27.2122
390.062	23.248
392.954	5.2312
395.847	10.969
398.74	26.8894
401.633	0.102051
404.525	36.6309
407.418	32.9749
410.311	37.5977
413.203	50.7095
416.096	54.0591
418.989	87.865
421.881	124.267
424.774	145.006
427.667	176.096
430.56	239.381
433.452	296.61
436.345	359.756
439.238	436.332
442.13	644.764
445.023	804.528
447.916	1058
450.808	1280.3
453.701	1385.6
456.594	955.66
459.486	718.781
462.379	537.028
465.272	379.238
468.165	236.174
471.057	172.378
473.95	138.776
476.843	58.4783
479.735	42.8508
482.628	83.3745
485.521	101.551
488.413	89.7607
491.306	91.665
494.199	157.168
497.092	194.858
499.984	262.858
502.877	288.262
505.77	397.885
508.662	437.208
511.555	432.891
514.448	368.684
517.341	305.611
520.233	269.274
523.126	193.779
526.019	142.585
528.911	106.629
531.804	92.8872
534.697	23.4517
537.589	16.3877
540.482	0.411133
543.375	29.5847
546.268	45.5059
549.16	12.5998
552.053	13.5613
554.946	36.1465
557.838	1.97192
560.731	32.1804
563.624	36.8486
566.516	47.8384
569.409	48.8474
572.302	58.8252
575.194	106.581
578.087	97.2278
580.98	116.253
583.872	145.744
586.765	167.343
589.658	170.201
592.551	211.832
595.443	250.44
598.336	263.304
601.229	334.722
604.121	441.045
607.014	509.129
609.907	490.419
612.799	502.919
615.692	592.966
618.585	701.897
621.477	794.394
624.37	601.629
627.263	629.466
630.156	645.729
633.048	380.373
635.941	224.333
638.834	110.022
641.726	87.0686
644.619	56.3384
647.512	51.2551
650.404	50.4539
653.297	49.375
656.19	25.6252
659.083	40.5073
661.975	17.7451
664.868	17.477
667.761	29.9082
670.653	2.30835
673.546	25.6213
676.439	0.664307
679.332	4.50806
682.224	19.6504
685.117	31.5823
688.01	37.7717
690.902	38.0391
693.795	38.585
696.688	32.8955
699.58	45.6863
702.473	34.1631
705.366	7.97778
708.259	33.0518
711.151	25.6995
714.044	14.5466
716.937	32.251
719.829	45.4111
722.722	42.8164
725.615	55.7817
728.507	13.6111
731.4	9.04883
734.293	13.4246
737.185	26.9746
740.078	44.7295
742.971	12.3308
745.864	22.7317
748.756	49.4221
751.649	47.9744
754.542	15.582
757.434	32.4646
760.327	13.9219
763.22	16.1665
766.112	61.7324
769.005	46.3105
771.898	25.8257
774.79	12.8096
777.683	16.4219
780.576	37.7085
783.469	49.4653
786.361	39.1858
789.254	25.5715
792.147	57.1065
795.039	54.979
797.932	82.8364
800.825	112.892
803.717	102.282
806.61	136.674
809.503	197.023
812.396	216.636
815.288	269.131
818.181	247.271
821.074	235.569
823.966	254.034
826.859	232.665
829.752	212.643
832.644	146.732
835.537	153.262
838.43	193.476
841.323	121.847
844.215	162.473
847.108	89.824
850.001	79.9934
852.893	71.8547
855.786	43.2529
858.679	28.8462
861.571	23.3677
864.464	22.5364
867.357	17.6431
870.25	6.91382
873.142	16.1401
876.035	29.7715
878.928	17.2598
881.82	10.1687
884.713	62.4292
887.606	79.6692
890.498	111.792
893.391	141.081
896.284	174.425
899.177	227.792
902.069	282.522
904.962	338.604
907.855	407.444
910.747	371.277
913.64	278.518
916.533	215.257
919.425	132.553
922.318	123.986
925.211	103.395
928.104	70.9001
930.996	46.5671
933.889	34.3474
936.782	57.8696
939.674	44.8684
942.567	5.6499
945.46	40.9692
948.352	26.803
951.245	21.5378
954.138	79.5408
957.03	77.1165
959.923	122.003
962.816	205.523
965.709	318.568
968.601	428.618
971.494	792.8
974.387	1397.79
977.279	2324.55
980.172	3944.87
983.065	5995.45
985.957	6614.04
988.85	3271.81
991.743	2967.8
994.635	1916.57
997.528	896.761
1000.42	635.577
1003.31	539.707
1006.21	260.377
1009.1	100.48
1011.99	55.8171
1014.88	12.7134
1017.78	15.3833
1020.67	25.835
1023.56	0.903809
1026.45	18.7329
1029.35	2.85254
1032.24	2.7644
1035.13	9.30688
1038.03	21.3186
1040.92	52.8584
1043.81	82.4009
1046.7	136.232
1049.6	114.797
1052.49	119.348
1055.38	118.403
1058.28	89.3511
1061.17	106.382
1064.06	120.859
1066.95	159.339
1069.85	179.929
1072.74	187.025
1075.63	234.689
1078.52	287.988
1081.42	271.722
1084.31	259.945
1087.2	216.203
1090.09	164.508
1092.99	85.1792
1095.88	81.6458
1098.77	118.569
1101.66	69.4475
1104.56	116.958
1107.45	107.505
1110.34	73.4189
1113.24	75.0808
1116.13	94.1428
1119.02	105.967
1121.91	89.9231
1124.81	118.937
1127.7	158.182
1130.59	204.452
1133.48	119.504
1136.38	74.27
1139.27	58.7517
1142.16	56.3972
1145.06	3.87866
1147.95	14.6609
1150.84	53.8115
1153.73	73.8633
1156.63	93.3816
1159.52	118.054
1162.41	88.4421
1165.31	1.59644
1168.2	9.64722
1171.09	7.82764
1173.98	30.0159
1176.88	4.67481
1179.77	21.9265
1182.66	29.0596
1185.55	15.384
1188.45	23.4177
1191.34	38.021
1194.23	124.755
1197.12	180.225
1200.02	265.731
1202.91	244.584
1205.8	182.373
1208.69	144.094
1211.59	204.939
1214.48	214.62
1217.37	189.773
1220.27	52.248
1223.16	25.4326
1226.05	39.6697
1228.94	56.3655
1231.84	8.40332
1234.73	26.4473
1237.62	33.2751
1240.52	0.927734
1243.41	13.7302
1246.3	51.7803
1249.19	37.1235
1252.09	7.37793
1254.98	40.1296
1257.87	28.5652
1260.76	30.2075
1263.66	41.1206
1266.55	2.10156
1269.44	40.05
1272.33	26.6143
1275.23	52.73
1278.12	21.0945
1281.01	26.9092
1283.9	39.5486
1286.8	10.7312
1289.69	6.3335
1292.58	23.5913
