Measurement: Raman, 780 nm, unoriented, Raman Data Processed
Mineral: Cymrite
Rruff sample: R080032
Ideal chemistry: Ba(Si,Al)_4_(O,OH)_8_H_2_O
Locality: Langban, Filipstad, Varmland, Sweden
Source: Michael Scott
Description: Vitreous, massive opaque grey associated with calcite and phlogopite
Raman shift (cm-1)	intensity
147.543	0
150.436	1.03844
153.328	2.43164
156.221	3.43586
159.114	2.88578
162.006	3.2626
164.899	3.23235
167.792	4.30287
170.685	6.97267
173.577	6.10596
176.47	5.83988
179.363	3.51145
182.255	2.51629
185.148	1.19084
188.041	0.702827
190.933	0.515373
193.826	0.192627
196.719	0.062469
199.612	0.888
202.504	2.23705
205.397	1.7717
208.29	3.65087
211.182	2.90291
214.075	3.60888
216.968	4.33915
219.86	5.00365
222.753	4.53411
225.646	5.63365
228.538	4.43193
231.431	4.73682
234.324	3.32345
237.217	2.72845
240.109	2.15786
243.002	1.18202
245.895	0.983276
248.787	0.45808
251.68	0.361996
254.573	0.143375
257.466	0.648438
260.358	1.10089
263.251	1.85658
266.144	2.81408
269.036	3.43104
271.929	6.38587
274.822	10.1222
277.714	16.8074
280.607	22.1621
283.5	23.6932
286.392	27.7929
289.285	32.9294
292.178	40.9116
295.071	52.5762
297.963	57.7266
300.856	39.3817
303.749	28.4768
306.641	22.5836
309.534	17.1223
312.427	9.07023
315.32	4.83865
318.212	2.82691
321.105	1.38272
323.998	0.51165
326.89	0.050316
329.783	0.753895
332.676	0.919037
335.568	0.757874
338.461	0.286167
341.354	0.18877
344.247	1.48052
347.139	2.88682
350.032	4.52196
352.925	6.05452
355.817	9.66688
358.71	12.1914
361.603	15.3614
364.495	21.976
367.388	29.6365
370.281	42.1191
373.173	57.4566
376.066	75.3384
378.959	94.1308
381.852	115.034
384.744	138.761
387.637	159.059
390.53	172.003
393.422	165.095
396.315	141.764
399.208	110.406
402.101	80.3229
404.993	59.3778
407.886	44.2719
410.779	33.4475
413.671	24.7254
416.564	19.5164
419.457	14.8968
422.349	10.6462
425.242	8.54978
428.135	6.24836
431.027	5.61585
433.92	5.47691
436.813	5.07615
439.706	5.46762
442.598	6.46896
445.491	7.88046
448.384	9.36077
451.276	10.5456
454.169	10.2883
457.062	9.65278
459.954	10.3388
462.847	8.65915
465.74	5.25161
468.633	2.34967
471.525	1.89834
474.418	1.42199
477.311	0.850159
480.203	0.379772
483.096	0.111168
485.989	0.076378
488.882	0.079189
491.774	0.103806
494.667	0.16114
497.56	0.472275
500.452	0.165863
503.345	0.120621
506.238	0.214218
509.13	0.226204
512.023	0.136044
514.916	0.17078
517.808	0.133335
520.701	0.416492
523.594	0.043747
526.487	0.740753
529.379	0.145596
532.272	1.44503
535.165	1.49595
538.057	1.43715
540.95	0.929489
543.843	1.37352
546.736	1.07275
549.628	1.22378
552.521	1.96609
555.414	1.83404
558.306	1.6851
561.199	1.03685
564.092	1.68652
566.984	0.907211
569.877	0.872944
572.77	0.726715
575.663	0.931789
578.555	0.168846
581.448	0.226536
584.341	0.203037
587.233	0.32571
590.126	0.446476
593.019	0.17701
595.911	0.778423
598.804	0.707439
601.697	0.489243
604.59	0.51495
607.482	1.23447
610.375	1.87472
613.268	2.00263
616.16	2.94348
619.053	1.72442
621.946	1.69849
624.838	0.906593
627.731	1.37249
630.624	1.50489
633.516	1.00772
636.409	0.713417
639.302	1.26744
642.195	1.58335
645.087	1.20708
647.98	1.73813
650.873	2.22357
653.765	2.01274
656.658	3.56699
659.551	4.80238
662.443	6.13782
665.336	7.61752
668.229	8.88128
671.122	10.4952
674.014	11.9876
676.907	12.8815
679.8	14.2523
682.692	14.4262
685.585	11.8546
688.478	8.6266
691.37	5.96809
694.263	3.4071
697.156	2.86455
700.049	1.80549
702.941	2.38863
705.834	1.58222
708.727	1.60602
711.619	2.66388
714.512	1.14888
717.405	0.946987
720.298	0.225468
723.19	0.244473
726.083	0.449741
728.976	0.073303
731.868	0.826042
734.761	0.225067
737.654	0.27816
740.546	0.086979
743.439	0.048729
746.332	0.383503
749.225	0.670742
752.117	0.658203
755.01	0.305058
757.903	1.38469
760.795	0.72887
763.688	1.56382
766.581	1.63478
769.473	2.52071
772.366	3.87156
775.259	5.23485
778.152	6.97914
781.044	9.72728
783.937	12.5533
786.83	14.6429
789.722	16.5831
792.615	18.9352
795.508	17.0183
798.4	13.4867
801.293	10.6233
804.186	8.00927
807.078	5.98634
809.971	4.75628
812.864	2.61894
815.757	2.62172
818.649	2.38725
821.542	1.50433
824.435	1.63208
827.327	1.61313
830.22	0.72401
833.113	1.18489
836.005	1.02978
838.898	1.10526
841.791	1.07652
844.683	0.716743
847.576	1.30095
850.469	0.462406
853.362	1.23541
856.254	0.613384
859.147	0.040977
862.04	0.756496
864.932	0.093594
867.825	0.317646
870.718	0.304661
873.611	0.071201
876.503	0.481609
879.396	0.460434
882.289	0.146843
885.181	0.27523
888.074	0.072193
890.967	0.571758
893.859	0.028988
896.752	0.082611
899.645	0.080208
902.538	0.029686
905.43	0.628281
908.323	1.59365
911.216	1.45815
914.108	2.25972
917.001	3.82338
919.894	4.17901
922.786	4.99728
925.679	5.1844
928.572	5.9709
931.465	7.7782
934.357	7.24637
937.25	8.86655
940.143	10.0442
943.035	12.9886
945.928	15.1944
948.821	16.2514
951.713	18.7152
954.606	18.911
957.499	15.1188
960.391	9.67846
963.284	6.84618
966.177	5.86017
969.07	5.44772
971.962	9.57532
974.855	19.2314
977.748	21.7776
980.64	27.4635
983.533	34.6789
986.426	42.8578
989.318	37.876
992.211	14.7759
995.104	9.46096
997.997	8.25536
1000.89	8.07242
1003.78	6.71394
1006.67	4.83081
1009.57	2.14715
1012.46	1.42772
1015.35	0.253307
1018.25	0.283062
1021.14	0.091259
1024.03	0.240757
1026.92	0.118469
1029.82	0.381577
1032.71	0.47702
1035.6	0.007809
1038.49	0.104328
1041.39	0.291779
1044.28	0.511593
1047.17	0.958057
1050.07	0.588547
1052.96	0.931889
1055.85	1.7841
1058.74	1.63304
1061.64	2.07115
1064.53	2.46243
1067.42	2.96905
1070.31	3.40261
1073.21	6.15326
1076.1	7.19002
1078.99	8.93818
1081.88	11.8257
1084.78	17.1268
1087.67	18.1826
1090.56	3.85129
1093.46	1.28469
1096.35	0.579819
1099.24	0.680809
1102.13	0.163078
1105.03	0.668095
1107.92	0.3522
1110.81	0.204479
1113.7	0.421864
1116.6	0.002369
1119.49	0.467915
1122.38	0.74662
1125.28	1.01559
1128.17	1.22409
1131.06	1.92662
1133.95	2.8184
1136.85	2.80117
1139.74	2.9166
1142.63	2.5915
1145.52	2.34579
1148.42	1.60438
1151.31	0.930473
1154.2	1.85632
1157.1	1.26852
1159.99	1.65347
1162.88	1.46285
1165.77	2.01464
1168.67	1.13485
1171.56	1.09949
1174.45	1.02869
1177.34	1.07336
1180.24	0.863747
1183.13	0.945923
1186.02	0.953915
1188.91	0.830544
1191.81	1.55003
1194.7	1.41723
1197.59	1.08174
1200.49	1.02381
1203.38	0.716015
1206.27	0.677406
1209.16	0.604595
1212.06	1.33103
1214.95	0.754509
1217.84	0.21101
1220.73	0.24379
1223.63	0.923637
1226.52	0.288345
1229.41	0.118378
1232.31	0.102974
1235.2	0.673611
1238.09	0.925869
1240.98	0.081436
1243.88	0.231243
1246.77	0.361122
1249.66	0.850483
1252.55	1.28984
1255.45	0.008335
1258.34	0.221077
1261.23	0.467995
1264.12	0.279812
1267.02	0.172005
1269.91	0.663273
1272.8	0.516155
1275.7	0.392998
1278.59	0.348148
1281.48	0
