Measurement: Raman, 532 nm, unoriented, Raman Data Processed
Mineral: Cymrite
Rruff sample: R080032
Ideal chemistry: Ba(Si,Al)_4_(O,OH)_8_H_2_O
Locality: Langban, Filipstad, Varmland, Sweden
Source: Michael Scott
Description: Vitreous, massive opaque grey associated with calcite and phlogopite
Raman shift (cm-1)	intensity
148.85	0
151.742	1.29516
154.635	2.79685
157.528	0.847084
160.421	0.398129
163.313	1.53689
166.206	1.9118
169.099	3.2413
171.991	4.91277
174.884	5.03416
177.777	6.03586
180.669	4.85495
183.562	2.97763
186.455	1.99321
189.347	1.53408
192.24	0.275375
195.133	0.161247
198.025	0.044453
200.918	0.020798
203.811	0.066856
206.704	0.33997
209.596	1.11633
212.489	1.50516
215.382	2.46485
218.274	3.40744
221.167	3.10885
224.06	3.18643
226.952	4.12402
229.845	3.38971
232.738	3.18215
235.631	2.39839
238.523	2.57013
241.416	1.84679
244.309	1.79187
247.201	1.26096
250.094	0.98097
252.987	0.87023
255.88	0.877518
258.772	0.68825
261.665	1.56088
264.558	3.04566
267.45	4.19471
270.343	4.9336
273.236	7.63003
276.128	11.4327
279.021	15.0996
281.914	17.6319
284.807	16.9692
287.699	17.4284
290.592	21.7695
293.485	30.5398
296.377	43.3067
299.27	38.5594
302.163	24.2007
305.055	18.8412
307.948	15.6739
310.841	9.32634
313.733	4.33188
316.626	1.77825
319.519	1.429
322.412	0.242491
325.304	0.246141
328.197	0.814989
331.09	1.15312
333.982	0.622328
336.875	0.422306
339.768	0.216663
342.661	0.69326
345.553	1.61414
348.446	2.75401
351.339	3.90839
354.231	5.94411
357.124	8.29641
360.017	10.7186
362.909	14.452
365.802	19.427
368.695	25.388
371.587	36.5035
374.48	50.624
377.373	68.5536
380.266	88.8879
383.158	114.685
386.051	140.517
388.944	165.42
391.836	176.625
394.729	167.066
397.622	135.644
400.514	101.457
403.407	74.141
406.3	54.972
409.193	40.8811
412.085	30.5546
414.978	23.1668
417.871	17.3802
420.763	13.6162
423.656	10.5595
426.549	7.70813
429.442	6.60223
432.334	6.36981
435.227	7.88139
438.12	9.94512
441.012	11.7318
443.905	14.6571
446.798	18.6183
449.69	23.6669
452.583	26.8837
455.476	22.4988
458.368	17.5231
461.261	16.1867
464.154	11.2802
467.047	5.40945
469.939	3.33133
472.832	2.22251
475.725	1.55715
478.617	1.03574
481.51	0.302212
484.403	0.203129
487.296	0.184393
490.188	0.880756
493.081	0.638781
495.974	0.340479
498.866	0.458073
501.759	0.077396
504.652	0.240345
507.544	0.083469
510.437	0.236053
513.33	0.00955
516.222	0.123957
519.115	0.083899
522.008	0.148374
524.901	0.150382
527.793	0.347538
530.686	0.594178
533.579	0.913057
536.471	0.884279
539.364	1.09804
542.257	1.04933
545.149	1.09049
548.042	1.27851
550.935	1.36705
553.828	1.25406
556.72	1.32764
559.613	1.05537
562.506	0.851278
565.398	0.822058
568.291	0.73024
571.184	0.556341
574.077	0.360255
576.969	0.531697
579.862	0.388651
582.755	0.325438
585.647	0.266318
588.54	0.454891
591.433	0.034992
594.325	0.073949
597.218	0.261458
600.111	0.70761
603.004	1.19115
605.896	1.99585
608.789	3.06685
611.682	4.43795
614.574	6.38629
617.467	6.55246
620.36	4.13313
623.252	2.66117
626.145	1.78998
629.038	2.00912
631.931	1.90742
634.823	1.98781
637.716	1.51053
640.609	1.78666
643.501	2.94942
646.394	3.29605
649.287	3.20149
652.179	1.98273
655.072	1.58106
657.965	2.38071
660.857	3.01248
663.75	4.14055
666.643	4.41144
669.536	5.60154
672.428	6.72701
675.321	7.43261
678.214	7.01902
681.106	7.6438
683.999	7.49907
686.892	5.82406
689.784	4.20681
692.677	3.15943
695.57	1.9674
698.463	1.57134
701.355	1.16015
704.248	1.25232
707.141	1.69766
710.033	2.26624
712.926	3.01523
715.819	0.446293
718.711	0.178243
721.604	0.307257
724.497	0.044197
727.389	0.370829
730.282	0.008064
733.175	0.204865
736.068	0.023698
738.96	0.114049
741.853	0.055347
744.746	0.114353
747.638	0.116639
750.531	0.450743
753.424	0.392238
756.317	0.398701
759.209	0.602164
762.102	1.02835
764.995	1.27128
767.887	1.76358
770.78	2.40806
773.673	3.6608
776.565	4.76792
779.458	6.58463
782.351	9.07982
785.244	11.9766
788.136	15.4828
791.029	18.575
793.922	19.4512
796.814	18.2013
799.707	14.0455
802.6	10.1275
805.492	7.47475
808.385	5.74277
811.278	4.5238
814.17	3.37672
817.063	2.4381
819.956	2.16071
822.849	1.91176
825.741	1.42705
828.634	1.4538
831.527	1.10623
834.419	0.875548
837.312	1.05298
840.205	1.0655
843.097	0.636085
845.99	0.256151
848.883	0.321968
851.776	0.150876
854.668	0.437947
857.561	0.090354
860.454	0.203679
863.346	0.055123
866.239	0.353092
869.132	0.158564
872.024	0.143703
874.917	0.092067
877.81	0.076462
880.703	0.135575
883.595	0.096725
886.488	0.253306
889.381	0.077694
892.273	0.05192
895.166	0.086782
898.059	0.169708
900.952	0.269356
903.844	0.509388
906.737	1.60025
909.63	1.99524
912.522	2.91958
915.415	4.45515
918.308	5.82057
921.2	6.48494
924.093	6.67835
926.986	7.83388
929.879	9.03044
932.771	10.2907
935.664	10.5553
938.557	11.3132
941.449	13.0556
944.342	15.5939
947.235	18.8278
950.127	22.2103
953.02	26.1911
955.913	24.8711
958.806	18.3215
961.698	11.729
964.591	8.78455
967.484	7.12962
970.376	8.20881
973.269	15.805
976.162	32.046
979.054	41.7314
981.947	57.1199
984.84	91.6281
987.732	143.322
990.625	64.4642
993.518	18.9478
996.411	11.1898
999.303	9.17442
1002.2	8.56776
1005.09	7.67824
1007.98	5.09952
1010.87	2.85282
1013.77	1.21103
1016.66	0.593658
1019.55	0.113945
1022.45	0.087738
1025.34	0.053335
1028.23	0.199051
1031.12	0.569122
1034.02	0.115311
1036.91	0.115936
1039.8	0.257126
1042.69	0.580542
1045.59	0.736229
1048.48	0.796381
1051.37	0.773207
1054.27	0.794411
1057.16	0.853573
1060.05	1.39142
1062.94	1.45162
1065.84	2.32065
1068.73	2.56109
1071.62	3.26749
1074.51	6.66486
1077.41	9.87471
1080.3	12.6015
1083.19	19.3397
1086.08	37.4253
1088.98	16.2559
1091.87	3.42278
1094.76	2.41717
1097.65	1.80761
1100.55	2.26581
1103.44	2.50283
1106.33	2.07438
1109.23	0.948992
1112.12	0.497341
1115.01	0.000484
1117.9	0.422625
1120.8	0.374641
1123.69	0.290319
1126.58	0.761339
1129.47	1.71007
1132.37	2.66318
1135.26	3.15071
1138.15	4.57424
1141.05	4.16567
1143.94	3.08621
1146.83	2.08056
1149.72	1.53788
1152.62	1.11258
1155.51	1.13324
1158.4	1.29112
1161.29	1.75437
1164.19	2.35205
1167.08	2.68358
1169.97	1.45788
1172.87	1.2257
1175.76	0.140276
1178.65	0.393879
1181.54	0.15736
1184.44	0.007021
1187.33	0.321356
1190.22	0.166849
1193.11	0.130802
1196.01	0.047817
1198.9	0.388781
1201.79	0.361042
1204.68	0.226587
1207.58	0.37557
1210.47	0.231369
1213.36	0.203035
1216.26	0.154224
1219.15	0.570126
1222.04	0.337791
1224.93	0.425541
1227.83	0.30217
1230.72	0.744469
1233.61	0.362894
1236.51	0.519815
1239.4	0.108295
1242.29	0.032488
1245.18	0.563799
1248.08	0.11075
1250.97	0.115473
1253.86	0.320349
1256.75	0.192741
1259.65	0.158024
1262.54	0.280951
1265.43	0.441492
1268.32	0.375204
1271.22	0.467838
1274.11	0.505648
1277	0.437799
1279.89	0.491795
1282.79	0.296267
1285.68	0.415537
1288.57	0.460489
1291.47	0.488291
1294.36	0.35195
1297.25	0.565271
1300.14	0.782513
1303.04	0.00033
