Measurement: Raman, 532 nm, unoriented, Raman Data Processed
Mineral: Dachiardite-Na
Rruff sample: R061116
Ideal chemistry: Na_4_(Si_20_Al_4_)O_48_13H_2_O
Locality: Alpe di Siusi, Bolzano, Trentino-Alto Adige, Italy
Source: Michael Scott
Description: Salmon colored radiating crystals
Raman shift (cm-1)	intensity
153.556	0
156.449	39.0984
159.342	3.48486
162.234	31.6736
165.127	66.5483
168.02	79.5581
170.913	98.4932
173.805	99.2629
176.698	150.75
179.591	160.924
182.483	180.686
185.376	202.495
188.269	281.584
191.161	348.92
194.054	428.702
196.947	465.31
199.84	499.386
202.732	557.665
205.625	534.894
208.518	518.456
211.41	484.194
214.303	482.65
217.196	446.072
220.089	456.569
222.981	506.447
225.874	632.241
228.767	404.226
231.659	213.432
234.552	146.819
237.445	168.359
240.337	221.561
243.23	289.89
246.123	320.94
249.015	178.293
251.908	18.6089
254.801	11.6433
257.693	65.2747
260.586	89.6231
263.479	104.988
266.372	67.1419
269.264	23.583
272.157	14.3469
275.05	5.2124
277.942	48.0066
280.835	57.0808
283.728	119.343
286.62	213.364
289.513	283.193
292.406	333.988
295.299	328.796
298.191	271.677
301.084	238.861
303.977	130.852
306.869	137.507
309.762	64.7974
312.655	67.79
315.548	31.0076
318.44	27.9102
321.333	49.7883
324.226	39.5442
327.118	18.5161
330.011	35.5408
332.904	33.5454
335.796	10.0537
338.689	24.5261
341.582	33.8538
344.474	15.6116
347.367	11.541
350.26	0.256348
353.152	104.33
356.045	66.7134
358.938	8.36572
361.831	30.9209
364.723	10.7925
367.616	17.7534
370.509	39.7432
373.401	15.3208
376.294	71.7373
379.187	120.99
382.079	115.413
384.972	208.94
387.865	270.502
390.758	308.17
393.65	423.64
396.543	408.464
399.436	464.766
402.328	481.655
405.221	511.131
408.114	638.311
411.007	638.451
413.899	490.541
416.792	302.047
419.685	213.786
422.577	121.807
425.47	77.2368
428.363	69.2915
431.255	30.9351
434.148	105.342
437.041	94.1367
439.933	120.24
442.826	153.35
445.719	202.141
448.612	367.875
451.504	541.016
454.397	889.477
457.29	1411.82
460.182	1906.24
463.075	2287.63
465.968	2184.21
468.86	1415.72
471.753	905.7
474.646	598.128
477.538	403.192
480.431	307.633
483.324	290.457
486.217	224.585
489.109	150.069
492.002	157.375
494.895	138.638
497.787	116.628
500.68	115.311
503.573	132.281
506.466	66.4927
509.358	42.0288
512.251	38.1665
515.144	34.2266
518.036	26.9116
520.929	68.3023
523.822	26.3765
526.714	3.86231
529.607	1.76709
532.5	21.0908
535.393	33.9575
538.285	8.38477
541.178	49.5855
544.071	22.8315
546.963	3.77197
549.856	16.1811
552.749	41.6055
555.641	34.1123
558.534	23.6377
561.427	29.896
564.319	55.6577
567.212	57.5366
570.105	47.7754
572.998	52.751
575.89	42.3169
578.783	86.7598
581.676	69.9541
584.568	65.3564
587.461	64.5054
590.354	64.6367
593.246	91.6719
596.139	118.96
599.032	144.306
601.924	103.723
604.817	162.203
607.71	203.674
610.603	183.739
613.495	252.651
616.388	146.903
619.281	137.274
622.173	68.8857
625.066	101.169
627.959	76.9614
630.851	37.5767
633.744	51.103
636.637	61.8491
639.53	66.8394
642.422	107.413
645.315	40.8145
648.208	75.5854
651.1	119.592
653.993	108.633
656.886	116.687
659.779	169.154
662.671	71.9853
665.564	114.4
668.457	100.64
671.349	72.1567
674.242	141.184
677.135	135.757
680.027	15.6812
682.92	63.165
685.813	129.173
688.705	62.1016
691.598	63.0615
694.491	136.787
697.384	105.603
700.276	103.073
703.169	54.7007
706.062	16.5093
708.954	52.2778
711.847	54.9609
714.74	38.3667
717.632	42.021
720.525	34.4707
723.418	36.1445
726.311	17.5225
729.203	67.6172
732.096	33.0933
734.989	25.7476
737.881	32.1572
740.774	17.4585
743.667	60.4468
746.559	84.2051
749.452	76.9155
752.345	46.1841
755.237	87.6265
758.13	35.3794
761.023	122.138
763.916	16.707
766.808	87.3975
769.701	56.5332
772.594	43.0098
775.486	6.45361
778.379	50.9253
781.272	47.709
784.164	40.3101
787.057	117.02
789.95	90.9746
792.843	102.524
795.735	134.058
798.628	134.413
801.521	218.027
804.413	211.703
807.306	218.047
810.199	150.851
813.091	196.73
815.984	180.019
818.877	113.778
821.769	102.693
824.662	126.152
827.555	110.574
830.448	54.2725
833.34	128.721
836.233	105.184
839.126	69.1128
842.018	13.4756
844.911	103.523
847.804	27.5117
850.697	20.6816
853.589	21.2422
856.482	11.647
859.375	39.0615
862.267	56.29
865.16	29.3091
868.053	38.3608
870.945	8.98535
873.838	20.1919
876.731	26.2881
879.624	32.998
882.516	8.86328
885.409	78.2842
888.302	33.0478
891.194	74.4448
894.087	33.4985
896.98	39.2837
899.872	62.8081
902.765	41.7124
905.658	84.2817
908.551	0.87207
911.443	19.7651
914.336	39.96
917.229	18.2158
920.121	47.1313
923.014	2.21045
925.907	57.5898
928.799	69.7969
931.692	59.9326
934.585	25.7246
937.477	47.4673
940.37	28.7183
943.263	5.74707
946.155	67.106
949.048	71.8774
951.941	72.2944
954.834	99.3472
957.726	15.6982
960.619	32.9219
963.512	44.8081
966.404	37.0171
969.297	62.4121
972.19	57.6001
975.082	67.0654
977.975	29.5415
980.868	6.58057
983.761	20.7227
986.653	39.293
989.546	43.6826
992.439	36.3042
995.331	15.3511
998.224	9.04297
1001.12	70.6597
1004.01	41.0117
1006.9	25.5942
1009.79	46.6182
1012.69	1.6333
1015.58	31.6831
1018.47	70.9356
1021.37	29.8184
1024.26	0.866211
1027.15	88.7744
1030.04	71.1436
1032.94	76.5654
1035.83	57.5664
1038.72	92.2588
1041.62	58.2432
1044.51	77.3301
1047.4	83.8975
1050.29	63.7871
1053.18	41.7725
1056.08	122.338
1058.97	82.3682
1061.86	90.5166
1064.76	112.279
1067.65	74.6934
1070.54	71.2188
1073.43	68.4033
1076.33	58.543
1079.22	73.7939
1082.11	108.251
1085.01	102.243
1087.9	90.2285
1090.79	51.2422
1093.68	48.4522
1096.58	37.9326
1099.47	65.665
1102.36	74.4902
1105.25	57.2129
1108.15	25.998
1111.04	71.2441
1113.93	4.84082
1116.83	45.3369
1119.72	35.3389
1122.61	45.8262
1125.5	26.7676
1128.4	60.6621
1131.29	52.6728
1134.18	18.4795
1137.07	67.8818
1139.97	58.2275
1142.86	39.5156
1145.75	53.3486
1148.64	49.918
1151.54	92.7754
1154.43	39.3154
1157.32	109.883
1160.21	80.9668
1163.11	125.256
1166	131.706
1168.89	99.8037
1171.79	1.13086
1174.68	159.84
1177.57	67.0947
1180.46	89.7773
1183.36	94.4932
1186.25	123.553
1189.14	111.197
1192.04	83.8809
1194.93	71.0547
1197.82	117.967
1200.71	85.2305
1203.61	111.442
1206.5	38.6855
1209.39	58.4951
1212.28	8.03223
1215.18	80.1318
1218.07	38.7578
1220.96	91.1631
1223.85	85.8623
1226.75	36.8496
1229.64	52.375
1232.53	94.3301
1235.42	29.8096
1238.32	23.8281
1241.21	58.5332
1244.1	160.301
1247	75.9981
1249.89	72.6748
1252.78	68.001
1255.67	81.4981
1258.57	79.0459
1261.46	97.5293
1264.35	49.9395
1267.24	75.0371
1270.14	3.24707
1273.03	61.5879
