Measurement: Raman, 532 nm, unoriented, Raman Data Processed
Mineral: Dachiardite-Ca
Rruff sample: R061097
Ideal chemistry: Ca_2_(Si_20_Al_4_)O_48_13H_2_O
Locality: Cape Lookout Quarry, Tillamook County, Oregon
Source: Michael Scott
Description: Hemispheres of radiating translucent white to colorless bladed crystals associated with heulandite and white balls of mordenite.
Measured chemistry: (Ca_1.25_K_0.98_Na_0.46_)_Σ=2.69_(Si_20.06_Al_3.94_)O_48_·11.22H_2_O ; H_2_O by difference
Raman shift (cm-1)	intensity
117.226	0
120.601	263.108
123.975	1272
127.35	2219.61
130.725	2217.7
134.1	2100.86
137.475	1923.29
140.849	1848.65
144.224	1531.54
147.599	1332.27
150.974	1082.03
154.349	879.564
157.724	684.535
161.098	537.329
164.473	458.23
167.848	350.47
171.223	361.666
174.598	355.015
177.972	330.835
181.347	323.983
184.722	415.818
188.097	474.762
191.472	520.525
194.846	592.957
198.221	521.766
201.596	418.13
204.971	309.238
208.346	242.398
211.721	173.669
215.095	56.7771
218.47	8.8551
221.845	18.7382
225.22	28.0117
228.595	51.7625
231.969	39.9895
235.344	9.12634
238.719	28.9811
242.094	10.8132
245.469	24.5942
248.844	36.9804
252.218	75.2689
255.593	99.5342
258.968	137.904
262.343	120.665
265.718	120.164
269.092	182.22
272.467	144.941
275.842	206.137
279.217	188.184
282.592	244.996
285.966	232.742
289.341	223.458
292.716	225.962
296.091	239.084
299.466	234.795
302.841	217.85
306.215	230.678
309.59	220.888
312.965	244.699
316.34	223.852
319.715	249.485
323.089	238.929
326.464	162.469
329.839	173.804
333.214	123.737
336.589	151.205
339.964	85.1693
343.338	103.897
346.713	59.5365
350.088	43.8287
353.463	38.6063
356.838	16.9301
360.212	29.9933
363.587	28.1965
366.962	0.018555
370.337	23.7694
373.712	29.2875
377.087	16.1957
380.461	38.0637
383.836	2.13171
387.211	35.7918
390.586	39.1566
393.961	71.1426
397.335	122.937
400.71	181.716
404.085	293.875
407.46	305.385
410.835	446.754
414.209	575.966
417.584	644.765
420.959	759.917
424.334	737.484
427.709	671.435
431.084	530.71
434.458	468.542
437.833	407.733
441.208	500.936
444.583	633.957
447.958	835.118
451.332	1105.02
454.707	1508.18
458.082	2009.97
461.457	2597.07
464.832	3206.36
468.207	3764.9
471.581	4237.82
474.956	4564.57
478.331	4782.21
481.706	4731.32
485.08	4426.03
488.455	3844.66
491.83	3093.24
495.205	2250.6
498.58	1550.28
501.955	1005.96
505.329	658.563
508.704	426.719
512.079	267.188
515.454	183.435
518.829	103.129
522.203	68.3798
525.578	31.7633
528.953	25.7263
532.328	14.63
535.703	11.4907
539.077	7.4751
542.452	22.8912
545.827	19.9672
549.202	4.9259
552.577	7.36365
555.952	16.1834
559.326	21.9131
562.701	13.5702
566.076	7.04651
569.451	14.6951
572.826	1.17529
576.201	42.2681
579.575	42.541
582.95	48.8873
586.325	82.271
589.7	43.1403
593.075	53.9438
596.449	91.3806
599.824	91.9658
603.199	122.327
606.574	124.626
609.949	130.924
613.323	138.53
616.698	119.593
620.073	131.975
623.448	141.962
626.823	119.345
630.197	142.155
633.572	115.239
636.947	68.097
640.322	76.6262
643.697	61.0499
647.072	78.9595
650.446	43.2306
653.821	32.1631
657.196	29.8746
660.571	4.16174
663.946	23.7209
667.321	27.7047
670.695	18.1223
674.07	19.6949
677.445	33.1634
680.82	4.95837
684.195	5.02734
687.569	14.9526
690.944	4.34119
694.319	3.9054
697.694	13.1279
701.069	39.161
704.443	61.3711
707.818	35.0721
711.193	18.1035
714.568	27.0203
717.943	39.2808
721.317	63.5594
724.692	47.3522
728.067	48.0704
731.442	49.4608
734.817	21.2872
738.192	58.7
741.566	43.5111
744.941	49.5979
748.316	52.1508
751.691	46.932
755.066	64.7947
758.441	76.5572
761.815	112.906
765.19	164.017
768.565	165.877
771.94	172.101
775.315	159.751
778.689	184.472
782.064	166.415
785.439	196.222
788.814	163.007
792.189	114.556
795.563	90.6244
798.938	55.2429
802.313	40.1915
805.688	7.46204
809.063	1.76074
812.438	4.6969
815.812	4.99011
819.187	19.2122
822.562	43.5217
825.937	21.2655
829.312	31.4635
832.686	23.7026
836.061	16.4353
839.436	45.1917
842.811	27.5424
846.186	34.9844
849.561	24.7402
852.935	25.4125
856.31	4.75049
859.685	46.3999
863.06	46.9473
866.434	39.791
869.809	29.5465
873.184	27.7308
876.559	54.9617
879.934	30.9054
883.309	5.70984
886.683	12.7634
890.058	16.5678
893.433	20.0336
896.808	30.3086
900.183	61.4586
903.558	54.6215
906.932	1.27246
910.307	50.1753
913.682	43.2683
917.057	39.1188
920.432	45.0753
923.806	37.767
927.181	46.9928
930.556	24.6633
933.931	1.06665
937.306	23.7067
940.681	29.1346
944.055	24.7306
947.43	54.058
950.805	23.4348
954.18	41.1234
957.554	33.6324
960.929	1.6322
964.304	14.0309
967.679	7.65527
971.054	7.06201
974.429	2.49927
977.803	47.3472
981.178	60.3751
984.553	77.6019
987.928	85.6864
991.303	72.1598
994.678	60.2926
998.052	27.9504
1001.43	62.0742
1004.8	36.1715
1008.18	76.8705
1011.55	55.5354
1014.93	25.819
1018.3	50.4742
1021.68	25.5798
1025.05	86.7253
1028.43	41.9432
1031.8	50.3845
1035.17	64.5588
1038.55	22.7565
1041.92	31.2482
1045.3	31.317
1048.67	19.244
1052.05	1.85938
1055.42	21.8118
1058.8	0.430298
1062.17	6.89844
1065.55	38.6898
1068.92	22.1791
1072.3	7.47131
1075.67	9.14929
1079.05	41.9047
1082.42	72.0339
1085.8	77.2319
1089.17	109.822
1092.55	158.497
1095.92	117.542
1099.3	199.755
1102.67	215.854
1106.05	213.583
1109.42	250.381
1112.8	276.799
1116.17	297.462
1119.55	322.155
1122.92	316.445
1126.3	342.143
1129.67	326.37
1133.05	337.848
1136.42	338.265
1139.8	334.478
1143.17	338.552
1146.54	332.559
1149.92	319.616
1153.29	304.036
1156.67	264.659
1160.04	253.92
1163.42	241.003
1166.79	225.651
1170.17	193.095
1173.54	185.901
1176.92	125.588
1180.29	112.096
1183.67	110.579
1187.04	72.299
1190.42	92.9321
1193.79	49.4983
1197.17	22.1238
1200.54	1.40149
1203.92	8.88415
1207.29	18.1335
1210.67	18.7374
1214.04	30.6765
1217.41	7.50171
1220.79	0.470337
1224.16	12.9735
1227.54	21.5458
1230.91	38.7836
1234.29	28.4321
1237.66	43.8971
1241.04	62.0585
1244.41	60.1977
1247.79	69.9474
1251.16	65.1194
1254.54	27.957
1257.91	72.9072
1261.29	17.5388
1264.66	28.7664
1268.04	12.4998
1271.41	28.3362
1274.79	0.945435
1278.16	0
