Measurement: Raman, 785 nm, unoriented, Raman Data Processed
Mineral: Dachiardite-Ca
Rruff sample: R061097
Ideal chemistry: Ca_2_(Si_20_Al_4_)O_48_13H_2_O
Locality: Cape Lookout Quarry, Tillamook County, Oregon
Source: Michael Scott
Description: Hemispheres of radiating translucent white to colorless bladed crystals associated with heulandite and white balls of mordenite.
Measured chemistry: (Ca_1.25_K_0.98_Na_0.46_)_Σ=2.69_(Si_20.06_Al_3.94_)O_48_·11.22H_2_O ; H_2_O by difference
Raman shift (cm-1)	intensity
122.112	0
125.004	229.336
127.897	680.337
130.79	1256.32
133.682	1503.22
136.575	1791.51
139.468	2552.11
142.36	3596.07
145.253	5077.17
148.146	4712.08
151.038	4258.46
153.931	3720.23
156.824	3070.96
159.717	2737.14
162.609	2361.49
165.502	2170.72
168.395	1988.44
171.287	1838.24
174.18	1676.23
177.073	1519.95
179.965	1476.49
182.858	1420.29
185.751	1388.88
188.644	1394.1
191.536	1435.63
194.429	1454.65
197.322	1425.15
200.214	1332.3
203.107	1077.83
206	847.895
208.893	602.673
211.785	407.601
214.678	280.444
217.571	154.28
220.463	118.281
223.356	17.7227
226.249	25.6975
229.141	46.2529
232.034	50.3376
234.927	60.0659
237.82	62.8225
240.712	49.1738
243.605	39.2188
246.498	11.3313
249.39	24.0935
252.283	49.1843
255.176	88.7336
258.068	107.066
260.961	146.111
263.854	159.059
266.746	142.508
269.639	101.517
272.532	119.193
275.425	99.0723
278.317	149.1
281.21	156.246
284.103	157.073
286.995	145.552
289.888	176.226
292.781	242.839
295.673	277.548
298.566	292.607
301.459	334.791
304.351	365.546
307.244	392.406
310.137	486.837
313.03	581.087
315.922	644.929
318.815	694.597
321.708	701.831
324.6	695.072
327.493	684.742
330.386	530.278
333.279	435.081
336.171	373.66
339.064	267.082
341.957	201.383
344.849	158.73
347.742	137.083
350.635	82.6602
353.527	86.1808
356.42	21.3381
359.313	8.89978
362.205	0.474609
365.098	22.9609
367.991	53.0541
370.884	50.5282
373.776	41.6324
376.669	70.8969
379.562	39.7043
382.454	22.5383
385.347	20.7102
388.24	54.1621
391.132	102.157
394.025	221.754
396.918	301.375
399.811	425.994
402.703	565.613
405.596	663.16
408.489	794.164
411.381	951.637
414.274	1134.8
417.167	1446.44
420.06	1752.32
422.952	2039.51
425.845	2137.9
428.738	2060.31
431.63	1812.32
434.523	1467.56
437.416	1244.88
440.308	1123.46
443.201	1182.08
446.094	1354.34
448.986	1683.58
451.879	2313.5
454.772	3040.57
457.665	3913.39
460.557	5114.49
463.45	6345.06
466.343	7651.68
469.235	8614.2
472.128	9425.98
475.021	10035.6
477.913	10317.5
480.806	10444.6
483.699	10232.2
486.592	9677.73
489.484	8557.1
492.377	7155.88
495.27	5669.39
498.162	4120.38
501.055	2853.47
503.948	1869.39
506.841	1237.09
509.733	797.799
512.626	488.099
515.519	297.756
518.411	176.098
521.304	106.778
524.197	49.915
527.089	16.8784
529.982	7.96753
532.875	44.8027
535.768	48.9246
538.66	51.1764
541.553	71.3805
544.446	76.0649
547.338	36.8738
550.231	6.54346
553.124	48.5106
556.016	13.1702
558.909	35.7273
561.802	23.0137
564.694	34.7517
567.587	32.6616
570.48	26.1931
573.373	43.4458
576.265	43.4873
579.158	51.2433
582.051	43.532
584.943	121.046
587.836	79.1754
590.729	141.528
593.621	148.001
596.514	169.549
599.407	239.478
602.299	237.561
605.192	230.397
608.085	307.902
610.978	297.298
613.87	321.203
616.763	309.669
619.656	343.269
622.548	330.936
625.441	301.799
628.334	283.95
631.226	268.379
634.119	239.623
637.012	204.792
639.905	176.721
642.797	195.658
645.69	166.747
648.583	130.572
651.475	143.225
654.368	74.0664
657.261	73.9348
660.154	86.0156
663.046	67.0312
665.939	66.8048
668.832	38.0471
671.724	18.2952
674.617	43.5154
677.51	3.29932
680.402	1.50952
683.295	10.2145
686.188	5.53259
689.081	5.80762
691.973	20.7758
694.866	0.299683
697.759	10.8616
700.651	25.2816
703.544	10.0227
706.437	15.1487
709.329	34.667
712.222	22.9418
715.115	68.5283
718.008	59.0629
720.9	56.47
723.793	84.2283
726.686	74.0071
729.578	84.4762
732.471	132.767
735.364	63.4761
738.256	104.413
741.149	83.1269
744.042	82.8888
746.934	102.914
749.827	114.888
752.72	138.756
755.612	158.577
758.505	219.136
761.398	225.41
764.291	278.32
767.183	330.695
770.076	374.191
772.969	408.833
775.861	382.064
778.754	402.575
781.647	340.196
784.54	311.088
787.432	243.142
790.325	211.786
793.218	190.172
796.11	167.072
799.003	121.492
801.896	83.7583
804.788	87.1959
807.681	90.094
810.574	40.3038
813.467	62.9857
816.359	41.5365
819.252	16.7416
822.145	15.6669
825.037	14.3215
827.93	22.1888
830.823	8.43225
833.716	1.71698
836.608	11.0554
839.501	8.71472
842.394	41.7159
845.286	5.72717
848.179	23.7686
851.072	33.1203
853.964	26.804
856.857	53.5598
859.75	30.6578
862.643	21.5113
865.535	25.1337
868.428	39.6073
871.321	40.4979
874.213	43.3792
877.106	3.71368
879.999	46.6818
882.891	40.4787
885.784	52.1821
888.677	66.3055
891.569	59.2241
894.462	29.7017
897.355	37.1899
900.247	61.5938
903.14	45.2534
906.033	28.7979
908.926	44.1892
911.818	51.9536
914.711	41.0157
917.604	68.1231
920.496	43.6251
923.389	0.302063
926.282	77.356
929.174	73.7277
932.067	14.1815
934.96	69.5663
937.853	67.4496
940.745	2.07892
943.638	46.3895
946.531	17.1262
949.423	25.5663
952.316	43.8031
955.209	62.3675
958.101	29.1304
960.994	63.1367
963.887	9.07861
966.78	51.6988
969.672	10.7734
972.565	26.0817
975.458	2.25378
978.35	8.82825
981.243	1.82867
984.136	24.4232
987.029	86.6212
989.921	59.9121
992.814	29.0867
995.707	27.6118
998.599	16.0123
1001.49	35.332
1004.38	17.1636
1007.28	50.7772
1010.17	44.1227
1013.06	35.0713
1015.96	46.1158
1018.85	64.6771
1021.74	14.2976
1024.63	33.458
1027.53	53.8423
1030.42	47.7174
1033.31	43.3948
1036.2	37.5732
1039.1	60.5773
1041.99	51.7045
1044.88	68.0606
1047.78	43.2655
1050.67	50.8898
1053.56	25.8712
1056.45	7.87732
1059.35	3.92444
1062.24	9.45154
1065.13	55.6155
1068.02	8.55115
1070.92	25.4002
1073.81	30.3586
1076.7	50.0891
1079.6	68.3431
1082.49	106.657
1085.38	148.328
1088.27	192.705
1091.17	208.823
1094.06	239.768
1096.95	277.278
1099.84	310.457
1102.74	361.185
1105.63	376.235
1108.52	433.162
1111.41	464.854
1114.31	419.56
1117.2	494.995
1120.09	518.248
1122.98	456.84
1125.88	512.339
1128.77	527.447
1131.66	523.383
1134.56	503.47
1137.45	504.58
1140.34	503.507
1143.23	531.726
1146.13	504.041
1149.02	474.062
1151.91	534.963
1154.81	467.206
1157.7	461.266
1160.59	425.693
1163.48	382.382
1166.38	420.634
1169.27	325.252
1172.16	320.116
1175.05	298.75
1177.95	205.631
1180.84	216.519
1183.73	137.206
1186.62	176.758
1189.52	91.2052
1192.41	47.3685
1195.3	62.0521
1198.2	36.2877
1201.09	16.4262
1203.98	16.016
1206.87	4.18811
1209.77	19.9438
1212.66	36.8071
1215.55	18.9399
1218.44	4.5152
1221.34	32.9714
1224.23	48.0727
1227.12	59.1258
1230.02	41.6509
1232.91	75.2057
1235.8	69.9777
1238.69	50.6323
1241.59	46.6979
1244.48	35.1973
1247.37	21.2272
1250.26	59.2646
1253.16	49.0658
1256.05	72.8518
1258.94	4.6156
