Measurement: Raman, 785 nm, unoriented, Raman Data Processed
Mineral: Dachiardite-Na
Rruff sample: R061116
Ideal chemistry: Na_4_(Si_20_Al_4_)O_48_13H_2_O
Locality: Alpe di Siusi, Bolzano, Trentino-Alto Adige, Italy
Source: Michael Scott
Description: Salmon colored radiating crystals
Raman shift (cm-1)	intensity
167.913	0
170.805	33.8242
173.698	7.11231
176.591	6.13257
179.483	8.42114
182.376	59.3508
185.269	69.4675
188.161	75.6209
191.054	37.5352
193.947	100.607
196.84	91.5159
199.732	66.1274
202.625	98.7554
205.518	92.1084
208.41	94.9885
211.303	92.8633
214.196	139.396
217.088	99.7602
219.981	222.235
222.874	319.41
225.767	360.91
228.659	147.915
231.552	21.6426
234.445	7.21899
237.337	58.0391
240.23	126.605
243.123	175.629
246.015	155.284
248.908	73.759
251.801	23.2363
254.694	5.55591
257.586	13.3652
260.479	8.85303
263.372	22.0339
266.264	31.7224
269.157	6.44092
272.05	55.6897
274.942	108.172
277.835	142.457
280.728	236.804
283.62	451.766
286.513	800.996
289.406	1227.88
292.299	1558.19
295.191	1388.68
298.084	1031.53
300.977	825.122
303.869	517.115
306.762	330.693
309.655	215.606
312.548	178.478
315.44	147.373
318.333	78.1914
321.226	70.616
324.118	64.7771
327.011	23.2849
329.904	26.6213
332.796	40.0134
335.689	5.04492
338.582	1.10083
341.474	9.97021
344.367	34.4121
347.26	5.53003
350.153	4.42969
353.045	23.6262
355.938	0.55542
358.831	12.3821
361.723	8.02856
364.616	2.56445
367.509	18.7881
370.401	57.0149
373.294	78.3108
376.187	121.342
379.08	144.872
381.972	248.465
384.865	337.836
387.758	384.555
390.65	473.837
393.543	611.818
396.436	711.567
399.329	836.036
402.221	1140.75
405.114	1420.62
408.007	1784.09
410.899	1835.1
413.792	1470.54
416.685	924.657
419.577	552.705
422.47	368.947
425.363	286.816
428.255	259.518
431.148	204.021
434.041	174.28
436.934	198.572
439.826	182.238
442.719	164.185
445.612	189.469
448.504	165.372
451.397	184.354
454.29	311.943
457.183	465.779
460.075	668.144
462.968	749.447
465.861	659.205
468.753	531.582
471.646	409.515
474.539	348.271
477.431	258.253
480.324	212.978
483.217	178.863
486.109	138.12
489.002	161.004
491.895	173.338
494.788	207.55
497.68	143.698
500.573	80.1223
503.466	58.573
506.358	45.5813
509.251	41.3957
512.144	26.595
515.036	5.302
517.929	12.1545
520.822	5.95532
523.715	20.3767
526.607	16.7749
529.5	8.72461
532.393	21.0998
535.285	3.68994
538.178	26.8943
541.071	22.8381
543.963	9.03613
546.856	49.7197
549.749	3.26294
552.641	11.8171
555.534	47.2546
558.427	61.2202
561.32	73.4973
564.212	66.7441
567.105	39.0908
569.998	69.8879
572.89	86.2353
575.783	80.6426
578.676	97.21
581.568	92.7893
584.461	128.19
587.354	138.476
590.247	152.402
593.139	171.257
596.032	264.063
598.925	332.969
601.817	451.413
604.71	594.943
607.603	747.791
610.495	852.766
613.388	768.304
616.281	655.633
619.174	468.287
622.066	350.665
624.959	244.995
627.852	236.043
630.744	197.967
633.637	173.326
636.53	139.636
639.423	126.406
642.315	79.1345
645.208	80.1648
648.101	87.0393
650.993	72.1231
653.886	70.7451
656.779	78.8035
659.671	53.5073
662.564	22.9668
665.457	61.7212
668.35	14.9983
671.242	14.6751
674.135	14.4294
677.028	17.1375
679.92	35.2593
682.813	24.6123
685.706	1.81201
688.598	48.6843
691.491	8.61523
694.384	11.9905
697.277	45.3391
700.169	15.249
703.062	14.468
705.955	5.7417
708.847	47.095
711.74	2.3794
714.633	18.0378
717.525	28.936
720.418	42.2466
723.311	13.8943
726.203	1.93506
729.096	20.9724
731.989	52.4441
734.881	15.1877
737.774	30.1926
740.667	7.8335
743.56	22.9812
746.452	11.9829
749.345	30.3723
752.238	39.0911
755.13	30.5281
758.023	25.7212
760.916	43.8865
763.808	12.4453
766.701	5.44873
769.594	14.0293
772.487	35.2598
775.379	22.6626
778.272	40.1975
781.165	19.1101
784.057	51.3057
786.95	18.6948
789.843	73.9495
792.736	57.1773
795.628	55.8135
798.521	59.4307
801.414	33.2346
804.306	88.9988
807.199	85.5525
810.092	97.8023
812.984	83.8696
815.877	72.7412
818.77	78.3379
821.663	81.3196
824.555	56.2502
827.448	46.9793
830.341	34.8711
833.233	18.5991
836.126	19.3198
839.019	8.98584
841.911	33.0447
844.804	30.8655
847.697	3.81128
850.59	21.0867
853.482	11.6479
856.375	19.8289
859.268	1.87256
862.16	39.1597
865.053	34.6494
867.946	5.64478
870.838	36.0915
873.731	35.5276
876.624	51.3889
879.516	23.6709
882.409	30.366
885.302	6.62012
888.195	11.6191
891.087	24.4189
893.98	35.376
896.873	37.1572
899.765	38.21
902.658	50.2285
905.551	55.5317
908.443	64.3103
911.336	21.7092
914.229	23.4744
917.122	18.0028
920.014	4.62561
922.907	48.5743
925.8	47.116
928.692	51.1901
931.585	35.2538
934.478	23.484
937.37	53.2098
940.263	39.9047
943.156	39.629
946.049	25.8475
948.941	41.4933
951.834	40.4612
954.727	29.4965
957.619	52.3452
960.512	21.1105
963.405	60.991
966.298	44.2902
969.19	38.7833
972.083	40.2325
974.976	39.1196
977.868	21.0913
980.761	19.1027
983.654	47.2402
986.546	43.6445
989.439	2.44714
992.332	23.3224
995.225	40.2175
998.117	6.74695
1001.01	43.1992
1003.9	57.1849
1006.79	5.30847
1009.69	32.0297
1012.58	58.7948
1015.47	90.2866
1018.37	0.927856
1021.26	38.0981
1024.15	14.2513
1027.04	21.0156
1029.94	34.1478
1032.83	27.1442
1035.72	26.9993
1038.62	37.4957
1041.51	62.3373
1044.4	30.7559
1047.29	46.4617
1050.19	42.5504
1053.08	32.2856
1055.97	35.4551
1058.86	27.1261
1061.76	32.7449
1064.65	46.4637
1067.54	43.169
1070.43	13.2731
1073.33	45.1107
1076.22	31.7842
1079.11	37.2126
1082.01	15.5436
1084.9	7.01196
1087.79	1.78686
1090.68	54.6431
1093.58	9.39746
1096.47	4.68713
1099.36	7.0946
1102.25	7.16357
1105.15	21.9716
1108.04	33.9329
1110.93	25.5212
1113.83	19.9145
1116.72	39.813
1119.61	28.2161
1122.5	17.995
1125.4	22.2467
1128.29	37.3627
1131.18	24.2133
1134.07	12.7496
1136.97	22.5848
1139.86	21.2581
1142.75	36.953
1145.64	20.8589
1148.54	23.8197
1151.43	37.3452
1154.32	48.1359
1157.22	45.1735
1160.11	45.7064
1163	15.9499
1165.89	22.4099
1168.79	55.3873
1171.68	59.7656
1174.57	29.5797
1177.46	30.7902
1180.36	46.7156
1183.25	21.7568
1186.14	24.5427
1189.04	31.6746
1191.93	31.2454
1194.82	41.1427
1197.71	43.609
1200.61	11.6356
1203.5	13.2904
1206.39	24.2599
1209.28	30.9098
1212.18	42.5955
1215.07	39.6146
1217.96	35.5002
1220.86	20.7931
1223.75	19.6941
1226.64	55.8549
1229.53	33.2002
1232.43	31.7084
1235.32	32.2977
1238.21	20.3872
1241.1	52.2007
1244	16.8522
1246.89	23.9606
1249.78	20.3651
1252.67	30.193
1255.57	16.7281
