Measurement: Raman, 532 nm, unoriented, Raman Data Processed
Mineral: Dalyite
Rruff sample: R070415
Ideal chemistry: K_2_ZrSi_6_O_15_
Locality: Murunskyi Massif, Chara River (Charo River), Davan, Torgo River Basin, Aldan Shield, Saha Republic (Sakha Republic; Yakutia), Eastern-Siberian Region, Russia
Source: Michael Scott
Description: Lavender grains in quartz
Raman shift (cm-1)	intensity
150.626	0
153.519	353.519
156.411	1010.61
159.304	1513.99
162.197	1574.44
165.09	1148.36
167.982	719.176
170.875	495.442
173.768	426.975
176.66	319.593
179.553	212.869
182.446	66.2163
185.339	13.0142
188.231	17.1357
191.124	12.9512
194.017	65.5225
196.909	39.0181
199.802	16.0425
202.695	14.397
205.587	8.45605
208.48	99.4287
211.373	238.704
214.266	402.233
217.158	567.82
220.051	794.439
222.944	999.267
225.836	1045.4
228.729	1063.12
231.622	1046.63
234.514	886.235
237.407	731.569
240.3	589.785
243.192	503.369
246.085	463.533
248.978	467.68
251.871	483.974
254.763	576.858
257.656	763.856
260.549	995.729
263.441	1247.61
266.334	1364.45
269.227	1297.77
272.12	1173
275.012	874.656
277.905	492.943
280.798	333.012
283.69	149.192
286.583	35.7617
289.476	1.74853
292.368	35.0718
295.261	52.416
298.154	40.6977
301.046	2.15527
303.939	84.0088
306.832	101.691
309.725	297.725
312.617	431.658
315.51	738.469
318.403	1055.2
321.295	1502.77
324.188	1980.79
327.081	2434.12
329.974	2736.07
332.866	2612.3
335.759	2246.55
338.652	1837.29
341.544	1491.48
344.437	1306.17
347.33	1056.62
350.223	782.214
353.115	652.965
356.008	504.846
358.901	392.334
361.793	414.953
364.686	487.444
367.579	675.932
370.471	965.225
373.364	1339.49
376.257	1794.07
379.149	2230.56
382.042	2492.29
384.935	2222.5
387.828	2004.19
390.72	1994.93
393.613	2015.81
396.506	1662.79
399.398	1230.17
402.291	987.474
405.184	838.71
408.077	553.822
410.969	250.296
413.862	64.6709
416.755	52.1323
419.647	59.9302
422.54	30.7456
425.433	19.3125
428.325	221.376
431.218	426.789
434.111	668.321
437.003	1027.44
439.896	1297.45
442.789	1508.74
445.682	1215.81
448.574	791.29
451.467	552.27
454.36	466.58
457.252	435.229
460.145	473.209
463.038	404.603
465.93	391.902
468.823	182.215
471.716	48.5566
474.609	42.2534
477.501	14.1851
480.394	72.4546
483.287	13.9751
486.179	6.92432
489.072	53.3179
491.965	74.4526
494.858	136.756
497.75	255.21
500.643	407.282
503.536	647.352
506.428	1002.39
509.321	1580.04
512.214	2553.76
515.106	3839.81
517.999	5549.43
520.892	7265.42
523.784	8725.64
526.677	8557.2
529.57	6369.91
532.463	4155.09
535.355	2777.59
538.248	1979.39
541.141	1415.18
544.033	975.41
546.926	699.522
549.819	568.616
552.712	398.897
555.604	319.826
558.497	218.589
561.39	192.693
564.282	77.1856
567.175	69.2373
570.068	45.6157
572.96	18.7632
575.853	11.2925
578.746	0.658203
581.639	46.499
584.531	16.748
587.424	21.0923
590.317	124.648
593.209	201.856
596.102	315.685
598.995	520.225
601.888	696.779
604.78	989.172
607.673	1346.67
610.566	1679.81
613.458	1887.83
616.351	1648.85
619.244	1252.02
622.136	959.211
625.029	839.028
627.922	758.073
630.814	616.127
633.707	447.831
636.6	310.134
639.493	192.397
642.385	126.873
645.278	104.128
648.171	46.8364
651.063	71.7847
653.956	59.2573
656.849	68.2183
659.741	6.93652
662.634	5.60254
665.527	14.5479
668.42	8.08154
671.312	49.7158
674.205	6.81885
677.098	19.8286
679.99	2.84228
682.883	50.6504
685.776	4.63769
688.668	4.71826
691.561	1.26562
694.454	19.4873
697.347	47.1025
700.239	3.59326
703.132	55.1709
706.025	59.9009
708.917	70.4189
711.81	114.809
714.703	142.433
717.596	160.988
720.488	140.114
723.381	153.312
726.274	169.45
729.166	129.969
732.059	184.588
734.952	63.0425
737.844	73.4228
740.737	24.6367
743.63	63.9688
746.523	25.6299
749.415	34.625
752.308	29.3506
755.201	13.998
758.093	50.2197
760.986	50.9346
763.879	22.853
766.771	64.855
769.664	103.332
772.557	113.353
775.45	73.6641
778.342	141.41
781.235	189.375
784.128	228.315
787.02	341.588
789.913	436.852
792.806	557.544
795.698	610.964
798.591	575.683
801.484	467.079
804.377	369.72
807.269	296.204
810.162	242.388
813.055	236.584
815.947	150.11
818.84	162.874
821.733	151.137
824.625	127.946
827.518	99.9604
830.411	78.459
833.304	74.3091
836.196	64.5991
839.089	137.055
841.982	45.188
844.874	114.393
847.767	61.4268
850.66	36.8306
853.553	21.9546
856.445	2.1416
859.338	15.6377
862.231	23.2959
865.123	58.7964
868.016	13.8023
870.909	16.082
873.801	19.4067
876.694	16.8975
879.587	9.26514
882.48	44.5127
885.372	6.16016
888.265	22.4473
891.158	1.44727
894.05	59.2607
896.943	31.3877
899.836	18.9473
902.729	20.9585
905.621	12.7036
908.514	28.4917
911.407	68.9648
914.299	100.324
917.192	92.687
920.085	156.702
922.977	248.471
925.87	325.908
928.763	502.453
931.655	689.729
934.548	1071.17
937.441	1422.69
940.334	1982.98
943.226	2645.28
946.119	3330.63
949.012	4007.39
951.904	4634.51
954.797	5327.81
957.69	5899.78
960.582	6428.4
963.475	6899.73
966.368	7101.54
969.261	6954.98
972.153	6405.88
975.046	5779.16
977.939	5268.48
980.831	5043.03
983.724	4906.06
986.617	4717.59
989.51	4502.92
992.402	4201.3
995.295	4059.73
998.188	3922.99
1001.08	3806.19
1003.97	3797.09
1006.87	3561.05
1009.76	3327.3
1012.65	2958.02
1015.54	2399.57
1018.44	1748.4
1021.33	1255.77
1024.22	828.217
1027.12	558.873
1030.01	291.574
1032.9	155.636
1035.79	50.6377
1038.68	-11.2634
1041.58	9.10034
1044.47	32.9871
1047.36	14.1106
1050.26	-5.6955
1053.15	21.5529
1056.04	33.1187
1058.93	104.752
1061.83	211.36
1064.72	304.642
1067.61	341.668
1070.51	347.025
1073.4	246.65
1076.29	230.54
1079.18	84.1509
1082.08	37.7725
1084.97	50.5493
1087.86	12.3335
1090.75	9.06836
1093.65	59.6523
1096.54	75.6431
1099.43	92.5703
1102.33	134.961
1105.22	121.772
1108.11	114.697
1111	205.946
1113.9	129.855
1116.79	213.235
1119.68	230.948
1122.57	215.144
1125.47	244.994
1128.36	235.846
1131.25	333.56
1134.14	387.173
1137.04	372.533
1139.93	386.56
1142.82	314.588
1145.71	216.952
1148.61	111.258
1151.5	65.7798
1154.39	46.8481
1157.29	92.9062
1160.18	81.9429
1163.07	34.7539
1165.96	75.3638
1168.86	50.0742
1171.75	96.6694
1174.64	67.5615
1177.54	85.8403
1180.43	72.5239
1183.32	52.1841
1186.21	75.9771
1189.11	47.1211
1192	32.5327
1194.89	1.7168
1197.78	30.3648
1200.68	27.3364
1203.57	14.5767
1206.46	29.8901
1209.36	11.1426
1212.25	10.0415
1215.14	20.4756
1218.03	1.91797
1220.93	31.7651
1223.82	49.2642
1226.71	32.3872
1229.6	26.6572
1232.5	63.4644
1235.39	38.8555
1238.28	106.111
1241.17	29.8262
1244.07	50.7866
1246.96	50.2583
1249.85	71.5254
1252.74	102.107
1255.64	61.7339
1258.53	53.9453
1261.42	76.6079
1264.32	56.064
1267.21	51.7544
1270.1	38.2227
1272.99	39.7339
1275.89	44.1328
1278.78	44.5625
1281.67	31.1943
1284.57	101.707
1287.46	72.1309
1290.35	68.6103
1293.24	31.5737
1296.14	19.0483
1299.03	16.2144
1301.92	51.4573
1304.81	0
