Measurement: Raman, 785 nm, unoriented, Raman Data Processed
Mineral: Dalyite
Rruff sample: R070415
Ideal chemistry: K_2_ZrSi_6_O_15_
Locality: Murunskyi Massif, Chara River (Charo River), Davan, Torgo River Basin, Aldan Shield, Saha Republic (Sakha Republic; Yakutia), Eastern-Siberian Region, Russia
Source: Michael Scott
Description: Lavender grains in quartz
Raman shift (cm-1)	intensity
150.429	0
153.321	206.347
156.214	504.232
159.107	896.148
161.999	1107.53
164.892	1054.32
167.785	823.648
170.677	611.746
173.57	451.775
176.463	322.385
179.356	158.433
182.248	106.473
185.141	55.1082
188.034	24.0598
190.926	45.4077
193.819	33.6174
196.712	33.7861
199.604	13.9126
202.497	53.0569
205.39	62.0342
208.282	118.37
211.175	251.927
214.068	339.026
216.961	507.153
219.853	713.338
222.746	937.379
225.639	1071.76
228.531	1164.4
231.424	1229.94
234.317	1152.25
237.209	963.172
240.102	794.05
242.995	581.966
245.888	469.759
248.78	429.3
251.673	406.85
254.566	455.937
257.458	496.935
260.351	694.374
263.244	858.005
266.137	997.667
269.029	962.09
271.922	881.381
274.815	667.028
277.707	433.659
280.6	302.188
283.493	143.101
286.385	62.145
289.278	26.8503
292.171	9.89136
295.063	37.3977
297.956	76.8435
300.849	25.4231
303.742	22.55
306.634	42.3809
309.527	143.584
312.42	206.865
315.312	322.326
318.205	492.98
321.098	736.82
323.99	931.328
326.883	1206.57
329.776	1460.12
332.669	1474.24
335.561	1352.92
338.454	1173.88
341.347	981.073
344.239	847.361
347.132	713.329
350.025	560.364
352.918	483.462
355.81	370.252
358.703	311.385
361.596	376.317
364.488	484.796
367.381	687.301
370.274	1003.3
373.166	1415.18
376.059	1859.38
378.952	2476.41
381.844	2999.34
384.737	2647.44
387.63	1829.92
390.523	1498.71
393.415	1455.53
396.308	1229.22
399.201	978.977
402.093	822.014
404.986	795.367
407.879	528.131
410.772	294.5
413.664	64.5283
416.557	36.3525
419.45	46.4629
422.342	53.1953
425.235	58.1421
428.128	130.197
431.02	275.565
433.913	499.676
436.806	743.403
439.699	1040.73
442.591	1287.87
445.484	1211.49
448.377	829.829
451.269	580.89
454.162	419.354
457.055	344.019
459.947	369.623
462.84	423.701
465.733	361.543
468.625	221.526
471.518	135.415
474.411	75.2485
477.304	16.7612
480.196	24.8159
483.089	8.70117
485.982	14.2344
488.874	29.1167
491.767	24.4399
494.66	32.9746
497.553	128.621
500.445	152.917
503.338	307.452
506.231	434.562
509.123	759.298
512.016	1164.51
514.909	1833.73
517.802	2588.16
520.694	3623.72
523.587	4823.36
526.48	5282.82
529.372	4306.85
532.265	2951.83
535.158	1898.5
538.05	1307.38
540.943	946.329
543.836	672.154
546.729	470.163
549.621	356.68
552.514	295.057
555.407	188.257
558.299	122.417
561.192	126.908
564.085	79.8413
566.977	44.7324
569.87	5.94922
572.763	10.2529
575.655	27.8247
578.548	18.8306
581.441	26.1128
584.333	57.4111
587.226	61.0332
590.119	78.7734
593.012	139.68
595.904	217.302
598.797	304.136
601.69	555.752
604.582	749.4
607.475	1073.02
610.368	1643.47
613.26	1760.03
616.153	1808.84
619.046	1423.92
621.939	1062.16
624.831	922.458
627.724	868.682
630.617	846.71
633.509	569.767
636.402	411.447
639.295	260.647
642.188	138.364
645.08	93.9585
647.973	51.4438
650.866	19.9194
653.758	7.88428
656.651	45.9531
659.544	28.3525
662.436	50.8565
665.329	27.6523
668.222	22.2686
671.115	20.7993
674.007	3.34619
676.9	10.0068
679.793	28.6939
682.685	33.8125
685.578	12.2344
688.471	6.8999
691.363	9.2832
694.256	36.0977
697.149	19.1426
700.042	23.3657
702.934	69.126
705.827	27.2754
708.72	119.721
711.612	73.3359
714.505	60.9849
717.398	94.5644
720.29	96.3731
723.183	133.865
726.076	125.026
728.968	131.652
731.861	91.2944
734.754	74.7305
737.647	47.8926
740.539	52.0586
743.432	14.7222
746.325	38.0395
749.217	15.936
752.11	61.9995
755.003	10.9458
757.895	18.1411
760.788	59.02
763.681	15.8486
766.574	55.6338
769.466	44.5278
772.359	23.832
775.252	73.8813
778.144	57.794
781.037	102.857
783.93	138.336
786.822	177.098
789.715	235.81
792.608	305.508
795.501	391.049
798.393	434.867
801.286	305.899
804.179	227.041
807.071	182.468
809.964	103.059
812.857	163.833
815.75	88.8535
818.642	105.522
821.535	52.2144
824.428	42.1323
827.32	19.355
830.213	63.6582
833.106	53.1426
835.998	53.0977
838.891	104.264
841.784	53.1411
844.677	25.0561
847.569	54.5308
850.462	23.8311
853.355	10.1948
856.247	19.0171
859.14	29.2275
862.033	10.8648
864.925	15.9043
867.818	12.5894
870.711	18.1157
873.604	25.1611
876.496	26.7998
879.389	3.50879
882.282	29.5698
885.174	34.7964
888.067	22.6226
890.96	17.2998
893.852	17.9351
896.745	20.5054
899.638	2.12353
902.53	15.6431
905.423	1.77588
908.316	9.18652
911.209	22.8877
914.101	57.415
916.994	54.917
919.887	108.757
922.779	77.4185
925.672	173.373
928.565	194.281
931.457	293.139
934.35	433.096
937.243	568.017
940.136	801.687
943.028	1064.18
945.921	1328.53
948.814	1686.11
951.706	2083.64
954.599	2348.05
957.492	2677.62
960.385	3109.27
963.277	3517.56
966.17	3734.91
969.063	3921.2
971.955	3750.67
974.848	3335.04
977.741	3010.03
980.633	2787.84
983.526	2727.42
986.419	2684.57
989.312	2654.44
992.204	2473.77
995.097	2387.53
997.99	2336.57
1000.88	2327.1
1003.77	2380.73
1006.67	2314.58
1009.56	2291.82
1012.45	2097.12
1015.35	1848.33
1018.24	1460.94
1021.13	1041.16
1024.02	738.335
1026.92	474.603
1029.81	315.916
1032.7	195.845
1035.6	93.4707
1038.49	47.6397
1041.38	33.5459
1044.27	26.6572
1047.17	30.7842
1050.06	4.49072
1052.95	5.09961
1055.84	38.0322
1058.74	57.979
1061.63	87.1079
1064.52	80.9624
1067.41	77.8638
1070.31	107.712
1073.2	80.3848
1076.09	47.2026
1078.98	41.9219
1081.88	48.5474
1084.77	27.4321
1087.66	0.350586
1090.56	61.294
1093.45	73.7378
1096.34	47.3867
1099.23	110.619
1102.13	102.954
1105.02	58.5547
1107.91	93.2705
1110.81	113.21
1113.7	69.7153
1116.59	128.935
1119.48	95.0249
1122.38	152.245
1125.27	113.032
1128.16	174.944
1131.05	210.104
1133.95	181.196
1136.84	265.839
1139.73	206.37
1142.62	168.012
1145.52	124.561
1148.41	101.758
1151.3	35.3525
1154.19	62.0259
1157.09	41.6616
1159.98	103.69
1162.87	28.6494
1165.77	39.6851
1168.66	70.1094
1171.55	48.2305
1174.44	26.5986
1177.34	49.7358
1180.23	42.1724
1183.12	76.2588
1186.02	54.6177
1188.91	91.6797
1191.8	18.4961
1194.69	24.0249
1197.59	43.5386
1200.48	46.1201
1203.37	60.8867
1206.26	14.9736
1209.16	83.0063
1212.05	2.83887
1214.94	8.10596
1217.84	108.217
1220.73	73.8491
1223.62	102.034
1226.51	44.5532
1229.41	21.2598
1232.3	0
