Measurement: Raman, 532 nm, unoriented, Raman Data Processed
Mineral: Danalite
Rruff sample: R060057
Ideal chemistry: Be_3_Fe^2+^_4_(SiO_4_)_3_S
Locality: Iron Mountain, Winston, New Mexico, USA
Source: University of Arizona Mineral Museum
Description: Orange irregular gemmy blebs
Raman shift (cm-1)	intensity
132.878	0
135.771	0.849976
138.663	10.5969
141.556	3.80713
144.449	0.152313
147.341	12.2465
150.234	27.1534
153.127	54.4554
156.019	69.4794
158.912	82.8788
161.805	92.7898
164.698	110.444
167.59	125.516
170.483	141.692
173.376	151.94
176.268	125.08
179.161	67.3043
182.054	23.1257
184.946	5.7822
187.839	0.371307
190.732	3.19809
193.625	2.21622
196.517	1.14835
199.41	3.21445
202.303	4.67078
205.195	6.2565
208.088	7.29541
210.981	9.81195
213.874	12.0294
216.766	13.3028
219.659	16.433
222.552	17.9157
225.444	23.8632
228.337	28.0735
231.23	33.7245
234.122	37.2062
237.015	41.826
239.908	41.442
242.8	37.8407
245.693	31.4102
248.586	20.6246
251.478	17.0882
254.371	10.3873
257.264	12.0339
260.157	9.40042
263.049	7.91629
265.942	8.99551
268.835	11.5795
271.727	18.0205
274.62	23.9783
277.513	28.4885
280.406	34.0108
283.298	39.6336
286.191	45.3827
289.084	49.1898
291.976	47.7837
294.869	44.5158
297.762	39.9125
300.654	37.2582
303.547	32.0347
306.44	26.9888
309.332	25.5094
312.225	21.4231
315.118	14.2256
318.011	9.00729
320.903	9.11069
323.796	4.4769
326.689	4.1741
329.581	1.40665
332.474	1.08649
335.367	0.276703
338.26	3.31696
341.152	1.75977
344.045	1.56421
346.938	1.62592
349.83	2.33695
352.723	3.52786
355.616	6.40793
358.508	6.0657
361.401	5.70508
364.294	4.97809
367.187	5.49963
370.079	3.07986
372.972	0.624969
375.865	0.543152
378.757	0.742615
381.65	1.51642
384.543	1.40741
387.435	0.408905
390.328	1.5636
393.221	1.47095
396.113	1.43484
399.006	0.593567
401.899	0.010101
404.792	0.716309
407.684	2.39972
410.577	1.30337
413.47	0.254761
416.362	2.06259
419.255	4.49731
422.148	3.86029
425.041	3.20163
427.933	4.83212
430.826	7.11932
433.719	10.7649
436.611	10.1785
439.504	12.6038
442.397	14.7242
445.289	18.0775
448.182	14.6143
451.075	6.16351
453.967	6.10275
456.86	2.93384
459.753	0.383759
462.646	0.997253
465.538	1.90033
468.431	2.20599
471.324	1.10898
474.216	0.798737
477.109	1.26361
480.002	0.432556
482.894	0.227509
485.787	0.217102
488.68	0.173065
491.572	1.13123
494.465	0.048584
497.358	1.95724
500.251	2.04895
503.143	3.51376
506.036	3.48254
508.929	3.87228
511.821	2.44376
514.714	5.89722
517.607	4.8923
520.5	6.16724
523.392	6.78629
526.285	10.6297
529.178	11.7094
532.07	12.1626
534.963	14.5188
537.856	11.0376
540.748	6.83002
543.641	7.73025
546.534	4.98496
549.427	7.60025
552.319	9.94797
555.212	10.7484
558.105	14.7081
560.997	17.8368
563.89	22.3034
566.783	20.4624
569.675	19.3284
572.568	16.3641
575.461	9.47144
578.354	11.4872
581.246	9.76083
584.139	13.0702
587.032	10.9685
589.924	8.77185
592.817	8.85474
595.71	8.48862
598.602	6.95019
601.495	6.01883
604.388	5.59015
607.28	5.97052
610.173	6.62222
613.066	6.84677
615.959	6.58731
618.851	4.7356
621.744	4.98108
624.637	1.13715
627.529	4.29394
630.422	2.06229
633.315	1.00055
636.207	0.26062
639.1	0.131195
641.993	1.3859
644.886	0.025513
647.778	0.932678
650.671	1.13422
653.564	1.1853
656.456	1.47607
659.349	2.73038
662.242	4.60178
665.135	8.22302
668.027	9.78223
670.92	10.1609
673.813	16.7912
676.705	17.9898
679.598	17.3636
682.491	16.6484
685.383	11.7123
688.276	6.77725
691.169	7.12152
694.062	3.88843
696.954	4.14511
699.847	2.01184
702.74	2.50659
705.632	2.89502
708.525	2.21835
711.418	2.04407
714.31	1.64642
717.203	3.4137
720.096	4.01389
722.988	0.356903
725.881	0.458435
728.774	0.327271
731.667	0.828613
734.559	2.46213
737.452	1.80066
740.345	1.0209
743.237	1.35776
746.13	1.28207
749.023	3.75275
751.915	1.23968
754.808	3.85953
757.701	2.603
760.593	3.11093
763.486	2.76654
766.379	2.11215
769.272	3.2247
772.164	3.76584
775.057	3.43231
777.95	2.55942
780.842	4.2439
783.735	4.181
786.628	2.29025
789.52	0.622467
792.413	2.11456
795.306	1.90726
798.199	0.952271
801.091	1.58719
803.984	2.47882
806.877	1.36124
809.769	0.443024
812.662	3.42926
815.555	1.53561
818.447	0.548004
821.34	0.007782
824.233	0.321075
827.125	0.091888
830.018	0.161194
832.911	1.14801
835.804	2.39365
838.696	0.077515
841.589	1.13535
844.482	1.67487
847.375	4.00851
850.267	4.33737
853.16	6.12683
856.053	6.56027
858.945	7.39963
861.838	13.9287
864.731	20.0325
867.623	28.9592
870.516	38.9711
873.409	60.5517
876.302	85.6323
879.194	123.958
882.087	170.932
884.98	222.865
887.872	280.719
890.765	317.024
893.658	314.424
896.55	270.995
899.443	210.784
902.336	161.741
905.229	123.882
908.121	94.4792
911.014	73.6727
913.907	59.4672
916.799	42.4805
919.692	33.0873
922.585	25.431
925.477	15.8401
928.37	12.0741
931.263	9.65811
934.155	8.86441
937.048	11.249
939.941	10.5925
942.833	13.0787
945.726	12.7372
948.619	8.30399
951.512	1.45755
954.404	1.90234
957.297	0.132599
960.19	0.865112
963.082	1.03989
965.975	2.18481
968.868	4.01566
971.76	8.47351
974.653	10.9292
977.546	8.3559
980.439	5.99435
983.331	5.67853
986.224	1.02054
989.117	1.13321
992.009	0.471954
994.902	0.820679
997.795	1.01538
1000.69	0.366089
1003.58	0.996979
1006.47	1.4176
1009.37	0.721741
1012.26	0.977783
1015.15	0.933716
1018.04	3.20114
1020.94	4.18848
1023.83	3.70535
1026.72	4.17026
1029.62	1.53982
1032.51	3.61459
1035.4	2.87329
1038.29	2.4711
1041.18	0.782471
1044.08	2.03107
1046.97	2.65912
1049.86	3.36594
1052.76	4.36221
1055.65	1.65445
1058.54	0.164093
1061.43	0.98703
1064.33	2.40518
1067.22	6.90536
1070.11	2.78107
1073.01	4.03723
1075.9	4.72952
1078.79	4.24857
1081.68	4.37528
1084.58	3.58197
1087.47	5.03455
1090.36	4.01279
1093.25	1.12885
1096.15	1.3399
1099.04	1.04282
1101.93	2.27121
1104.83	2.23816
1107.72	2.71881
1110.61	2.27268
1113.5	1.56363
1116.39	0.93338
1119.29	2.7952
1122.18	2.80823
1125.07	1.0755
1127.97	1.73636
1130.86	0.287628
1133.75	2.91467
1136.64	0.883148
1139.54	3.38785
1142.43	4.56576
1145.32	3.50549
1148.21	1.12833
1151.11	1.06317
1154	2.92014
1156.89	2.87659
1159.79	0.705322
1162.68	0.88501
1165.57	2.93631
1168.46	3.27716
1171.36	2.63013
1174.25	2.03366
1177.14	2.48206
1180.04	2.58884
1182.93	1.02261
1185.82	0.289154
1188.71	0.862854
1191.61	2.8125
1194.5	0.134888
1197.39	0.712769
1200.28	0.134918
1203.18	0.990509
1206.07	2.32837
1208.96	2.87952
1211.85	0.825409
1214.75	1.40118
1217.64	2.18866
1220.53	1.0191
1223.42	1.02838
1226.32	3.26437
1229.21	1.68842
1232.1	2.4534
1235	3.18393
1237.89	1.14456
1240.78	0.896393
1243.67	3.84882
1246.57	0.009796
1249.46	1.81699
1252.35	2.12302
1255.24	0.743347
1258.14	0.291504
1261.03	1.33853
1263.92	1.49335
1266.82	0.685455
1269.71	0.618317
1272.6	3.31503
1275.49	2.37033
1278.39	3.1387
1281.28	1.64938
1284.17	1.42682
1287.07	1.7865
