Measurement: Raman, 780 nm, unoriented, Raman Data Processed
Mineral: Danalite
Rruff sample: R060057
Ideal chemistry: Be_3_Fe^2+^_4_(SiO_4_)_3_S
Locality: Iron Mountain, Winston, New Mexico, USA
Source: University of Arizona Mineral Museum
Description: Orange irregular gemmy blebs
Raman shift (cm-1)	intensity
127.366	0
130.259	13.5169
133.151	1.33469
136.044	11.4751
138.937	8.73987
141.829	0.94696
144.722	5.27313
147.615	24.0713
150.507	40.4847
153.4	58.5179
156.293	74.6469
159.186	83.2662
162.078	80.8622
164.971	82.6721
167.864	88.8659
170.756	94.9813
173.649	83.4409
176.542	52.0874
179.435	17.5401
182.327	1.41144
185.22	5.82764
188.113	3.2802
191.005	1.44792
193.898	4.98364
196.791	8.0901
199.683	7.86005
202.576	12.5172
205.469	14.6607
208.362	17.3044
211.254	21.8129
214.147	24.7921
217.04	28.8468
219.932	31.4065
222.825	36.2016
225.718	40.1467
228.61	46.7511
231.503	47.396
234.396	54.9862
237.288	52.6428
240.181	47.5245
243.074	37.3686
245.967	27.8886
248.859	18.9111
251.752	16.4019
254.645	16.7284
257.537	15.3473
260.43	16.2025
263.323	20.3523
266.216	25.4232
269.108	31.9958
272.001	41.3696
274.894	49.7804
277.786	59.6102
280.679	67.3066
283.572	74.4188
286.464	78.6909
289.357	75.5381
292.25	68.9681
295.142	60.7017
298.035	51.8424
300.928	40.4859
303.82	33.7081
306.713	29.534
309.606	20.7746
312.499	14.7041
315.391	6.9019
318.284	5.38437
321.177	2.2225
324.069	1.48172
326.962	2.20337
329.855	0.767059
332.748	0.515442
335.64	1.0657
338.533	2.60086
341.426	4.42078
344.318	3.29448
347.211	5.33063
350.104	6.54698
352.996	8.27899
355.889	9.90099
358.782	10.5259
361.675	8.93491
364.567	5.82826
367.46	2.89664
370.353	1.05606
373.245	0.407578
376.138	0.407211
379.031	0.318466
381.923	0.95694
384.816	0.275269
387.709	0.460373
390.601	0.581909
393.494	1.62819
396.387	0.279846
399.28	1.33978
402.172	2.3223
405.065	2.9641
407.958	1.35039
410.85	1.13895
413.743	3.59471
416.636	3.04239
419.528	4.92129
422.421	4.24128
425.314	5.66217
428.207	6.98335
431.099	9.02689
433.992	10.0744
436.885	8.8325
439.777	12.7775
442.67	14.1364
445.563	16.5071
448.455	8.85494
451.348	5.15301
454.241	3.18897
457.134	3.28013
460.026	2.41395
462.919	1.62627
465.812	1.85471
468.704	0.46714
471.597	0.622505
474.49	0.301918
477.382	1.36129
480.275	0.423088
483.168	0.721848
486.06	1.54875
488.953	0.223999
491.846	0.170059
494.739	2.02374
497.631	1.58986
500.524	0.082489
503.417	1.12515
506.309	1.77242
509.202	1.36857
512.095	3.2432
514.987	4.35525
517.88	4.98762
520.773	6.3335
523.666	8.53277
526.558	9.16423
529.451	10.1667
532.344	9.18472
535.236	8.44056
538.129	8.75648
541.022	6.43526
543.914	6.20474
546.807	6.47702
549.7	9.16735
552.592	11.5027
555.485	15.0348
558.378	18.2059
561.271	23.3065
564.163	26.9315
567.056	26.2112
569.949	21.7069
572.841	15.145
575.734	10.6575
578.627	8.52826
581.519	9.87242
584.412	9.01648
587.305	7.77548
590.198	6.19874
593.09	6.35975
595.983	4.32152
598.876	4.88261
601.768	4.00372
604.661	3.68051
607.554	5.16342
610.447	3.54935
613.339	3.56289
616.232	3.23292
619.125	2.11167
622.017	1.37918
624.91	0.443703
627.803	1.4089
630.695	0.615944
633.588	0.843956
636.481	0.062218
639.374	0.024734
642.266	0.316689
645.159	0.690918
648.052	0.895966
650.944	0.961884
653.837	1.26382
656.73	1.52478
659.622	2.80871
662.515	5.86184
665.408	6.39778
668.301	7.30262
671.193	9.35824
674.086	10.037
676.979	13.4893
679.871	13.6737
682.764	9.9096
685.657	7.50037
688.549	4.46192
691.442	3.35958
694.335	1.27924
697.227	1.70366
700.12	2.51106
703.013	1.7548
705.906	0.99498
708.798	0.841667
711.691	0.887489
714.584	1.30293
717.476	1.11678
720.369	0.770149
723.262	0.134544
726.154	0.758232
729.047	0.602661
731.94	0.978241
734.832	1.54997
737.725	0.212921
740.618	0.797356
743.511	0.391449
746.403	2.12553
749.296	1.64939
752.189	1.73699
755.081	3.44161
757.974	2.05631
760.867	2.53451
763.76	3.20017
766.652	2.40768
769.545	2.39012
772.438	3.59036
775.33	1.24846
778.223	1.47755
781.116	1.55686
784.008	1.87911
786.901	0.31266
789.794	1.33019
792.687	0.35408
795.579	0.127007
798.472	1.1078
801.365	0.281181
804.257	0.402328
807.15	0.443413
810.043	0.756645
812.935	0.311882
815.828	0.429695
818.721	0.779869
821.614	0.568413
824.506	0.411865
827.399	0.067406
830.292	1.1755
833.184	0.459999
836.077	0.167259
838.97	0.136673
841.862	0.406471
844.755	0.456528
847.648	1.52639
850.54	1.05121
853.433	4.03718
856.326	5.64436
859.219	8.11333
862.111	12.1006
865.004	17.1622
867.897	27.4504
870.789	39.3784
873.682	59.8038
876.575	86.5123
879.467	117.609
882.36	151.968
885.253	185.903
888.145	213.884
891.038	220.038
893.931	193.791
896.824	152.376
899.716	117.01
902.609	88.4045
905.502	69.0143
908.394	53.665
911.287	41.4402
914.18	31.0305
917.072	22.595
919.965	15.9124
922.858	12.5468
925.751	9.8569
928.643	7.98949
931.536	7.09738
934.429	8.74341
937.321	11.3556
940.214	12.1996
943.107	12.202
946	9.75571
948.892	5.84029
951.785	2.48084
954.678	2.36971
957.57	1.57416
960.463	0.762848
963.356	2.40613
966.248	3.38103
969.141	4.43134
972.034	5.55309
974.927	5.30924
977.819	3.66527
980.712	3.08126
983.605	1.22382
986.497	0.230072
989.39	0.487534
992.283	0.312973
995.175	0.79644
998.068	0.10183
1000.96	0.081108
1003.85	0.881363
1006.75	0.166691
1009.64	2.39818
1012.53	2.36008
1015.42	1.76728
1018.32	2.90642
1021.21	2.86294
1024.1	2.95514
1026.99	1.66494
1029.89	1.51978
1032.78	0.987488
1035.67	0.515976
1038.57	0.951008
1041.46	0.948349
1044.35	3.04375
1047.24	1.6841
1050.14	0.822117
1053.03	0.668407
1055.92	2.09671
1058.82	1.68246
1061.71	2.11661
1064.6	1.51622
1067.49	1.69251
1070.38	1.60801
1073.28	1.8914
1076.17	1.41706
1079.06	1.61114
1081.96	1.89029
1084.85	2.35902
1087.74	1.60168
1090.63	1.29573
1093.53	0.916088
1096.42	0.923588
1099.31	0.944378
1102.2	0.289574
1105.1	0.205505
1107.99	1.06311
1110.88	0.941769
1113.78	0.331715
1116.67	0.808594
1119.56	0.432865
1122.45	1.39493
1125.35	0.96386
1128.24	0.705456
1131.13	1.39454
1134.03	0.101864
1136.92	1.63271
1139.81	0.03804
1142.7	0.49382
1145.6	0.666878
1148.49	0.797298
1151.38	1.28578
1154.27	1.25409
1157.17	1.43024
1160.06	1.10105
1162.95	1.79894
1165.84	1.0045
1168.74	1.0728
1171.63	1.04059
1174.52	0.781086
1177.41	0.241032
1180.31	1.54551
1183.2	0.780609
1186.09	0.61898
1188.99	0.73312
1191.88	1.55193
1194.77	0.43095
1197.66	1.05456
1200.56	1.39879
1203.45	1.47124
1206.34	1.49227
1209.23	0.740097
1212.13	1.04039
1215.02	1.13438
1217.91	0.836685
1220.81	0.485935
1223.7	0.831097
1226.59	0.740547
1229.48	1.32343
1232.38	0.371441
1235.27	1.1517
1238.16	0.731823
1241.06	1.32214
1243.95	1.43597
1246.84	0.614483
1249.73	0.632565
1252.62	0.540062
1255.52	1.24544
1258.41	0.878159
1261.3	1.13471
1264.2	0.475361
