Measurement: Raman, 780 nm, unoriented, Raman Data Processed
Mineral: Danburite
Rruff sample: R040013
Ideal chemistry: CaB_2_Si_2_O_8_
Locality: Charcas, San Luis Potosi, Mexico
Source: Marcus Origlieri
Description: Colorless prismatic single crystal
Measured chemistry: Ca_1.00_B_2.00_Si_2.00_O_8_
Raman shift (cm-1)	intensity
115.723	0
118.616	26.0629
121.509	116.544
124.401	366.675
127.294	192.61
130.187	251.609
133.079	60.1939
135.972	85.6019
138.865	276.503
141.757	78.4884
144.65	1.13301
147.543	6.53877
150.436	5.29178
153.328	1.97413
156.221	10.437
159.114	31.8288
162.006	77.5415
164.899	336.561
167.792	197.486
170.685	7.68978
173.577	0.780556
176.47	5.70214
179.363	25.3984
182.255	60.8426
185.148	69.2233
188.041	122.833
190.933	313.723
193.826	136.669
196.719	33.9449
199.612	27.7629
202.504	43.3424
205.397	69.6257
208.29	99.359
211.182	224.953
214.075	75.7141
216.968	2.43221
219.86	4.67457
222.753	11.8364
225.646	55.3658
228.538	66.1511
231.431	76.5844
234.324	112.826
237.217	168.961
240.109	270.308
243.002	525.761
245.895	840.965
248.787	342.391
251.68	104.246
254.573	51.5673
257.466	41.8595
260.358	24.9193
263.251	11.4453
266.144	12.7155
269.036	21.1246
271.929	38.598
274.822	84.7763
277.714	179.625
280.607	95.7305
283.5	10.8811
286.392	3.29447
289.285	3.67602
292.178	1.70752
295.071	9.74664
297.963	11.9732
300.856	14.1775
303.749	20.8386
306.641	29.9912
309.534	45.8479
312.427	64.3032
315.32	34.2162
318.212	10.078
321.105	3.6307
323.998	4.13166
326.89	14.0977
329.783	29.4947
332.676	38.258
335.568	49.0627
338.461	58.6672
341.354	82.6229
344.247	139.077
347.139	261.411
350.032	214.134
352.925	67.8999
355.817	23.1599
358.71	10.1957
361.603	4.31513
364.495	2.12075
367.388	0.093594
370.281	0.473091
373.173	0.090929
376.066	0.03343
378.959	1.23086
381.852	1.8706
384.744	1.12261
387.637	0.672832
390.53	2.59542
393.422	5.57234
396.315	9.20448
399.208	13.3279
402.1	24.8848
404.993	49.5322
407.886	61.4527
410.779	37.1516
413.671	36.0462
416.564	49.4619
419.457	71.6653
422.349	107.582
425.242	131.571
428.135	84.3163
431.027	41.9442
433.92	35.7517
436.813	47.183
439.705	86.4796
442.598	107.608
445.491	53.2841
448.384	27.0287
451.276	19.6218
454.169	22.8262
457.062	34.3444
459.954	54.1314
462.847	60.5096
465.74	37.0454
468.632	24.6922
471.525	25.7178
474.418	35.721
477.311	63.6555
480.203	104.404
483.096	59.4849
485.989	18.5953
488.881	8.38963
491.774	6.607
494.667	5.18309
497.56	4.23548
500.452	2.7153
503.345	2.48889
506.238	1.61033
509.13	1.70255
512.023	0.839396
514.916	0.776833
517.808	0.710831
520.701	0.315765
523.594	1.28209
526.486	0.491692
529.379	0.631617
532.272	0.460028
535.165	0.515196
538.057	0.220047
540.95	0.071568
543.843	1.30752
546.735	3.12377
549.628	3.14763
552.521	3.15555
555.413	4.7139
558.306	7.38075
561.199	12.7115
564.092	17.2872
566.984	11.5925
569.877	11.061
572.77	13.1181
575.662	15.8564
578.555	22.5556
581.448	30.6193
584.341	38.6231
587.233	49.1574
590.126	75.7867
593.019	128.584
595.911	181.145
598.804	240.634
601.697	338.395
604.589	503.293
607.482	797.226
610.375	1085.83
613.268	776.463
616.16	380.053
619.053	212.271
621.946	156.435
624.838	157.712
627.731	196.361
630.624	157.637
633.516	88.5533
636.409	59.4229
639.302	39.361
642.194	24.3365
645.087	15.2726
647.98	11.3595
650.873	7.55303
653.765	4.71662
656.658	2.79705
659.551	1.53336
662.443	1.54479
665.336	0.079889
668.229	0.070595
671.121	0.181629
674.014	0.626183
676.907	0.200634
679.8	0.104219
682.692	0.397665
685.585	0.154608
688.478	0.11874
691.37	0.722494
694.263	0.125666
697.156	0.237091
700.048	0.114645
702.941	0.171545
705.834	0.338806
708.727	0.433876
711.619	0.41432
714.512	0.174887
717.405	0.985723
720.297	0.934433
723.19	1.19479
726.083	1.4202
728.976	1.50235
731.868	1.80103
734.761	1.87153
737.654	1.81352
740.546	2.3785
743.439	3.17271
746.332	4.4014
749.224	6.16721
752.117	6.86884
755.01	4.85851
757.903	4.80805
760.795	4.87335
763.688	5.71253
766.581	7.31076
769.473	10.1779
772.366	13.9201
775.259	14.1445
778.151	9.65654
781.044	5.32413
783.937	5.09643
786.83	3.55514
789.722	3.83171
792.615	3.18488
795.508	3.48122
798.4	3.05389
801.293	3.38719
804.186	3.80048
807.078	4.41983
809.971	4.18685
812.864	3.96895
815.756	3.31804
818.649	2.13783
821.542	1.57171
824.435	1.32985
827.327	0.569582
830.22	0.45121
833.113	0.514328
836.005	0.074512
838.898	0.312151
841.791	0.032179
844.683	0.409435
847.576	0.173811
850.469	0.067549
853.362	0.096176
856.254	0.369064
859.147	0.056255
862.04	0.487259
864.932	0.497803
867.825	0.59852
870.718	2.05604
873.611	3.13075
876.503	5.07174
879.396	3.31905
882.289	2.06729
885.181	3.10953
888.074	4.41748
890.967	5.62276
893.859	7.79055
896.752	12.7252
899.645	16.4413
902.538	18.2756
905.43	19.6819
908.323	15.6128
911.216	12.5622
914.108	10.8634
917.001	9.66324
919.894	6.72734
922.786	3.45538
925.679	0.305073
928.572	0.367098
931.465	0.748091
934.357	0.917025
937.25	3.99264
940.143	8.21396
943.035	13.9182
945.928	22.8218
948.821	25.9774
951.713	21.786
954.606	12.8625
957.499	9.89872
960.391	11.2277
963.284	14.4035
966.177	21.7644
969.069	35.3101
971.962	57.9553
974.855	63.6897
977.748	39.4707
980.64	20.853
983.533	11.4827
986.426	6.81042
989.318	5.38355
992.211	5.53529
995.104	7.23543
997.996	9.87023
1000.89	14.4898
1003.78	19.9758
1006.67	29.0515
1009.57	37.4288
1012.46	25.9253
1015.35	17.4808
1018.25	17.0079
1021.14	21.6123
1024.03	29.6217
1026.92	36.6593
1029.82	34.0645
1032.71	23.0104
1035.6	11.9324
1038.49	5.2423
1041.39	2.714
1044.28	0.175413
1047.17	0.983242
1050.07	1.78303
1052.96	2.10513
1055.85	2.16634
1058.74	1.23004
1061.64	0.617065
1064.53	1.17963
1067.42	2.17704
1070.31	4.98696
1073.21	7.05174
1076.1	12.6845
1078.99	16.2975
1081.88	14.5092
1084.78	9.37021
1087.67	7.30594
1090.56	9.66786
1093.46	14.684
1096.35	24.9168
1099.24	34.1061
1102.13	44.0674
1105.03	55.6127
1107.92	55.5941
1110.81	46.0922
1113.7	31.7022
1116.6	19.2864
1119.49	11.0203
1122.38	7.42939
1125.28	7.1045
1128.17	6.00147
1131.06	7.44475
1133.95	9.06364
1136.85	10.61
1139.74	15.5824
1142.63	21.5075
1145.52	30.7413
1148.42	41.9593
1151.31	53.7277
1154.2	64.7539
1157.1	67.2214
1159.99	65.5111
1162.88	58.3258
1165.77	56.7353
1168.67	59.8022
1171.56	67.2018
1174.45	76.3769
1177.34	87.0587
1180.24	91.6077
1183.13	98.4794
1186.02	107.389
1188.91	118.189
1191.81	129.874
1194.7	133.768
1197.59	125.872
1200.48	107.16
1203.38	82.2711
1206.27	61.4449
1209.16	44.3572
1212.06	30.5165
1214.95	21.9333
1217.84	15.5828
1220.73	9.05328
1223.63	6.05406
1226.52	2.88718
1229.41	0.102741
1232.31	0.811932
1235.2	1.09325
1238.09	0.537189
1240.98	0.508175
1243.88	0.204346
1246.77	3.35097
1249.66	4.84068
1252.55	4.22527
1255.45	3.56738
1258.34	2.16351
1261.23	1.62559
1264.12	0.619686
1267.02	1.46506
1269.91	0.121696
