Measurement: Raman, 532 nm, unoriented, Raman Data Processed
Mineral: Danburite
Rruff sample: R040013
Ideal chemistry: CaB_2_Si_2_O_8_
Locality: Charcas, San Luis Potosi, Mexico
Source: Marcus Origlieri
Description: Colorless prismatic single crystal
Measured chemistry: Ca_1.00_B_2.00_Si_2.00_O_8_
Raman shift (cm-1)	intensity
113.173	0
116.548	67.6709
119.923	362.73
123.297	1276.91
126.672	703.751
130.047	630.333
133.422	244.215
136.797	536.678
140.172	631.039
143.546	21.0737
146.921	5.50841
150.296	7.5433
153.671	20.6621
157.046	64.7904
160.421	199.455
163.795	793.107
167.17	739.443
170.545	5.84543
173.92	3.6884
177.294	46.4538
180.669	191.21
184.044	212.805
187.419	368.365
190.794	962.95
194.169	322.18
197.543	175.196
200.918	256.693
204.293	432.684
207.668	841.232
211.043	1814.62
214.417	367.629
217.792	43.7822
221.167	43.4507
224.542	243.698
227.917	558.666
231.292	757.441
234.666	1114.93
238.041	1770.98
241.416	3362.38
244.791	6542.71
248.166	2703.47
251.541	753.799
254.915	348.883
258.29	213.563
261.665	116.206
265.04	79.2692
268.415	102.554
271.789	167.732
275.164	384.234
278.539	557.55
281.914	84.8347
285.289	9.57043
288.663	21.2508
292.038	5.35003
295.413	15.5294
298.788	2.15314
302.163	18.5135
305.538	63.2013
308.912	139.175
312.287	196.261
315.662	72.5237
319.037	10.5501
322.412	0.923332
325.786	10.3743
329.161	53.6195
332.536	105.514
335.911	141
339.286	189.519
342.661	339.515
346.035	713.069
349.41	637.628
352.785	160.996
356.16	50.0751
359.535	19.9786
362.909	10.0388
366.284	0.910286
369.659	0.135071
373.034	2.49996
376.409	2.30055
379.784	1.73956
383.158	1.77104
386.533	8.18623
389.908	24.178
393.283	39.9308
396.658	62.5833
400.032	100.161
403.407	190.502
406.782	296.353
410.157	235.305
413.532	280.038
416.906	399.045
420.281	614.938
423.656	869.296
427.031	643.654
430.406	320.465
433.781	290.389
437.155	472.426
440.53	786.291
443.905	524.338
447.28	207.128
450.655	127.467
454.029	125.411
457.404	178.268
460.779	232.099
464.154	168.133
467.529	95.1008
470.904	85.0776
474.278	125.753
477.653	232.665
481.028	265.161
484.403	73.2356
487.778	21.7544
491.152	7.86009
494.527	1.25631
497.902	2.47145
501.277	0.276546
504.652	1.29757
508.026	1.35375
511.401	3.40364
514.776	1.34037
518.151	2.31225
521.526	1.1409
524.901	0.773716
528.275	3.39725
531.65	0.033356
535.025	2.33864
538.4	1.95415
541.775	4.35814
545.149	12.021
548.524	17.9904
551.899	13.3506
555.274	20.5287
558.649	35.4314
562.024	56.8384
565.398	44.6912
568.773	40.402
572.148	50.9504
575.523	71.5546
578.898	105.65
582.273	145.969
585.647	186.496
589.022	286.244
592.397	532.839
595.772	924.072
599.146	1393.11
602.521	2214.1
605.896	3794.19
609.271	5481.29
612.646	3969.03
616.021	1760.2
619.395	1020.04
622.77	921.91
626.145	1158.34
629.52	1041.62
632.895	521.674
636.269	301.804
639.644	188.938
643.019	119.514
646.394	79.4998
649.769	53.5819
653.144	36.6892
656.518	22.9784
659.893	14.5146
663.268	8.45968
666.643	3.02974
670.018	0.452827
673.393	0.735458
676.767	0.182083
680.142	3.58902
683.517	1.52927
686.892	0.633286
690.266	1.07848
693.641	0.762993
697.016	0.523178
700.391	1.10175
703.766	2.51675
707.141	1.87492
710.515	1.87978
713.89	4.36849
717.265	5.3953
720.64	4.06926
724.015	7.87178
727.389	3.41407
730.764	9.19849
734.139	10.4413
737.514	14.905
740.889	16.967
744.264	23.8884
747.638	34.8717
751.013	36.9323
754.388	32.7718
757.763	33.1575
761.138	38.0396
764.513	50.4237
767.887	70.2131
771.262	96.5193
774.637	104.704
778.012	59.2196
781.387	31.4401
784.761	19.8554
788.136	14.9002
791.511	11.0631
794.886	12.032
798.261	9.4571
801.635	9.62401
805.01	12.629
808.385	12.5106
811.76	12.7444
815.135	6.23568
818.51	2.97242
821.884	0.96376
825.259	3.05531
828.634	0.385391
832.009	0.956181
835.384	0.558262
838.758	1.43475
842.133	3.61756
845.508	1.18386
848.883	0.88781
852.258	0.488182
855.633	0.946232
859.007	0.739388
862.382	1.87066
865.757	6.34875
869.132	10.639
872.507	19.8354
875.881	29.5236
879.256	25.4297
882.631	25.6149
886.006	31.454
889.381	44.5416
892.755	64.3909
896.13	89.4474
899.505	123.11
902.88	137.389
906.255	116.92
909.63	85.8928
913.004	61.6985
916.379	51.913
919.754	33.7702
923.129	10.4812
926.504	1.92538
929.879	5.11068
933.253	1.73119
936.628	13.6858
940.003	32.5563
943.378	66.4293
946.753	94.3817
950.127	92.4912
953.502	60.5895
956.877	42.7781
960.252	49.925
963.627	78.512
967.001	140.423
970.376	251.491
973.751	335.582
977.126	217.702
980.501	107.897
983.875	60.6404
987.25	34.2082
990.625	23.1179
994	27.0494
997.375	37.7311
1000.75	57.034
1004.12	83.2345
1007.5	137.571
1010.87	125.416
1014.25	69.9716
1017.62	78.2539
1021	113.299
1024.37	165.271
1027.75	194.885
1031.12	147.874
1034.5	69.9827
1037.87	31.9987
1041.25	9.33475
1044.62	0.499214
1048	4.00789
1051.37	7.41561
1054.75	3.47587
1058.12	0.541206
1061.5	8.36955
1064.87	18.8921
1068.25	35.9044
1071.62	58.2285
1075	98.0421
1078.37	134.735
1081.74	134.188
1085.12	111.384
1088.49	115.204
1091.87	151.551
1095.24	214.681
1098.62	303.163
1101.99	398.241
1105.37	467.254
1108.74	451.825
1112.12	351.859
1115.49	236.85
1118.87	164.903
1122.24	114.952
1125.62	83.1108
1128.99	54.8724
1132.37	37.6007
1135.74	21.2552
1139.12	10.3551
1142.49	7.07146
1145.87	3.24683
1149.24	5.64505
1152.62	9.99417
1155.99	21.8298
1159.37	43.7508
1162.74	73.9595
1166.12	119.762
1169.49	173.427
1172.87	229.169
1176.24	233.865
1179.62	179.786
1182.99	118.386
1186.37	75.757
1189.74	48.5387
1193.11	29.8168
1196.49	19.8707
1199.86	11.5432
1203.24	6.41782
1206.61	1.86806
1209.99	2.14918
1213.36	0.352097
1216.74	0.172855
1220.11	2.10727
1223.49	0.80246
1226.86	0.654423
1230.24	1.39307
1233.61	0.703327
1236.99	1.3978
1240.36	2.59131
1243.74	7.33552
1247.11	9.75602
1250.49	9.34351
1253.86	11.218
1257.24	12.2472
1260.61	8.96614
1263.98	6.29435
1267.36	1.76617
1270.73	3.16525
1274.11	0.842556
1277.48	5.23637
1280.86	1.44777
