Measurement: Raman, 514 nm, unoriented, Raman Data Processed
Mineral: Danburite
Rruff sample: R040013
Ideal chemistry: CaB_2_Si_2_O_8_
Locality: Charcas, San Luis Potosi, Mexico
Source: Marcus Origlieri
Description: Colorless prismatic single crystal
Measured chemistry: Ca_1.00_B_2.00_Si_2.00_O_8_
Raman shift (cm-1)	intensity
57.065	0
61.262	33.01
65.458	16.462
69.651	162.372
73.842	503.305
78.031	554.436
82.218	597.102
86.404	689.427
90.587	661.254
94.768	641.112
98.947	678.013
103.124	682.326
107.3	1264.15
111.473	2710.87
115.644	2098.1
119.813	971.543
123.981	1034.99
128.146	664.253
132.309	681.2
136.47	764.801
140.63	1042.99
144.787	829.358
148.942	594.836
153.096	472.713
157.247	466.149
161.396	1085.23
165.544	2008
169.689	1045.47
173.833	3371.65
177.974	11323.5
182.114	17823.1
186.251	4786.36
190.387	3764.26
194.52	3689.79
198.652	1086.93
202.782	1336.77
206.909	2642.42
211.035	3774.88
215.159	1044.93
219.281	960.556
223.4	2475
227.518	3767.62
231.634	834.74
235.748	1375.93
239.86	5765.74
243.97	11518.9
248.079	6598.1
252.185	1739.31
256.289	751.375
260.391	412.2
264.492	223.715
268.59	191.855
272.687	175.569
276.781	177.813
280.874	273.553
284.964	630.756
289.053	2081.4
293.14	4432.44
297.225	3404.88
301.308	1081.68
305.389	1318.82
309.468	2322.26
313.545	2357.01
317.62	742.06
321.693	282.407
325.765	480.042
329.834	732.957
333.902	500.142
337.967	767.932
342.031	2977.3
346.093	6882.77
350.153	4486.51
354.21	921.977
358.267	230.44
362.321	54.894
366.373	23.439
370.423	19.882
374.471	87.001
378.518	60.841
382.563	68.642
386.605	73.378
390.646	15.333
394.685	27.989
398.722	70.595
402.757	97.445
406.79	139.522
410.821	246.809
414.851	494.322
418.878	1316.06
422.904	2266.99
426.927	1683.09
430.949	579.364
434.969	852.791
438.987	2028.35
443.003	1979.03
447.018	534.816
451.03	175.715
455.041	810.713
459.049	1517.81
463.056	427.984
467.061	286.245
471.064	690.581
475.065	3519.99
479.064	8192.46
483.062	3860
487.057	903.659
491.051	356.382
495.043	106.191
499.032	57.116
503.02	7.832
507.007	1.807
510.991	16.796
514.973	7.805
518.954	30.133
522.933	1.078
526.91	13.923
530.885	39.685
534.858	12.037
538.829	64.483
542.799	64.163
546.766	66.797
550.732	135.202
554.696	275.302
558.658	646.339
562.618	915.335
566.576	529.68
570.533	674.918
574.488	496.983
578.44	619.032
582.391	737.733
586.341	1054.12
590.288	1575.13
594.233	2447.9
598.177	4644.63
602.119	10543.3
606.059	28189
609.997	46672.6
613.933	24596.1
617.868	9679.54
621.801	6274.94
625.731	7600.26
629.66	7677.52
633.588	3471.78
637.513	1777.08
641.437	1306.92
645.358	993.506
649.278	781.594
653.196	539.824
657.113	485.871
661.027	483.694
664.94	379.253
668.851	402.545
672.76	489.04
676.667	364.674
680.572	238.419
684.476	162.724
688.378	130.842
692.278	104.302
696.176	185.624
700.072	80.663
703.967	40.459
707.86	170.534
711.751	180.514
715.64	161.394
719.527	35.188
723.413	104.885
727.297	33.471
731.179	158.887
735.059	40.139
738.937	85.266
742.814	25.711
746.689	122.137
750.562	104.896
754.433	121.573
758.303	67.165
762.17	177.672
766.036	228.095
769.901	467.437
773.763	741.697
777.624	480.876
781.482	236.977
785.339	125.998
789.195	33.941
793.048	23.802
796.9	121.536
800.75	1.892
804.598	21.439
808.445	45.814
812.289	17.833
816.132	10.384
819.973	45.732
823.813	16.265
827.65	23.084
831.486	21.373
835.32	14.316
839.152	39.964
842.983	145.309
846.812	103.604
850.639	54.952
854.464	94.225
858.288	169.168
862.11	255.354
865.93	457.243
869.748	587.669
873.564	535.37
877.379	407.392
881.192	393.733
885.004	301.941
888.813	491.479
892.621	687.819
896.427	1254.15
900.232	1475.83
904.034	979.807
907.835	679.703
911.634	502.55
915.432	324.321
919.227	362.237
923.021	502.082
926.813	353.919
930.604	211.747
934.393	137.572
938.18	63.399
941.965	140.987
945.749	288.505
949.53	360.847
953.311	203.037
957.089	306.503
960.866	371.117
964.641	456.046
968.414	1065.08
972.185	2917.59
975.955	2803.2
979.723	1044.89
983.49	588.385
987.254	553.804
991.017	528.673
994.779	751.942
998.538	835.319
1002.3	638.944
1006.05	283.61
1009.81	163.524
1013.56	113.355
1017.31	26.542
1021.06	63.577
1024.81	156.559
1028.55	180.597
1032.3	105.694
1036.04	241.142
1039.78	571.109
1043.52	631.555
1047.26	175.965
1050.99	129.736
1054.73	23.236
1058.46	59.247
1062.19	40.056
1065.92	51.944
1069.65	186.461
1073.37	212.215
1077.1	295.707
1080.82	374.441
1084.54	362.685
1088.26	541.145
1091.97	639.782
1095.69	987.978
1099.4	1514.54
1103.12	2273.5
1106.83	3059.43
1110.54	2920.21
1114.24	1989.41
1117.95	1237.28
1121.65	928.833
1125.35	663.711
1129.06	400.781
1132.75	425.247
1136.45	186.784
1140.15	270.779
1143.84	0.45
1147.53	148.039
1151.22	102.639
1154.91	32.989
1158.6	30.294
1162.28	85.312
1165.97	115.162
1169.65	157.198
1173.33	163.447
1177.01	266.927
1180.69	266.345
1184.36	159.5
1188.04	80.044
1191.71	132.25
1195.38	61.905
1199.05	58.712
1202.71	74.607
1206.38	132.984
1210.04	19.307
1213.71	90.527
1217.37	66.353
1221.03	103.24
1224.68	124.263
1228.34	32.4
1231.99	35.781
1235.65	202.157
1239.3	166.538
1242.95	149.736
1246.59	25.708
1250.24	52.617
1253.88	161.228
1257.53	11.7
1261.17	60.968
1264.81	84.99
1268.45	14.654
1272.08	55.96
1275.72	23.991
1279.35	4.248
1282.98	25.152
1286.61	39.573
1290.24	79.56
1293.87	87.661
1297.49	15.207
1301.11	59.919
1304.73	11.662
1308.36	87.378
1311.97	122.651
1315.59	5.736
1319.2	79.773
1322.82	24.585
1326.43	20.183
1330.04	95.446
1333.65	40.797
1337.26	55.657
1340.86	142.368
1344.47	177.645
1348.07	105.121
1351.67	6.919
1355.27	117.46
1358.87	132.365
1362.46	239.171
1366.06	179.979
1369.65	174.735
1373.24	194.004
1376.83	126.186
1380.42	55.727
1384	75.106
1387.59	222.614
1391.17	149.962
1394.75	127.687
1398.33	211.751
1401.91	189.448
1405.49	191.931
1409.06	122.82
1412.64	92.206
1416.21	226.395
1419.78	141.984
1423.35	261.461
1426.91	264.285
1430.48	142.183
1434.05	234.452
1437.61	324.296
1441.17	189.925
1444.73	295.194
1448.29	300.834
1451.84	113.316
1455.4	238.13
1458.95	218.248
1462.5	298.709
1466.05	197.093
1469.6	122.269
1473.15	238.302
1476.69	182.665
1480.24	168.186
1483.78	101.808
1487.32	182.516
1490.86	118.312
1494.39	34.558
1497.93	107.327
1501.46	48.66
1505	3.458
1508.53	99.218
1512.06	0.995
1515.59	101.897
1519.11	66.323
1522.64	19.933
