Measurement: Raman, 532 nm, unoriented, Raman Data Processed
Mineral: Danburite
Rruff sample: R050602
Ideal chemistry: CaB_2_Si_2_O_8_
Locality: Mogok, Burma
Source: Bill Larson
Description: Yellowish brown fragment
Measured chemistry: Ca_1.00_B_2.00_(Si_1.00_O_4_)_2_
Raman shift (cm-1)	intensity
149.934	0
152.826	215.409
155.719	30.7858
158.612	4.11096
161.504	53.6351
164.397	330.539
167.29	1027.66
170.183	135.625
173.075	81.276
175.968	194.601
178.861	452.27
181.753	970.688
184.646	1084.63
187.539	334.99
190.431	502.489
193.324	756.202
196.217	407.272
199.109	172.209
202.002	305.397
204.895	641.45
207.788	457.488
210.68	658.771
213.573	639.037
216.466	76.316
219.358	7.36194
222.251	19.0817
225.144	152.223
228.036	484.337
230.929	305.416
233.822	364.109
236.715	569.079
239.607	950.56
242.5	1823.79
245.393	3345
248.286	2545.84
251.178	690.801
254.071	245.555
256.964	102.387
259.856	35.4459
262.749	9.56055
265.642	10.6731
268.534	1.46191
271.427	24.5586
274.32	82.9391
277.212	204.44
280.105	266.154
282.998	87.0516
285.891	75.0889
288.783	119.04
291.676	233.334
294.569	407.582
297.461	435.622
300.354	160.913
303.247	82.1307
306.14	121.535
309.032	42.0515
311.925	19.9657
314.818	13.2014
317.71	8.75867
320.603	5.04932
323.496	2.56543
326.389	18.9504
329.281	67.6926
332.174	135.637
335.067	179.304
337.959	230.78
340.852	338.206
343.745	581.991
346.637	1043.54
349.53	1347.41
352.423	537.021
355.315	184.654
358.208	82.0791
361.101	48.6188
363.994	31.1708
366.886	15.7002
369.779	6.65442
372.672	1.66028
375.565	5.50659
378.457	5.2644
381.35	3.73731
384.243	0.231445
387.135	15.4616
390.028	35.4125
392.921	67.4857
395.813	101.351
398.706	71.0094
401.599	62.2468
404.491	90.6749
407.384	137.685
410.277	115.621
413.17	131.905
416.062	183.315
418.955	273.052
421.848	398.422
424.74	514.751
427.633	432.354
430.526	218.042
433.418	145.115
436.311	173.013
439.204	301.288
442.097	459.741
444.989	293.474
447.882	121.154
450.775	79.0718
453.667	89.5034
456.56	133.94
459.453	220.591
462.346	222.66
465.238	142.533
468.131	154.44
471.024	207.638
473.916	328.065
476.809	567.224
479.702	975.615
482.594	877.091
485.487	268.601
488.38	92.609
491.273	44.0812
494.165	19.9275
497.058	9.6864
499.951	4.76392
502.843	4.29761
505.736	7.69995
508.629	2.36108
511.522	4.11646
514.414	0.730347
517.307	0.235107
520.2	2.78467
523.092	0.001221
525.985	4.62671
528.878	0.409424
531.77	4.6488
534.663	2.34766
537.556	3.4281
540.448	4.99048
543.341	6.47119
546.234	4.80725
549.127	8.71191
552.019	5.85718
554.912	13.4678
557.805	8.02393
560.697	13.8709
563.59	16.093
566.483	27.3043
569.376	43.1379
572.268	58.7947
575.161	63.775
578.054	64.0845
580.946	90.4718
583.839	119.689
586.732	153.454
589.625	220.927
592.517	329.028
595.41	562.975
598.303	1001.29
601.195	1614.67
604.088	2562.53
606.981	3967.95
609.874	5649.44
612.766	4976.14
615.659	2578.05
618.552	1392.48
621.444	975.571
624.337	911.915
627.23	1053.6
630.122	961.707
633.015	531.11
635.908	304.599
638.801	208.296
641.693	147.224
644.586	99.8844
647.479	75.2956
650.371	56.1198
653.264	38.4441
656.157	25.16
659.049	18.5784
661.942	22.6174
664.835	21.3206
667.727	20.3815
670.62	30.6484
673.513	30.6824
676.406	19.8131
679.298	11.9083
682.191	5.8689
685.084	1.81165
687.976	4.32141
690.869	3.2738
693.762	6.1471
696.654	8.69202
699.547	2.48035
702.44	2.91321
705.333	3.67761
708.225	15.8217
711.118	18.2118
714.011	27.0269
716.904	38.7495
719.796	41.6981
722.689	38.2618
725.582	42.8552
728.474	54.127
731.367	74.335
734.26	89.0016
737.152	103.974
740.045	127.639
742.938	152.608
745.831	183.853
748.723	211.622
751.616	238.644
754.509	251.348
757.401	264.812
760.294	271.642
763.187	275.197
766.08	276.028
768.972	287.402
771.865	299.836
774.758	289.709
777.65	259.913
780.543	220.606
783.436	172.606
786.328	156.314
789.221	133.878
792.114	119.41
795.006	109.275
797.899	90.459
800.792	83.1
803.685	72.644
806.577	61.5684
809.47	52.3873
812.363	37.7679
815.255	37.0964
818.148	20.9473
821.041	23.2719
823.933	10.8565
826.826	6.82617
829.719	6.54138
832.612	4.62134
835.504	4.09924
838.397	2.45789
841.29	0.479858
844.182	2.03259
847.075	4.65649
849.968	5.19665
852.861	0.832031
855.753	1.97717
858.646	3.79126
861.539	14.7307
864.431	23.4415
867.324	35.2975
870.217	44.6696
873.11	44.3463
876.002	34.9072
878.895	33.0963
881.788	38.5289
884.68	26.697
887.573	35.1821
890.466	41.4012
893.358	60.3073
896.251	82.6829
899.144	96.0283
902.037	88.1054
904.929	61.1615
907.822	30.5112
910.715	18.6744
913.607	13.6527
916.5	19.9536
919.393	32.6747
922.285	36.2165
925.178	45.103
928.071	14.5593
930.964	6.02307
933.856	16.9497
936.749	19.2379
939.642	3.57666
942.534	9.52295
945.427	43.5383
948.32	60.8201
951.212	49.9106
954.105	11.7234
956.998	8.8938
959.891	8.79517
962.783	18.2812
965.676	73.2559
968.569	178.826
971.461	336.217
974.354	452.728
977.247	334.351
980.139	214.018
983.032	176.863
985.925	196.38
988.818	219.912
991.71	252.407
994.603	305.281
997.496	391.949
1000.39	508.127
1003.28	669.092
1006.17	888.334
1009.07	1172.77
1011.96	1488.43
1014.85	1866.53
1017.75	2347.17
1020.64	2881.29
1023.53	3393.95
1026.42	3781.19
1029.32	3946.75
1032.21	3760.01
1035.1	3347.29
1037.99	2754.1
1040.89	2176.72
1043.78	1700.25
1046.67	1305.89
1049.56	1021.42
1052.46	799.816
1055.35	604.814
1058.24	466.346
1061.13	342.221
1064.03	248.909
1066.92	169.324
1069.81	113.734
1072.71	70.4604
1075.6	53.6218
1078.49	37.4617
1081.38	20.3416
1084.28	14.9697
1087.17	39.7607
1090.06	42.7429
1092.95	17.0632
1095.85	17.0066
1098.74	81.6641
1101.63	152.87
1104.53	225.274
1107.42	260.329
1110.31	244.091
1113.2	188.815
1116.1	132.468
1118.99	106.705
1121.88	78.6375
1124.78	66.7266
1127.67	70.9536
1130.56	68.4421
1133.45	78.1819
1136.35	83.874
1139.24	95.5952
1142.13	98.8978
1145.02	91.4866
1147.92	89.5996
1150.81	97.667
1153.7	93.1455
1156.59	99.9534
1159.49	94.2012
1162.38	113.853
1165.27	136.388
1168.16	175.396
1171.06	218.317
1173.95	251.899
1176.84	268.61
1179.74	253.267
1182.63	227.682
1185.52	211.429
1188.41	199.053
1191.31	191.647
1194.2	183.326
1197.09	171.138
1199.98	156.079
1202.88	143.05
1205.77	130.332
1208.66	113.208
1211.56	104.564
1214.45	98.7324
1217.34	86.7732
1220.23	75.0912
1223.13	66.9134
1226.02	64.7914
1228.91	48.5507
1231.81	32.7167
1234.7	23.4984
1237.59	7.51099
1240.48	3.25147
1243.38	5.55286
1246.27	12.5371
1249.16	13.2416
1252.05	4.87231
1254.95	0.926514
1257.84	3.44873
1260.73	6.98413
1263.62	15.7655
1266.52	15.8286
1269.41	32.1903
1272.3	41.679
1275.19	40.1018
1278.09	36.6713
1280.98	29.1537
1283.87	25.6472
1286.77	23.4033
1289.66	21.5472
1292.55	17.9026
1295.44	6.64197
1298.34	10.2255
1301.23	0.190796
