Measurement: Raman, 532 nm, unoriented, Raman Data Processed
Mineral: Datolite
Rruff sample: R050033
Ideal chemistry: CaBSiO_4_(OH)
Locality: Westfield, Massachusetts, USA
Source: University of Arizona Mineral Museum
Description: Group of pale green single crystals
Measured chemistry: Ca_1.00_B_1.00_Si_1.00_O_4_(OH) ; trace amounts of Al and Na; B measured and corrected according to stoichiometry;  OH estimated by stoichiometry end charge balance
Raman shift (cm-1)	intensity
123.145	0
126.52	12.6408
129.895	181.48
133.27	1143.2
136.645	220.343
140.019	2.61945
143.394	81.5344
146.769	424.628
150.144	1703.19
153.519	3597.03
156.894	3894.43
160.268	7955.59
163.643	21254.8
167.018	17464.9
170.393	2950.37
173.768	2537.55
177.143	5273.94
180.517	2431.28
183.892	805.792
187.267	1041.42
190.642	2264.61
194.017	2213.92
197.391	778.637
200.766	1286.58
204.141	889.233
207.516	1403.37
210.891	2765.49
214.266	4148.74
217.64	10526.1
221.015	3763.76
224.39	629.131
227.765	276.684
231.14	167.446
234.514	25.27
237.889	6.49344
241.264	33.4352
244.639	18.3453
248.014	8.72852
251.388	0.446228
254.763	28.555
258.138	101.761
261.513	224.81
264.888	504.27
268.263	1084.42
271.637	1914.69
275.012	1889.97
278.387	813.834
281.762	740.867
285.137	1309.73
288.512	2621.79
291.886	5254.29
295.261	2270.1
298.636	608.369
302.011	203.608
305.386	13.11
308.76	15.7451
312.135	66.642
315.51	106.976
318.885	254.999
322.26	723.225
325.635	801.702
329.009	1457.46
332.384	2984.6
335.759	1826.92
339.134	207.283
342.509	24.3358
345.883	105.181
349.258	330.518
352.633	837.397
356.008	1785.85
359.383	3170.49
362.757	3931.81
366.132	1896.62
369.507	782.123
372.882	467.218
376.257	725.097
379.632	1197.28
383.006	1896.79
386.381	3650.01
389.756	6868.19
393.131	7993.69
396.506	2858.74
399.88	846.91
403.255	248.565
406.63	24.9559
410.005	9.05151
413.38	141.829
416.755	594.532
420.129	1426.16
423.504	3304.35
426.879	1555.59
430.254	258.015
433.629	52.3437
437.003	188.927
440.378	300.986
443.753	100.331
447.128	160.185
450.503	525.692
453.878	1150.67
457.252	2299.52
460.627	971.817
464.002	141.218
467.377	22.166
470.752	54.6174
474.127	10.5118
477.501	167.238
480.876	548.639
484.251	1112.82
487.626	2073.63
491.001	3253.47
494.375	1354.38
497.75	390.91
501.125	111.385
504.5	31.5406
507.875	18.9165
511.25	14.6539
514.624	67.8721
517.999	222.868
521.374	445.454
524.749	600.434
528.124	146.127
531.498	20.5034
534.873	14.9491
538.248	84.5546
541.623	264.399
544.998	631.86
548.372	1218.05
551.747	2279.38
555.122	2473.52
558.497	1640.51
561.872	1583.24
565.247	672.505
568.621	210.051
571.996	106.037
575.371	120.352
578.746	254.284
582.121	562.163
585.495	1078.36
588.87	1940.35
592.245	2835.11
595.62	2322.98
598.995	1791.07
602.37	1526.44
605.744	662.389
609.119	206.57
612.494	41.7919
615.869	24.8006
619.244	39.6362
622.619	69.1027
625.993	7.12903
629.368	63.7929
632.743	169.208
636.118	359.041
639.493	739.768
642.867	1423.3
646.242	2552.24
649.617	4264.99
652.992	6279.99
656.367	6092.84
659.741	4459.88
663.116	4356.04
666.491	5332.33
669.866	5231.98
673.241	4050.64
676.616	4222.06
679.99	6891.81
683.365	13082.3
686.74	23184.4
690.115	42975.3
693.49	51871.6
696.865	19680.3
700.239	7410.58
703.614	3561.05
706.989	1989.77
710.364	1184.87
713.739	753.013
717.113	446.434
720.488	264.909
723.863	127.333
727.238	86.8931
730.613	40.7602
733.987	12.3382
737.362	1.32001
740.737	2.6991
744.112	32.7742
747.487	9.60461
750.862	15.661
754.236	95.0596
757.611	216.027
760.986	437.283
764.361	693.788
767.736	393.967
771.111	153.356
774.485	36.3273
777.86	8.57666
781.235	11.2564
784.61	26.3011
787.985	24.805
791.359	53.2737
794.734	54.7586
798.109	61.9697
801.484	73.6705
804.859	60.2666
808.234	94.5614
811.608	137.121
814.983	250.111
818.358	455.535
821.733	837.849
825.108	1334.27
828.482	1505.3
831.857	781.636
835.232	263.849
838.607	35.6255
841.982	73.6597
845.356	101.299
848.731	78.6085
852.106	22.103
855.481	191.404
858.856	505.539
862.231	930.136
865.605	824.907
868.98	442.001
872.355	552.794
875.73	926.092
879.105	1360.45
882.48	1270.8
885.854	842.862
889.229	492.802
892.604	328.767
895.979	417.187
899.354	661.569
902.729	1315.85
906.103	2753.24
909.478	5535.36
912.853	10095.5
916.228	14850.8
919.602	11504.3
922.977	5542.69
926.352	2847.5
929.727	2010.07
933.102	1818.47
936.477	1509.87
939.851	1079.42
943.226	817.085
946.601	751.833
949.976	749.73
953.351	692.032
956.726	481.02
960.1	284.941
963.475	249.806
966.85	304.805
970.225	659.561
973.6	1536.56
976.974	3101.38
980.349	5710.03
983.724	8195.9
987.099	5355.72
990.474	2233.64
993.848	977.421
997.223	535.277
1000.6	349.626
1003.97	272.803
1007.35	134.485
1010.72	26.2763
1014.1	41.2022
1017.47	50.6201
1020.85	45.9391
1024.22	42.5164
1027.6	35.7623
1030.97	16.6649
1034.35	8.92133
1037.72	10.5041
1041.1	29.3314
1044.47	85.7375
1047.85	146.398
1051.22	210.005
1054.6	315.864
1057.97	477.85
1061.35	789.055
1064.72	1562.56
1068.09	3415.16
1071.47	6870.45
1074.84	12063.5
1078.22	9329.9
1081.59	4308.43
1084.97	1714.54
1088.34	838.264
1091.72	474.806
1095.09	283.476
1098.47	193.668
1101.84	122.262
1105.22	70.7415
1108.59	49.3795
1111.97	12.7301
1115.34	6.20624
1118.72	3.26959
1122.09	4.32452
1125.47	26.3641
1128.84	37.9147
1132.22	81.1019
1135.59	96.3675
1138.97	120.242
1142.34	185.509
1145.71	242.169
1149.09	363.395
1152.46	518.723
1155.84	732.039
1159.21	1028.87
1162.59	1502.13
1165.96	2045.82
1169.34	2477.93
1172.71	2269.92
1176.09	1565.79
1179.46	969.675
1182.84	652.546
1186.21	524.793
1189.59	517.381
1192.96	659.357
1196.34	879.195
1199.71	1017.92
1203.09	1013.92
1206.46	832.639
1209.84	565.573
1213.21	400.175
1216.59	244.472
1219.96	167.744
1223.34	123.458
1226.71	102.552
1230.09	51.1719
1233.46	35.666
1236.84	25.8473
1240.21	24.142
1243.59	0.779419
1246.96	12.6409
1250.34	8.95001
1253.71	6.37494
1257.08	0.551636
1260.46	8.08212
1263.83	9.28628
1267.21	20.6744
1270.58	18.6404
1273.96	55.7023
1277.33	22.5944
1280.71	25.7218
1284.08	33.0177
1287.46	26.4437
1290.83	33.5755
1294.21	14.4562
1297.58	11.6321
1300.96	25.1021
1304.33	12.4202
