Measurement: Raman, 785 nm, unoriented, Raman Data Processed
Mineral: Datolite
Rruff sample: R050033
Ideal chemistry: CaBSiO_4_(OH)
Locality: Westfield, Massachusetts, USA
Source: University of Arizona Mineral Museum
Description: Group of pale green single crystals
Measured chemistry: Ca_1.00_B_1.00_Si_1.00_O_4_(OH) ; trace amounts of Al and Na; B measured and corrected according to stoichiometry;  OH estimated by stoichiometry end charge balance
Raman shift (cm-1)	intensity
89.1997	0
92.0924	14.7593
94.9851	12.1112
97.8778	8.82109
100.77	28.064
103.663	37.9262
106.556	20.828
109.449	1.81512
112.341	6.12072
115.234	4.38947
118.127	18.9417
121.019	5.91579
123.912	4.20507
126.805	19.2817
129.697	114.871
132.59	420.5
135.483	409.957
138.376	137.054
141.268	161.772
144.161	244.246
147.054	541.554
149.946	1498.27
152.839	2324.15
155.732	3085.1
158.625	4359.45
161.517	7982.5
164.41	19868.1
167.303	16094.3
170.195	3598.1
173.088	1929.05
175.981	2485.2
178.873	3060.05
181.766	1255.62
184.659	692.287
187.552	782.671
190.444	1370.65
193.337	1818.91
196.23	762.042
199.122	766.025
202.015	935.34
204.908	989.503
207.8	1372.19
210.693	2094.35
213.586	2896.44
216.478	5803.09
219.371	8228.54
222.264	2310.63
225.157	536.203
228.049	242.476
230.942	111.954
233.835	46.39
236.727	19.2001
239.62	20.2925
242.513	28.992
245.405	4.02441
248.298	15.5836
251.191	6.62877
254.084	3.44238
256.976	22.3199
259.869	57.6242
262.762	125.06
265.654	214.017
268.547	407.63
271.44	695.534
274.332	677.821
277.225	384.511
280.118	184.669
283.011	149.428
285.903	190.814
288.796	385.271
291.689	741.393
294.581	607.81
297.474	167.491
300.367	22.4806
303.26	18.4008
306.152	28.6373
309.045	45.7814
311.938	32.5556
314.83	3.49594
317.723	100.466
320.616	314.688
323.508	535.159
326.401	523.36
329.294	808.917
332.187	1459.02
335.079	1462.45
337.972	478.482
340.865	139.81
343.757	124.952
346.65	233.507
349.543	383.019
352.435	685.925
355.328	1177.63
358.221	1993.53
361.113	3039.11
364.006	2759.59
366.899	1430.2
369.792	676.633
372.684	452.131
375.577	534.999
378.47	901.104
381.362	1383.13
384.255	2091.19
387.148	3549.78
390.041	6146.57
392.933	7392.49
395.826	3990.72
398.719	1511.84
401.611	615.665
404.504	259.812
407.397	63.3752
410.289	55.8732
413.182	112.749
416.075	271.089
418.967	617.651
421.86	1372.45
424.753	2025.3
427.646	882.343
430.538	189.136
433.431	87.7198
436.324	224.428
439.216	395.207
442.109	234.481
445.002	40.4338
447.894	24.0492
450.787	19.6443
453.68	193.75
456.573	463.715
459.465	462.817
462.358	102.799
465.251	19.8209
468.143	30.2726
471.036	10.0558
473.929	28.5612
476.822	209.04
479.714	443.703
482.607	792.358
485.5	1318.41
488.392	2286.35
491.285	3053.18
494.178	1770.4
497.07	648.046
499.963	301.077
502.856	140.724
505.748	85.7601
508.641	74.1372
511.534	46.8378
514.427	110.897
517.319	131.681
520.212	236.813
523.105	367.613
525.997	287.712
528.89	87.3011
531.783	7.7417
534.676	14.1085
537.568	37.4584
540.461	24.4913
543.354	55.1454
546.246	140.287
549.139	300.877
552.032	517
554.924	636.83
557.817	598.376
560.71	655.92
563.602	563.718
566.495	249.467
569.388	111.988
572.281	91.626
575.173	118.958
578.066	152.863
580.959	254.583
583.851	452.462
586.744	747.15
589.637	1180.51
592.529	1506.31
595.422	1352.43
598.315	1127.15
601.208	1074.02
604.1	788.25
606.993	358.482
609.886	129.219
612.778	32.2806
615.671	13.1608
618.564	16.0117
621.457	24.9333
624.349	11.5541
627.242	1.94098
630.135	29.2967
633.027	85.2237
635.92	151.562
638.813	311.594
641.705	582.734
644.598	982.915
647.491	1585.47
650.384	2472.59
653.276	3367.98
656.169	3425.01
659.062	2826.28
661.954	2795.8
664.847	3449.56
667.74	4220.41
670.632	3971.97
673.525	2960.44
676.418	2502.24
679.311	3047.22
682.203	4621.86
685.096	7421.59
687.989	12304.4
690.881	20118
693.774	21639.8
696.667	10537
699.559	4265.96
702.452	2032.19
705.345	1131.41
708.237	705.544
711.13	425.906
714.023	308.423
716.916	185.292
719.808	159.999
722.701	47.8726
725.594	19.5832
728.486	29.99
731.379	1.76453
734.272	11.0733
737.164	3.55222
740.057	5.21732
742.95	5.83301
745.843	10.4264
748.735	6.53955
751.628	38.2298
754.521	84.2281
757.413	160.015
760.306	256.129
763.199	427.011
766.091	370.7
768.984	207.777
771.877	85.5133
774.77	47.818
777.662	26.4521
780.555	28.6068
783.448	0.56958
786.34	2.85547
789.233	6.85599
792.126	23.9517
795.019	37.9008
797.911	21.3551
800.804	21.2106
803.697	24.582
806.589	14.9672
809.482	24.4972
812.375	54.8083
815.267	70.7395
818.16	173.915
821.053	263.531
823.946	403.199
826.838	603.951
829.731	541.644
832.624	319.26
835.516	114.164
838.409	57.0757
841.302	16.5145
844.194	36.0076
847.087	29.4975
849.98	31.7027
852.872	17.1833
855.765	61.8196
858.658	132.167
861.551	275.692
864.443	327.592
867.336	172.613
870.229	83.4832
873.121	72.2381
876.014	145.105
878.907	233.142
881.799	288.38
884.692	237.032
887.585	133.779
890.478	88.1282
893.37	74.4186
896.263	112.166
899.156	191.941
902.048	396.428
904.941	713.567
907.834	1378.05
910.726	2395.18
913.619	4041.23
916.512	5469.99
919.405	4651.65
922.297	2666.58
925.19	1410.41
928.083	746.184
930.975	463.734
933.868	359.365
936.761	248.13
939.654	192.483
942.546	168.337
945.439	165.543
948.332	182.194
951.224	224.518
954.117	191.371
957.01	166.91
959.902	114.741
962.795	73.0959
965.688	151.205
968.581	254.891
971.473	426.507
974.366	815.143
977.259	1470.91
980.151	2529.22
983.044	3837.99
985.937	3524.74
988.829	1994.3
991.722	991.46
994.615	514.038
997.508	336.379
1000.4	271.921
1003.29	242.235
1006.19	179.726
1009.08	117.623
1011.97	20.4647
1014.86	22.7597
1017.76	8.20496
1020.65	33.9284
1023.54	23.1101
1026.43	24.5474
1029.33	8.34378
1032.22	1.98685
1035.11	22.5307
1038.01	8.55402
1040.9	50.3395
1043.79	24.8004
1046.68	84.3159
1049.58	79.1462
1052.47	125.815
1055.36	199.917
1058.25	278.618
1061.15	460.567
1064.04	793.574
1066.93	1468.12
1069.83	2677.68
1072.72	4955.01
1075.61	7467.33
1078.5	5808.25
1081.4	3188.37
1084.29	1463.64
1087.18	711.231
1090.07	387.615
1092.97	261.952
1095.86	178.199
1098.75	129.222
1101.64	81.137
1104.54	67.7597
1107.43	63.6695
1110.32	50.0912
1113.21	35.374
1116.11	42.1854
1119	12.9074
1121.89	22.6451
1124.79	28.576
1127.68	16.9209
1130.57	7.43056
1133.46	7.20822
1136.36	16.9713
1139.25	8.20664
1142.14	6.8408
1145.04	4.46158
1147.93	18.2313
1150.82	8.69006
1153.71	22.8307
1156.61	54.9103
1159.5	63.7125
1162.39	109.792
1165.28	137.001
1168.18	212.18
1171.07	220.825
1173.96	179.122
1176.86	123.973
1179.75	82.7143
1182.64	84.7103
1185.53	82.8546
1188.43	66.7966
1191.32	155.141
1194.21	204.545
1197.1	241.157
1200	304.687
1202.89	305.649
1205.78	245.138
1208.67	180.671
1211.57	86.5563
1214.46	43.5517
1217.35	5.70871
1220.24	12.4019
1223.14	2.90628
