Measurement: Raman, 780 nm, unoriented, Raman Data Processed
Mineral: Datolite
Rruff sample: R050136
Ideal chemistry: CaBSiO_4_(OH)
Locality: Charcas, San Luis Potosi, Mexico
Source: Dave Bunk Minerals
Description: Pale green tabular crystals
Measured chemistry: Ca_1.00_BSi_1.00_O_4_(OH) ; trace amounts of Fe; B and OH estimated by stoichiometry end charge balance
Raman shift (cm-1)	intensity
140.333	3.00568
143.225	67.849
146.118	166.274
149.011	145.149
151.904	197.249
154.796	269.351
157.689	325.554
160.582	436.803
163.474	877.271
166.367	1150.57
169.26	236.08
172.152	112.554
175.045	127.328
177.938	219.069
180.831	98.2422
183.723	43.3601
186.616	50.5596
189.509	91.0965
192.401	209.445
195.294	93.8418
198.187	72.7705
201.079	90.2308
203.972	70.4389
206.865	86.4488
209.757	128.762
212.65	162.905
215.543	206.261
218.436	401.803
221.328	155.698
224.221	43.9796
227.114	34.7234
230.006	53.645
232.899	34.4985
235.792	6.58331
238.685	0.903702
241.577	2.6002
244.47	3.8215
247.363	0.211189
250.255	5.22475
253.148	9.52119
256.041	11.3438
258.933	10.9901
261.826	14.5161
264.719	20.532
267.611	34.123
270.504	61.1742
273.397	76.3012
276.29	56.3619
279.182	38.8406
282.075	43.2289
284.968	52.6654
287.86	76.9916
290.753	141.16
293.646	147.197
296.538	50.1872
299.431	10.6727
302.324	0.596947
305.217	4.90705
308.109	6.55714
311.002	3.64487
313.895	3.79729
316.787	7.81185
319.68	20.2171
322.573	41.4979
325.466	36.2864
328.358	49.753
331.251	70.2417
334.144	41.2758
337.036	13.9841
339.929	22.0507
342.822	50.3796
345.714	85.9511
348.607	114.245
351.5	133.307
354.392	185.264
357.285	270.106
360.178	405.633
363.071	429.382
365.963	269.916
368.856	162.23
371.749	159.743
374.641	212.97
377.534	282.118
380.427	308.292
383.32	311.955
386.212	387.451
389.105	569.159
391.998	742.064
394.89	497.188
397.783	195.353
400.676	68.6374
403.568	22.307
406.461	7.86642
409.354	0.34127
412.247	0.348022
415.139	10.0711
418.032	32.1783
420.925	80.0612
423.817	154.761
426.71	114.301
429.603	57.4529
432.495	58.995
435.388	97.7697
438.281	160.742
441.173	149.753
444.066	60.6502
446.959	19.3587
449.852	12.9039
452.744	18.2951
455.637	39.8292
458.53	50.8027
461.422	15.3869
464.315	4.71898
467.208	6.98415
470.101	3.94202
472.993	7.23294
475.886	17.4116
478.779	26.697
481.671	36.9905
484.564	53.136
487.457	83.905
490.349	123.79
493.242	93.0459
496.135	31.8394
499.027	11.0542
501.92	2.73294
504.813	1.20678
507.706	3.70697
510.598	3.59061
513.491	4.18176
516.384	5.54642
519.276	11.1449
522.169	17.7021
525.062	16.0822
527.955	4.46103
530.847	0.940109
533.74	2.01475
536.633	1.39863
539.525	4.03073
542.418	7.30062
545.311	14.1171
548.203	20.6187
551.096	29.0609
553.989	39.39
556.881	37.8887
559.774	40.6934
562.667	41.6615
565.56	25.1558
568.452	17.4024
571.345	19.5755
574.238	30.1044
577.13	48.7198
580.023	63.9301
582.916	86.9107
585.808	122.327
588.701	170.468
591.594	225.684
594.487	215.814
597.379	152.645
600.272	118.956
603.165	86.2468
606.057	43.8219
608.95	19.2275
611.843	5.88224
614.736	1.91294
617.628	1.51376
620.521	2.14848
623.414	2.63162
626.306	2.20264
629.199	0.932579
632.092	4.28532
634.984	12.7547
637.877	29.0349
640.77	47.2115
643.663	66.4153
646.555	97.4917
649.448	140.642
652.341	201.261
655.233	230.509
658.126	201.214
661.019	180.661
663.911	199.129
666.804	255.143
669.697	290.25
672.59	305.178
675.482	430.633
678.375	631.289
681.268	752.518
684.16	980.062
687.053	1372.51
689.946	2118.22
692.838	2723.28
695.731	1584.55
698.624	614.118
701.516	288.461
704.409	157.176
707.302	92.2016
710.195	59.7336
713.087	37.1629
715.98	20.382
718.873	13.0372
721.765	5.19157
724.658	3.33065
727.551	0.611954
730.443	2.36202
733.336	0.990707
736.229	0.735184
739.122	0.25668
742.014	0.006973
744.907	0.392658
747.8	1.47952
750.692	6.38455
753.585	7.73168
756.478	12.4297
759.37	21.5948
762.263	34.3488
765.156	37.1788
768.049	20.3956
770.941	7.58477
773.834	3.44068
776.727	0.509079
779.619	0.326954
782.512	1.37724
785.405	1.85815
788.298	0.275311
791.19	0.470448
794.083	2.18054
796.976	1.00637
799.868	1.62121
802.761	3.51847
805.654	6.52885
808.546	9.59665
811.439	18.9716
814.332	27.4716
817.225	38.3269
820.117	52.863
823.01	71.5157
825.903	98.8605
828.795	101.704
831.688	59.0839
834.581	22.9821
837.473	5.91904
840.366	1.94016
843.259	3.51767
846.151	3.38407
849.044	0.528671
851.937	5.90668
854.83	16.199
857.722	28.6091
860.615	48.9178
863.508	70.6837
866.4	64.6388
869.293	51.6346
872.186	57.2413
875.078	73.815
877.971	95.9162
880.864	102.118
883.756	80.9153
886.649	47.8431
889.542	23.3208
892.435	9.71683
895.327	6.43166
898.22	14.1308
901.113	36.0734
904.005	74.9227
906.898	118.58
909.791	175.463
912.683	258.56
915.576	367.253
918.469	378.393
921.362	232.016
924.254	113.18
927.147	57.8419
930.04	29.521
932.932	22.2009
935.825	14.5712
938.718	9.02517
941.611	3.69507
944.503	4.03479
947.396	6.71951
950.289	9.38279
953.181	12.242
956.074	10.1608
958.967	6.81461
961.859	6.35219
964.752	11.9707
967.645	31.6904
970.538	70.0986
973.43	111.328
976.323	161.802
979.216	229.28
982.108	334.273
985.001	376.477
987.894	237.976
990.786	122.871
993.679	71.7188
996.572	51.201
999.465	45.4973
1002.36	42.8164
1005.25	37.0027
1008.14	23.3419
1011.03	12.1875
1013.93	3.43219
1016.82	0.086502
1019.71	1.16698
1022.61	1.77495
1025.5	2.51858
1028.39	2.06779
1031.28	1.46559
1034.18	0.408356
1037.07	0.673161
1039.96	3.52331
1042.86	3.71931
1045.75	7.07672
1048.64	12.7089
1051.53	16.7728
1054.43	24.2784
1057.32	40.1795
1060.21	72.7216
1063.1	137.68
1066	211.319
1068.89	309.926
1071.78	445.735
1074.67	660.916
1077.57	714.942
1080.46	475.524
1083.35	257.561
1086.24	112.898
1089.14	56.9657
1092.03	32.9948
1094.92	20.1961
1097.82	14.1193
1100.71	7.09829
1103.6	5.54521
1106.49	3.31426
1109.39	2.53834
1112.28	0.171391
1115.17	1.07983
1118.07	0.927238
1120.96	0.285877
1123.85	1.61591
1126.74	0.43623
1129.64	1.85825
1132.53	4.25568
1135.42	7.41958
1138.31	9.94251
1141.21	13.4896
1144.1	19.5389
1146.99	28.0015
1149.88	37.9003
1152.78	55.5365
1155.67	74.4934
1158.56	104.647
1161.46	140.174
1164.35	177.882
1167.24	215.88
1170.13	241.587
1173.03	227.369
1175.92	178.599
1178.81	120.835
1181.7	79.9338
1184.6	57.2555
1187.49	45.3625
1190.38	39.9563
1193.28	37.7057
1196.17	41.4106
1199.06	44.3087
1201.95	42.7041
1204.85	36.5498
1207.74	27.783
1210.63	19.5259
1213.52	15.0228
1216.42	9.97926
1219.31	6.97448
1222.2	5.14703
1225.1	5.1117
1227.99	0.887653
1230.88	1.75891
1233.77	0.836864
1236.67	0.251595
1239.56	1.15054
1242.45	0.589172
1245.34	0.287563
1248.24	0.411278
1251.13	1.10497
1254.02	0.789488
1256.91	2.28035
1259.81	1.35956
1262.7	1.90165
1265.59	2.31722
1268.49	0.278219
1271.38	1.2824
1274.27	1.07098
1277.16	1.30261
1280.06	0.574205
1282.95	0.138292
1285.84	0.000568
