Measurement: Raman, 514 nm, unoriented, Raman Data Processed
Mineral: Datolite
Rruff sample: R050033
Ideal chemistry: CaBSiO_4_(OH)
Locality: Westfield, Massachusetts, USA
Source: University of Arizona Mineral Museum
Description: Group of pale green single crystals
Measured chemistry: Ca_1.00_B_1.00_Si_1.00_O_4_(OH) ; trace amounts of Al and Na; B measured and corrected according to stoichiometry;  OH estimated by stoichiometry end charge balance
Raman shift (cm-1)	intensity
89.193	0
93.375	0.403
97.554	30.852
101.732	24.92
105.908	108.073
110.082	105.928
114.254	259.209
118.424	296.373
122.592	193.99
126.758	454.322
130.922	2587.91
135.083	1428.62
139.243	872.888
143.401	687.688
147.557	666.185
151.711	1812.37
155.863	1199.16
160.013	4277.49
164.161	19257.2
168.308	3177.83
172.452	1611.03
176.594	4627.78
180.734	1220.11
184.872	508.721
189.008	1522.65
193.143	1754.91
197.275	857.532
201.405	633.114
205.534	581.182
209.66	1276.93
213.784	2356.85
217.907	6796.01
222.027	949.522
226.146	232.176
230.263	163.938
234.377	13.028
238.49	20.513
242.601	49.946
246.709	3.345
250.816	5.888
254.921	1.279
259.024	4.402
263.125	50.288
267.224	578.725
271.321	1674.09
275.416	848.983
279.51	259.296
283.601	315.947
287.69	1637.88
291.778	3910.06
295.863	866.42
299.947	255.93
304.029	104.539
308.108	16.965
312.186	11.727
316.262	195.286
320.336	340.721
324.408	362.862
328.478	730.05
332.546	1651.09
336.612	458.073
340.677	166.136
344.739	136.4
348.799	233.944
352.858	578.138
356.915	1442.37
360.969	3190.65
365.022	1808.97
369.073	851.296
373.122	537.116
377.169	693.787
381.215	683.854
385.258	1532.57
389.299	4838.94
393.339	4817.3
397.376	1618.65
401.412	540.766
405.446	243.847
409.478	207.904
413.508	250.213
417.536	439.674
421.562	2087.24
425.586	1885.55
429.609	483.93
433.629	223.327
437.648	288.757
441.665	288.377
445.68	89.734
449.693	74.485
453.704	420.701
457.713	638.142
461.721	87.554
465.726	47.015
469.73	67.523
473.731	141.363
477.731	29.037
481.729	47.748
485.725	441.413
489.72	1047.06
493.712	337.776
497.703	96.547
501.691	6.74
505.678	4.179
509.663	52.226
513.646	128.521
517.627	206.755
521.607	431.924
525.584	305.025
529.56	1.941
533.534	41.903
537.506	15.518
541.476	9.924
545.444	192.167
549.41	666.336
553.375	1485.43
557.337	1040.45
561.298	1201.41
565.257	339.348
569.214	312.264
573.17	135.115
577.123	196.933
581.075	351.335
585.024	641.022
588.972	2029.85
592.918	2727.51
596.863	1955.28
600.805	1516.42
604.746	963.114
608.685	259.269
612.621	233.328
616.557	207.294
620.49	230.387
624.421	159.176
628.351	255.713
632.279	396.755
636.205	377.658
640.129	521.295
644.051	840.335
647.972	1948.01
651.89	4033.81
655.807	4514.84
659.722	2680.53
663.636	2051.25
667.547	2355.45
671.457	2008.03
675.365	1758.51
679.271	2382.9
683.175	4273.2
687.077	11908.4
690.978	39769.8
694.877	28490.7
698.774	8038.7
702.669	3340.58
706.562	2031.39
710.454	1185.12
714.344	731.778
718.232	545.368
722.118	374.887
726.002	233.333
729.885	271.694
733.766	55.003
737.645	90.232
741.522	134.388
745.397	131.478
749.271	42.478
753.143	76.631
757.013	23.957
760.881	200.593
764.748	537.085
768.613	162.521
772.476	8.902
776.337	136.21
780.196	104.646
784.054	117.663
787.91	74.959
791.764	29.677
795.616	0.216
799.467	31.307
803.316	177.954
807.163	69.09
811.008	30.036
814.851	48.073
818.693	41.335
822.533	418.656
826.371	1094.97
830.208	1116.28
834.042	339.603
837.875	144.933
841.706	226.284
845.536	214.729
849.363	94.236
853.189	135.835
857.013	554.444
860.836	966.053
864.656	1463.66
868.475	823.273
872.292	714.959
876.108	1058.59
879.922	1583.25
883.733	1501.9
887.544	974.427
891.352	819.604
895.159	717.296
898.964	895.518
902.767	1230.18
906.568	1805.96
910.368	3621.28
914.166	8615.07
917.962	12868.9
921.757	7109.71
925.55	3520.27
929.341	2284.23
933.13	2194.04
936.918	2004.12
940.703	1530.92
944.488	1223.94
948.27	1326.47
952.051	1126.45
955.83	1263.23
959.607	904.588
963.383	690.402
967.156	752.83
970.928	820.102
974.699	1063.79
978.468	1917.08
982.234	4767.4
986	6055.28
989.763	2742.98
993.525	1247.52
997.285	834
1001.04	757.036
1004.8	542.674
1008.55	389.098
1012.31	438.561
1016.06	275.174
1019.81	21.924
1023.56	45.775
1027.31	134.678
1031.05	103.588
1034.79	66.764
1038.53	187.436
1042.27	186.357
1046.01	117.256
1049.75	356.166
1053.48	335.076
1057.22	283.098
1060.95	450.869
1064.68	738.701
1068.4	1233.45
1072.13	2955.1
1075.86	8322.02
1079.58	6231.85
1083.3	2543.05
1087.02	1178.18
1090.74	525.646
1094.45	274.58
1098.17	98.227
1101.88	100.76
1105.59	108.08
1109.3	7.334
1113.01	124.777
1116.71	144.008
1120.42	182.197
1124.12	213.725
1127.82	96.871
1131.52	90.498
1135.22	23.332
1138.91	89.176
1142.61	58.459
1146.3	196.75
1149.99	149.918
1153.68	420.238
1157.37	531.721
1161.06	750.193
1164.74	1029.05
1168.42	1708.11
1172.1	1882.83
1175.78	1557.52
1179.46	1062.69
1183.14	758.402
1186.81	497.838
1190.48	459.215
1194.15	603.119
1197.83	889.234
1201.49	898.902
1205.16	1063.71
1208.82	888.613
1212.49	690.672
1216.15	462.469
1219.81	456.066
1223.46	101.789
1227.12	260.699
1230.78	370.279
1234.43	222.504
1238.08	316.35
1241.73	334.266
1245.38	235.291
1249.03	143.795
1252.67	190.334
1256.31	171.365
1259.95	153.32
1263.6	234.07
1267.23	51.76
1270.87	38.656
1274.51	71.875
1278.14	73.771
1281.77	88.977
1285.4	44.119
1289.03	175.479
1292.66	45.967
1296.28	1.344
1299.91	96.689
1303.53	129.074
1307.15	210.818
1310.77	246.852
1314.38	133.738
1318	43.016
1321.61	108.248
1325.23	50.951
1328.84	8.287
1332.45	119.184
1336.06	135.434
1339.66	31.428
1343.27	163.932
1346.87	192.938
1350.47	304.771
1354.07	391.582
1357.67	351.879
1361.26	415.621
1364.86	360.816
1368.45	393.99
1372.04	461.352
1375.63	445.053
1379.22	342.916
1382.81	195.068
1386.39	312.41
1389.98	149.619
1393.56	247
1397.14	380.914
1400.72	326.268
1404.3	269.236
1407.87	120.24
1411.45	207.205
1415.02	236.734
1418.59	152.125
1422.16	332.268
1425.73	330.643
1429.29	327.299
1432.86	365.418
1436.42	269.15
1439.98	371.924
1443.54	353.74
1447.1	480.238
1450.66	127.801
1454.21	276.457
1457.77	431.318
1461.32	517.742
1464.87	314.463
1468.42	27.443
1471.96	257.162
1475.51	188.414
1479.06	21.014
1482.6	115.125
1486.14	229.467
1489.68	6.377
1493.22	189.762
1496.75	0
