Measurement: Raman, 514 nm, unoriented, Raman Data Processed
Mineral: Datolite
Rruff sample: R050136
Ideal chemistry: CaBSiO_4_(OH)
Locality: Charcas, San Luis Potosi, Mexico
Source: Dave Bunk Minerals
Description: Pale green tabular crystals
Measured chemistry: Ca_1.00_BSi_1.00_O_4_(OH) ; trace amounts of Fe; B and OH estimated by stoichiometry end charge balance
Raman shift (cm-1)	intensity
86.404	0
90.587	50.405
94.768	52.156
98.947	100.961
103.124	129.565
107.3	224.493
111.473	100.196
115.644	197.348
119.813	181.793
123.981	249.871
128.146	515.072
132.309	1303.31
136.47	477.034
140.63	277.709
144.787	290.778
148.942	503.878
153.096	1001.66
157.247	2255.12
161.396	15183.3
165.544	15348.2
169.689	2644.26
173.833	3163.84
177.974	3297.81
182.114	900.534
186.251	1058.67
190.387	3905.25
194.52	1351.27
198.652	1044.66
202.782	806.848
206.909	1162.02
211.035	2096.58
215.159	7437.48
219.281	4602.85
223.4	820.802
227.518	492.086
231.634	280.813
235.748	86.449
239.86	66.64
243.97	51.008
248.079	3.495
252.185	13.1
256.289	52.878
260.391	36.822
264.492	68.349
268.59	686.535
272.687	516.439
276.781	58.925
280.874	88.895
284.964	395.274
289.053	2296.01
293.14	1978.07
297.225	434.379
301.308	144.922
305.389	1.312
309.468	25.235
313.545	14.479
317.62	73.221
321.693	404.602
325.765	419.136
329.834	1017.78
333.902	437.533
337.967	163.214
342.031	187.369
346.093	441.913
350.153	479.653
354.21	1113.12
358.267	3114.31
362.321	3672.66
366.373	1699.02
370.423	961.505
374.471	1365.15
378.518	1949.79
382.563	1987.53
386.605	5007.47
390.646	10960.3
394.685	5399.24
398.722	1844.19
402.757	837.164
406.79	488.116
410.821	358.42
414.851	366.333
418.878	899.487
422.904	2583.53
426.927	943.054
430.949	507.515
434.969	1116.04
438.987	1990.63
443.003	899.27
447.018	417.974
451.03	468.705
455.041	1006.46
459.049	709.225
463.056	210.048
467.061	130.604
471.064	82.615
475.065	60.562
479.064	98.307
483.062	406.234
487.057	1166.21
491.051	1570.45
495.043	432.842
499.032	102.282
503.02	51.705
507.007	0.936
510.991	4.261
514.973	22.688
518.954	177.228
522.933	417.107
526.91	29.946
530.885	57.279
534.858	26.817
538.829	15.709
542.799	113.061
546.766	183.593
550.732	394.04
554.696	543.43
558.658	1033.76
562.618	907.039
566.576	361.258
570.533	165.423
574.488	198.528
578.44	193.611
582.391	361.7
586.341	1119.1
590.288	2698.33
594.233	2548.91
598.177	2049.73
602.119	1349.85
606.059	584.486
609.997	414.034
613.933	155.491
617.868	228.722
621.801	37.9
625.731	300.723
629.66	200.376
633.588	253.957
637.513	388.594
641.437	600.623
645.358	1058.1
649.278	2462.75
653.196	4319.87
657.113	3199.92
661.027	2275.87
664.94	3003.75
668.851	3548.2
672.76	2785.06
676.667	2763.74
680.572	3652.29
684.476	7576.19
688.378	23597.7
692.278	47257.1
696.176	16902.8
700.072	5874.54
703.967	2586.24
707.86	1504.98
711.751	840.624
715.64	650.159
719.527	488.594
723.413	281.955
727.297	288.216
731.179	264.974
735.059	132.037
738.937	147.021
742.814	91.908
746.689	95.684
750.562	19.354
754.433	21.892
758.303	177.297
762.17	496.578
766.036	326.768
769.901	213.869
773.763	28.858
777.624	29.81
781.482	16.476
785.339	3.964
789.195	17.633
793.048	25.445
796.9	33.356
800.75	106.038
804.598	74.925
808.445	15.571
812.289	40.09
816.132	239.584
819.973	554.085
823.813	1365.64
827.65	2178.19
831.486	1201.73
835.32	455.229
839.152	169.7
842.983	14.822
846.812	72.738
850.639	129.886
854.464	313.189
858.288	538.014
862.11	1251.82
865.93	1203.62
869.748	952.403
873.564	1330.15
877.379	2154.95
881.192	2680.72
885.004	2015.49
888.813	1400.26
892.621	1010.55
896.427	838.98
900.232	892.51
904.034	1195.53
907.835	2074.71
911.634	4338.85
915.432	9974.7
919.227	9318.56
923.021	4434.44
926.813	2281.1
930.604	1646.18
934.393	1366.52
938.18	1341.68
941.965	1026.22
945.749	1040.58
949.53	1177.62
953.311	1251.68
957.089	1049.54
960.866	827.713
964.641	707.258
968.414	824.627
972.185	1092.25
975.955	1917.17
979.723	4522.25
983.49	9577.65
987.254	6464.53
991.017	2863.8
994.779	1520.6
998.538	1073.76
1002.3	906.64
1006.05	790.703
1009.81	454.956
1013.56	340.333
1017.31	121.867
1021.06	35.565
1024.81	56.392
1028.55	108.237
1032.3	90.144
1036.04	116.1
1039.78	29.638
1043.52	130.122
1047.26	34.191
1050.99	212.314
1054.73	213.49
1058.46	426.713
1062.19	773.98
1065.92	1202.28
1069.65	3029.6
1073.37	9527.93
1077.1	16539.3
1080.82	9193.7
1084.54	3641.45
1088.26	1480.34
1091.97	649.369
1095.69	410.589
1099.4	181.627
1103.12	117.927
1106.83	1.36
1110.54	79.23
1114.24	28.07
1117.95	31.031
1121.65	298.771
1125.35	352.627
1129.06	122.799
1132.75	73.428
1136.45	95.16
1140.15	159.389
1143.84	260.5
1147.53	422.433
1151.22	454.699
1154.91	775.585
1158.6	1306.09
1162.28	1947.17
1165.97	3010.18
1169.65	4346.31
1173.33	4655.23
1177.01	3251.48
1180.69	1945.43
1184.36	1415.01
1188.04	975.089
1191.71	961.131
1195.38	967.932
1199.05	1077.04
1202.71	1294.98
1206.38	1128.72
1210.04	830.461
1213.71	563.301
1217.37	412.381
1221.03	429.2
1224.68	397.877
1228.34	261.259
1231.99	216.396
1235.65	248.772
1239.3	112.184
1242.95	117.162
1246.59	282.109
1250.24	223.249
1253.88	171.933
1257.53	44.172
1261.17	15.821
1264.81	1.556
1268.45	32.68
1272.08	74.021
1275.72	35.259
1279.35	148.632
1282.98	98.834
1286.61	37.219
1290.24	13.919
1293.87	56.113
1297.49	84.142
1301.11	108
1304.73	30.693
1308.36	124.907
1311.97	6.579
1315.59	218.731
1319.2	67.474
1322.82	117.957
1326.43	189.031
1330.04	19.706
1333.65	114.589
1337.26	113.771
1340.86	137.461
1344.47	80.129
1348.07	208.045
1351.67	294.115
1355.27	223.808
1358.87	328.129
1362.46	244.276
1366.06	259.657
1369.65	365.447
1373.24	413.098
1376.83	295.087
1380.42	311.795
1384	290.406
1387.59	139.304
1391.17	395.738
1394.75	286.875
1398.33	207.421
1401.91	108.31
1405.49	137.176
1409.06	66.615
1412.64	158.561
1416.21	9.899
1419.78	228.739
1423.35	86.827
1426.91	251.388
1430.48	150.42
1434.05	291.816
1437.61	251.387
1441.17	241.751
1444.73	225.142
1448.29	162.787
1451.84	358.568
1455.4	249.125
1458.95	265.907
1462.5	13.285
1466.05	22.407
1469.6	132.01
1473.15	11.597
1476.69	6.453
1480.24	66.064
1483.78	76.56
1487.32	0
