Measurement: Raman, 532 nm, unoriented, Raman Data Processed
Mineral: Datolite
Rruff sample: R050136
Ideal chemistry: CaBSiO_4_(OH)
Locality: Charcas, San Luis Potosi, Mexico
Source: Dave Bunk Minerals
Description: Pale green tabular crystals
Measured chemistry: Ca_1.00_BSi_1.00_O_4_(OH) ; trace amounts of Fe; B and OH estimated by stoichiometry end charge balance
Raman shift (cm-1)	intensity
140.65	0
144.025	5.11206
147.4	237.002
150.774	318.587
154.149	509.304
157.524	663.623
160.899	1144.83
164.274	3662.01
167.649	3086.25
171.023	400.846
174.398	267.107
177.773	712.349
181.148	302.801
184.523	41.9816
187.898	76.9052
191.272	375.403
194.647	454.014
198.022	93.7354
201.397	221.513
204.772	150.061
208.146	227.28
211.521	434.336
214.896	579.705
218.271	1583.79
221.646	712.519
225.02	105.913
228.395	70.0784
231.77	97.0429
235.145	14.3024
238.52	11.7339
241.895	17.8018
245.269	15.4106
248.644	8.87311
252.019	5.89142
255.394	8.34473
258.769	14.4133
262.144	22.1906
265.518	41.8928
268.893	101.3
272.268	170.868
275.643	130.016
279.017	82.8525
282.392	88.8508
285.767	128.031
289.142	257.434
292.517	549.338
295.892	307.238
299.266	83.9235
302.641	24.1928
306.016	1.23877
309.391	12.0591
312.766	10.6105
316.14	0.224915
319.515	25.3095
322.89	76.6686
326.265	63.1292
329.64	118.234
333.015	143.931
336.389	48.6033
339.764	4.17139
343.139	29.5623
346.514	99.3052
349.889	151.599
353.264	216.301
356.638	388.584
360.013	734.8
363.388	918.105
366.763	504.215
370.138	253.695
373.512	242.054
376.887	424.441
380.262	580.463
383.637	569.119
387.012	866.506
390.387	1612.42
393.761	1918.3
397.136	803.943
400.511	265.355
403.886	85.113
407.26	19.804
410.635	12.6141
414.01	15.823
417.385	49.5839
420.76	168.32
424.135	402.333
427.509	282.873
430.884	94.2743
434.259	123.313
437.634	262.822
441.009	348.539
444.384	137.583
447.758	33.78
451.133	17.3117
454.508	65.4923
457.883	131.336
461.258	65.505
464.632	4.20606
468.007	12.6908
471.382	12.4247
474.757	8.00507
478.132	40.4048
481.507	71.4481
484.881	135.401
488.256	264.228
491.631	399.925
495.006	213.294
498.381	62.2338
501.755	23.6978
505.13	12.0809
508.505	8.81317
511.88	7.88263
515.255	25.1376
518.63	32.9804
522.004	53.8602
525.379	67.8697
528.754	20.4576
532.129	1.27777
535.504	4.41132
538.878	1.22876
542.253	10.0173
545.628	25.4588
549.003	46.8595
552.378	82.9603
555.752	119.198
559.127	133.795
562.502	169.591
565.877	91.608
569.252	38.6946
572.626	31.1231
576.001	47.2203
579.376	84.8382
582.751	138.555
586.126	238.549
589.501	404.581
592.875	561.687
596.25	476.331
599.625	321.537
603	251.273
606.375	121.122
609.75	40.2624
613.124	11.6773
616.499	3.51147
619.874	5.9378
623.249	6.61035
626.624	4.86298
629.998	0.489929
633.373	9.91504
636.748	35.0511
640.123	72.7029
643.498	143.337
646.872	244.266
650.247	423.117
653.622	639.236
656.997	676.188
660.372	523.428
663.747	516.185
667.121	670.22
670.496	762.346
673.871	697.148
677.246	863.22
680.621	1351.52
683.995	2006.1
687.37	3592.8
690.745	6577.13
694.12	8550.74
697.495	3670.66
700.87	1305.73
704.244	611.937
707.619	327.509
710.994	191.06
714.369	116.375
717.744	63.0599
721.118	36.171
724.493	25.2853
727.868	11.5804
731.243	13.554
734.618	10.9992
737.992	7.61249
741.367	0.433777
744.742	6.77875
748.117	2.01758
751.492	4.474
754.867	14.8918
758.241	32.5909
761.616	68.2257
764.991	94.9571
768.366	63.5673
771.741	26.1277
775.115	7.76569
778.49	1.38788
781.865	1.09338
785.24	3.93646
788.615	5.05023
791.99	7.79022
795.364	6.3128
798.739	6.05499
802.114	9.62408
805.489	10.8976
808.864	20.3555
812.239	36.8862
815.613	63.5624
818.988	99.5337
822.363	168.087
825.738	290.917
829.112	362.096
832.487	214.018
835.862	74.6819
839.237	19.5247
842.612	3.89667
845.987	11.2291
849.361	12.6714
852.736	0.138245
856.111	23.3801
859.486	68.9158
862.861	148.516
866.236	176.323
869.61	124.371
872.985	150.773
876.36	241.545
879.735	345.886
883.11	351.13
886.484	231.17
889.859	119.056
893.234	57.3071
896.609	38.6118
899.984	51.4584
903.359	121.905
906.733	252.958
910.108	463.166
913.483	853.202
916.858	1428.74
920.233	1334.75
923.607	650.113
926.982	287.583
930.357	146.494
933.732	101.334
937.107	74.172
940.481	39.9351
943.856	33.1721
947.231	37.3028
950.606	51.0902
953.981	64.8597
957.356	57.0489
960.73	32.7595
964.105	21.3898
967.48	47.5704
970.855	120.31
974.23	251.027
977.604	449.117
980.979	823.852
984.354	1335.11
987.729	1104.4
991.104	501.925
994.479	240.796
997.853	149.867
1001.23	121.85
1004.6	116.107
1007.98	78.9304
1011.35	33.1435
1014.73	7.75928
1018.1	1.44128
1021.48	8.24396
1024.85	11.2349
1028.23	7.96173
1031.6	1.13922
1034.98	0.626831
1038.35	3.55414
1041.73	4.84076
1045.1	15.6475
1048.48	26.2136
1051.85	38.7794
1055.22	53.6216
1058.6	93.4439
1061.97	168.523
1065.35	338.308
1068.72	594.452
1072.1	1071.54
1075.47	2103.91
1078.85	2312.85
1082.22	1293.58
1085.6	539.526
1088.97	227.392
1092.35	118.57
1095.72	71.5824
1099.1	40.715
1102.47	22.1873
1105.85	11.9113
1109.22	9.33917
1112.6	4.1637
1115.97	2.97937
1119.35	5.10272
1122.72	1.82599
1126.1	2.63409
1129.47	2.96167
1132.85	12.5542
1136.22	16.6144
1139.6	29.6235
1142.97	38.8026
1146.35	58.1688
1149.72	89.9864
1153.1	129.071
1156.47	192.773
1159.84	279.937
1163.22	410.605
1166.59	568.109
1169.97	739.11
1173.34	795.495
1176.72	616.83
1180.09	396.432
1183.47	246.245
1186.84	170.187
1190.22	132.251
1193.59	122.527
1196.97	128.901
1200.34	149.801
1203.72	152.036
1207.09	122.478
1210.47	85.4553
1213.84	58.887
1217.22	40.8032
1220.59	29.0477
1223.97	19.0771
1227.34	10.421
1230.72	10.5644
1234.09	6.61163
1237.46	0.737305
1240.84	0.171753
1244.21	1.14593
1247.59	0.310669
1250.96	0.273254
1254.34	0.092957
1257.71	2.2179
1261.09	3.43866
1264.46	0.675476
1267.84	6.03027
1271.21	3.37964
1274.59	2.1604
1277.96	7.39764
1281.34	7.15411
1284.71	3.83856
1288.09	8.06384
1291.46	6.49042
1294.84	5.0304
1298.21	2.08228
1301.59	4.78943
1304.96	1.34589
