Measurement: Raman, 780 nm, unoriented, Raman Data Processed
Mineral: Davidite-(Ce)
Rruff sample: R120009
Ideal chemistry: Ce(Y,U)Fe_2_(Ti,Fe,Cr,V)_18_(O,OH,F)_38_
Locality: Mount Kaskasnyunchorr, Khibiny Massif, Kola Peninsula, Russia
Source: Marcus Origlieri
Description: Black rhombohedral grains associated with red rutile and colorless orthoclase
Raman shift (cm-1)	intensity
102.21	0
105.585	1429.62
108.96	62.25
112.335	648.25
115.709	2209.38
119.084	865
122.459	2040.5
125.834	1018.5
129.209	182.625
132.583	108.625
135.958	750.875
139.333	3015.38
142.708	7154.62
146.083	1219.88
149.458	182.75
152.832	200.375
156.207	1668.38
159.582	2926.62
162.957	2507.38
166.332	2058.12
169.706	2708.75
173.081	3727
176.456	5431.75
179.831	6810.38
183.206	7725.75
186.581	9665.88
189.955	10786.2
193.33	14263.8
196.705	16017.4
200.08	16800.2
203.455	20034.6
206.829	22094
210.204	23001.4
213.579	26020.6
216.954	27494.9
220.329	29859.4
223.703	28955.2
227.078	29518.8
230.453	29162
233.828	28108.1
237.203	27044.6
240.578	25328.6
243.952	22198.5
247.327	21731
250.702	17864.6
254.077	14034.5
257.452	12917.2
260.827	13412.1
264.201	12140.1
267.576	11325.6
270.951	11300.9
274.326	9070.62
277.701	9570.5
281.075	6021
284.45	5033.62
287.825	2350.38
291.2	4802.75
294.575	2583.5
297.95	1327.62
301.324	346.375
304.699	597.625
308.074	761.5
311.449	347.375
314.824	1778.62
318.198	1171.38
321.573	289
324.948	2117.75
328.323	1050
331.698	195.75
335.072	134.125
338.447	1865.62
341.822	2177.38
345.197	3058.75
348.572	4211.75
351.947	2435.62
355.321	3346.12
358.696	4014
362.071	3272.5
365.446	1568.62
368.821	2680.62
372.195	2843.12
375.57	222.75
378.945	1100
382.32	1597.62
385.695	3027.12
389.07	4965.12
392.444	5709.38
395.819	9102.12
399.194	11953.9
402.569	16956.2
405.944	23392.8
409.318	29784.1
412.693	40034.6
416.068	52250
419.443	62755.4
422.818	80277.5
426.192	92472.9
429.567	106935
432.942	120819
436.317	133698
439.692	140929
443.067	148032
446.441	141765
449.816	131626
453.191	115741
456.566	96989.5
459.941	79247.2
463.315	63655.2
466.69	47456.5
470.065	38917.2
473.44	30485.1
476.815	23551.5
480.19	15793.6
483.564	11504.2
486.939	8540.38
490.314	5630.75
493.689	3961
497.064	4416.62
500.438	1833.88
503.813	2216.12
507.188	1191.12
510.563	2886
513.938	777.875
517.313	137.5
520.687	389.375
524.062	2075
527.437	264.5
530.812	1560.88
534.187	776.75
537.562	231.875
540.936	1435.88
544.311	421.5
547.686	1840.5
551.061	6634.62
554.436	9642.75
557.81	14070.2
561.185	16162.9
564.56	21648.1
567.935	27356.2
571.31	32106.6
574.684	37730.2
578.059	46723.1
581.434	55658.5
584.809	64824.9
588.184	73040.8
591.558	86434.1
594.933	98227.2
598.308	114314
601.683	121864
605.058	132019
608.433	134545
611.807	133677
615.182	125140
618.557	110690
621.932	95530.1
625.307	81699
628.682	66820.6
632.056	53642.9
635.431	45073.1
638.806	36338.9
642.181	28897.8
645.556	24202.8
648.93	20290.8
652.305	15541.1
655.68	11398.2
659.055	10344.4
662.43	5214.88
665.804	2348.62
669.179	3393.75
672.554	3327.62
675.929	3904
679.304	3441.5
682.679	429
686.053	375.25
689.428	44.625
692.803	346.25
696.178	1657.25
699.553	1654.5
702.928	280.625
706.302	1698.12
709.677	4234.5
713.052	2649
716.427	3926.38
719.802	4154.88
723.176	4608.12
726.551	4781.38
729.926	4619.88
733.301	5370.75
736.676	4602.88
740.051	2611
743.425	1943
746.8	303.625
750.175	3205.5
753.55	3381.88
756.925	3586.38
760.299	366.375
763.674	1009.62
767.049	883.25
770.424	1180
773.799	2107.38
777.173	3391.75
780.548	6310.25
783.923	4527.5
787.298	4450.25
790.673	5462.5
794.048	7502.75
797.422	10466
800.797	7898.38
804.172	4783.25
807.547	11581.9
810.922	9675
814.296	6516.62
817.671	12133.2
821.046	11659.6
824.421	12590.1
827.796	11115.6
831.17	8783.25
834.545	8619.75
837.92	11220
841.295	10421.9
844.67	7032.25
848.045	7665.5
851.419	8059.88
854.794	6740.5
858.169	7940.25
861.544	7107.75
864.919	7118.62
868.293	5902.38
871.668	6545.5
875.043	6942.25
878.418	4414
881.793	3659.88
885.168	3513.62
888.542	831.375
891.917	3522.62
895.292	1978.38
898.667	1113.38
902.042	568.375
905.417	856
908.791	2537.25
912.166	4662.5
915.541	2882.88
918.916	3417.88
922.291	2877.5
925.665	1326.12
929.04	3747.5
932.415	5346.12
935.79	3360.5
939.165	4896.62
942.539	2260.5
945.914	2008
949.289	3654.12
952.664	6933
956.039	7151.62
959.414	4316.62
962.788	4816.12
966.163	2078.12
969.538	933.75
972.913	1334.62
976.288	762.875
979.663	1170.62
983.037	1037.25
986.412	3064.12
989.787	5892.5
993.162	3268.88
996.537	5637.88
999.911	6278.38
1003.29	4654.88
1006.66	5253.88
1010.04	7026
1013.41	6560.38
1016.78	6329.38
1020.16	5478.88
1023.53	5139.25
1026.91	7546.88
1030.29	7634.62
1033.66	9676.75
1037.03	12014.4
1040.41	8587.75
1043.78	5503.88
1047.16	4434
1050.53	6676.38
1053.91	6280
1057.28	7975.38
1060.66	9768
1064.03	9353
1067.41	10986.2
1070.78	9233.5
1074.16	7898.12
1077.53	6693.12
1080.91	5832.25
1084.28	5073.88
1087.66	4923.25
1091.03	5861.62
1094.41	5754.12
1097.78	2981.38
1101.16	738.875
1104.53	1814.75
1107.91	3656.38
1111.28	2533.38
1114.65	1528.38
1118.03	1451.25
1121.4	928.625
1124.78	2298.12
1128.15	1930.38
1131.53	3411.25
1134.9	7419.38
1138.28	3182.25
1141.65	5265
1145.03	5985.62
1148.4	8129.25
1151.78	4944.88
1155.15	7726.75
1158.53	7679.62
1161.9	9502.62
1165.28	10485.4
1168.65	11683.1
1172.03	11742.6
1175.4	13873.8
1178.78	12473.1
1182.15	10817.2
1185.53	12350.5
1188.9	13342
1192.28	14022.9
1195.65	14810.6
1199.03	12271.4
1202.4	14882.5
1205.78	12223
1209.15	9965.75
1212.53	13029
1215.9	11932.2
1219.27	7226.5
1222.65	7823.75
1226.02	5431.75
1229.4	7187.38
1232.77	7800
1236.15	6741
1239.52	3155.12
1242.9	88.375
1246.27	3462.62
1249.65	2481.75
1253.02	1838.75
1256.4	2289.75
1259.77	2422.38
1263.15	3958.25
1266.52	4952.25
1269.9	5206.75
1273.27	3435.88
1276.65	295.875
1280.02	1293.38
1283.4	2293.12
