Measurement: Raman, 532 nm, unoriented, Raman Data Processed
Mineral: Davidite-(Ce)
Rruff sample: R120009
Ideal chemistry: Ce(Y,U)Fe_2_(Ti,Fe,Cr,V)_18_(O,OH,F)_38_
Locality: Mount Kaskasnyunchorr, Khibiny Massif, Kola Peninsula, Russia
Source: Marcus Origlieri
Description: Black rhombohedral grains associated with red rutile and colorless orthoclase
Raman shift (cm-1)	intensity
90.4922	0
93.867	0.331863
97.2418	11.8206
100.617	25.1226
103.992	39.7848
107.366	64.2801
110.741	84.4719
114.116	103.898
117.491	115.22
120.865	154.702
124.24	216.822
127.615	221.974
130.99	182.302
134.365	147.394
137.74	115.18
141.114	78.2714
144.489	32.6619
147.864	3.58549
151.239	26.0714
154.614	32.3223
157.988	30.3602
161.363	5.95161
164.738	75.9939
168.113	198.43
171.488	293.757
174.863	368.924
178.237	485.465
181.612	611.635
184.987	733.377
188.362	821.454
191.737	879.823
195.112	936.605
198.486	998.282
201.861	1065.6
205.236	1128.93
208.611	1165.08
211.986	1191.41
215.36	1197.94
218.735	1214.93
222.11	1246.41
225.485	1281.08
228.86	1293.22
232.234	1298.99
235.609	1284.62
238.984	1222.97
242.359	1155.59
245.734	1057.3
249.109	946.449
252.483	826.428
255.858	727.432
259.233	631.477
262.608	540.981
265.983	467.907
269.358	404.21
272.732	343.297
276.107	287.133
279.482	233.468
282.857	173.967
286.232	121.259
289.606	74.7562
292.981	46.0902
296.356	22.5997
299.731	3.95007
303.106	1.84522
306.481	2.43591
309.855	7.33679
313.23	8.11462
316.605	14.4701
319.98	3.93005
323.355	2.80225
326.729	8.71704
330.104	13.1218
333.479	16.5599
336.854	17.8357
340.229	18.8367
343.603	14.5682
346.978	3.5907
350.353	0.087769
353.728	22.354
357.103	23.5601
360.478	26.6069
363.852	25.4112
367.227	22.4622
370.602	28.6581
373.977	32.6722
377.352	24.7653
380.726	34.7695
384.101	54.1683
387.476	78.7466
390.851	103.187
394.226	132.601
397.601	178.741
400.975	239.814
404.35	311.806
407.725	427.764
411.1	559.536
414.475	707.5
417.849	874.111
421.224	1058.57
424.599	1277.25
427.974	1495.93
431.349	1733.54
434.724	1930.87
438.098	2089.26
441.473	2194.03
444.848	2202.86
448.223	2102.75
451.598	1918.95
454.972	1641.43
458.347	1368.81
461.722	1104.69
465.097	868.819
468.472	679.582
471.846	524.768
475.221	400.298
478.596	306.092
481.971	228.912
485.346	162.083
488.721	115.641
492.095	82.0429
495.47	59.0221
498.845	33.2437
502.22	17.2213
505.595	11.8899
508.969	1.28076
512.344	2.22693
515.719	11.4305
519.094	20.3735
522.469	24.5801
525.844	25.2285
529.218	25.675
532.593	21.4363
535.968	9.90637
539.343	15.251
542.718	58.173
546.092	111.566
549.467	185.311
552.842	279.767
556.217	397.901
559.592	541.672
562.967	713.147
566.341	924.262
569.716	1174.48
573.091	1468.56
576.466	1808.2
579.841	2204.16
583.216	2640.67
586.59	3126.52
589.965	3692.86
593.34	4306.66
596.715	4963.85
600.09	5617.45
603.464	6169.19
606.839	6545.62
610.214	6683.26
613.589	6448.51
616.964	5928.88
620.338	5184.87
623.713	4354.23
627.088	3524.05
630.463	2806.64
633.838	2196.76
637.212	1688.12
640.587	1267.16
643.962	938.109
647.337	692.1
650.712	486.2
654.087	342.266
657.461	218.564
660.836	130.467
664.211	60.0061
667.586	13.8823
670.961	3.28955
674.335	15.5762
677.71	8.09619
681.085	1.10522
684.46	27.6414
687.835	49.4231
691.21	58.4996
694.584	61.191
697.959	62.1381
701.334	55.5762
704.709	38.5369
708.084	35.2291
711.458	21.21
714.833	6.36194
718.208	8.59314
721.583	1.98926
724.958	10.5421
728.332	8.23975
731.707	14.7502
735.082	10.2102
738.457	12.6352
741.832	4.41455
745.207	7.14294
748.581	22.7207
751.956	40.1807
755.331	55.8853
758.706	69.3811
762.081	77.5703
765.456	103.77
768.83	124.58
772.205	137.694
775.58	161.581
778.955	173.663
782.33	193.242
785.704	205.686
789.079	205.023
792.454	220.228
795.829	220.366
799.204	217.092
802.578	214.72
805.953	217.007
809.328	219.022
812.703	212.117
816.078	208.701
819.453	205.912
822.827	199.355
826.202	189.154
829.577	179.121
832.952	165.004
836.327	144.172
839.702	119.677
843.076	99.5094
846.451	82.5801
849.826	64.9393
853.201	51.4503
856.576	40.2988
859.95	30.6469
863.325	23.0056
866.7	14.9994
870.075	10.4911
873.45	7.0911
876.824	5.15567
880.199	4.48142
883.574	2.2041
886.949	4.55957
890.324	2.02225
893.698	2.41611
897.073	4.86761
900.448	6.21872
903.823	1.26971
907.198	9.6348
910.573	5.59619
913.947	3.63336
917.322	8.43973
920.697	1.85349
924.072	2.7568
927.447	5.27203
930.822	3.29517
934.196	1.22647
937.571	0.299072
940.946	1.91986
944.321	1.98825
947.696	2.25073
951.07	5.99979
954.445	1.23022
957.82	2.22275
961.195	0.516663
964.57	4.82513
967.944	1.77179
971.319	2.44607
974.694	1.77115
978.069	0.051514
981.444	4.32333
984.819	0.081482
988.193	2.52701
991.568	5.52814
994.943	1.99551
998.318	2.13269
1001.69	2.28207
1005.07	3.72693
1008.44	0.883575
1011.82	0.907745
1015.19	3.00272
1018.57	2.50516
1021.94	6.9632
1025.32	2.67926
1028.69	4.54486
1032.07	0.676086
1035.44	5.22021
1038.82	7.65103
1042.19	4.64438
1045.57	7.83176
1048.94	5.21249
1052.32	3.3461
1055.69	4.69052
1059.07	5.89972
1062.44	6.47952
1065.81	3.21701
1069.19	0.820221
1072.56	3.03586
1075.94	2.25998
1079.31	5.2218
1082.69	3.41965
1086.06	2.83304
1089.44	1.7077
1092.81	2.72424
1096.19	3.32022
1099.56	4.28168
1102.94	5.2048
1106.31	2.14868
1109.69	3.77026
1113.06	5.67425
1116.44	1.95493
1119.81	4.43133
1123.19	3.84553
1126.56	4.18771
1129.94	6.64795
1133.31	2.44495
1136.68	4.40575
1140.06	4.36289
1143.43	1.39114
1146.81	1.34347
1150.18	4.73108
1153.56	0.821503
1156.93	2.35007
1160.31	1.66019
1163.68	3.72788
1167.06	3.37549
1170.43	2.05936
1173.81	2.57747
1177.18	3.53735
1180.56	0.807526
1183.93	2.50259
1187.31	4.89014
1190.68	5.71252
1194.06	2.01177
1197.43	2.66695
1200.81	5.91074
1204.18	3.83752
1207.56	7.20868
1210.93	6.79802
1214.31	7.29192
1217.68	4.11545
1221.06	7.18948
1224.43	6.3033
1227.81	4.18396
1231.18	5.00748
1234.56	4.79924
1237.93	6.80926
1241.31	4.29367
1244.68	6.07951
1248.05	8.99591
1251.43	5.04477
1254.8	0.026978
1258.18	3.78101
1261.55	3.7668
1264.93	2.97269
1268.3	3.76732
1271.68	7.76671
1275.05	2.84976
1278.43	0.424118
1281.8	7.2635
1285.18	1.38992
1288.55	1.42992
1291.93	1.50679
1295.3	3.02197
1298.68	4.26248
1302.05	0.782776
