Measurement: Raman, 532 nm, unoriented, Raman Data Processed
Mineral: Davyne
Rruff sample: R060305
Ideal chemistry: (Na,K)_6_Ca_2_(Si_6_Al_6_)O_24_Cl_3_(SO_4_)_0.5_
Locality: Bellerberg, Ettringen, Laacher See, Germany
Source: Michael Scott
Description: Colorless hexagonal prisms
Raman shift (cm-1)	intensity
127.133	0
130.508	10.5294
133.883	1.40999
137.257	1.70506
140.632	17.0557
144.007	31.5206
147.382	52.044
150.757	77.3984
154.132	121.58
157.506	154.36
160.881	175.111
164.256	204.343
167.631	223.16
171.006	241.549
174.381	251.694
177.755	248.672
181.13	246.278
184.505	248.726
187.88	253.236
191.255	253.179
194.629	244.68
198.004	234.219
201.379	216.407
204.754	198.381
208.129	172.125
211.504	144.233
214.878	115.729
218.253	94.3593
221.628	71.1274
225.003	58.3753
228.377	46.9598
231.752	32.4191
235.127	23.5424
238.502	15.0297
241.877	9.9319
245.252	4.39806
248.626	7.37334
252.001	2.67523
255.376	0.373825
258.751	0.620239
262.126	0.735191
265.5	5.34578
268.875	9.17499
272.25	18.2243
275.625	23.7066
279	35.1678
282.375	47.9157
285.75	67.3728
289.124	76.7937
292.499	57.9729
295.874	31.0213
299.249	14.4068
302.623	6.88735
305.998	1.23454
309.373	0.804741
312.748	1.70385
316.123	4.62123
319.498	2.85752
322.872	2.37045
326.247	0.010284
329.622	2.10998
332.997	0.624847
336.372	3.57865
339.747	0.42128
343.121	1.18761
346.496	0.090134
349.871	1.13659
353.246	0.704163
356.621	3.64621
359.995	3.75635
363.37	2.84522
366.745	3.2574
370.12	2.35044
373.495	1.62058
376.87	5.17615
380.244	8.02544
383.619	16.3099
386.994	24.7746
390.369	17.6766
393.744	12.8336
397.118	12.2948
400.493	16.7663
403.868	27.1955
407.243	40.0129
410.618	57.7771
413.993	82.1178
417.367	122.004
420.742	158.752
424.117	162.647
427.492	132.706
430.866	135.288
434.241	151.07
437.616	189.448
440.991	225.527
444.366	253.334
447.741	299.317
451.115	359.679
454.49	400.55
457.865	399.861
461.24	327.185
464.615	228.516
467.99	163.342
471.364	125.732
474.739	96.3526
478.114	75.2913
481.489	58.0931
484.864	41.848
488.238	31.1577
491.613	19.7955
494.988	14.1484
498.363	9.1788
501.738	4.13009
505.113	1.93663
508.487	0.274689
511.862	1.99487
515.237	0.495972
518.612	0.313026
521.987	1.07011
525.361	1.91431
528.736	0.701843
532.111	0.476555
535.486	0.034981
538.861	0.449104
542.236	1.01633
545.61	1.26153
548.985	0.651131
552.36	2.28311
555.735	1.10735
559.11	3.89919
562.484	6.58486
565.859	5.61713
569.234	4.24984
572.609	5.49214
575.984	5.13665
579.359	6.73646
582.733	7.52645
586.108	3.81302
589.483	6.03512
592.858	8.98885
596.232	14.085
599.607	19.9182
602.982	27.6905
606.357	42.0774
609.732	60.1369
613.107	81.4898
616.481	96.8645
619.856	101.095
623.231	100.269
626.606	88.7394
629.981	71.1137
633.356	51.377
636.73	34.8504
640.105	25.2889
643.48	21.4121
646.855	24.0974
650.23	27.3769
653.604	36.9543
656.979	50.1381
660.354	62.0772
663.729	54.3568
667.104	34.9415
670.479	25.7978
673.853	23.7683
677.228	20.0843
680.603	16.0173
683.978	13.9706
687.353	6.99253
690.727	4.44161
694.102	2.52132
697.477	2.75606
700.852	0.336426
704.227	1.40777
707.601	0.237961
710.976	0.361244
714.351	1.53493
717.726	1.06372
721.101	0.675705
724.476	0.708801
727.85	2.47756
731.225	0.716011
734.6	2.67009
737.975	2.61816
741.35	1.49123
744.725	2.03377
748.099	4.73193
751.474	4.03954
754.849	6.4108
758.224	14.1628
761.599	23.9274
764.973	39.072
768.348	58.1946
771.723	80.1691
775.098	101.291
778.473	87.7508
781.847	49.1081
785.222	24.8028
788.597	14.6901
791.972	8.02526
795.347	4.16793
798.722	3.63952
802.096	5.26566
805.471	3.0877
808.846	4.17556
812.221	1.5276
815.596	0.349007
818.971	0.561012
822.345	0.197365
825.72	1.73743
829.095	0.91481
832.47	1.02554
835.845	3.12995
839.219	1.52038
842.594	0.432137
845.969	1.16984
849.344	0.710655
852.719	1.45229
856.093	4.33741
859.468	3.82107
862.843	2.05184
866.218	2.91618
869.593	3.83241
872.967	2.5719
876.342	4.29631
879.717	1.51778
883.092	2.47866
886.467	3.21768
889.842	2.46618
893.216	3.72488
896.591	1.12831
899.966	1.03047
903.341	1.71364
906.716	1.98095
910.091	2.25204
913.465	0.675552
916.84	2.0581
920.215	1.49297
923.59	3.32572
926.965	1.41987
930.339	1.41351
933.714	4.4781
937.089	0.822617
940.464	1.84492
943.839	2.50012
947.213	7.68856
950.588	13.3069
953.963	20.2862
957.338	32.0628
960.713	47.5144
964.088	80.2418
967.462	136.614
970.837	238.346
974.212	415.423
977.587	647.341
980.962	890.726
984.337	1122.98
987.711	1101.81
991.086	610.403
994.461	262.349
997.836	130.982
1001.21	78.2823
1004.59	62.8828
1007.96	65.2329
1011.34	77.0201
1014.71	95.6446
1018.09	107.527
1021.46	104.805
1024.83	76.2209
1028.21	48.5611
1031.58	24.6205
1034.96	13.0422
1038.33	2.53052
1041.71	0.981422
1045.08	0.064842
1048.46	5.08814
1051.83	8.31669
1055.21	10.3433
1058.58	12.6886
1061.96	17.5169
1065.33	22.2361
1068.71	16.9953
1072.08	13.3506
1075.46	3.97982
1078.83	1.13693
1082.21	2.26582
1085.58	4.27297
1088.96	1.39645
1092.33	3.58866
1095.7	9.40839
1099.08	12.9293
1102.45	17.1809
1105.83	15.0427
1109.2	15.0707
1112.58	20.0842
1115.95	19.9458
1119.33	22.7623
1122.7	24.2469
1126.08	26.4945
1129.45	30.6097
1132.83	31.0376
1136.2	31.9123
1139.58	34.1923
1142.95	33.0251
1146.33	27.7743
1149.7	28.5703
1153.08	24.2291
1156.45	21.4829
1159.83	18.4261
1163.2	12.5268
1166.58	12.9477
1169.95	8.27908
1173.33	7.11113
1176.7	7.4367
1180.08	5.04156
1183.45	6.81655
1186.83	3.34605
1190.2	3.26704
1193.58	3.07883
1196.95	0.144531
1200.33	0.12558
1203.7	0.512459
1207.07	1.49223
1210.45	0.645256
1213.82	1.41623
1217.2	1.34012
1220.57	1.27577
1223.95	2.61391
1227.32	1.0799
1230.7	2.41124
1234.07	2.79128
1237.45	2.91008
1240.82	3.56705
1244.2	3.92127
1247.57	2.79697
1250.95	3.54251
1254.32	4.59765
1257.7	3.29224
1261.07	1.43431
1264.45	0.610836
1267.82	2.03748
1271.2	3.93681
1274.57	1.74446
1277.95	1.77103
1281.32	0.694054
1284.69	1.06601
1288.07	2.39084
1291.44	2.50012
1294.82	2.4995
1298.19	1.97736
1301.57	0.052181
