Measurement: Raman, 780 nm, unoriented, Raman Data Processed
Mineral: Davyne
Rruff sample: R060305
Ideal chemistry: (Na,K)_6_Ca_2_(Si_6_Al_6_)O_24_Cl_3_(SO_4_)_0.5_
Locality: Bellerberg, Ettringen, Laacher See, Germany
Source: Michael Scott
Description: Colorless hexagonal prisms
Raman shift (cm-1)	intensity
128.174	0
131.549	2.77521
134.924	0.835052
138.298	11.3043
141.673	12.6784
145.048	16.5574
148.423	25.8643
151.798	33.2176
155.173	39.1079
158.547	48.032
161.922	54.111
165.297	70.2916
168.672	78.1936
172.047	86.9566
175.422	95.219
178.796	98.6958
182.171	106.579
185.546	116.241
188.921	122.212
192.296	119.265
195.67	113.26
199.045	103.156
202.42	98.4512
205.795	81.3238
209.17	66.2812
212.544	53.4538
215.919	36.2671
219.294	26.554
222.669	16.2309
226.044	13.0682
229.419	9.61713
232.793	5.5213
236.168	1.35721
239.543	0.207184
242.918	0.819
246.293	1.30276
249.667	4.53238
253.042	2.35843
256.417	1.09219
259.792	0.311523
263.167	3.58621
266.542	12.2219
269.916	13.5332
273.291	18.8166
276.666	21.5021
280.041	30.3591
283.416	34.8362
286.791	32.9293
290.165	21.5967
293.54	17.3334
296.915	10.0222
300.29	6.2383
303.665	3.93819
307.039	5.72888
310.414	2.38347
313.789	0.960861
317.164	0.438354
320.539	1.4668
323.913	0.442581
327.288	4.38069
330.663	1.85873
334.038	0.922546
337.413	3.31995
340.788	0.207336
344.162	1.05527
347.537	0.153244
350.912	1.26128
354.287	0.823807
357.662	2.86473
361.036	0.702271
364.411	2.08321
367.786	0.540771
371.161	1.61559
374.536	1.81747
377.911	0.879852
381.285	2.58446
384.66	7.92801
388.035	12.4097
391.41	11.2562
394.785	15.1003
398.159	18.4943
401.534	25.3419
404.909	38.8291
408.284	54.8883
411.659	66.3092
415.034	78.5301
418.408	96.7607
421.783	96.5119
425.158	80.7891
428.533	75.3228
431.908	71.0202
435.282	83.6338
438.657	104.309
442.032	128.405
445.407	154.797
448.782	181.977
452.156	198.379
455.531	201.926
458.906	184.573
462.281	148.149
465.656	115.682
469.031	97.7852
472.405	79.7447
475.78	63.2543
479.155	50.758
482.53	39.5383
485.905	28.1897
489.279	23.6237
492.654	14.931
496.029	9.07494
499.404	5.75006
502.779	4.53859
506.154	2.64822
509.528	4.5191
512.903	1.44721
516.278	0.027298
519.653	0.176559
523.028	2.08218
526.403	2.51964
529.777	0.653702
533.152	1.41911
536.527	0.018387
539.902	2.66803
543.277	1.5816
546.651	4.60402
550.026	2.0193
553.401	0.18425
556.776	5.86484
560.151	3.28247
563.525	1.09631
566.9	2.28857
570.275	5.11534
573.65	3.28816
577.025	3.44904
580.399	2.19887
583.774	2.2619
587.149	2.52626
590.524	4.55241
593.899	5.2357
597.274	7.80261
600.649	9.85896
604.023	19.8163
607.398	20.8314
610.773	31.7402
614.148	33.9495
617.523	39.0805
620.897	38.0565
624.272	34.0144
627.647	27.6179
631.022	24.7619
634.397	16.2355
637.771	12.7473
641.146	10.9535
644.521	15.4948
647.896	16.4655
651.271	23.0146
654.646	25.5296
658.02	28.0059
661.395	25.7305
664.77	15.4946
668.145	9.82239
671.52	8.32083
674.894	7.97826
678.269	3.22337
681.644	5.58736
685.019	1.72838
688.394	0.831757
691.769	0.26651
695.143	3.64098
698.518	2.26733
701.893	0.516769
705.268	0.170547
708.643	2.35274
712.018	0.955162
715.392	0.627861
718.767	2.60972
722.142	1.68063
725.517	0.92334
728.891	0.43177
732.266	2.05305
735.641	2.69479
739.016	1.98979
742.391	1.84823
745.766	2.35769
749.14	2.73403
752.515	3.49107
755.89	3.43725
759.265	3.41602
762.64	8.12316
766.014	4.90877
769.389	4.46016
772.764	7.04811
776.139	4.62528
779.514	2.37405
782.889	4.68988
786.263	3.87337
789.638	0.920174
793.013	3.43411
796.388	1.69846
799.763	3.575
803.138	4.44204
806.512	1.58491
809.887	0.961052
813.262	5.27604
816.637	1.70796
820.012	2.95506
823.386	4.35847
826.761	1.97468
830.136	5.50601
833.511	5.57782
836.886	4.44682
840.26	5.17485
843.635	3.77621
847.01	4.22675
850.385	5.1488
853.76	5.28146
857.135	5.67354
860.509	6.37392
863.884	7.14647
867.259	6.18197
870.634	5.04823
874.009	3.03667
877.384	4.44256
880.758	4.37083
884.133	4.01806
887.508	6.59459
890.883	2.10281
894.258	5.46394
897.632	0.890762
901.007	2.8522
904.382	0.255905
907.757	4.51796
911.132	1.26816
914.506	0.299133
917.881	2.01642
921.256	1.706
924.631	0.801186
928.006	2.35085
931.381	3.90614
934.755	1.06445
938.13	2.79944
941.505	4.21155
944.88	0.894386
948.255	3.381
951.63	6.84372
955.004	8.60868
958.379	15.8214
961.754	33.0521
965.129	61.1417
968.504	116.787
971.878	200.797
975.253	292.817
978.628	361.889
982.003	392.823
985.378	361.398
988.752	236.018
992.127	106.634
995.502	43.2182
998.877	20.687
1002.25	12.327
1005.63	9.73749
1009	14.044
1012.38	17.0788
1015.75	15.9336
1019.13	17.8533
1022.5	12.0109
1025.88	6.68101
1029.25	2.06471
1032.62	2.43858
1036	5.8992
1039.38	7.60369
1042.75	9.10567
1046.12	12.8738
1049.5	15.0001
1052.87	17.9759
1056.25	18.7388
1059.62	20.6507
1063	18.831
1066.37	13.0572
1069.75	5.37672
1073.12	1.95007
1076.5	1.52471
1079.87	1.36668
1083.25	0.808273
1086.62	0.10498
1090	1.1516
1093.37	3.0579
1096.75	2.7766
1100.12	6.00146
1103.5	4.43296
1106.87	5.51322
1110.25	2.68958
1113.62	0.309387
1116.99	4.65182
1120.37	4.02018
1123.74	4.7309
1127.12	7.21217
1130.49	10.7568
1133.87	6.25904
1137.24	8.82574
1140.62	9.32222
1143.99	9.0255
1147.37	8.71559
1150.74	5.13908
1154.12	6.5733
1157.49	5.54021
1160.87	5.58133
1164.24	5.58191
1167.62	4.31593
1170.99	4.2241
1174.37	1.74485
1177.74	7.63806
1181.12	5.61165
1184.49	3.09797
1187.87	0.834915
1191.24	0.789063
1194.62	2.36109
1197.99	2.87865
1201.37	0.906906
1204.74	3.81481
1208.12	2.06554
1211.49	0.070595
1214.87	3.41698
1218.24	2.40469
1221.62	2.73151
1224.99	4.67936
1228.37	2.42325
1231.74	1.91074
1235.11	3.00033
1238.49	3.7745
1241.86	2.52249
1245.24	2.01202
1248.61	0.307281
1251.99	2.04958
1255.36	3.56796
1258.74	4.43239
1262.11	3.82298
1265.49	4.472
1268.86	2.57301
1272.24	4.32818
1275.61	1.11429
1278.99	4.1308
1282.36	8.26418
1285.74	0
