Measurement: Raman, 532 nm, unoriented, Raman Data Processed
Mineral: Dawsonite
Rruff sample: R050645
Ideal chemistry: NaAlCO_3_(OH)_2_
Locality: Cerro Sapo, Cochabamba Department, Bolivia
Source: Marcus Origlieri
Description: White fibrous aggregates associated with blue sodalite on pale green ankerite.
Measured chemistry: Na_1.00_(Al_0.99_Fe^3+^_0.01_)_Î£=1_CO_3_(OH)_2_
Raman shift (cm-1)	intensity
142.924	0
145.816	240.828
148.709	689.199
151.602	726.133
154.494	96.1941
157.387	28.5967
160.28	9.61914
163.173	64.23
166.065	217.062
168.958	505.008
171.851	1027.61
174.743	1788.99
177.636	2884.92
180.529	4221.94
183.421	6325.37
186.314	8627.44
189.207	9867.63
192.1	7575.42
194.992	3894.99
197.885	1757.57
200.778	1013.53
203.67	788.926
206.563	845.786
209.456	1204.64
212.348	1879.2
215.241	2635.25
218.134	2938.68
221.026	1611.01
223.919	617.51
226.812	180.397
229.705	32.3976
232.597	14.4351
235.49	59.4989
238.383	1.21631
241.275	85.0516
244.168	302.952
247.061	634.941
249.954	1120.03
252.846	1891.08
255.739	2931.4
258.632	3791.97
261.524	3255.39
264.417	1454.12
267.31	639.298
270.202	345.633
273.095	189.824
275.988	103.054
278.881	74.9706
281.773	85.2772
284.666	79.1969
287.559	88.7404
290.451	52.4012
293.344	59.3864
296.237	39.7299
299.13	24.5171
302.022	20.102
304.915	19.4503
307.808	3.9856
310.7	28.7439
313.593	28.6903
316.486	17.6493
319.378	50.6246
322.271	35.3374
325.164	62.9545
328.057	53.0081
330.949	59.1177
333.842	78.6361
336.735	102.134
339.627	90.333
342.52	127.972
345.413	141.574
348.305	181
351.198	281.372
354.091	375.476
356.983	417.768
359.876	390.288
362.769	337.034
365.662	221.698
368.554	225.619
371.447	219.252
374.34	227.435
377.232	340.325
380.125	566.102
383.018	763.604
385.911	901.34
388.803	807.829
391.696	425.091
394.589	194.422
397.481	72.2425
400.374	47.2344
403.267	41.724
406.159	4.75171
409.052	7.95019
411.945	30.8892
414.837	8.14392
417.73	1.96887
420.623	8.69665
423.516	54.4827
426.408	35.2087
429.301	65.3596
432.194	83.1303
435.086	131.789
437.979	187.71
440.872	181.373
443.764	177.775
446.657	118.062
449.55	80.6284
452.443	41.0273
455.335	25.9747
458.228	32.8693
461.121	19.8483
464.014	14.801
466.906	12.622
469.799	2.2511
472.692	10.4779
475.584	2.14429
478.477	4.69421
481.37	10.3518
484.262	37.0153
487.155	27.2607
490.048	46.8475
492.94	12.584
495.833	12.6447
498.726	66.9042
501.619	80.3192
504.511	89.5278
507.404	191.585
510.297	294.867
513.189	368.395
516.082	531.436
518.975	425.754
521.867	181.639
524.76	91.7365
527.653	34.5354
530.546	12.5109
533.438	28.7643
536.331	17.2859
539.224	6.96668
542.116	40.6207
545.009	12.2755
547.902	75.6079
550.794	39.0316
553.687	54.1183
556.58	75.6693
559.473	108.62
562.365	121.405
565.258	214.546
568.151	302.538
571.043	524.718
573.936	893.656
576.829	1514.08
579.721	2413.09
582.614	3313.42
585.507	4275.59
588.4	4704.28
591.292	3197.67
594.185	1644.68
597.078	828.36
599.97	509.541
602.863	351.685
605.756	220.774
608.649	155.057
611.541	148.245
614.434	111.501
617.327	99.4952
620.219	78.0923
623.112	31.7955
626.005	5.50586
628.897	3.86548
631.79	6.89587
634.683	9.95361
637.576	11.3716
640.468	3.88855
643.361	15.865
646.254	31.1907
649.146	39.6063
652.039	1.495
654.932	27.7483
657.824	1.58386
660.717	31.6177
663.61	6.75427
666.503	2.65942
669.395	32.4261
672.288	4.60644
675.181	3.78491
678.073	21.3434
680.966	7.79407
683.859	6.76758
686.751	23.3242
689.644	21.9397
692.537	2.81995
695.43	23.3622
698.322	54.1417
701.215	58.8758
704.108	86.5648
707	35.1033
709.893	77.9861
712.786	114.153
715.678	201.181
718.571	382.405
721.464	651.024
724.357	955.144
727.249	1392.37
730.142	1440.08
733.035	683.278
735.927	368.23
738.82	291.593
741.713	324.803
744.606	306.976
747.498	292.029
750.391	225.396
753.284	121.976
756.176	79.9099
759.069	66.7593
761.962	53.3132
764.854	57.7627
767.747	51.6
770.64	29.2897
773.533	64.7383
776.425	18.7515
779.318	39.8363
782.211	12.0564
785.103	15.4276
787.996	16.4108
790.889	18.8702
793.781	28.7658
796.674	17.8422
799.567	45.8794
802.46	54.6331
805.352	119.238
808.245	158.88
811.138	206.432
814.03	273.507
816.923	400.457
819.816	458.842
822.708	472.791
825.601	307.487
828.494	141.663
831.386	88.3153
834.279	46.6686
837.172	17.4354
840.065	3.22485
842.957	18.0492
845.85	4.76636
848.743	38.9244
851.635	13.6611
854.528	55.9536
857.421	64.2759
860.313	49.0361
863.206	41.4238
866.099	5.59351
868.992	0.293457
871.884	16.8686
874.777	8.09399
877.67	25.9688
880.562	41.177
883.455	40.3821
886.348	77.2673
889.24	145.739
892.133	238.07
895.026	336.72
897.919	319.366
900.811	172.3
903.704	72.9746
906.597	43.2964
909.489	21.2295
912.382	29.3962
915.275	20.4561
918.168	61.6206
921.06	24.562
923.953	89.6738
926.846	139.583
929.738	180.51
932.631	168.66
935.524	165.734
938.416	105.809
941.309	88.3816
944.202	87.7527
947.095	85.3149
949.987	83.9092
952.88	77.3667
955.773	60.627
958.665	50.9202
961.558	29.4707
964.451	41.2634
967.343	28.4634
970.236	3.75098
973.129	11.4846
976.021	43.429
978.914	12.4031
981.807	18.2034
984.7	16.2918
987.592	35.8264
990.485	21.6499
993.378	47.929
996.27	28.7915
999.163	13.4451
1002.06	8.79199
1004.95	32.4807
1007.84	39.4495
1010.73	38.5483
1013.63	31.1687
1016.52	9.24268
1019.41	7.02148
1022.3	14.7312
1025.2	69.6741
1028.09	58.5574
1030.98	46.8284
1033.88	59.3235
1036.77	30.7466
1039.66	60.3674
1042.55	63.4443
1045.45	86.5337
1048.34	72.0779
1051.23	131.078
1054.12	152.085
1057.02	265.258
1059.91	428.037
1062.8	678.01
1065.69	827.319
1068.59	812.151
1071.48	754.165
1074.37	937.474
1077.27	1459.37
1080.16	2482.1
1083.05	4197.19
1085.94	6160.91
1088.84	7387.23
1091.73	7044.43
1094.62	5411.79
1097.52	3883.79
1100.41	2832.08
1103.3	2006.86
1106.19	1355.47
1109.09	937
1111.98	687.543
1114.87	479.601
1117.76	345.831
1120.66	209.496
1123.55	156
1126.44	106.164
1129.34	59.6467
1132.23	49.4324
1135.12	36.8872
1138.01	21.4917
1140.91	1.2041
1143.8	1.30127
1146.69	2.1687
1149.58	0.250488
1152.48	13.5784
1155.37	43.6477
1158.26	14.3838
1161.15	32.6616
1164.05	19.9002
1166.94	10.2971
1169.83	2.65356
1172.72	9.85523
1175.62	28.7278
1178.51	46.7092
1181.4	1.68603
1184.3	25.1055
1187.19	29.835
1190.08	54.7188
1192.97	20.1902
1195.87	39.5022
1198.76	8.92358
1201.65	17.2598
1204.55	41.6306
1207.44	16.0503
1210.33	24.0918
1213.22	2.06201
1216.12	39.3511
1219.01	57.8694
1221.9	72.6326
1224.79	58.4663
1227.69	9.65674
1230.58	24.0735
1233.47	26.761
1236.37	29.21
1239.26	69.5444
1242.15	61.404
1245.04	13.4443
1247.94	47.3232
1250.83	45.7874
1253.72	4.57007
1256.61	39.5034
1259.51	77.2163
1262.4	49.7986
1265.29	55.084
1268.18	27.481
1271.08	57.0791
1273.97	34.8835
1276.86	8.08008
1279.76	37.8135
1282.65	33.3621
1285.54	9.42773
1288.43	7.05859
