Measurement: Raman, 532 nm, unoriented, Raman Data Processed
Mineral: Dawsonite
Rruff sample: R050641
Ideal chemistry: NaAlCO_3_(OH)_2_
Locality: Francon Quarry, Montréal, Québec, Canada
Source: University of Arizona Mineral Museum
Description: Colorless acicular crystals
Measured chemistry: Na_1.00_Al_1.00_(CO_3_)(OH)_2_ ; trace amounts of Ti ; H_2_O assumed ideal 12.5%; CO_2_ by difference
Raman shift (cm-1)	intensity
142.332	0
145.707	43.7825
149.082	201.402
152.457	234.024
155.832	45.7903
159.207	4.11966
162.581	1.32388
165.956	9.96243
169.331	38.6575
172.706	80.955
176.081	130.049
179.455	181.228
182.83	253.321
186.205	367.022
189.58	428.651
192.955	270.812
196.329	117.082
199.704	62.2969
203.079	57.4453
206.454	67.2071
209.829	89.4373
213.204	134.976
216.578	176.783
219.953	129.852
223.328	41.4228
226.703	9.88696
230.078	0.307892
233.452	0.941101
236.827	12.0224
240.202	45.487
243.577	105.097
246.952	158.514
250.327	218.161
253.701	326.233
257.076	506.142
260.451	610.106
263.826	322.668
267.201	124.544
270.575	50.7981
273.95	26.512
277.325	14.4656
280.7	7.46884
284.075	5.39792
287.45	7.23135
290.825	6.84558
294.199	4.74802
297.574	1.01047
300.949	1.4325
304.324	2.22003
307.699	0.13327
311.073	1.06015
314.448	0.223572
317.823	0.725708
321.198	2.47729
324.573	1.63882
327.947	3.07086
331.322	5.06186
334.697	6.88425
338.072	9.50937
341.447	12.8207
344.822	21.2658
348.196	29.5689
351.571	40.4997
354.946	51.2562
358.321	61.585
361.696	54.5174
365.07	43.3585
368.445	29.6963
371.82	29.0604
375.195	26.4799
378.57	28.1722
381.945	36.2205
385.32	47.9783
388.694	44.9926
392.069	19.8671
395.444	11.5796
398.819	6.09579
402.194	5.09103
405.568	1.38294
408.943	0.548431
412.318	0.236023
415.693	2.74234
419.068	1.17197
422.442	2.55252
425.817	5.96518
429.192	5.56638
432.567	4.14398
435.942	7.37582
439.317	11.4644
442.691	9.6167
446.066	4.72659
449.441	2.04431
452.816	2.09018
456.191	1.99173
459.565	1.43533
462.94	2.62604
466.315	0.106964
469.69	0.493561
473.065	1.87036
476.44	0.295349
479.815	0.226654
483.189	0.527008
486.564	0.001434
489.939	0.386749
493.314	0.696716
496.688	4.11472
500.063	9.97226
503.438	24.7095
506.813	34.5374
510.188	46.0234
513.563	79.2346
516.938	105.549
520.312	66.1093
523.687	25.6865
527.062	10.1884
530.437	5.47607
533.812	3.52042
537.186	1.59268
540.561	2.55298
543.936	0.733673
547.311	5.27579
550.686	7.08258
554.061	5.51123
557.435	12.1043
560.81	20.0679
564.185	32.684
567.56	55.7321
570.935	100.29
574.309	176.319
577.684	269.799
581.059	387.791
584.434	554.406
587.809	665.12
591.183	483.538
594.558	215.623
597.933	100.652
601.308	59.8869
604.683	37.7091
608.058	26.0331
611.433	17.7742
614.807	10.9051
618.182	6.88776
621.557	5.1647
624.932	6.96436
628.307	1.73929
631.681	3.19665
635.056	1.52261
638.431	0.390045
641.806	0.941467
645.181	0.069916
648.556	0.328552
651.93	1.34808
655.305	0.768829
658.68	0.203094
662.055	0.379089
665.43	2.10053
668.804	0.221588
672.179	0.514954
675.554	0.903564
678.929	0.199341
682.304	1.53607
685.678	3.12326
689.053	6.05374
692.428	3.75589
695.803	2.23651
699.178	6.2836
702.553	8.80679
705.927	8.79605
709.302	12.6764
712.677	24.125
716.052	45.5898
719.427	67.1176
722.802	95.9085
726.176	157.2
729.551	211.708
732.926	112.106
736.301	61.3193
739.676	59.8612
743.051	68.0298
746.425	66.7693
749.8	44.0302
753.175	25.7008
756.55	11.3957
759.925	8.05359
763.299	8.36322
766.674	2.8259
770.049	3.13315
773.424	4.43536
776.799	0.765381
780.173	1.02225
783.548	0.133728
786.923	1.14334
790.298	2.19598
793.673	1.24228
797.048	1.02042
800.422	3.3627
803.797	0.282196
807.172	7.19183
810.547	6.95654
813.922	15.7685
817.297	19.137
820.671	24.2165
824.046	22.2611
827.421	12.4632
830.796	8.46002
834.171	3.60684
837.545	1.25794
840.92	3.62332
844.295	0.458862
847.67	1.4581
851.045	1.25101
854.42	4.22244
857.794	0.631927
861.169	0.303589
864.544	2.19461
867.919	0.153748
871.294	1.45853
874.668	2.38773
878.043	3.0802
881.418	4.39774
884.793	5.23251
888.168	5.17389
891.543	12.8685
894.917	20.2903
898.292	15.2948
901.667	11.4549
905.042	7.89584
908.417	5.66794
911.792	5.71454
915.166	8.80908
918.541	11.3271
921.916	17.093
925.291	23.4795
928.666	26.8872
932.04	29.3197
935.415	29.5802
938.79	22.7423
942.165	17.1565
945.54	8.5314
948.915	6.14804
952.289	5.42444
955.664	3.63596
959.039	3.41067
962.414	3.5701
965.789	1.10352
969.163	1.83264
972.538	0.588562
975.913	0.947113
979.288	2.323
982.663	0.248383
986.038	0.632721
989.412	0.954407
992.787	0.107452
996.162	1.48215
999.537	2.90784
1002.91	0.624481
1006.29	1.68073
1009.66	1.55814
1013.04	0.412964
1016.41	1.39337
1019.79	1.05414
1023.16	2.94363
1026.54	1.47671
1029.91	2.64102
1033.29	7.9733
1036.66	6.65659
1040.04	12.8491
1043.41	18.2202
1046.78	16.5997
1050.16	20.5107
1053.53	39.9363
1056.91	60.5271
1060.28	97.1628
1063.66	153.972
1067.03	187.946
1070.41	164.901
1073.78	183.417
1077.16	297.408
1080.53	498.63
1083.91	795.133
1087.28	1161.43
1090.66	1313.92
1094.03	1033.55
1097.41	701.462
1100.78	485.472
1104.16	318.77
1107.53	207.537
1110.91	131.639
1114.28	86.0359
1117.66	55.033
1121.03	36.0425
1124.4	22.8047
1127.78	17.8239
1131.15	9.00665
1134.53	7.59103
1137.9	5.72714
1141.28	2.6254
1144.65	3.00095
1148.03	0.073242
1151.4	0.77475
1154.78	1.28943
1158.15	0.174835
1161.53	0.634918
1164.9	0.110352
1168.28	0.353394
1171.65	1.64401
1175.03	3.0524
1178.4	0.040802
1181.78	0.104431
1185.15	5.49258
1188.53	5.42813
1191.9	5.12033
1195.28	5.04013
1198.65	4.10153
1202.03	5.57346
1205.4	5.00116
1208.78	5.98587
1212.15	1.90289
1215.53	5.69452
1218.9	5.05426
1222.28	3.68628
1225.65	3.11075
1229.03	0.658142
1232.4	2.81708
1235.77	2.58234
1239.15	1.58063
1242.52	4.91742
1245.9	4.63593
1249.27	7.54462
1252.65	0.443542
1256.02	3.66797
1259.4	6.0224
1262.77	2.68634
1266.15	4.53912
1269.52	6.30859
1272.9	7.64423
1276.27	5.76355
1279.65	3.92157
1283.02	2.16901
1286.4	3.40588
1289.77	3.86963
1293.15	3.52576
1296.52	0.425293
1299.9	2.18726
