Measurement: Raman, 532 nm, unoriented, Raman Data Processed
Mineral: Dawsonite
Rruff sample: R120093
Ideal chemistry: NaAlCO_3_(OH)_2_
Locality: Francon Quarry, Montréal, Québec, Canada
Source: Don Doell
Description: Colorless short prismatic crystals associated with calcite, orthoclase, strontiodresserite and quartz
Raman shift (cm-1)	intensity
157.024	0
159.917	3.0237
162.81	0.988472
165.702	1.51555
168.595	25.4832
171.488	71.9262
174.381	129.294
177.273	181.577
180.166	231.001
183.059	302.916
185.951	418.222
188.844	544.257
191.737	543.915
194.629	360.13
197.522	207.392
200.415	142.404
203.308	121.43
206.2	118.73
209.093	127.214
211.986	156.877
214.878	210.893
217.771	272.518
220.664	228.71
223.556	116.758
226.449	60.4381
229.342	35.3917
232.234	26.5174
235.127	23.7725
238.02	29.2111
240.913	46.0567
243.805	78.4827
246.698	105.037
249.591	134.573
252.483	168.456
255.376	230.058
258.269	314.48
261.161	341.228
264.054	201.28
266.947	89.5264
269.84	44.2381
272.732	26.3987
275.625	15.219
278.518	9.7441
281.41	5.53541
284.303	5.63228
287.196	4.04316
290.089	4.31681
292.981	1.67442
295.874	0.40966
298.767	0.246872
301.659	2.75423
304.552	1.57259
307.445	1.92854
310.337	2.92446
313.23	1.01385
316.123	0.291
319.015	0.691521
321.908	0.573364
324.801	0.301186
327.694	1.34593
330.586	1.99844
333.479	2.84836
336.372	4.17966
339.264	6.93318
342.157	7.93307
345.05	9.31172
347.942	11.8963
350.835	15.9218
353.728	20.7344
356.621	24.3788
359.513	26.2995
362.406	23.3216
365.299	22.2468
368.191	20.0275
371.084	23.2718
373.977	27.7803
376.87	32.9321
379.762	40.801
382.655	52.4552
385.548	70.1305
388.44	73.1472
391.333	46.3781
394.226	21.1365
397.118	11.6484
400.011	7.26491
402.904	4.26053
405.796	2.82757
408.689	1.6488
411.582	3.40835
414.475	1.51059
417.367	1.40346
420.26	0.149864
423.153	0.896515
426.045	3.23969
428.938	5.10802
431.831	7.59927
434.724	8.70042
437.616	13.0137
440.509	13.6715
443.402	14.3843
446.294	10.2713
449.187	6.37927
452.08	4.33363
454.972	4.4663
457.865	5.36092
460.758	3.70368
463.651	4.28291
466.543	3.71455
469.436	1.05494
472.329	1.32659
475.221	0.12748
478.114	0.474159
481.007	0.198914
483.899	0.131546
486.792	0.761719
489.685	0.175835
492.577	0.173012
495.47	0.725655
498.363	4.05592
501.256	6.9698
504.148	13.0191
507.041	18.6893
509.934	27.2706
512.826	37.1299
515.719	50.0363
518.612	52.5271
521.505	29.2357
524.397	13.2923
527.29	7.52449
530.183	3.9099
533.075	1.81348
535.968	2.61343
538.861	0.683144
541.753	0.54377
544.646	0.992935
547.539	2.89236
550.432	3.57821
553.324	4.54009
556.217	8.22006
559.11	11.3829
562.002	15.9085
564.895	24.6031
567.788	36.3332
570.68	61.3322
573.573	97.8849
576.466	141.325
579.359	190.276
582.251	251.805
585.144	326.33
588.037	371.933
590.929	296.254
593.822	159.444
596.715	80.5021
599.607	47.3118
602.5	29.1403
605.393	20.7488
608.285	16.447
611.178	10.315
614.071	7.39772
616.964	4.03839
619.856	2.58148
622.749	2.35209
625.642	1.16336
628.534	0.342934
631.427	1.1643
634.32	0.692947
637.212	0.100983
640.105	0.0271
642.998	0.365608
645.891	0.550552
648.783	0.14064
651.676	0.094421
654.569	0.303688
657.461	0.113884
660.354	0.635017
663.247	0.436386
666.139	0.693909
669.032	0.673515
671.925	0.638664
674.818	0.31765
677.71	0.11277
680.603	0.866135
683.496	1.01102
686.388	1.20328
689.281	0.967743
692.174	1.3013
695.067	1.13583
697.959	2.46036
700.852	2.32014
703.745	2.01354
706.637	3.52335
709.53	5.16219
712.423	5.98119
715.315	10.7231
718.208	16.2118
721.101	22.9679
723.994	33.2338
726.886	51.0704
729.779	68.0224
732.672	49.1519
735.564	29.3037
738.457	25.1269
741.35	29.2618
744.242	33.6112
747.135	34.0634
750.028	24.7474
752.92	13.8768
755.813	8.039
758.706	3.96272
761.599	2.30652
764.491	1.38654
767.384	0.420952
770.277	2.7053
773.169	1.4166
776.062	0.536751
778.955	0.733299
781.847	0.99453
784.74	0.168915
787.633	1.43181
790.526	0.179367
793.418	1.71872
796.311	2.08461
799.204	1.15373
802.096	3.90762
804.989	4.45605
807.882	8.4211
810.774	12.7548
813.667	18.4962
816.56	26.3522
819.453	33.3798
822.345	37.5841
825.238	29.804
828.131	15.2095
831.023	6.72951
833.916	3.09596
836.809	1.9505
839.702	1.43986
842.594	0.774101
845.487	0.164429
848.38	0.771492
851.272	0.160805
854.165	0.165771
857.058	1.07382
859.95	1.38621
862.843	2.26688
865.736	0.708305
868.629	0.543869
871.521	0.489319
874.414	1.90359
877.307	2.15941
880.199	2.0227
883.092	3.90809
885.985	8.01849
888.877	13.1585
891.77	17.7672
894.663	26.0435
897.556	31.2137
900.448	21.063
903.341	10.6332
906.234	5.22872
909.126	4.3066
912.019	4.11024
914.912	2.37432
917.804	3.35728
920.697	4.67789
923.59	5.51225
926.482	6.79345
929.375	9.23208
932.268	10.8275
935.161	10.5154
938.053	7.40926
940.946	5.52431
943.839	3.56786
946.731	2.9186
949.624	2.46858
952.517	2.25004
955.409	1.90282
958.302	1.53204
961.195	0.561279
964.088	0.651077
966.98	0.38044
969.873	1.90605
972.766	0.121895
975.658	0.201744
978.551	0.908836
981.444	0.256081
984.337	0.323082
987.229	0.656273
990.122	0.580399
993.015	0.333733
995.907	1.19112
998.8	0.409531
1001.69	0.800316
1004.59	0.346413
1007.48	0.140442
1010.37	2.14537
1013.26	0.54705
1016.16	0.072639
1019.05	0.050583
1021.94	0.966942
1024.83	0.790779
1027.73	0.757004
1030.62	2.62104
1033.51	4.07229
1036.4	4.47578
1039.3	5.28217
1042.19	6.55454
1045.08	7.41661
1047.98	8.67277
1050.87	13.3692
1053.76	19.2354
1056.65	32.6823
1059.55	45.0676
1062.44	66.3646
1065.33	92.499
1068.22	98.7463
1071.12	85.1509
1074.01	88.1693
1076.9	125.63
1079.8	195.014
1082.69	294.578
1085.58	420.761
1088.47	552.922
1091.37	593.491
1094.26	486.325
1097.15	354.894
1100.04	255.633
1102.94	184.63
1105.83	128.935
1108.72	88.9565
1111.62	62.0024
1114.51	44.1489
1117.4	29.9281
1120.29	20.8635
1123.19	14.789
1126.08	9.95938
1128.97	7.04585
1131.86	5.44153
1134.76	3.28461
1137.65	1.59834
1140.54	0.183449
1143.43	1.80069
1146.33	0.178871
1149.22	1.02389
1152.11	0.29628
1155.01	0.909592
1157.9	1.65214
1160.79	0.079788
1163.68	0.471298
1166.58	0.873909
1169.47	0.341225
1172.36	0.332664
1175.26	0.341736
1178.15	0.426765
1181.04	1.19573
1183.93	1.43784
1186.83	1.1142
1189.72	0.998024
1192.61	2.48377
1195.5	1.268
1198.4	3.30798
1201.29	1.68695
1204.18	1.56598
1207.07	2.21333
1209.97	3.61439
1212.86	2.82323
1215.75	1.92977
1218.64	1.24306
1221.54	1.61961
1224.43	0.618347
1227.32	0.063133
1230.22	1.21114
1233.11	0.435966
1236	1.38749
1238.89	0.291779
1241.79	0.449997
1244.68	1.68349
1247.57	0.355721
1250.46	0.156151
1253.36	0.809456
1256.25	1.20661
1259.14	0.989174
1262.04	0.989311
1264.93	1.27716
1267.82	1.20267
1270.71	0.089653
1273.61	2.15595
1276.5	2.18649
1279.39	0.48143
1282.29	0.10688
1285.18	1.15563
1288.07	1.21527
1290.96	0.29763
1293.86	1.54358
1296.75	1.4648
1299.64	1.5049
1302.53	0.283775
