Measurement: Raman, 780 nm, unoriented, Raman Data Processed
Mineral: Dawsonite
Rruff sample: R050641
Ideal chemistry: NaAlCO_3_(OH)_2_
Locality: Francon Quarry, Montréal, Québec, Canada
Source: University of Arizona Mineral Museum
Description: Colorless acicular crystals
Measured chemistry: Na_1.00_Al_1.00_(CO_3_)(OH)_2_ ; trace amounts of Ti ; H_2_O assumed ideal 12.5%; CO_2_ by difference
Raman shift (cm-1)	intensity
117.095	0
120.47	0.256134
123.845	2.47824
127.22	9.59148
130.595	27.9873
133.97	24.5605
137.344	9.05658
140.719	6.54025
144.094	10.1928
147.469	17.3319
150.844	37.1851
154.218	9.10547
157.593	0.248764
160.968	0.037888
164.343	6.43358
167.718	18.5511
171.093	36.3959
174.467	54.9441
177.842	83.9978
181.217	131.779
184.592	209.942
187.966	317.075
191.341	306.667
194.716	152.874
198.091	66.651
201.466	36.274
204.841	23.3737
208.215	22.5445
211.59	32.8021
214.965	58.7503
218.34	87.2786
221.715	46.9433
225.089	15.8589
228.464	3.80232
231.839	0.930328
235.214	0.639755
238.589	2.3497
241.964	9.48438
245.338	17.1703
248.713	25.1303
252.088	41.3697
255.463	68.5382
258.838	111.296
262.212	92.0746
265.587	36.0542
268.962	15.0551
272.337	6.7845
275.712	3.76393
279.087	2.34283
282.461	1.83728
285.836	3.75624
289.211	1.1671
292.586	0.766037
295.961	0.35582
299.335	0.083786
302.71	0.326202
306.085	0.549683
309.46	0.905548
312.835	1.38881
316.209	0.775055
319.584	0.920486
322.959	1.74223
326.334	0.132439
329.709	1.39644
333.084	2.05088
336.458	3.38539
339.833	2.42518
343.208	3.39888
346.583	5.31774
349.958	7.52943
353.332	9.76391
356.707	11.8122
360.082	12.7994
363.457	10.2445
366.832	6.29856
370.207	5.57426
373.581	6.70164
376.956	10.0585
380.331	13.6756
383.706	20.0989
387.081	27.5996
390.455	21.0076
393.83	7.36571
397.205	3.52284
400.58	1.98729
403.955	1.08263
407.329	1.22253
410.704	0.453613
414.079	0.422531
417.454	1.96737
420.829	1.77835
424.204	2.71927
427.578	2.1357
430.953	3.77493
434.328	2.60688
437.703	4.77682
441.078	7.19324
444.452	4.21852
447.827	2.02075
451.202	2.18519
454.577	1.29243
457.952	0.305229
461.327	2.18289
464.701	1.39155
468.076	0.543579
471.451	1.90892
474.826	1.53605
478.201	0.038788
481.575	1.25645
484.95	1.51556
488.325	0.358383
491.7	1.87038
495.075	0.488556
498.45	1.03017
501.824	2.12315
505.199	4.05324
508.574	3.946
511.949	5.63064
515.323	10.8861
518.698	9.78488
522.073	2.89424
525.448	2.92628
528.823	0.09227
532.198	0.102547
535.572	0.67865
538.947	0.11911
542.322	0.238411
545.697	0.483101
549.072	0.965561
552.447	1.14842
555.821	2.41157
559.196	2.14622
562.571	3.88921
565.946	6.82304
569.321	11.5499
572.695	20.6079
576.07	33.1835
579.445	49.0521
582.82	75.6404
586.195	113.233
589.569	117.348
592.944	60.6777
596.319	25.133
599.694	14.2038
603.069	8.36713
606.443	6.57285
609.818	4.66875
613.193	3.68911
616.568	1.84093
619.943	2.47177
623.318	2.22736
626.692	2.08074
630.067	1.09436
633.442	0.11042
636.817	0.794266
640.192	0.466476
643.567	0.146385
646.941	0.946426
650.316	1.04799
653.691	1.17497
657.066	0.609657
660.441	1.28905
663.815	0.420151
667.19	0.103783
670.565	0.468987
673.94	0.712692
677.315	1.32251
680.689	0.316246
684.064	1.27048
687.439	0.799606
690.814	0.294731
694.189	1.12665
697.563	1.46989
700.938	1.0845
704.313	1.71536
707.688	2.6048
711.063	3.53261
714.438	8.24544
717.812	11.7782
721.187	15.0307
724.562	22.6987
727.937	34.1934
731.312	28.6961
734.687	11.2599
738.061	7.9218
741.436	8.76956
744.811	9.5948
748.186	7.94247
751.561	5.10733
754.935	2.01832
758.31	1.46969
761.685	1.37357
765.06	1.06746
768.435	1.04185
771.809	0.088089
775.184	0.928307
778.559	0.656746
781.934	0.040771
785.309	0.412056
788.683	1.53273
792.058	0.800911
795.433	1.57953
798.808	2.52452
802.183	1.60558
805.558	1.62137
808.932	5.04807
812.307	5.07959
815.682	6.92282
819.057	11.6958
822.432	12.7083
825.807	9.12942
829.181	5.09971
832.556	2.9813
835.931	1.77138
839.306	1.23428
842.681	1.70802
846.055	0.020523
849.43	0.612015
852.805	0.546494
856.18	0.557007
859.555	0.791611
862.929	1.12612
866.304	0.989021
869.679	0.829002
873.054	1.08617
876.429	1.81983
879.803	2.626
883.178	1.01857
886.553	2.90033
889.928	2.76794
893.303	5.94199
896.678	9.93271
900.052	6.15933
903.427	2.34073
906.802	0.472687
910.177	0.999329
913.552	1.57516
916.927	2.07716
920.301	0.544167
923.676	3.62807
927.051	3.78947
930.426	4.61955
933.801	5.23902
937.175	4.1981
940.55	2.95723
943.925	1.05472
947.3	1.98634
950.675	0.540779
954.049	1.0248
957.424	1.05631
960.799	2.40231
964.174	1.21218
967.549	0.479233
970.923	0.608925
974.298	0.364929
977.673	4.51846
981.048	0.499397
984.423	0.505257
987.798	0.567894
991.172	1.52861
994.547	0.885994
997.922	0.338921
1001.3	0.104622
1004.67	1.24754
1008.05	0.339661
1011.42	0.349495
1014.8	0.731995
1018.17	1.41821
1021.55	0.193184
1024.92	0.619003
1028.3	1.38792
1031.67	0.504982
1035.05	1.49042
1038.42	0.865456
1041.8	2.0489
1045.17	4.03892
1048.54	2.77921
1051.92	3.77803
1055.29	5.93397
1058.67	8.48333
1062.04	12.3693
1065.42	18.9167
1068.79	18.3317
1072.17	19.1562
1075.54	28.5779
1078.92	48.4085
1082.29	79.4026
1085.67	124.844
1089.04	167.527
1092.42	156.537
1095.79	110.431
1099.17	74.6686
1102.54	50.8705
1105.92	31.9586
1109.29	20.0896
1112.67	13.9813
1116.04	9.30071
1119.41	5.65144
1122.79	2.90125
1126.16	2.30222
1129.54	1.79252
1132.91	1.52467
1136.29	0.284607
1139.66	0.410439
1143.04	1.29022
1146.41	0.306671
1149.79	0.110928
1153.16	0.727535
1156.54	0.475147
1159.91	0.246197
1163.29	0.906048
1166.66	1.75489
1170.04	0.142502
1173.41	0.675358
1176.79	0.822926
1180.16	1.71449
1183.54	2.33259
1186.91	1.92302
1190.29	2.19107
1193.66	1.59193
1197.04	1.64363
1200.41	2.56101
1203.79	0.489662
1207.16	1.50245
1210.54	1.04001
1213.91	0.997997
1217.29	1.11975
1220.66	2.58922
1224.04	2.88174
1227.41	0.53978
1230.78	1.72909
1234.16	1.3435
1237.53	0.582081
1240.91	1.90323
1244.28	1.20613
1247.66	2.00016
1251.03	2.51135
1254.41	0.926167
1257.78	1.01436
1261.16	2.15517
1264.53	0.513214
1267.91	1.01609
1271.28	1.50523
1274.66	1.17396
1278.03	1.60961
1281.41	1.39834
1284.78	1.06384
