Measurement: Raman, 785 nm, unoriented, Raman Data Processed
Mineral: Dawsonite
Rruff sample: R050645
Ideal chemistry: NaAlCO_3_(OH)_2_
Locality: Cerro Sapo, Cochabamba Department, Bolivia
Source: Marcus Origlieri
Description: White fibrous aggregates associated with blue sodalite on pale green ankerite.
Measured chemistry: Na_1.00_(Al_0.99_Fe^3+^_0.01_)_Î£=1_CO_3_(OH)_2_
Raman shift (cm-1)	intensity
90.522	0
93.897	12.476
97.272	5.921
100.647	28.745
104.021	55.03
107.396	0.241
110.771	1.657
114.146	0.365
117.521	53.803
120.896	87.252
124.27	129.75
127.645	138.44
131.02	157.978
134.395	161.72
137.77	128.591
141.144	127.912
144.519	162.928
147.894	271.077
151.269	402.996
154.644	223.306
158.018	79.491
161.393	67.598
164.768	68.955
168.143	89.963
171.518	112.77
174.893	157.234
178.267	319.377
181.642	621.294
185.017	1154.35
188.392	1816.06
191.767	2102.8
195.141	1264.05
198.516	531.282
201.891	242.853
205.266	114.357
208.641	139.65
212.016	328.292
215.39	583.507
218.765	819.064
222.14	548.131
225.515	164.405
228.89	88.975
232.264	24.858
235.639	23.515
239.014	5.715
242.389	7.532
245.764	17.542
249.139	122.664
252.513	249.145
255.888	580.946
259.263	976.058
262.638	1045.28
266.013	429.572
269.387	163.884
272.762	94.184
276.137	43.176
279.512	14.343
282.887	43.102
286.262	45.802
289.636	8.761
293.011	11.887
296.386	12.005
299.761	8.2
303.136	5.025
306.51	6.143
309.885	6.335
313.26	5.641
316.635	1.789
320.01	5.366
323.384	4.93
326.759	11.413
330.134	10.639
333.509	5.788
336.884	2.107
340.259	39.412
343.633	10.86
347.008	37.202
350.383	61.054
353.758	48.147
357.133	102.976
360.508	116.985
363.882	88.892
367.257	84.422
370.632	45.05
374.007	43.625
377.382	67.076
380.756	124.62
384.131	168.563
387.506	232.123
390.881	200.981
394.256	92.714
397.63	36.488
401.005	21.186
404.38	28.625
407.755	29.245
411.13	4.968
414.504	0.154
417.879	42.788
421.254	7.146
424.629	48.247
428.004	19.552
431.379	2.194
434.753	28.716
438.128	37.285
441.503	63.342
444.878	64.221
448.253	37.368
451.628	33.085
455.002	17.821
458.377	3.779
461.752	35.007
465.127	27.265
468.502	25.919
471.876	12.562
475.251	31.878
478.626	10.469
482.001	29.319
485.376	17.023
488.75	7.975
492.125	7.227
495.5	4.292
498.875	2.075
502.25	12.473
505.625	39.532
508.999	43.221
512.374	80.01
515.749	147.207
519.124	169.222
522.499	89.864
525.873	26.415
529.248	28.505
532.623	13.344
535.998	22.147
539.373	36.388
542.748	17.876
546.122	25.77
549.497	2.341
552.872	2.287
556.247	11.284
559.622	32.178
562.997	39.215
566.371	59.966
569.746	66.217
573.121	106.761
576.496	187.891
579.87	358.274
583.245	630.003
586.62	1056.01
589.995	1280.81
593.37	781.98
596.745	323.088
600.119	162.274
603.494	132.502
606.869	76.264
610.244	63.429
613.619	51.848
616.994	18.079
620.368	22.844
623.743	26.312
627.118	12.745
630.493	0.786
633.868	18.998
637.242	24.711
640.617	2.816
643.992	26.231
647.367	6.899
650.742	9.771
654.117	40.007
657.491	9.878
660.866	6.662
664.241	23.61
667.616	12.933
670.991	24.519
674.365	16.169
677.74	7.344
681.115	27.914
684.49	9.326
687.865	17.351
691.24	33.792
694.614	2.123
697.989	23.122
701.364	32.128
704.739	33.778
708.114	56.86
711.488	28.406
714.863	21.932
718.238	37.472
721.613	118.706
724.988	196.903
728.362	369.447
731.737	428.773
735.112	171.762
738.487	118.543
741.862	101.919
745.237	91.952
748.611	117.418
751.986	94.917
755.361	53.556
758.736	29.294
762.111	12.865
765.485	31.738
768.86	4.327
772.235	34.561
775.61	33.275
778.985	0.284
782.36	26.826
785.734	26.324
789.109	2.354
792.484	9.138
795.859	19.041
799.234	33.543
802.609	14.708
805.983	8.67
809.358	43.944
812.733	43.48
816.108	80.289
819.482	88.088
822.857	124.028
826.232	100.232
829.607	77.158
832.982	126.624
836.357	31.276
839.731	26.022
843.106	11.567
846.481	23.125
849.856	40.482
853.231	8.452
856.606	2.936
859.98	32.356
863.355	19.154
866.73	17.019
870.105	12.941
873.48	35.593
876.854	18.467
880.229	38.964
883.604	8.536
886.979	35.033
890.354	41.735
893.729	82.43
897.103	100.101
900.478	99.259
903.853	81.573
907.228	12.707
910.602	15.535
913.977	40.925
917.352	45.535
920.727	22.759
924.102	57.35
927.477	1.816
930.851	38.946
934.226	80.818
937.601	51.871
940.976	26.251
944.351	88.363
947.726	13.049
951.1	22.423
954.475	22.504
957.85	14.691
961.225	9.998
964.6	36.031
967.974	11.711
971.349	3.953
974.724	10.937
978.099	15.781
981.474	13.554
984.849	47.735
988.223	18.764
991.598	21.557
994.973	24.256
998.348	17.425
1001.72	26.716
1005.1	11.602
1008.47	2.512
1011.85	15.532
1015.22	3.314
1018.6	34.045
1021.97	14.506
1025.35	2.549
1028.72	1.515
1032.1	21.519
1035.47	16.301
1038.85	51.711
1042.22	53.735
1045.6	25.613
1048.97	21.12
1052.35	32.074
1055.72	46.868
1059.09	56.684
1062.47	97.657
1065.84	177.503
1069.22	169.324
1072.59	107.687
1075.97	186.4
1079.34	247.461
1082.72	529.076
1086.09	1000.32
1089.47	1549.32
1092.84	1516.19
1096.22	1095.63
1099.59	760.567
1102.97	502.435
1106.34	332.579
1109.72	287.63
1113.09	160.775
1116.47	82.658
1119.84	72.075
1123.22	12.799
1126.59	38.65
1129.97	16.615
1133.34	41.797
1136.71	1.233
1140.09	18.436
1143.46	22.394
1146.84	13.222
1150.21	21.505
1153.59	4.215
1156.96	7.624
1160.34	36.323
1163.71	15.018
1167.09	33.27
1170.46	3.865
1173.84	0.517
1177.21	45.68
1180.59	8.623
1183.96	46.597
1187.34	3.013
1190.71	41.747
1194.09	52.427
1197.46	17.992
1200.84	30.944
1204.21	47.704
1207.59	37.303
1210.96	29.69
1214.34	44.202
1217.71	21.333
1221.09	10.449
1224.46	32.777
1227.84	18.184
1231.21	24.186
1234.59	35.758
1237.96	12.809
1241.34	37.501
1244.71	20.641
1248.08	27.26
1251.46	32.702
1254.83	33.968
1258.21	45.87
1261.58	32.677
1264.96	26.201
1268.33	8.199
1271.71	0.707
