Measurement: Raman, 780 nm, unoriented, Raman Data Processed
Mineral: Dawsonite
Rruff sample: R120093
Ideal chemistry: NaAlCO_3_(OH)_2_
Locality: Francon Quarry, Montréal, Québec, Canada
Source: Don Doell
Description: Colorless short prismatic crystals associated with calcite, orthoclase, strontiodresserite and quartz
Raman shift (cm-1)	intensity
122.459	0
125.834	3.90936
129.209	28.2522
132.583	63.8547
135.958	29.1082
139.333	2.43504
142.708	1.63499
146.083	4.87276
149.458	27.9702
152.832	40.2909
156.207	8.16106
159.582	8.53256
162.957	27.4592
166.332	65.7508
169.706	130.777
173.081	213.733
176.456	291.784
179.831	398.771
183.206	546.588
186.581	742.557
189.955	899.919
193.33	703.814
196.705	336.688
200.08	156.58
203.455	90.9345
206.829	64.2024
210.204	65.2446
213.579	83.1211
216.954	129.849
220.329	136.69
223.703	54.1953
227.078	11.2482
230.453	2.36778
233.828	1.69412
237.203	4.32362
240.578	28.6057
243.952	63.737
247.327	90.1068
250.702	125.569
254.077	178.781
257.452	264.874
260.827	345.151
264.201	213.997
267.576	81.7501
270.951	33.5773
274.326	15.8705
277.701	6.93604
281.075	3.4316
284.45	0.749786
287.825	2.87093
291.2	2.76645
294.575	0.162735
297.95	0.855988
301.324	1.08107
304.699	1.39836
308.074	0.155167
311.449	0.38707
314.824	1.8788
318.198	1.40623
321.573	3.46474
324.948	3.41193
328.323	5.60199
331.698	5.1832
335.072	6.97347
338.447	9.24934
341.822	11.3873
345.197	13.4587
348.572	16.6477
351.947	21.6223
355.321	23.4187
358.696	25.801
362.071	24.1112
365.446	20.6856
368.821	19.8037
372.195	24.5036
375.57	30.0197
378.945	36.3203
382.32	51.3396
385.695	70.9463
389.07	79.4754
392.444	45.6694
395.819	17.9505
399.194	7.61085
402.569	4.53133
405.944	2.66321
409.318	0.733871
412.693	0.120422
416.068	1.0202
419.443	0.328476
422.818	0.392807
426.192	2.89738
429.567	4.71622
432.942	7.49735
436.317	10.5381
439.692	14.6731
443.067	15.3109
446.441	12.0881
449.816	7.09219
453.191	4.66444
456.566	3.33653
459.941	3.14401
463.315	3.79305
466.69	0.825714
470.065	2.00355
473.44	1.12433
476.815	0.009552
480.19	0.536484
483.564	0.735458
486.939	1.3226
490.314	1.28612
493.689	0.134949
497.064	1.84679
500.438	2.2036
503.813	3.84941
507.188	6.76723
510.563	8.91461
513.938	14.8918
517.313	20.9116
520.687	14.6414
524.062	5.16242
527.437	3.20332
530.812	2.71464
534.187	1.92514
537.562	1.29865
540.936	1.69958
544.311	2.72659
547.686	3.01077
551.061	4.30206
554.436	6.89034
557.81	8.85318
561.185	15.7875
564.56	21.9028
567.935	38.0663
571.31	69.2864
574.684	115.066
578.059	161.029
581.434	220.77
584.809	311.718
588.184	389.298
591.558	300.746
594.933	138.799
598.308	64.9595
601.683	37.4084
605.058	24.0286
608.433	15.6321
611.807	12.6495
615.182	7.12219
618.557	3.99104
621.932	4.09288
625.307	2.91505
628.682	4.03536
632.056	2.09302
635.431	1.15564
638.806	2.48184
642.181	0.266281
645.556	2.24416
648.93	0.697693
652.305	0.486328
655.68	1.5217
659.055	0.088242
662.43	0.908722
665.804	1.2421
669.179	0.961914
672.554	0.454056
675.929	1.48445
679.304	1.99216
682.679	0.121658
686.053	1.3241
689.428	1.07863
692.803	1.94359
696.178	1.70911
699.553	2.96942
702.928	2.15572
706.302	1.88307
709.677	4.54631
713.052	4.60109
716.427	11.0478
719.802	12.7049
723.176	20.082
726.551	29.9283
729.926	46.5972
733.301	30.516
736.676	13.1365
740.051	12.4714
743.425	15.5656
746.8	15.5325
750.175	12.7786
753.55	3.68359
756.925	2.79175
760.299	3.92203
763.674	0.940247
767.049	1.00429
770.424	0.356064
773.799	0.137833
777.173	0.972778
780.548	0.655807
783.923	1.79083
787.298	0.362473
790.673	0.743042
794.048	1.25572
797.422	0.978653
800.797	3.47046
804.172	3.02122
807.547	9.9216
810.922	15.0096
814.296	19.1318
817.671	27.5726
821.046	37.0274
824.421	37.0316
827.796	20.835
831.17	9.1228
834.545	5.7572
837.92	3.68083
841.295	1.43159
844.67	1.65781
848.045	0.694275
851.419	1.668
854.794	0.61557
858.169	0.881653
861.544	0.121933
864.919	0.620972
868.293	1.03885
871.668	0.241028
875.043	1.90826
878.418	1.58693
881.793	2.64281
885.168	8.40523
888.542	11.8434
891.917	17.743
895.292	25.4413
898.667	31.7462
902.042	16.5124
905.417	7.14175
908.791	3.16968
912.166	3.82759
915.541	2.35819
918.916	4.32665
922.291	3.50282
925.665	4.9366
929.04	7.2641
932.415	8.64438
935.79	7.58748
939.165	5.38042
942.539	2.99849
945.914	2.7572
949.289	1.77595
952.664	2.10904
956.039	2.08247
959.414	2.83247
962.788	1.58319
966.163	1.86079
969.538	0.805237
972.913	1.16092
976.288	0.273575
979.663	0.270767
983.037	1.91455
986.412	1.6461
989.787	0.381668
993.162	0.51181
996.537	1.97766
999.911	0.864655
1003.29	0.960236
1006.66	0.507095
1010.04	0.99295
1013.41	1.46147
1016.78	1.3694
1020.16	0.459991
1023.53	2.36961
1026.91	1.35941
1030.29	2.12576
1033.66	1.24422
1037.03	2.05351
1040.41	2.74706
1043.78	3.19963
1047.16	3.6342
1050.53	5.9131
1053.91	9.14725
1057.28	14.989
1060.66	21.321
1064.03	30.7649
1067.41	45.4076
1070.78	45.2086
1074.16	57.3272
1077.53	95.5137
1080.91	156.306
1084.28	249.026
1087.66	369.676
1091.03	436.849
1094.41	366.775
1097.78	248.151
1101.16	171.262
1104.53	117.023
1107.91	76.9245
1111.28	50.4406
1114.65	31.0756
1118.03	20.8102
1121.4	14.0939
1124.78	7.82716
1128.15	4.80131
1131.53	4.36424
1134.9	2.43857
1138.28	0.807602
1141.65	1.31367
1145.03	0.660629
1148.4	1.86159
1151.78	1.93955
1155.15	1.06706
1158.53	0.186203
1161.9	0.737061
1165.28	0.148514
1168.65	1.11754
1172.03	2.22611
1175.4	1.37338
1178.78	2.32341
1182.15	2.92227
1185.53	0.616119
1188.9	1.88269
1192.28	2.73622
1195.65	4.48746
1199.03	4.0753
1202.4	3.0952
1205.78	2.60481
1209.15	4.41811
1212.53	4.30989
1215.9	3.73646
1219.27	2.37744
1222.65	2.22351
1226.02	2.00671
1229.4	1.12318
1232.77	0.039093
1236.15	0.601028
1239.52	1.18509
1242.9	0.240067
1246.27	1.45402
1249.65	2.69365
1253.02	1.27428
1256.4	1.4523
1259.77	1.75392
1263.15	2.99538
1266.52	2.07192
1269.9	2.70488
1273.27	0.09375
1276.65	0.672928
1280.02	2.10515
1283.4	0.983902
