Measurement: Raman, 532 nm, unoriented, Raman Data Processed
Mineral: Decrespignyite-(Y)
Rruff sample: R060302
Ideal chemistry: Y^3+^_4_Cu^2+^(CO_3_)_4_Cl(OH)_5_2H_2_O
Locality: Paratoo mine, Paratoo, South Australia, Australia
Source: Michael Scott
Description: Blue massive crust
Raman shift (cm-1)	intensity
148.038	0
150.931	4.578
153.824	3.674
156.716	123.561
159.609	268.406
162.502	277.318
165.394	399.822
168.287	466.525
171.18	712.844
174.072	912.889
176.965	1276.28
179.858	1839.22
182.751	2241.95
185.643	2675.78
188.536	3199.02
191.429	3816.6
194.321	4517.02
197.214	5058.75
200.107	5150.33
202.999	4936.72
205.892	4091.6
208.785	3512.56
211.678	2745.79
214.57	2511.79
217.463	2403.72
220.356	2384.03
223.248	2028.15
226.141	1817.24
229.034	1613.03
231.926	1502.33
234.819	1574.76
237.712	1598.15
240.605	1639.73
243.497	1694.48
246.39	1246.75
249.283	865.783
252.176	443.668
255.068	342.59
257.961	143.703
260.854	80.596
263.746	138.787
266.639	241.816
269.532	88.729
272.424	141.654
275.317	49.928
278.21	21.738
281.103	126.277
283.995	76.197
286.888	68.322
289.781	9.252
292.673	14.469
295.566	36.213
298.459	156.529
301.351	113.439
304.244	4.35
307.137	119.521
310.03	207.639
312.922	201.684
315.815	368.645
318.708	604.176
321.6	834.857
324.493	1340.1
327.386	1947.6
330.278	2550.91
333.171	3322.73
336.064	3840.01
338.957	4020.62
341.849	3847.86
344.742	3385.45
347.635	2783.99
350.527	1867.27
353.42	1271.1
356.313	730.541
359.205	402.424
362.098	254.605
364.991	209.049
367.884	33.23
370.776	66.35
373.669	39.168
376.562	16.848
379.454	59.354
382.347	18.861
385.24	67.938
388.132	249.27
391.025	417.922
393.918	433.141
396.81	809.021
399.703	1145.33
402.596	1603.07
405.489	2122.07
408.381	2590.5
411.274	2905.74
414.167	2780.75
417.06	2531.99
419.952	2198.1
422.845	1796.76
425.738	1531.57
428.63	1344.4
431.523	1165.35
434.416	1142.81
437.308	1221.03
440.201	1309.9
443.094	1564.74
445.987	1883.66
448.879	2068.45
451.772	2268.42
454.665	2400.48
457.557	2473.29
460.45	2708.97
463.343	3203.63
466.235	3914.83
469.128	4343.08
472.021	4532.49
474.914	3899.14
477.806	3059.86
480.699	2346.83
483.592	2001.2
486.484	1524.88
489.377	1307.56
492.27	901.168
495.162	646.521
498.055	393.664
500.948	242.049
503.841	164.096
506.733	6.035
509.626	19.322
512.519	44.867
515.411	6.637
518.304	51.412
521.197	115.395
524.089	163.209
526.982	83.365
529.875	3.027
532.768	45.666
535.66	50.641
538.553	16.412
541.446	42.814
544.338	18.781
547.231	149.193
550.124	231.459
553.016	178.385
555.909	130.824
558.802	77.16
561.695	178.941
564.587	283.863
567.48	263.143
570.373	337.061
573.265	285.471
576.158	233.623
579.051	159.514
581.943	169.043
584.836	325.285
587.729	162.492
590.622	245.393
593.514	158.268
596.407	144.219
599.3	57.5
602.192	76.635
605.085	72.793
607.978	135.9
610.87	141.637
613.763	94.416
616.656	95.113
619.549	98
622.441	151.367
625.334	139.365
628.227	123.818
631.119	94.965
634.012	56.734
636.905	22.879
639.797	8.012
642.69	44.756
645.583	28.557
648.476	53.967
651.368	126.355
654.261	226.301
657.154	73.072
660.046	94.168
662.939	114.562
665.832	96.799
668.724	140.309
671.617	161.527
674.51	195.088
677.403	100.508
680.295	171.947
683.188	238.092
686.081	319.125
688.973	448.043
691.866	571.549
694.759	553.805
697.652	559.979
700.544	432.715
703.437	396.936
706.33	356.373
709.222	389.643
712.115	391.977
715.008	517.721
717.901	365.643
720.793	495.963
723.686	648.439
726.579	650.115
729.471	530.588
732.364	537.533
735.257	750.602
738.149	890.043
741.042	1153.64
743.935	1576.04
746.828	1585.83
749.72	1291.72
752.613	750.164
755.506	347.258
758.398	263.873
761.291	177.326
764.184	111.57
767.076	18.582
769.969	17.793
772.862	200.363
775.755	153.701
778.647	406.678
781.54	566.988
784.433	636.547
787.325	446.168
790.218	459.812
793.111	610.096
796.003	699.379
798.896	746.92
801.789	761.707
804.682	816.6
807.574	853.717
810.467	1094.24
813.36	1511.44
816.252	1595.97
819.145	1611.69
822.038	1334.13
824.93	1106.03
827.823	972.887
830.716	924.379
833.609	755.664
836.501	816.697
839.394	753.461
842.287	858.391
845.179	807.041
848.072	943.297
850.965	1002.44
853.857	588.615
856.75	328.139
859.643	189.379
862.536	248.361
865.428	111.596
868.321	4.227
871.214	25.473
874.106	23.205
876.999	81.543
879.892	8.232
882.784	118.242
885.677	0.811
888.57	34.449
891.463	228.109
894.355	150.064
897.248	283.76
900.141	178.693
903.033	174.943
905.926	130.564
908.819	198.531
911.711	213.678
914.604	167.793
917.497	171.521
920.39	231.496
923.282	305.195
926.175	459.508
929.068	554.898
931.96	523.887
934.853	492.76
937.746	346.617
940.638	441.125
943.531	396.428
946.424	272.062
949.317	156.812
952.209	182.568
955.102	144.021
957.995	218.342
960.888	240.121
963.78	71.17
966.673	109.205
969.566	20.494
972.458	16.172
975.351	91.838
978.244	173.465
981.136	128.768
984.029	42.955
986.922	34.59
989.815	33.24
992.707	49.115
995.6	57.975
998.493	26.258
1001.38	53.738
1004.28	117.807
1007.17	138.18
1010.06	76.48
1012.96	35.404
1015.85	34.943
1018.74	62.715
1021.63	43.664
1024.53	142.559
1027.42	145.26
1030.31	272.734
1033.2	129.92
1036.1	276.777
1038.99	303.871
1041.88	275.406
1044.78	457.787
1047.67	955.848
1050.56	1522.1
1053.45	3117.36
1056.35	5175.36
1059.24	5774.29
1062.13	6382.18
1065.03	7538.36
1067.92	8498.14
1070.81	8599.96
1073.7	7091.3
1076.6	5019.87
1079.49	4476.77
1082.38	4033.19
1085.27	4596.85
1088.17	4991.26
1091.06	4881.03
1093.95	4103.64
1096.84	2656.24
1099.74	1493.21
1102.63	882.977
1105.52	487.908
1108.41	395.352
1111.31	246.328
1114.2	28.82
1117.09	0.746
1119.99	172.621
1122.88	21.816
1125.77	23.057
1128.66	90.553
1131.56	281.021
1134.45	208.305
1137.34	135.713
1140.23	36.613
1143.13	134.74
1146.02	71.287
1148.91	65.305
1151.81	9.791
1154.7	125.504
1157.59	248.449
1160.48	163.285
1163.38	250.916
1166.27	39.201
1169.16	7.834
1172.06	30.951
1174.95	202.535
1177.84	62.656
1180.73	295.043
1183.62	254.73
1186.52	214.352
1189.41	177.266
1192.3	151.068
1195.2	136.195
1198.09	122.496
1200.98	167.863
1203.87	186.334
1206.77	94.059
1209.66	194.865
1212.55	153.705
1215.44	100.648
1218.34	105.703
1221.23	26.791
1224.12	150.428
1227.02	137.805
1229.91	135.875
1232.8	248.799
1235.69	209.559
1238.59	324.303
1241.48	230.025
1244.37	177.342
1247.27	232.721
1250.16	225.686
1253.05	108.295
1255.94	68.102
1258.84	106.729
1261.73	169.875
1264.62	40.484
1267.51	59.219
1270.41	0.422
1273.3	264.42
1276.19	251.998
1279.09	203.654
1281.98	223.854
1284.87	182.225
1287.76	259.918
1290.66	256.227
1293.55	155.717
1296.44	65.459
1299.33	110.172
