Measurement: Raman, 780 nm, unoriented, Raman Data Processed
Mineral: Defernite
Rruff sample: R060619
Ideal chemistry: Ca_6_(CO_3_)_1.58_(Si_2_O_7_)_0.21_(OH)_7_[Cl_0.50_(OH)_0.08_(H_2_O)_0.42_]
Locality: Kombat mine, Kombat, Grootfontein District, Otjozondjupa Region, Namibia
Source: Michael Scott
Description: Deep brownish-red color massive embedded in hausmannite, associated with tephroite.
Measured chemistry: (Ca_5.86_Mn_0.14_)_Σ=6_((CO_3_)_1.62_(SiO_4_)_0.38_)_Σ=2_((OH)_6.87_Cl_0.37_)_Σ=7.24_; OH estimated by charge balance; CO_3_ estimated by difference (2-SiO_4_)
Raman shift (cm-1)	intensity
93.9705	0
97.3453	10.8741
100.72	8.7865
104.095	2.88165
107.47	44.5371
110.845	82.8763
114.219	94.8515
117.594	64.2661
120.969	26.7308
124.344	13.0353
127.719	3.65237
131.094	1.51483
134.468	1.83637
137.843	0.033234
141.218	3.52411
144.593	0.83667
147.968	12.7245
151.342	29.7123
154.717	68.5457
158.092	98.2871
161.467	114.241
164.842	120.942
168.216	123.688
171.591	126.91
174.966	127.943
178.341	133.357
181.716	143.565
185.09	160.34
188.465	175.672
191.84	187.447
195.215	192.966
198.59	195.154
201.965	192.286
205.339	185.464
208.714	158.236
212.089	122.206
215.464	91.6386
218.839	63.4303
222.214	43.5359
225.588	29.4091
228.963	17.9749
232.338	8.59888
235.713	2.39369
239.088	1.33066
242.462	2.14197
245.837	5.10089
249.212	8.74091
252.587	12.7121
255.962	9.78537
259.336	7.70474
262.711	5.03693
266.086	1.17035
269.461	0.333984
272.836	1.73762
276.211	0.113892
279.585	1.91089
282.96	0.878296
286.335	0.180771
289.71	1.31569
293.085	4.34944
296.459	8.56284
299.834	15.7136
303.209	22.914
306.584	28.2918
309.959	34.6995
313.334	42.2233
316.708	50.0223
320.083	60.9891
323.458	73.3999
326.833	85.6965
330.207	94.9668
333.582	96.3716
336.957	88.8939
340.332	70.4854
343.707	50.8082
347.082	33.6418
350.456	20.6802
353.831	14.2295
357.206	9.89798
360.581	6.9024
363.956	4.23811
367.33	2.78229
370.705	2.3295
374.08	1.26881
377.455	0.484085
380.83	0.036774
384.205	0.517929
387.579	0.2939
390.954	1.77875
394.329	5.30872
397.704	7.47715
401.079	9.08076
404.453	12.4405
407.828	15.0264
411.203	14.5231
414.578	17.9089
417.953	19.7172
421.327	21.4086
424.702	17.9681
428.077	12.3071
431.452	7.56153
434.827	4.59619
438.202	2.42936
441.576	1.07353
444.951	1.16646
448.326	1.1098
451.701	0.823097
455.076	0.37088
458.45	0.282822
461.825	0.980698
465.2	0.99617
468.575	2.15868
471.95	5.92973
475.325	9.04781
478.699	11.5203
482.074	15.1556
485.449	18.9265
488.824	21.9398
492.199	24.9573
495.573	24.0739
498.948	23.6648
502.323	20.2784
505.698	17.5024
509.073	15.276
512.447	11.7736
515.822	8.49349
519.197	6.24447
522.572	5.56693
525.947	6.26779
529.322	6.80972
532.696	8.16828
536.071	9.34798
539.446	10.4035
542.821	9.70808
546.196	9.60932
549.57	9.62907
552.945	10.2989
556.32	10.3218
559.695	11.1837
563.07	11.1476
566.444	10.6334
569.819	10.4697
573.194	10.8933
576.569	9.62179
579.944	9.32565
583.319	8.71757
586.693	6.96645
590.068	6.10185
593.443	5.09396
596.818	3.84314
600.193	2.48918
603.567	3.02533
606.942	1.02241
610.317	1.01339
613.692	0.596413
617.067	0.777679
620.442	0.51355
623.816	1.00591
627.191	0.724396
630.566	0.227173
633.941	1.5454
637.316	3.24519
640.69	5.18542
644.065	8.98363
647.44	13.5085
650.815	19.107
654.19	26.4401
657.564	32.8506
660.939	35.7859
664.314	31.4294
667.689	24.4202
671.064	17.638
674.439	12.3813
677.813	10.2463
681.188	8.54439
684.563	8.01754
687.938	9.14066
691.313	11.4766
694.688	13.3179
698.062	17.2542
701.437	18.3572
704.812	13.1046
708.187	8.07545
711.562	5.47157
714.936	5.80745
718.311	6.31783
721.686	7.22806
725.061	6.18177
728.436	3.99849
731.81	3.20667
735.185	2.36908
738.56	1.77389
741.935	0.515312
745.31	0.189552
748.684	0.906593
752.059	0.516846
755.434	0.577881
758.809	0.44162
762.184	0.345093
765.559	0.391808
768.933	0.041367
772.308	0.284279
775.683	0.123894
779.058	0.283028
782.433	0.156067
785.808	1.08386
789.182	0.324249
792.557	0.587639
795.932	0.416237
799.307	0.750336
802.682	0.297997
806.056	0.468376
809.431	0.133377
812.806	0.327145
816.181	0.182804
819.556	0.770729
822.93	0.119568
826.305	0.883904
829.68	0.484268
833.055	0.023808
836.43	0.69289
839.804	1.03002
843.179	1.15574
846.554	1.16002
849.929	1.43544
853.304	2.70363
856.679	3.08001
860.053	2.51121
863.428	2.81382
866.803	3.63164
870.178	4.29133
873.553	3.51362
876.927	4.10653
880.302	3.19213
883.677	1.73716
887.052	1.5156
890.427	0.073761
893.802	0.149223
897.176	0.45269
900.551	1.06171
903.926	0.291523
907.301	0.821407
910.676	1.22498
914.05	5.87338
917.425	10.355
920.8	21.5487
924.175	37.8932
927.55	50.6162
930.924	59.0774
934.299	67.1046
937.674	58.7667
941.049	32.4492
944.424	12.696
947.799	3.72996
951.173	1.51348
954.548	0.37994
957.923	0.244095
961.298	1.88898
964.673	3.99431
968.047	3.97301
971.422	3.44263
974.797	3.46379
978.172	3.3476
981.547	4.13492
984.922	4.12545
988.296	4.6445
991.671	3.95252
995.046	2.54081
998.421	1.75577
1001.8	0.370991
1005.17	0.437164
1008.54	0.118805
1011.92	0.026863
1015.29	0.27372
1018.67	0.716412
1022.04	1.34641
1025.42	2.02473
1028.79	1.88438
1032.17	1.90575
1035.54	1.75493
1038.92	1.75404
1042.29	2.60978
1045.67	2.56522
1049.04	2.78572
1052.42	4.29876
1055.79	6.09765
1059.17	9.3799
1062.54	17.4923
1065.92	35.2325
1069.29	72.6689
1072.67	151.735
1076.04	278.736
1079.42	332.594
1082.79	329.271
1086.17	247.797
1089.54	96.4001
1092.92	27.9725
1096.29	11.0325
1099.66	5.45362
1103.04	2.93866
1106.41	2.20641
1109.79	0.742561
1113.16	0.653023
1116.54	0.381241
1119.91	0.410141
1123.29	0.199406
1126.66	0.238663
1130.04	0.059906
1133.41	0.27124
1136.79	0.079159
1140.16	0.048447
1143.54	0.325607
1146.91	0.211819
1150.29	0.769554
1153.66	0.423195
1157.04	0.657093
1160.41	0.000511
1163.79	0.859005
1167.16	0.985699
1170.54	1.67927
1173.91	2.24163
1177.29	3.771
1180.66	6.22975
1184.04	8.16528
1187.41	9.99605
1190.79	8.98177
1194.16	7.09105
1197.54	4.91085
1200.91	3.40286
1204.28	1.99247
1207.66	1.6068
1211.03	1.07373
1214.41	1.1388
1217.78	0.415939
1221.16	0.501503
1224.53	0.958267
1227.91	0.672722
1231.28	1.7233
1234.66	0.725117
1238.03	0.130795
1241.41	0.102123
1244.78	0.468834
1248.16	0.777985
1251.53	0.989132
1254.91	0.945522
1258.28	1.51797
1261.66	1.5742
1265.03	1.41466
1268.41	1.78763
1271.78	1.39199
1275.16	0.615284
1278.53	0.142971
1281.9	1.00468
