Measurement: Raman, 532 nm, unoriented, Raman Data Processed
Mineral: Defernite
Rruff sample: R060619
Ideal chemistry: Ca_6_(CO3)_1.58_(Si_2_O_7_)_0.21_(OH)_7_[Cl_0.50_(OH)_0.08_(H_2_O)_0.42_]
Locality: Kombat mine, Kombat, Grootfontein District, Otjozondjupa Region, Namibia
Source: Michael Scott
Description: Deep brownish-red color massive embedded in hausmannite
Measured chemistry: (Ca_5.86_Mn_0.14_)_Σ=6_((CO_3_)_1.62_(SiO_4_)_0.38_)_Σ=2_((OH)_6.87_Cl_0.37_)_Σ=7.24_; OH estimated by charge balance; CO_3_ estimated by difference (2-SiO_4_)
Raman shift (cm-1)	intensity
110.916	0
114.291	6.77936
117.666	58.1782
121.041	131.479
124.416	127.346
127.791	98.3019
131.165	92.2455
134.54	164.544
137.915	196.752
141.29	209.973
144.665	255.506
148.04	378.76
151.414	569.297
154.789	846.652
158.164	1049.59
161.539	1086.97
164.913	912.23
168.288	818.18
171.663	727.699
175.038	694.845
178.413	742.238
181.788	863.504
185.162	929.11
188.537	1073.27
191.912	1187.03
195.287	1268.81
198.662	1361.73
202.036	1447.73
205.411	1379.29
208.786	1226.1
212.161	870.864
215.536	635.299
218.911	456.176
222.285	313.54
225.66	190.268
229.035	110.636
232.41	35.5754
235.785	29.072
239.16	7.9552
242.534	28.508
245.909	1.63208
249.284	48.791
252.659	15.9716
256.034	8.76727
259.408	10.4822
262.783	11.1288
266.158	2.19031
269.533	24.3306
272.908	0.529724
276.282	4.60822
279.657	1.07959
283.032	10.0536
286.407	9.62207
289.782	7.10077
293.156	9.95538
296.531	16.1877
299.906	22.2231
303.281	57.227
306.656	75.4762
310.031	69.5774
313.405	98.797
316.78	117.196
320.155	124.531
323.53	162.811
326.905	155.551
330.279	152.521
333.654	184.249
337.029	153.07
340.404	135.05
343.779	109.929
347.154	104.179
350.528	111.79
353.903	101.205
357.278	131.312
360.653	111.575
364.028	118.315
367.402	84.9736
370.777	52.2366
374.152	76.4806
377.527	57.6915
380.902	33.8964
384.276	20.3438
387.651	8.38568
391.026	20.7951
394.401	25.708
397.776	8.75934
401.151	15.6146
404.525	22.2824
407.9	55.067
411.275	72.5288
414.65	83.3767
418.025	87.5515
421.399	82.9457
424.774	63.2305
428.149	49.8492
431.524	46.1721
434.899	40.3461
438.274	50.508
441.648	29.4274
445.023	11.5848
448.398	36.054
451.773	16.7952
455.148	16.5049
458.522	4.29861
461.897	5.87912
465.272	6.36847
468.647	10.7043
472.022	23.925
475.397	55.7055
478.771	76.5872
482.146	51.2511
485.521	76.0375
488.896	92.2456
492.271	91.0353
495.645	99.1176
499.02	93.1304
502.395	105.379
505.77	105.192
509.145	107.751
512.519	118.478
515.894	95.9433
519.269	97.0726
522.644	90.0858
526.019	76.3924
529.394	47.282
532.768	52.9791
536.143	48.9392
539.518	39.6619
542.893	27.1701
546.268	25.3614
549.643	3.55212
553.017	6.34909
556.392	30.6751
559.767	38.6385
563.142	43.2897
566.516	28.4554
569.891	34.5817
573.266	44.7982
576.641	28.3307
580.016	8.08185
583.391	13.5856
586.765	31.8869
590.14	29.1322
593.515	68.7647
596.89	45.4086
600.265	45.047
603.639	15.6437
607.014	18.3881
610.389	30.1239
613.764	3.68866
617.139	1.45868
620.514	0.862
623.888	4.50324
627.263	22.625
630.638	11.4118
634.013	38.239
637.388	40.7354
640.763	44.0363
644.137	78.8643
647.512	113.55
650.887	146.978
654.262	199.011
657.636	264.188
661.011	230.071
664.386	215.149
667.761	135.834
671.136	109.662
674.511	91.6906
677.885	104.703
681.26	67.5155
684.635	30.0786
688.01	74.9731
691.385	94.3909
694.76	110.435
698.134	195.809
701.509	265.096
704.884	111.267
708.259	37.3914
711.634	3.88046
715.008	32.911
718.383	58.6592
721.758	88.282
725.133	48.2128
728.508	35.8824
731.883	7.8223
735.257	0.871674
738.632	22.6054
742.007	5.30722
745.382	0.662506
748.757	20.8387
752.131	0.249512
755.506	7.08435
758.881	31.8601
762.256	42.2437
765.631	4.63278
769.005	31.182
772.38	39.0543
775.755	46.9979
779.13	1.47629
782.505	39.1127
785.88	35.0407
789.254	22.4161
792.629	39.1464
796.004	35.143
799.379	34.0182
802.754	42.0538
806.128	19.6072
809.503	26.0423
812.878	38.1874
816.253	30.0983
819.628	11.3644
823.003	3.87723
826.377	8.29843
829.752	1.03363
833.127	16.4883
836.502	1.91596
839.877	12.3033
843.251	3.52191
846.626	10.8082
850.001	6.69504
853.376	3.99777
856.751	7.49454
860.125	5.1521
863.5	11.7804
866.875	10.6847
870.25	20.739
873.625	21.6113
877	32.998
880.374	9.48071
883.749	16.1834
887.124	25.222
890.499	26.5137
893.874	31.9196
897.248	33.7851
900.623	17.2612
903.998	15.7336
907.373	27.8047
910.748	1.6785
914.122	53.0729
917.497	106.567
920.872	210.293
924.247	375.677
927.622	466.738
930.997	551.029
934.371	522.396
937.746	388.231
941.121	218.415
944.496	73.8898
947.871	26.9672
951.245	17.6802
954.62	18.2215
957.995	37.2311
961.37	23.5818
964.745	11.8843
968.12	24.9448
971.494	27.7076
974.869	19.0437
978.244	5.43829
981.619	20.7836
984.994	28.0104
988.369	34.2328
991.743	36.4534
995.118	26.7994
998.493	2.42438
1001.87	9.11035
1005.24	11.9318
1008.62	9.06988
1011.99	8.30502
1015.37	12.781
1018.74	16.9748
1022.12	33.1917
1025.49	1.71643
1028.87	37.9875
1032.24	51.6947
1035.62	45.7499
1038.99	23.4597
1042.37	48.8108
1045.74	24.3362
1049.12	20.4204
1052.49	67.9846
1055.87	90.4023
1059.24	101.855
1062.61	180.803
1065.99	386.164
1069.36	849.881
1072.74	2033.84
1076.11	3589.88
1079.49	4313.05
1082.86	4294.34
1086.24	2771.25
1089.61	904.043
1092.99	290.769
1096.36	121.025
1099.74	62.007
1103.11	37.0003
1106.49	20.1949
1109.86	34.0455
1113.24	22.4436
1116.61	15.9372
1119.99	13.5038
1123.36	39.7695
1126.74	2.75989
1130.11	5.11624
1133.48	3.2149
1136.86	13.2156
1140.23	15.3466
1143.61	21.3837
1146.98	6.23993
1150.36	40.99
1153.73	19.0724
1157.11	24.8395
1160.48	51.6301
1163.86	38.8681
1167.23	47.1818
1170.61	38.2566
1173.98	14.4244
1177.36	55.2331
1180.73	62.9119
1184.11	101.001
1187.48	110.86
1190.86	81.6528
1194.23	54.2583
1197.61	28.127
1200.98	55.0456
1204.36	17.7975
1207.73	29.1491
1211.11	9.57196
1214.48	2.97687
1217.86	16.8702
1221.23	10.6999
1224.61	10.13
1227.98	37.9201
1231.36	31.4738
1234.73	9.78177
1238.11	14.1794
1241.48	12.7989
1244.85	1.7059
1248.23	26.7258
1251.6	6.16785
1254.98	20.4888
1258.35	27.6942
1261.73	12.2167
1265.1	5.57117
1268.48	21.5729
1271.85	5.55148
1275.23	14.3019
1278.6	30.8702
1281.98	23.7287
