Measurement: Raman, 780 nm, unoriented, Raman Data Processed
Mineral: Delafossite
Rruff sample: R050403
Ideal chemistry: Cu^1+^Fe^3+^O_2_
Locality: Cole Shaft, Bisbee, Cochise County, Arizona, USA
Source: Marcus Origlieri
Description: Black bladed rosettes
Measured chemistry: Cu^1+^(Fe^3+^_0.94_Al_0.06_)O_2_
Raman shift (cm-1)	intensity
207.749	0
210.642	0.046537
213.535	0.30044
216.427	0.557007
219.32	0.607042
222.213	0.852123
225.106	0.80953
227.998	1.60674
230.891	1.64715
233.784	1.14474
236.676	1.05801
239.569	0.513586
242.462	1.11149
245.354	1.2982
248.247	0.397793
251.14	0.577711
254.032	0.374769
256.925	0.303946
259.818	0.29604
262.711	0.44245
265.603	0.398882
268.496	0.04199
271.389	0.552456
274.281	0.66258
277.174	0.734756
280.067	1.17552
282.959	0.140955
285.852	0.560799
288.745	1.05007
291.638	0.113434
294.53	0.16391
297.423	1.33387
300.316	0.908323
303.208	0.489592
306.101	0.853594
308.994	1.18231
311.887	1.52979
314.779	1.70622
317.672	0.410059
320.565	1.50312
323.457	2.00771
326.35	1.60729
329.243	1.81919
332.135	2.40463
335.028	3.27225
337.921	2.71183
340.813	3.64751
343.706	3.99594
346.599	3.94695
349.492	4.00903
352.384	4.32774
355.277	2.37855
358.17	1.45504
361.062	1.46544
363.955	1.04951
366.848	1.30485
369.74	0.575602
372.633	0.524759
375.526	0.623289
378.419	0.997086
381.311	0.601856
384.204	0.280363
387.097	0.076712
389.989	0.232763
392.882	0.629141
395.775	0.584309
398.668	0.706331
401.56	0.248402
404.453	1.01641
407.346	0.425194
410.238	0.141958
413.131	0.056902
416.024	0.547672
418.916	0.74659
421.809	0.07773
424.702	0.265429
427.594	0.049608
430.487	1.07835
433.38	0.124943
436.273	0.834614
439.165	1.26283
442.058	0.609274
444.951	0.788525
447.843	0.904154
450.736	1.48053
453.629	0.956205
456.522	1.32943
459.414	2.02254
462.307	1.71402
465.2	1.84106
468.092	1.55451
470.985	2.08039
473.878	2.29833
476.77	2.32976
479.663	2.60946
482.556	3.14833
485.449	3.73419
488.341	3.66582
491.234	3.57822
494.127	4.5419
497.019	3.99459
499.912	4.63141
502.805	4.02101
505.697	3.61445
508.59	4.16607
511.483	3.44041
514.375	4.26927
517.268	3.66295
520.161	3.47327
523.054	3.92403
525.946	3.36313
528.839	3.28139
531.732	2.06063
534.624	2.18092
537.517	2.4285
540.41	1.17041
543.303	1.48992
546.195	1.12283
549.088	2.30273
551.981	2.42031
554.873	0.996443
557.766	0.019213
560.659	0.534765
563.551	0.010473
566.444	0.123188
569.337	0.374939
572.23	0.770758
575.122	0.259069
578.015	0.239258
580.908	0.037205
583.8	0.016714
586.693	0.246511
589.586	0.196903
592.478	0.141817
595.371	0.535969
598.264	0.127504
601.156	0.580187
604.049	1.10013
606.942	0.486557
609.835	0.699413
612.727	0.344437
615.62	1.04394
618.513	2.03203
621.405	2.00168
624.298	2.38517
627.191	3.49769
630.083	3.87546
632.976	4.72931
635.869	5.13681
638.761	6.85965
641.654	7.9776
644.547	9.95069
647.44	11.7711
650.332	13.5779
653.225	16.4095
656.118	19.1909
659.01	23.0365
661.903	27.709
664.796	33.0684
667.688	38.8744
670.581	44.6704
673.474	50.5385
676.367	58.4851
679.259	61.4077
682.152	63.7877
685.045	61.5463
687.937	56.5919
690.83	49.4988
693.723	41.3006
696.615	32.8492
699.508	25.9567
702.401	21.1792
705.294	17.4376
708.186	13.8805
711.079	10.4322
713.972	9.36903
716.864	7.63862
719.757	5.8662
722.65	5.16799
725.543	4.35455
728.435	3.17443
731.328	1.86983
734.221	2.08845
737.113	0.802937
740.006	0.469439
742.899	0.21833
745.791	0.653526
748.684	0.849154
751.577	0.320044
754.47	0.341724
757.362	0.047386
760.255	0.389503
763.148	0.106262
766.04	0.474379
768.933	0.079975
771.826	0.440025
774.718	0.511627
777.611	0.397655
780.504	1.02602
783.396	0.645435
786.289	0.318483
789.182	0.185055
792.075	1.36789
794.967	0.014593
797.86	1.07498
800.753	0.627546
803.645	0.81624
806.538	0.969984
809.431	1.02589
812.323	1.74426
815.216	1.47564
818.109	1.06909
821.002	1.04019
823.894	0.928537
826.787	1.43061
829.68	1.29469
832.572	1.26791
835.465	0.93716
838.358	0.955897
841.25	2.43225
844.143	1.83089
847.036	1.48649
849.929	1.76916
852.821	1.7479
855.714	1.99433
858.607	1.88584
861.5	1.10547
864.392	1.32733
867.285	1.21738
870.178	2.01379
873.07	1.02287
875.963	1.34024
878.856	0.755494
881.748	0.972893
884.641	1.02801
887.534	0.591789
890.427	1.5203
893.319	0.730427
896.212	0.202103
899.105	1.01625
901.997	0.181009
904.89	0.714233
907.783	1.27865
910.675	0.758969
913.568	0.015738
916.461	0.865269
919.353	0.111974
922.246	1.04628
925.139	0.68697
928.032	0.067098
930.924	0.432622
933.817	0.18371
936.71	0.207522
939.602	0.07189
942.495	0.433344
945.388	1.03176
948.28	0.903161
951.173	1.38349
954.066	0.893948
956.958	1.38913
959.851	0.456383
962.744	1.81459
965.637	1.0002
968.529	1.21687
971.422	1.3818
974.315	1.70285
977.207	1.40497
980.1	1.77441
982.993	1.96496
985.885	2.64645
988.778	1.94924
991.671	1.71086
994.564	1.90991
997.456	1.48434
1000.35	1.8383
1003.24	1.87778
1006.13	1.53518
1009.03	1.45841
1011.92	1.33939
1014.81	1.74593
1017.71	1.82543
1020.6	0.901876
1023.49	0.915753
1026.38	0.692113
1029.28	1.38698
1032.17	1.10146
1035.06	0.423856
1037.95	1.58958
1040.85	0.949512
1043.74	1.20095
1046.63	0.948674
1049.53	1.69287
1052.42	0.968449
1055.31	0.776337
1058.2	0.877645
1061.1	0.275822
1063.99	0.621416
1066.88	0.617976
1069.77	0.110887
1072.67	0.104658
1075.56	0.36968
1078.45	0.645136
1081.35	0.161447
1084.24	0.742138
1087.13	0.074541
1090.02	0.583188
1092.91	0.480658
1095.81	0.523053
1098.7	0.422801
1101.59	0.270164
1104.49	0.293451
1107.38	0.353095
1110.27	0.488546
1113.16	0.425529
1116.06	0.01479
1118.95	0.567685
1121.84	0.412792
1124.73	0.434212
1127.63	0.083397
1130.52	0.834009
1133.41	0.341045
1136.31	0.704662
1139.2	0.976493
1142.09	1.07417
1144.98	0.537007
1147.88	1.06971
1150.77	0.761058
1153.66	0.672453
1156.56	1.23237
1159.45	0.709125
1162.34	0.358486
1165.23	1.65488
1168.13	1.91458
1171.02	1.21528
1173.91	1.23484
1176.8	1.74487
1179.7	0.855469
1182.59	0.95164
1185.48	1.27336
1188.38	1.30366
1191.27	1.49778
1194.16	0.871798
1197.05	1.02015
1199.94	0.502938
1202.84	0.419403
1205.73	0.498898
1208.62	0.975585
1211.52	1.26564
1214.41	0.907147
1217.3	0.655351
1220.19	0.469946
1223.09	0.00109
1225.98	1.29097
1228.87	0.516489
1231.77	0.956865
1234.66	0.204728
1237.55	0.182742
1240.44	0.51036
1243.34	0.927071
1246.23	0.747352
1249.12	0.742865
1252.01	0.669629
1254.91	1.01829
1257.8	0.843345
1260.69	0.21771
1263.59	0.358012
1266.48	0.754061
1269.37	0.462479
1272.26	0.360583
1275.16	0.761704
1278.05	0
