Measurement: Raman, 785 nm, unoriented, Raman Data Processed
Mineral: Delhayelite
Rruff sample: R060816
Ideal chemistry: K_7_Na_3_Ca_5_Al_2_Si_14_O_38_F_4_Cl_2_
Locality: Chibiny, Kola Peninsula, Russia
Source: Bob Jenkins
Description: Dark brown platy fragment
Raman shift (cm-1)	intensity
208.309	0
210.719	1.60718
213.13	5.14966
215.541	54.9834
217.951	76.1355
220.362	124.521
222.772	158.778
225.183	198.948
227.593	278.342
230.004	287.384
232.415	306.747
234.825	317.243
237.236	366.7
239.646	348.923
242.057	375.735
244.468	358.213
246.878	316.027
249.289	261.984
251.699	176.485
254.11	159.814
256.52	129.209
258.931	79.5417
261.342	57.6052
263.752	7.41357
266.163	2.07007
268.573	0.889404
270.984	31.6304
273.394	44.1277
275.805	44.7451
278.216	74.7195
280.626	13.9236
283.037	46.6521
285.447	74.2044
287.858	99.7344
290.269	184.221
292.679	261.782
295.09	413.794
297.5	534.889
299.911	694.127
302.322	891.807
304.732	1123.48
307.143	1349.18
309.553	1669.97
311.964	1834.63
314.374	2118.6
316.785	2535.14
319.196	2945.69
321.606	3276.47
324.017	3566.02
326.427	3830.89
328.838	3968.88
331.248	3989.41
333.659	3789.95
336.07	3589.62
338.48	3299.27
340.891	2982.04
343.301	2739.12
345.712	2413.93
348.123	2230.02
350.533	1891.04
352.944	1677.98
355.354	1302.43
357.765	1066.54
360.175	868.469
362.586	703.798
364.997	511.626
367.407	428.66
369.818	337.121
372.228	258.933
374.639	212.152
377.05	129.332
379.46	116.595
381.871	36.8945
384.281	28.3508
386.692	64.1194
389.103	66.4111
391.513	100.722
393.924	166.225
396.334	184.837
398.745	205.816
401.155	261.611
403.566	240.031
405.977	239.44
408.387	207.695
410.798	232.215
413.208	184.041
415.619	215.359
418.029	234.21
420.44	218.778
422.851	241.675
425.261	217.464
427.672	228.897
430.082	201.238
432.493	152.11
434.904	130.242
437.314	57.0647
439.725	79.1438
442.135	35.554
444.546	115.426
446.957	180.481
449.367	220.125
451.778	248.226
454.188	327.806
456.599	243.797
459.01	171.653
461.42	89.1213
463.831	30.3555
466.241	41.5938
468.652	29.0295
471.062	40.0786
473.473	40.2976
475.884	48.0503
478.294	25.7895
480.705	1.18408
483.115	7.06079
485.526	56.3596
487.937	103.943
490.347	114.265
492.758	141.365
495.168	121.962
497.579	99.0532
499.989	95.6687
502.4	10.0586
504.81	2.31519
507.221	32.7983
509.632	33.3447
512.042	37.1096
514.453	32.3196
516.864	17.3591
519.274	66.7244
521.685	114.888
524.095	110.735
526.506	142.894
528.916	147.777
531.327	146.346
533.737	131.454
536.148	144.627
538.559	201.5
540.969	224.553
543.38	247.52
545.79	274.828
548.201	319.635
550.612	325.272
553.022	381.714
555.433	393.44
557.843	440.89
560.254	492.185
562.665	525.408
565.075	526.419
567.486	554.384
569.896	565.94
572.307	693.968
574.717	679.351
577.128	715.277
579.539	726.229
581.949	748.509
584.36	697.216
586.77	720.176
589.181	782.726
591.592	919.165
594.002	1125.24
596.413	1450.87
598.823	1844.64
601.234	2186.52
603.644	2331.07
606.055	2170.39
608.466	1663.92
610.876	1222.07
613.287	880.048
615.697	667.602
618.108	499.127
620.519	365.942
622.929	290.902
625.34	215.117
627.75	150.643
630.161	111.535
632.572	99.4305
634.982	51.6956
637.393	80.0676
639.803	4.1698
642.214	9.49365
644.624	27.9712
647.035	6.87195
649.446	32.7302
651.856	16.3149
654.267	5.71265
656.677	12.2854
659.088	28.7379
661.499	51.094
663.909	63.9188
666.32	52.1644
668.73	74.1432
671.141	79.202
673.551	77.1578
675.962	22.9829
678.373	47.3005
680.783	8.74512
683.194	11.223
685.604	3.36182
688.015	4.1958
690.426	36.8441
692.836	37.6527
695.247	88.8901
697.657	117.387
700.068	112.093
702.478	164.831
704.889	144.15
707.3	145.555
709.71	235.019
712.121	265.104
714.531	324.76
716.942	361.295
719.352	447.976
721.763	522.505
724.174	602.785
726.584	642.17
728.995	733.388
731.405	829.101
733.816	899.406
736.227	952.722
738.637	1030.13
741.048	1104.96
743.458	1183.2
745.869	1142.89
748.279	1280.87
750.69	1215.45
753.101	1200.78
755.511	1103.7
757.922	1044.35
760.332	899.875
762.743	800.841
765.154	771.036
767.564	598.292
769.975	510.512
772.385	475.294
774.796	374.711
777.207	314.273
779.617	297.216
782.028	233.137
784.438	219.37
786.849	127.097
789.259	102.514
791.67	122.997
794.081	78.6492
796.491	85.6313
798.902	19.7646
801.312	31.9175
803.723	33.8357
806.134	11.7135
808.544	19.0237
810.955	49.7568
813.365	2.73584
815.776	17.2472
818.186	5.03528
820.597	57.8596
823.008	23.1118
825.418	1.92834
827.829	17.9961
830.239	30.2526
832.65	22.6537
835.061	33.8142
837.471	4.66333
839.882	18.8341
842.292	12.0326
844.703	3.56567
847.114	3.20923
849.524	15.7819
851.935	15.8925
854.345	38.9331
856.756	10.5469
859.166	13.7258
861.577	5.70654
863.987	10.9613
866.398	2.16431
868.809	18.0916
871.219	13.5312
873.63	17.3003
876.04	49.7416
878.451	63.0485
880.862	72.2492
883.272	32.0134
885.683	71.9517
888.093	72.9915
890.504	117.326
892.915	152.527
895.325	158.751
897.736	162.951
900.146	179.522
902.557	207.398
904.967	207.897
907.378	245.45
909.789	241.586
912.199	254.406
914.61	252.885
917.02	239.736
919.431	226.304
921.842	222.104
924.252	190.372
926.663	215.879
929.073	157.55
931.484	182.6
933.894	128.152
936.305	150.398
938.716	155.671
941.126	132.325
943.537	105.197
945.947	106.008
948.358	59.2434
950.769	101.577
953.179	29.8791
955.59	63.4763
958	67.3579
960.411	40.3225
962.822	75.05
965.232	78.4062
967.643	58.6152
970.053	84.1841
972.464	100.594
974.874	119.428
977.285	149.668
979.696	144.078
982.106	164.138
984.517	155.258
986.927	137.07
989.338	111.112
991.749	144.801
994.159	63.7918
996.57	102.873
998.98	83.2412
1001.39	114.166
1003.8	128.052
1006.21	120.392
1008.62	124.554
1011.03	151.996
1013.44	108.777
1015.85	120.742
1018.26	79.2214
1020.67	8.90015
1023.09	26.2512
1025.5	25.5962
1027.91	20.7725
1030.32	1.71728
1032.73	56.5591
1035.14	64.3057
1037.55	2.66211
1039.96	29.5884
1042.37	78.7817
1044.78	54.8926
1047.19	69.0854
1049.6	59.2222
1052.01	59.5288
1054.42	74.8076
1056.83	111.938
1059.24	115.032
1061.65	160.856
1064.07	154.868
1066.48	163.645
1068.89	130.717
1071.3	129.463
1073.71	163.102
1076.12	174.109
1078.53	163.737
1080.94	117.988
1083.35	122.018
1085.76	138.575
1088.17	51.4937
1090.58	55.1753
1092.99	8.86035
1095.4	51.5718
1097.81	16.0166
1100.22	36.1851
1102.63	8.63184
1105.05	18.8843
1107.46	2.02441
