Measurement: Raman, 785 nm, unoriented, Raman Data Processed
Mineral: Delhayelite
Rruff sample: R070096
Ideal chemistry: K_7_Na_3_Ca_5_Al_2_Si_14_O_38_F_4_Cl_2_
Locality: Yukspor Mountain, Khibiny Massif, Kola Peninsula, Russia
Source: Michael Scott
Description: Dark gray to colorless cleavage fragments associated with brown lamprophyllite, elongated blue aegerine, light yellow fenakite, grayish brown lomonosovite and very pale yellow to colorless Fenaksite (R080135).
Measured chemistry: K_7.25_Na_3.44_(Ca_4.32_Na_0.66_Mn_0.02_)_Σ=5_(Al_1.97_Fe^3+^_0.03_)_Σ=2_(Si_13.97_Al_0.03_)_Σ=14_O_38_F_4_(Cl_1.70_F_0.30_)_Σ=2_
Raman shift (cm-1)	intensity
152.648	0
155.058	7.30774
157.469	1.62292
159.879	40.0834
162.29	102.572
164.701	186.018
167.111	245.048
169.522	287.154
171.932	253.145
174.343	198.407
176.754	170.134
179.164	223.169
181.575	210.617
183.985	225.238
186.396	244.218
188.806	211.83
191.217	211.753
193.627	161.266
196.038	126.211
198.449	98.8721
200.859	32.8574
203.27	11.783
205.68	8.98633
208.091	7.19458
210.502	61.4592
212.912	62.3477
215.323	122.407
217.733	130.362
220.144	174.318
222.555	190.272
224.965	222.885
227.376	252.502
229.786	202.501
232.197	250.825
234.607	248.81
237.018	272.618
239.429	244.143
241.839	230.654
244.25	226.578
246.66	192.948
249.071	164.454
251.482	74.5322
253.892	91.6118
256.303	33.1177
258.713	13.3852
261.124	2.35303
263.534	21.2625
265.945	48.6919
268.356	48.5083
270.766	24.1267
273.177	17.7017
275.587	4.45337
277.998	43.6106
280.409	116.482
282.819	144.866
285.23	208.627
287.64	307.912
290.051	471.083
292.462	549.452
294.872	644.847
297.283	769.986
299.693	830.749
302.104	960.714
304.514	1137.24
306.925	1332.15
309.336	1513.87
311.746	1719.54
314.157	1793.69
316.567	2012.84
318.978	2197.82
321.389	2387.67
323.799	2552.45
326.21	2666.08
328.62	2712.74
331.031	2663.72
333.441	2678.07
335.852	2515.87
338.262	2381.23
340.673	2171.51
343.084	1996.08
345.494	1755.67
347.905	1593.83
350.315	1399.1
352.726	1178.86
355.137	1066.17
357.547	829.233
359.958	630.904
362.368	532.226
364.779	397.767
367.19	364.769
369.6	232.126
372.011	155.936
374.421	128.218
376.832	106.88
379.243	112.778
381.653	92.6494
384.064	132.093
386.474	95.2263
388.885	119.162
391.295	181.894
393.706	194.138
396.116	192.219
398.527	251.777
400.938	224.9
403.348	207.882
405.759	265.277
408.17	290.957
410.58	230.976
412.991	218.855
415.401	184.957
417.812	186.975
420.222	117.156
422.633	147.226
425.043	142.845
427.454	110.684
429.865	109.288
432.275	70.7017
434.686	42.1982
437.096	43.8865
439.507	21.5825
441.918	42.1958
444.328	13.3833
446.739	16.946
449.149	12.563
451.56	31.4863
453.971	2.77685
456.381	44.6553
458.792	1.53174
461.202	18.6858
463.613	28.4221
466.024	14.0832
468.434	19.9185
470.845	21.8447
473.255	39.9265
475.666	21.9788
478.076	74.0461
480.487	68.269
482.898	146.234
485.308	170.662
487.719	130.321
490.129	170.145
492.54	181.075
494.95	193.733
497.361	173.545
499.772	134.862
502.182	99.2279
504.593	46.5973
507.003	58.7838
509.414	29.4883
511.825	30.4518
514.235	9.27393
516.646	9.5896
519.056	34.809
521.467	14.1534
523.878	58.5581
526.288	61.4908
528.699	73.5736
531.109	76.9744
533.52	104.341
535.93	152.465
538.341	176.561
540.752	193.56
543.162	241.253
545.573	251.532
547.983	288.129
550.394	290.813
552.804	302.149
555.215	357.819
557.626	379.03
560.036	439.016
562.447	460.656
564.857	514.34
567.268	538.362
569.678	620.642
572.089	624.415
574.5	673.301
576.91	676.101
579.321	683.601
581.731	619.675
584.142	640.577
586.553	657.804
588.963	620.578
591.374	748.486
593.784	894.691
596.195	1081.41
598.606	1334.91
601.016	1547.47
603.427	1639.75
605.837	1563.54
608.248	1278.37
610.658	947.771
613.069	721.838
615.48	531.304
617.89	398.043
620.301	309.778
622.711	227.25
625.122	193.856
627.533	120.613
629.943	113.855
632.354	95.9824
634.764	75.4322
637.175	53.8721
639.585	35.6626
641.996	29.2029
644.407	11.0498
646.817	1.45813
649.228	11.5264
651.638	1.94031
654.049	44.5021
656.46	3.52673
658.87	14.5057
661.281	13.4702
663.691	11.6461
666.102	14.1389
668.513	15.9428
670.923	0.318237
673.334	8.11621
675.744	15.0729
678.155	25.9816
680.565	15.6969
682.976	9.50354
685.386	1.74683
687.797	27.6835
690.208	45.2345
692.618	28.6045
695.029	62.9635
697.439	104.324
699.85	101.37
702.261	127.323
704.671	164.801
707.082	163.06
709.492	165.901
711.903	243.712
714.313	263.344
716.724	292.144
719.135	332.092
721.545	405.966
723.956	470.166
726.366	503.464
728.777	553.334
731.188	678.256
733.598	666.951
736.009	709.596
738.419	774.304
740.83	821.989
743.24	903.032
745.651	882.974
748.062	927.645
750.472	896.703
752.883	861.642
755.293	855.293
757.704	775.921
760.115	701.057
762.525	639.693
764.936	585.513
767.346	501.514
769.757	456.197
772.168	370.639
774.578	277.743
776.989	278.933
779.399	183.908
781.81	187.527
784.221	150.68
786.631	89.2159
789.042	86.4968
791.452	71.097
793.863	44.3724
796.273	66.5676
798.684	20.3986
801.095	31.6867
803.505	16.7213
805.916	16.8632
808.326	13.975
810.737	18.0757
813.148	3.96472
815.558	1.0271
817.969	3.68616
820.379	6.27771
822.79	30.442
825.2	2.75354
827.611	22.3204
830.021	1.3811
832.432	30.0084
834.843	3.23535
837.253	3.37781
839.664	7.3147
842.074	7.97571
844.485	5.35376
846.896	16.4299
849.306	7.92371
851.717	18.2155
854.127	24.615
856.538	12.7538
858.948	0.144653
861.359	25.5565
863.77	1.67578
866.18	58.7239
868.591	13.929
871.001	40.6766
873.412	17.7052
875.823	69.9648
878.233	64.7682
880.644	83.4831
883.054	68.1894
885.465	82.5249
887.875	85.491
890.286	83.0598
892.697	106.943
895.107	122.596
897.518	123.208
899.928	122.673
902.339	124.402
904.75	174.481
907.16	177.165
909.571	150.676
911.981	159.027
914.392	170.283
916.803	171.67
919.213	148.774
921.624	122.443
924.034	182.021
926.445	186.228
928.856	117.894
931.266	156.904
933.677	106.837
936.087	83.037
938.498	62.2998
940.908	92.1238
943.319	56.9265
945.73	93.4979
948.14	38.0636
950.551	68.4119
952.961	59.5942
955.372	39.5015
957.783	61.6863
960.193	115.981
962.604	110.976
965.014	39.9847
967.425	106.146
969.835	106.346
972.246	123.431
974.657	123.695
977.067	103.802
979.478	111.766
981.888	117.461
984.299	138.132
986.71	121.847
989.12	148.55
991.531	113.445
993.941	119.503
996.352	127.075
998.762	123.807
1001.17	108.855
1003.58	42.9541
1005.99	18.8896
1008.4	62.187
1010.82	41.22
1013.23	48.0688
1015.64	45.4417
1018.05	19.7922
1020.46	1.56274
1022.87	47.085
1025.28	7.21753
1027.69	13.738
1030.1	11.8408
1032.51	15.1509
1034.92	49.3704
1037.33	85.3464
1039.74	61.1038
1042.15	66.7861
1044.56	123.686
1046.97	112.233
1049.38	102.397
1051.8	155.603
1054.21	117.885
1056.62	150.925
1059.03	67.9206
1061.44	106.403
1063.85	56.9558
1066.26	107.946
1068.67	72.4307
1071.08	77.8662
1073.49	64.1362
1075.9	60.9624
1078.31	106.543
1080.72	60.5952
1083.13	0.103516
1085.54	0
