Measurement: Raman, 780 nm, unoriented, Raman Data Processed
Mineral: Demesmaekerite
Rruff sample: R080130
Ideal chemistry: Pb_2_Cu_5_(UO_2_)_2_(Se^4+^O_3_)_6_(OH)_6_2H_2_O
Locality: Musonoi mine, Kolwezi, Katanga, Congo
Source: William W. Pinch
Description: Dark green to light brownish green bladed crystals
Raman shift (cm-1)	intensity
152.119	0
155.012	0.09063
157.905	2.72262
160.798	5.70956
163.69	8.95318
166.583	11.397
169.476	11.9157
172.368	12.2068
175.261	12.1437
178.154	14.3733
181.046	11.7593
183.939	12.8204
186.832	11.7297
189.725	9.08559
192.617	8.73517
195.51	7.8344
198.403	8.16721
201.295	8.96394
204.188	10.2463
207.081	6.91146
209.973	6.16048
212.866	3.5124
215.759	1.28314
218.651	0.054222
221.544	0.238365
224.437	1.08869
227.33	1.87524
230.222	0.616386
233.115	1.9174
236.008	4.3243
238.9	7.79925
241.793	10.7374
244.686	10.8768
247.578	11.6291
250.471	10.5367
253.364	6.9155
256.257	6.04282
259.149	6.42154
262.042	7.81864
264.935	8.76739
267.827	10.5075
270.72	10.1053
273.613	14.3181
276.506	12.0875
279.398	11.2958
282.291	9.17719
285.184	8.47892
288.076	9.63665
290.969	6.89208
293.862	6.53747
296.755	3.84624
299.647	5.50401
302.54	5.99966
305.433	4.93715
308.325	5.0016
311.218	5.31879
314.111	3.87889
317.003	2.00685
319.896	2.13347
322.789	1.9292
325.682	0.021423
328.574	0.031567
331.467	0.183155
334.36	0.703415
337.252	0.923138
340.145	1.62689
343.038	0.373905
345.93	0.86832
348.823	1.1624
351.716	0.980541
354.608	2.4777
357.501	4.01769
360.394	4.50802
363.287	6.25813
366.179	6.60268
369.072	7.29789
371.965	5.85103
374.857	8.38842
377.75	9.732
380.643	10.0845
383.536	9.07929
386.428	10.9765
389.321	10.5671
392.214	12.4888
395.106	11.9
397.999	11.8587
400.892	11.0122
403.784	8.62685
406.677	6.51632
409.57	5.55161
412.463	4.79516
415.355	3.52976
418.248	1.71161
421.141	2.58517
424.033	2.8473
426.926	1.42675
429.819	1.85108
432.712	1.26817
435.604	0.103447
438.497	0.268665
441.39	1.40949
444.282	1.21057
447.175	0.171379
450.068	3.24628
452.96	1.94504
455.853	2.54797
458.746	2.61741
461.639	3.12619
464.531	2.29287
467.424	3.42221
470.317	1.96095
473.209	2.56621
476.102	1.91406
478.995	3.71178
481.887	1.36447
484.78	1.30997
487.673	1.0167
490.565	0.029495
493.458	1.96212
496.351	0.94762
499.244	2.22731
502.136	1.18622
505.029	0.542793
507.922	1.0615
510.814	1.0075
513.707	0.892307
516.6	1.50563
519.493	0.281311
522.385	0.675964
525.278	0.992924
528.171	0.567417
531.063	1.12677
533.956	0.012215
536.849	0.457912
539.741	1.62863
542.634	0.739025
545.527	0.532333
548.42	0.607174
551.312	0.951241
554.205	0.521427
557.098	0.228653
559.99	0.951893
562.883	1.69354
565.776	0.758942
568.668	0.328629
571.561	0.869488
574.454	2.23213
577.347	1.01903
580.239	1.98111
583.132	1.29066
586.025	1.97085
588.917	2.10442
591.81	0.404026
594.703	1.44789
597.596	0.779118
600.488	0.115044
603.381	0.159336
606.274	0.96402
609.166	1.03897
612.059	0.653049
614.952	1.14476
617.844	0.104053
620.737	1.11069
623.63	1.67369
626.523	1.03044
629.415	1.21304
632.308	0.47987
635.201	1.52604
638.093	2.3188
640.986	0.915283
643.879	3.48075
646.771	2.54446
649.664	2.85934
652.557	4.87806
655.449	4.94732
658.342	5.38547
661.235	4.83218
664.128	4.53936
667.02	4.25376
669.913	3.00839
672.806	2.50082
675.698	1.82011
678.591	1.07161
681.484	1.23926
684.377	1.63471
687.269	1.72724
690.162	0.022842
693.055	1.798
695.947	0.213478
698.84	0.379356
701.733	1.64477
704.625	1.55489
707.518	0.265507
710.411	0.510773
713.304	1.54784
716.196	1.79742
719.089	0.994267
721.982	0.294216
724.874	1.07714
727.767	3.56969
730.66	6.76945
733.553	11.7194
736.445	13.7156
739.338	21.6323
742.231	28.1473
745.123	33.4001
748.016	38.4016
750.909	42.0195
753.801	40.49
756.694	37.2404
759.587	34.6189
762.48	31.9323
765.372	30.7609
768.265	30.0289
771.158	32.1167
774.05	35.7843
776.943	42.5888
779.836	46.8673
782.729	57.0345
785.621	71.186
788.514	87.1556
791.407	107.82
794.299	124.747
797.192	139.513
800.085	146.344
802.977	135.847
805.87	118.424
808.763	92.628
811.655	66.4316
814.548	46.9744
817.441	32.8511
820.334	24.6242
823.226	17.1151
826.119	11.5525
829.012	8.83858
831.904	7.65243
834.797	2.9991
837.69	4.03689
840.582	1.27021
843.475	0.541759
846.368	1.8425
849.261	2.22446
852.153	2.15014
855.046	3.28091
857.939	3.28806
860.831	1.08767
863.724	0.400887
866.617	1.17137
869.51	0.003147
872.402	1.34501
875.295	1.46728
878.188	0.398045
881.08	0.071304
883.973	0.146996
886.866	0.778931
889.758	0.662106
892.651	2.05958
895.544	1.24325
898.437	0.874142
901.329	0.059128
904.222	0.850426
907.115	0.841606
910.007	1.50147
912.9	1.00933
915.793	1.30597
918.685	1.61594
921.578	0.693287
924.471	0.698265
927.364	0.651249
930.256	2.77828
933.149	0.699009
936.042	2.18703
938.934	1.73062
941.827	2.33224
944.72	0.280201
947.612	2.82422
950.505	1.50343
953.398	1.40077
956.291	2.0337
959.183	2.45999
962.076	2.15924
964.969	1.71907
967.861	0.621132
970.754	2.02806
973.647	2.35426
976.539	2.20547
979.432	1.11204
982.325	1.54625
985.218	1.15371
988.11	1.25746
991.003	2.60619
993.896	0.547062
996.788	2.06956
999.681	2.36105
1002.57	1.39614
1005.47	2.4092
1008.36	2.01632
1011.25	1.65239
1014.14	1.44482
1017.04	0.740509
1019.93	0.228683
1022.82	1.11966
1025.71	1.10037
1028.61	1.12058
1031.5	2.5377
1034.39	0.882439
1037.29	2.3495
1040.18	2.0768
1043.07	0.741894
1045.96	2.35973
1048.86	2.42713
1051.75	1.34019
1054.64	0.631508
1057.54	2.05462
1060.43	0.191872
1063.32	0.99744
1066.21	2.52292
1069.11	1.37682
1072	1.53248
1074.89	0.998833
1077.78	1.36132
1080.68	0.716496
1083.57	0.539513
1086.46	0.800529
1089.36	2.09154
1092.25	0.434978
1095.14	1.04816
1098.03	2.46121
1100.93	0.060978
1103.82	0.718521
1106.71	0.711491
1109.6	1.02892
1112.5	1.63294
1115.39	1.17943
1118.28	0.252899
1121.17	1.50975
1124.07	1.10912
1126.96	2.5425
1129.85	1.33393
1132.74	1.50166
1135.64	1.37254
1138.53	0.459286
1141.42	1.08542
1144.32	1.93416
1147.21	1.65941
1150.1	1.5173
1152.99	1.87817
1155.89	2.17784
1158.78	0.692551
1161.67	1.78136
1164.57	2.46364
1167.46	1.27757
1170.35	0.710556
1173.24	1.39228
1176.14	1.46094
1179.03	1.4644
1181.92	1.55639
1184.81	0.988365
1187.71	1.73594
1190.6	1.7235
1193.49	1.22025
1196.38	1.44302
1199.28	1.93331
1202.17	1.41566
1205.06	1.54222
1207.96	2.40295
1210.85	1.29846
1213.74	2.29382
1216.63	1.99997
1219.53	0.946342
1222.42	0.464264
1225.31	2.26136
1228.2	0.341228
1231.1	2.67097
1233.99	0.113686
1236.88	1.23683
1239.78	1.43447
1242.67	1.605
1245.56	2.67276
1248.45	0.790916
1251.35	2.85549
1254.24	1.41069
1257.13	1.49899
1260.02	2.61979
1262.92	0.272465
1265.81	1.99617
1268.7	0.917828
1271.6	0.571804
1274.49	1.40564
1277.38	0.304527
1280.27	0.002453
