Measurement: Raman, 532 nm, unoriented, Raman Data Processed
Mineral: Demesmaekerite
Rruff sample: R080130
Ideal chemistry: Pb_2_Cu_5_(UO_2_)_2_(Se^4+^O_3_)_6_(OH)_6_2H_2_O
Locality: Musonoi mine, Kolwezi, Katanga, Congo
Source: William W. Pinch
Description: Dark green to light brownish green bladed crystals
Raman shift (cm-1)	intensity
150.79	0
153.683	2.02844
156.576	16.5679
159.468	63.6164
162.361	128.279
165.254	190.188
168.147	240.048
171.039	289.132
173.932	333.322
176.825	391.347
179.717	452.905
182.61	471.396
185.503	408.022
188.395	292.839
191.288	204.742
194.181	135.789
197.073	94.1665
199.966	74.2623
202.859	71.0529
205.752	65.9389
208.644	52.5995
211.537	33.9223
214.43	21.3833
217.322	14.2989
220.215	10.5635
223.108	4.84753
226	3.66977
228.893	11.0093
231.786	8.48401
234.679	1.01862
237.571	17.4872
240.464	39.4589
243.357	53.6887
246.249	54.2256
249.142	45.929
252.035	46.2208
254.928	45.3669
257.82	40.4244
260.713	40.8722
263.606	41.0721
266.498	53.7307
269.391	65.3992
272.284	75.9637
275.176	81.497
278.069	83.2226
280.962	82.7601
283.854	80.5756
286.747	70.5082
289.64	53.7645
292.533	39.5245
295.425	33.7991
298.318	29.4021
301.211	32.279
304.103	37.6924
306.996	48.4382
309.889	56.6248
312.781	56.9345
315.674	54.0924
318.567	44.0602
321.46	33.5062
324.352	27.816
327.245	25.055
330.138	24.9197
333.03	23.2398
335.923	19.1368
338.816	12.4867
341.709	3.4278
344.601	2.40933
347.494	7.8721
350.387	7.50211
353.279	1.79129
356.172	2.68433
359.065	11.8277
361.957	27.8463
364.85	44.8712
367.743	63.9491
370.635	85.3826
373.528	98.8471
376.421	105.737
379.314	103.639
382.206	106.835
385.099	109.311
387.992	109.338
390.884	104.238
393.777	102.74
396.67	103.209
399.562	106.149
402.455	105.076
405.348	97.8297
408.241	82.4894
411.133	65.0256
414.026	48.9097
416.919	41.0813
419.811	32.712
422.704	32.9912
425.597	35.7454
428.49	35.7567
431.382	34.9028
434.275	27.257
437.168	16.215
440.06	9.73651
442.953	3.63901
445.846	3.61292
448.738	7.66449
451.631	12.6134
454.524	17.12
457.416	19.3403
460.309	17.944
463.202	16.7231
466.095	15.6726
468.987	12.8525
471.88	12.0576
474.773	12.9339
477.665	13.5593
480.558	16.2069
483.451	19.7683
486.344	26.5402
489.236	35.4543
492.129	47.7518
495.022	58.8366
497.914	73.763
500.807	81.0317
503.7	86.8415
506.592	84.6174
509.485	74.8719
512.378	59.8818
515.27	46.1624
518.163	32.3898
521.056	23.4384
523.949	13.8053
526.841	7.3755
529.734	3.72505
532.627	0.076843
535.519	1.02034
538.412	2.69551
541.305	2.41615
544.197	2.57373
547.09	2.77412
549.983	0.379364
552.876	1.84039
555.768	2.08043
558.661	6.7079
561.554	9.57561
564.446	13.3889
567.339	13.6067
570.232	17.967
573.125	18.685
576.017	18.3904
578.91	16.5812
581.803	15.9871
584.695	14.0712
587.588	14.8458
590.481	13.8622
593.373	10.7191
596.266	9.31212
599.159	8.13074
602.052	6.69644
604.944	3.80882
607.837	3.46701
610.73	1.97401
613.622	1.64386
616.515	0.423462
619.408	0.147156
622.3	1.99603
625.193	1.33794
628.086	0.152634
630.979	0.82933
633.871	3.25633
636.764	7.26401
639.657	11.9292
642.549	16.2959
645.442	26.4355
648.335	37.0531
651.227	50.3477
654.12	62.1068
657.013	68.4716
659.905	70.1717
662.798	66.2548
665.691	66.0525
668.584	65.5729
671.476	65.1033
674.369	64.0779
677.262	67.4499
680.154	74.4143
683.047	79.176
685.94	88.2758
688.832	98.9315
691.725	110.548
694.618	124.081
697.511	133.158
700.403	132.955
703.296	119.695
706.189	95.1761
709.081	65.0664
711.974	38.4267
714.867	12.151
717.76	8.38089
720.652	19.8882
723.545	26.9412
726.438	21.733
729.33	6.08777
732.223	20.3816
735.116	62.9902
738.008	126.478
740.901	213.682
743.794	317.211
746.687	429.047
749.579	522.808
752.472	567.843
755.365	561.948
758.257	511.13
761.15	456.242
764.043	415.817
766.935	387.118
769.828	386.987
772.721	396.788
775.614	424.33
778.506	467.978
781.399	524.374
784.292	611.028
787.184	749.756
790.077	947.818
792.97	1215.07
795.862	1540.7
798.755	1878.04
801.648	2137.58
804.54	2208.4
807.433	1983.45
810.326	1543.04
813.219	1087.15
816.111	748.895
819.004	516.375
821.897	362.672
824.789	253.881
827.682	180.638
830.575	125.926
833.467	92.8747
836.36	78.9591
839.253	78.3593
842.146	93.2126
845.038	119.082
847.931	167.8
850.824	232.151
853.716	305.501
856.609	371.07
859.502	383.558
862.394	313.865
865.287	205.036
868.18	114.04
871.073	47.0705
873.965	5.90097
876.858	17.207
879.751	25.2998
882.643	25.0493
885.536	13.9466
888.429	6.87711
891.322	31.4805
894.214	41.4394
897.107	36.7173
900	25.9431
902.892	22.8159
905.785	22.938
908.678	24.4925
911.57	24.5411
914.463	24.9218
917.356	25.1554
920.249	23.9157
923.141	22.6722
926.034	21.1937
928.927	21.8238
931.819	22.0177
934.712	20.7016
937.605	13.9729
940.497	5.93051
943.39	0.129211
946.283	0.071136
949.176	3.87756
952.068	5.95134
954.961	10.1575
957.854	10.3861
960.746	11.2905
963.639	12.192
966.532	14.4323
969.424	15.9315
972.317	16.4076
975.21	18.946
978.102	20.7543
980.995	24.955
983.888	25.0489
986.781	25.6744
989.673	21.9877
992.566	15.6389
995.459	9.58017
998.351	6.48315
1001.24	1.75375
1004.14	0.915695
1007.03	0.267105
1009.92	0.062729
1012.82	0.916946
1015.71	0.023193
1018.6	1.80043
1021.49	0.309921
1024.39	0.718658
1027.28	0.0186
1030.17	0.387146
1033.06	0.055618
1035.96	1.35939
1038.85	1.63359
1041.74	1.15164
1044.63	1.61505
1047.53	1.84784
1050.42	0.227371
1053.31	1.73827
1056.2	0.159744
1059.1	0.165298
1061.99	0.880875
1064.88	1.46275
1067.78	1.43224
1070.67	0.526077
1073.56	0.559097
1076.45	1.66232
1079.35	0.6996
1082.24	0.830551
1085.13	0.253555
1088.03	0.090561
1090.92	1.86159
1093.81	0.852249
1096.7	1.07665
1099.6	1.87726
1102.49	1.1006
1105.38	1.0625
1108.27	0.219238
1111.17	0.218109
1114.06	0.078934
1116.95	2.21649
1119.85	1.42874
1122.74	0.624817
1125.63	1.47322
1128.52	0.572235
1131.42	1.80011
1134.31	2.0545
1137.2	2.85265
1140.09	2.10669
1142.99	2.51354
1145.88	1.44821
1148.77	1.1553
1151.66	0.723282
1154.56	2.63507
1157.45	0.555878
1160.34	1.79559
1163.23	2.14269
1166.13	2.69557
1169.02	1.79727
1171.91	1.26056
1174.81	0.583252
1177.7	1.16972
1180.59	2.33592
1183.48	2.2111
1186.38	0.839722
1189.27	2.02242
1192.16	1.79584
1195.06	0.247955
1197.95	0.340347
1200.84	1.05907
1203.73	7.46654
1206.63	2.25543
1209.52	1.39676
1212.41	0.18837
1215.3	2.59795
1218.2	1.26801
1221.09	0.26416
1223.98	0.578217
1226.88	1.68092
1229.77	0.808578
1232.66	1.57048
1235.55	1.73665
1238.44	0.315079
1241.34	2.03641
1244.23	0.771286
1247.12	1.53778
1250.02	1.16155
1252.91	2.04669
1255.8	2.08389
1258.69	1.71759
1261.59	0.807236
1264.48	1.50618
1267.37	0.068893
1270.27	1.42253
1273.16	2.99788
1276.05	1.22711
1278.94	1.09378
1281.84	0.702362
1284.73	0.174866
