Measurement: Raman, 780 nm, unoriented, Raman Data Processed
Mineral: Denisovite
Rruff sample: R120067
Ideal chemistry: KCa_2_Si_3_O_8_F
Locality: Eveslogchorr Mt, Khibiny Massif, Kola Peninsula, Murmanskaja Oblast', Northern Region, Russia
Source: Donald Doell
Description: Parallel aggregate of colorless-white acicular crystals on black aegerine
Raman shift (cm-1)	intensity
175.974	0
178.867	5.18957
181.759	4.46292
184.652	8.45474
187.545	4.07526
190.437	2.93768
193.33	0.244202
196.223	4.53644
199.115	3.80975
202.008	0.650146
204.901	0.254501
207.794	1.79768
210.686	6.5517
213.579	4.77495
216.472	10.5388
219.364	12.8084
222.257	15.6268
225.15	11.908
228.042	23.0102
230.935	27.5377
233.828	43.7426
236.721	58.0922
239.613	62.1953
242.506	46.0127
245.399	31.8492
248.291	27.9178
251.184	20.4209
254.077	17.5182
256.969	12.1601
259.862	11.5231
262.755	6.12949
265.648	0.252136
268.54	1.06578
271.433	0.800003
274.326	2.80138
277.218	5.40288
280.111	3.11551
283.004	1.4196
285.897	5.11366
288.789	8.60684
291.682	13.4057
294.575	11.8329
297.467	14.4416
300.36	15.3916
303.253	13.7167
306.145	12.9698
309.038	18.7431
311.931	16.2048
314.824	21.1531
317.716	20.4918
320.609	26.3099
323.502	28.6162
326.394	27.6243
329.287	28.1784
332.18	27.9867
335.072	28.8723
337.965	27.8779
340.858	37.4359
343.75	37.8066
346.643	38.0401
349.536	37.6934
352.429	35.9388
355.321	27.9297
358.214	19.1459
361.107	10.1914
364	6.24669
366.892	0.898056
369.785	0.092346
372.678	0.480972
375.57	0.942825
378.463	2.85577
381.356	1.13061
384.248	0.016571
387.141	1.54428
390.034	7.27162
392.926	8.42947
395.819	8.97554
398.712	7.94154
401.605	9.22725
404.497	12.2058
407.39	13.0177
410.283	16.3714
413.175	19.2204
416.068	19.2698
418.961	20.8415
421.853	24.8481
424.746	25.8944
427.639	31.9938
430.532	33.3316
433.424	33.1501
436.317	28.0108
439.21	26.4685
442.102	23.982
444.995	23.5644
447.888	21.8423
450.781	24.8393
453.673	33.7258
456.566	38.1784
459.459	46.5946
462.351	46.66
465.244	30.8751
468.137	20.6653
471.029	9.33229
473.922	9.26849
476.815	4.8087
479.707	6.0423
482.6	8.07135
485.493	5.88544
488.386	5.43579
491.278	6.62639
494.171	6.21436
497.064	10.5547
499.956	7.71457
502.849	10.8097
505.742	10.9904
508.635	13.6852
511.527	12.8164
514.42	12.7948
517.313	6.53625
520.205	4.29034
523.098	0.263763
525.991	0.064301
528.883	1.3701
531.776	0.34903
534.669	0.018082
537.562	0.113678
540.454	0.691498
543.347	0.705887
546.24	1.31255
549.132	2.71631
552.025	2.96944
554.918	3.26807
557.81	5.78114
560.703	5.72549
563.596	0.864944
566.489	1.45627
569.381	0.180634
572.274	0.263474
575.167	0.70842
578.059	2.85423
580.952	2.9639
583.845	4.38576
586.737	3.41327
589.63	3.5638
592.523	4.44212
595.415	2.98508
598.308	2.15703
601.201	2.20029
604.094	2.37656
606.986	7.02092
609.879	12.7065
612.772	17.8629
615.664	33.0111
618.557	52.3183
621.45	77.0873
624.342	97.0439
627.235	105.865
630.128	113.11
633.021	134.459
635.913	155.702
638.806	167.014
641.699	156.887
644.591	143.387
647.484	134.353
650.377	123.103
653.269	110.283
656.162	106.049
659.055	114.857
661.948	128.259
664.84	162.897
667.733	209.735
670.626	248.493
673.518	267.482
676.411	237.696
679.304	180.505
682.197	120.409
685.089	79.2781
687.982	49.4923
690.875	30.8713
693.767	22.2733
696.66	14.5734
699.553	7.34399
702.445	4.09392
705.338	1.5047
708.231	1.66956
711.124	0.447739
714.016	0.462738
716.909	1.2041
719.802	0.74855
722.694	0.475769
725.587	0.206619
728.48	1.0293
731.372	0.395432
734.265	0.744614
737.158	1.75464
740.051	0.224304
742.943	0.983704
745.836	1.49786
748.729	0.249969
751.621	0.484634
754.514	0.07074
757.407	0.815552
760.299	3.00732
763.192	2.92329
766.085	6.52853
768.977	9.58139
771.87	9.19049
774.763	12.2292
777.656	14.9844
780.548	19.9304
783.441	20.4633
786.334	18.1834
789.226	16.2712
792.119	16.3854
795.012	17.2057
797.904	17.5151
800.797	16.9415
803.69	11.5228
806.583	7.90251
809.475	6.00404
812.368	2.6066
815.261	2.89535
818.153	4.85217
821.046	3.32471
823.939	2.49622
826.832	3.96083
829.724	4.86804
832.617	4.49579
835.51	4.4769
838.402	5.77371
841.295	8.54622
844.188	9.92491
847.08	12.248
849.973	11.2027
852.866	10.8536
855.759	6.32455
858.651	8.88782
861.544	3.83609
864.437	2.66722
867.329	3.89037
870.222	3.25854
873.115	3.22954
876.007	2.33426
878.9	0.168701
881.793	0.83963
884.686	0.222351
887.578	4.37402
890.471	3.192
893.364	0.614349
896.256	0.625397
899.149	4.05417
902.042	0.031631
904.934	2.08086
907.827	5.14034
910.72	1.36945
913.612	0.712997
916.505	1.81444
919.398	4.02853
922.291	2.01549
925.183	4.85167
928.076	0.741241
930.969	1.03526
933.861	5.82884
936.754	5.64243
939.647	6.16936
942.539	8.53294
945.432	9.47789
948.325	10.0418
951.218	10.6578
954.11	11.542
957.003	14.5349
959.896	15.7765
962.788	17.8274
965.681	19.9481
968.574	16.4876
971.466	10.7392
974.359	9.18484
977.252	5.93756
980.145	3.13036
983.037	1.71429
985.93	0.196457
988.823	0.472321
991.715	0.599457
994.608	0.11879
997.501	2.02338
1000.39	3.93855
1003.29	5.49669
1006.18	7.96587
1009.07	9.80676
1011.96	11.0201
1014.86	15.3285
1017.75	16.5226
1020.64	21.0907
1023.53	24.0762
1026.43	31.7303
1029.32	36.3059
1032.21	37.4216
1035.11	32.8131
1038	34.5127
1040.89	30.2792
1043.78	27.058
1046.68	20.4772
1049.57	19.4331
1052.46	17.1328
1055.36	18.1646
1058.25	21.4841
1061.14	19.0332
1064.03	19.2683
1066.93	18.4936
1069.82	17.3229
1072.71	15.047
1075.6	9.48793
1078.5	7.31149
1081.39	7.35828
1084.28	6.57188
1087.17	6.96886
1090.07	6.9397
1092.96	1.41244
1095.85	2.3231
1098.74	0.918442
1101.64	0.107285
1104.53	1.6562
1107.42	3.52672
1110.32	5.32822
1113.21	1.35024
1116.1	9.14597
1118.99	16.3847
1121.89	16.8084
1124.78	23.624
1127.67	33.7896
1130.57	47.5899
1133.46	56.3454
1136.35	61.2481
1139.24	43.562
1142.14	22.6641
1145.03	7.51866
1147.92	3.448
1150.81	3.19539
1153.71	0.520432
1156.6	2.358
1159.49	0.799103
1162.38	1.54277
1165.28	0.781738
1168.17	2.15895
1171.06	1.20399
1173.96	0.888031
1176.85	2.32756
1179.74	3.46808
1182.63	2.94192
1185.53	0.178146
1188.42	3.21092
1191.31	2.47836
1194.2	3.63272
1197.1	1.77739
1199.99	1.01488
1202.88	2.49626
1205.78	5.54788
1208.67	3.56783
1211.56	1.0513
1214.45	4.5139
1217.35	2.77942
1220.24	5.17104
1223.13	1.18276
1226.02	2.05499
1228.92	4.76652
1231.81	2.86764
1234.7	2.40863
1237.6	4.93439
1240.49	1.04179
1243.38	4.90263
1246.27	4.71426
1249.17	3.07053
1252.06	2.37854
1254.95	3.33862
1257.84	0.992035
1260.74	2.85037
1263.63	3.04581
1266.52	0.966873
1269.41	0.067886
1272.31	1.24553
1275.2	0.847061
1278.09	0.793198
1280.98	1.33815
1283.88	0.033295
