Measurement: Raman, 785 nm, unoriented, Raman Data Processed
Mineral: Denningite
Rruff sample: R061023
Ideal chemistry: CaMn^2+^Te^4+^_4_O_10_
Locality: Bambolla mine, Moctezuma, Sonora, Mexico
Source: Michael Scott
Description: Pale green thin platy crystals associated with quartz, tellurium, tellurite, and zemannite
Raman shift (cm-1)	intensity
124.903	0
127.795	107.117
130.688	393.775
133.581	457.611
136.473	32.6256
139.366	124.946
142.259	946.513
145.151	2563.22
148.044	3904.34
150.937	4420.24
153.83	4797.49
156.722	3383.89
159.615	1437.76
162.508	956.935
165.4	1014.02
168.293	1492.84
171.186	2169.74
174.078	2567.68
176.971	1630.12
179.864	771.871
182.757	354.257
185.649	183.361
188.542	84.2605
191.435	21.9435
194.327	43.1332
197.22	113.271
200.113	249.324
203.006	401.887
205.898	567.864
208.791	660.659
211.684	702.922
214.576	767.961
217.469	1004.83
220.362	1425.72
223.254	2040.18
226.147	2772.44
229.04	3646.29
231.933	4329.82
234.825	4391.43
237.718	3865.82
240.611	3158.12
243.503	2323.23
246.396	1632.89
249.289	1037.46
252.181	687.923
255.074	514.826
257.967	441.411
260.86	363.792
263.752	301.936
266.645	176.219
269.538	128.612
272.43	66.7419
275.323	57.6517
278.216	15.5953
281.108	6.25867
284.001	5.06836
286.894	58.9889
289.786	36.4211
292.679	40.9296
295.572	69.7042
298.465	11.3665
301.357	33.0411
304.25	79.2483
307.143	162.414
310.035	249.732
312.928	370.076
315.821	562.91
318.714	792.711
321.606	1078.99
324.499	1485.62
327.392	2022.82
330.284	2677.81
333.177	3782.55
336.07	5460.54
338.962	8226.12
341.855	12235.8
344.748	16889.1
347.64	20006.6
350.533	18526.7
353.426	13953.8
356.319	10071.3
359.211	7720.07
362.104	6392.82
364.997	5202.57
367.889	4246.71
370.782	3865.87
373.675	4185.67
376.567	4788.74
379.46	5115.83
382.353	4226.01
385.246	2659.51
388.138	1482.25
391.031	858.795
393.924	557.701
396.816	329.218
399.709	194.282
402.602	84.2177
405.495	0.624878
408.387	61.3361
411.28	52.5443
414.173	24.9058
417.065	75.6303
419.958	207.743
422.851	374.333
425.743	532.65
428.636	641.561
431.529	793.989
434.421	1033.92
437.314	1230.86
440.207	1440.34
443.1	1604.72
445.992	1588.92
448.885	1528.44
451.778	1475.89
454.67	1346.52
457.563	1230.13
460.456	1159.24
463.349	1117.63
466.241	1094.93
469.134	1125.1
472.027	1144.03
474.919	1129.9
477.812	1021.46
480.705	828.817
483.598	608.201
486.49	419.117
489.383	281.952
492.276	192.096
495.168	117.864
498.061	54.8229
500.954	6.49561
503.846	10.182
506.739	13.9255
509.632	0.718506
512.524	17.6774
515.417	5.35132
518.31	15.1542
521.203	40.4224
524.095	39.5075
526.988	57.1357
529.881	67.429
532.773	69.9808
535.666	95.2443
538.559	131.44
541.452	165.729
544.344	159.222
547.237	168.18
550.13	167.934
553.022	172.812
555.915	179.732
558.808	204.05
561.7	219.81
564.593	240.975
567.486	259.99
570.379	292.944
573.271	304.577
576.164	315.701
579.057	270.086
581.949	254.557
584.842	254.982
587.735	242.023
590.627	203.36
593.52	181.993
596.413	174.974
599.306	173.939
602.198	142.624
605.091	115.678
607.984	52.8796
610.876	45.423
613.769	6.95282
616.662	29.0666
619.554	66.7802
622.447	120.363
625.34	135.516
628.232	100.085
631.125	88.1277
634.018	62.4781
636.911	15.6599
639.803	64.7485
642.696	209.102
645.589	424.061
648.481	693.087
651.374	1031.65
654.267	1569.45
657.159	2200.93
660.052	3021.98
662.945	4051.7
665.838	5017.8
668.73	5899.87
671.623	6215.55
674.516	5880.12
677.408	5082.38
680.301	3930.2
683.194	2989.79
686.087	2199.6
688.979	1729
691.872	1528.4
694.765	1583.41
697.657	1870.35
700.55	2381.77
703.443	3256.66
706.335	4600.92
709.228	6606.46
712.121	9062.58
715.014	11904.4
717.906	15207.4
720.799	19870.3
723.692	26913.5
726.584	36662.1
729.477	47313.7
732.37	54329.6
735.262	51225.2
738.155	38417.6
741.048	25188.1
743.941	16307.9
746.833	10939.5
749.726	7687.63
752.619	5690.75
755.511	4519.17
758.404	3902.65
761.297	3789.04
764.189	3663.39
767.082	3287.46
769.975	2465.57
772.867	1636.49
775.76	1003.36
778.653	537.268
781.546	301.407
784.438	116.871
787.331	21.4429
790.224	46.9541
793.116	73.4462
796.009	86.8302
798.902	114.203
801.794	115.07
804.687	83.2297
807.58	73.0076
810.473	45.176
813.365	2.6239
816.258	31.2376
819.151	48.5579
822.043	75.8903
824.936	103.749
827.829	146.041
830.722	167.939
833.614	220.494
836.507	255.643
839.4	263.026
842.292	310.348
845.185	330.778
848.078	341.422
850.971	365.413
853.863	360.246
856.756	343.393
859.649	331.525
862.541	310.818
865.434	297.714
868.327	274.113
871.219	277.029
874.112	240.391
877.005	236.109
879.898	225.383
882.79	219.865
885.683	207.334
888.576	184.382
891.468	193.818
894.361	180.78
897.254	158.81
900.146	145.201
903.039	149.07
905.932	129.065
908.824	124.352
911.717	120.882
914.61	97.6325
917.503	96.409
920.395	95.6772
923.288	65.3547
926.181	86.0843
929.073	79.4714
931.966	72.6602
934.859	68.1397
937.751	55.4145
940.644	61.6456
943.537	60.3177
946.43	36.1849
949.322	53.2967
952.215	39.4582
955.108	30.9172
958	33.9688
960.893	22.3505
963.786	37.4037
966.678	17.1807
969.571	26.0773
972.464	18.125
975.357	13.4681
978.249	17.6566
981.142	12.0556
984.035	7.57306
986.927	10.8112
989.82	9.381
992.713	12.0539
995.606	10.6216
998.498	5.05563
1001.39	14.0588
1004.28	4.67256
1007.18	6.73795
1010.07	7.18048
1012.96	6.10464
1015.85	8.01996
1018.75	1.34514
1021.64	17.7335
1024.53	5.03072
1027.42	4.77246
1030.32	4.56619
1033.21	11.9727
1036.1	20.7106
1039	1.33408
1041.89	19.9729
1044.78	10.4979
1047.67	7.46046
1050.57	13.5648
1053.46	9.80951
1056.35	1.35165
1059.24	13.3782
1062.14	6.12894
1065.03	12.7238
1067.92	11.5912
1070.82	6.5771
1073.71	8.21365
1076.6	12.8278
1079.49	16.8862
1082.39	13.4394
1085.28	16.0667
1088.17	0.742126
1091.07	11.5287
1093.96	20.0315
1096.85	8.88034
1099.74	26.6916
1102.63	12.8054
1105.53	13.198
1108.42	9.60486
1111.31	3.90712
1114.21	19.9971
1117.1	6.10518
1119.99	7.52843
1122.88	20.8419
1125.78	16.2049
1128.67	15.2684
1131.56	13.2124
1134.45	17.7355
1137.35	14.3799
1140.24	16.7184
1143.13	12.4624
1146.03	9.22662
1148.92	6.33441
1151.81	16.8646
1154.7	7.71759
1157.6	3.82942
1160.49	16.075
1163.38	11.624
1166.28	12.3417
1169.17	29.6836
1172.06	17.0266
1174.95	21.7738
1177.85	13.2636
1180.74	6.31862
1183.63	10.0361
1186.52	24.7402
1189.42	20.7721
1192.31	21.4117
1195.2	3.5861
1198.09	26.7775
1200.99	5.37503
1203.88	4.37418
1206.77	1.72829
1209.66	9.12071
1212.56	15.7734
1215.45	23.2222
1218.34	23.366
1221.24	22.6958
1224.13	16.705
1227.02	26.7895
1229.91	29.9185
1232.81	28.9676
1235.7	0.318604
1238.59	17.6352
1241.48	28.7636
1244.38	5.5329
