Measurement: Raman, 532 nm, unoriented, Raman Data Processed
Mineral: Denningite
Rruff sample: R061023
Ideal chemistry: CaMn^2+^Te^4+^_4_O_10_
Locality: Bambolla mine, Moctezuma, Sonora, Mexico
Source: Michael Scott
Description: Pale green thin platy crystals associated with quartz, tellurium, tellurite, and zemannite
Raman shift (cm-1)	intensity
133.576	0
136.951	329.56
140.326	1932.74
143.7	4496.65
147.075	6861.91
150.45	6908.1
153.825	7000.69
157.2	5205.58
160.574	1707.33
163.949	1102
167.324	1336.97
170.699	1922.06
174.074	2575.64
177.448	1581.78
180.823	440.022
184.198	67.7717
187.573	167.871
190.948	112.735
194.323	29.2878
197.697	166.059
201.072	451.205
204.447	762.632
207.822	1071.51
211.197	1269.29
214.571	1500.69
217.946	1916.99
221.321	2759.26
224.696	3871.19
228.071	5173.74
231.446	6354.94
234.82	6579.23
238.195	5757.14
241.57	4458.35
244.945	3171.54
248.32	2034.39
251.694	1275.58
255.069	885.593
258.444	709.803
261.819	612.65
265.194	457.752
268.568	304.936
271.943	198.874
275.318	109.883
278.693	74.0111
282.068	5.18774
285.442	22.9919
288.817	26.6036
292.192	50.8888
295.567	34.6437
298.942	12.4253
302.317	72.0931
305.691	152.124
309.066	337.656
312.441	555.537
315.816	914.557
319.191	1342.04
322.565	1984.73
325.94	2778.14
329.315	3893.03
332.69	5756.31
336.065	8840.33
339.44	13699.4
342.814	19517.3
346.189	24603.5
349.564	25382.3
352.939	19808.3
356.314	13771.2
359.688	10217.8
363.063	8395.02
366.438	6565.89
369.813	5440.01
373.188	5158.3
376.562	5497.78
379.937	5494.81
383.312	4065.52
386.687	2290.43
390.062	1197.03
393.437	636.883
396.811	296.278
400.186	121.65
403.561	13.2376
406.936	73.8181
410.311	85.3997
413.685	4.85767
417.06	167.363
420.435	378.57
423.81	652.832
427.185	987.886
430.56	1255.52
433.934	1649.91
437.309	1950.41
440.684	2399.8
444.059	2593.95
447.434	2650.69
450.808	2591.83
454.183	2490.59
457.558	2278.49
460.933	2095.51
464.308	1910.11
467.683	1825.04
471.057	1741.47
474.432	1611.27
477.807	1394.01
481.182	1068.29
484.557	775.57
487.931	471.396
491.306	255.003
494.681	117.476
498.056	65.8174
501.431	5.34363
504.805	20.4325
508.18	9.09363
511.555	13.1867
514.93	22.0718
518.305	31.0945
521.679	83.7435
525.054	119.039
528.429	149.768
531.804	189.047
535.179	192.513
538.554	236.477
541.928	259.927
545.303	279.816
548.678	296.277
552.053	320.709
555.428	331.484
558.802	348.238
562.177	388.572
565.552	429.043
568.927	451.891
572.302	469.892
575.677	457.76
579.051	425.107
582.426	375.633
585.801	337.025
589.176	297.199
592.551	258.174
595.925	200.007
599.3	180.969
602.675	145.85
606.05	117.133
609.425	48.3812
612.799	33.0891
616.174	115.603
619.549	149.937
622.924	207.308
626.299	217.02
629.673	175.585
633.048	92.24
636.423	77.0884
639.798	293.624
643.173	601.358
646.548	1118.65
649.922	1911.59
653.297	2837.8
656.672	4138.31
660.047	5775.82
663.422	7615.37
666.797	9403.05
670.171	10437.4
673.546	10110
676.921	8543.82
680.296	6563.44
683.67	4708.64
687.045	3370.04
690.42	2716.67
693.795	2727.95
697.17	3290.21
700.545	4490.31
703.919	6577.63
707.294	9624.45
710.669	13962.2
714.044	19639.2
717.419	26795.1
720.793	36560
724.168	50002
727.543	66015
730.918	79705.9
734.293	80477.3
737.668	61927.6
741.042	39394.9
744.417	24480
747.792	15803.4
751.167	10837.1
754.542	8033.21
757.916	6712.62
761.291	6006.25
764.666	5610.6
768.041	4654.75
771.416	3129.44
774.79	1741.62
778.165	893.309
781.54	375.488
784.915	69.5859
788.29	52.1028
791.665	166.052
795.039	154.898
798.414	190.31
801.789	139.094
805.164	125.654
808.539	80.4222
811.913	4.34619
815.288	52.3772
818.663	109.687
822.038	196.071
825.413	254.619
828.788	349.038
832.162	388.527
835.537	450.928
838.912	526.625
842.287	560.986
845.662	613.254
849.036	633.846
852.411	616.557
855.786	591.837
859.161	557.819
862.536	527.375
865.91	509.197
869.285	438.183
872.66	410.911
876.035	388.645
879.41	353.35
882.784	340.461
886.159	332.401
889.534	323.542
892.909	312.023
896.284	284.469
899.659	265.299
903.033	226.411
906.408	238.724
909.783	213.006
913.158	189.684
916.533	182.149
919.908	150.48
923.282	162.987
926.657	135.315
930.032	129.042
933.407	105.695
936.782	88.6848
940.156	90.1732
943.531	97.6484
946.906	78.7852
950.281	51.9005
953.656	49.5504
957.03	37.5238
960.405	57.3405
963.78	50.9446
967.155	37.0571
970.53	34.0768
973.904	14.3669
977.279	11.4295
980.654	25.6149
984.029	22.701
987.404	3.98709
990.779	1.43542
994.153	5.87247
997.528	13.3798
1000.9	13.2833
1004.28	4.08337
1007.65	19.0703
1011.03	0.602478
1014.4	7.34088
1017.78	6.34701
1021.15	11.7881
1024.53	3.61722
1027.9	1.96893
1031.28	18.667
1034.65	5.80417
1038.03	6.61316
1041.4	5.24655
1044.78	12.9284
1048.15	9.24841
1051.53	5.03742
1054.9	9.48575
1058.28	1.31256
1061.65	8.23593
1065.03	0.879059
1068.4	12.8745
1071.77	4.74402
1075.15	3.72745
1078.52	9.42514
1081.9	15.5284
1085.27	14.6805
1088.65	4.04388
1092.02	10.421
1095.4	20.0761
1098.77	14.7948
1102.15	20.6151
1105.52	27.9484
1108.9	16.3318
1112.27	24.244
1115.65	33.4047
1119.02	15.2803
1122.4	40.7145
1125.77	27.2089
1129.15	24.5314
1132.52	41.3274
1135.9	18.885
1139.27	21.3726
1142.64	25.726
1146.02	21.089
1149.39	17.2956
1152.77	28.8114
1156.14	40.3158
1159.52	18.478
1162.89	15.8709
1166.27	26.9065
1169.64	7.46841
1173.02	12.9771
1176.39	9.6467
1179.77	16.1198
1183.14	33.4189
1186.52	21.7709
1189.89	23.6364
1193.27	28.6865
1196.64	10.6072
1200.02	12.9338
1203.39	14.0462
1206.77	20.9324
1210.14	8.81601
1213.52	9.52945
1216.89	1.6554
1220.27	0.924194
1223.64	5.04901
1227.02	2.77716
1230.39	13.7303
1233.77	4.92151
1237.14	14.5449
1240.52	10.282
1243.89	17.8771
1247.26	5.53342
1250.64	3.20276
1254.01	15.8716
1257.39	11.8363
1260.76	23.758
1264.14	3.71506
1267.51	18.7092
1270.89	26.8144
1274.26	7.58606
1277.64	18.3957
1281.01	16.5582
1284.39	5.20413
1287.76	4.89673
