Measurement: Raman, 532 nm, unoriented, Raman Data Processed
Mineral: Derriksite
Rruff sample: R100223
Ideal chemistry: Cu_4_(UO_2_)(Se^4+^O_3_)_2_(OH)_6_
Locality: Musonoi mine, Kolwezi, Katanga, Congo
Source: William W. Pinch
Description: Dark green crystal associated with metatorbernite, malachite and brochantite
Raman shift (cm-1)	intensity
145.514	0
148.889	4.3409
152.264	2.72184
155.639	6.44545
159.014	9.52194
162.388	17.4374
165.763	17.2803
169.138	32.79
172.513	31.2836
175.888	38.4329
179.263	48.1106
182.637	59.0949
186.012	75.1407
189.387	79.5441
192.762	71.8094
196.137	59.1981
199.512	47.9113
202.886	33.8969
206.261	26.9835
209.636	27.3908
213.011	28.843
216.386	34.6014
219.761	30.7674
223.135	27.2081
226.51	34.6906
229.885	36.5434
233.26	39.5447
236.635	38.2852
240.009	30.692
243.384	19.4926
246.759	13.0001
250.134	13.3366
253.509	14.8085
256.884	13.6171
260.258	11.4853
263.633	9.11457
267.008	6.89622
270.383	8.50546
273.758	7.33679
277.132	4.51999
280.507	3.4372
283.882	1.09299
287.257	0.633739
290.632	0.216732
294.007	0.639629
297.381	1.96239
300.756	2.43198
304.131	0.046238
307.506	0.070461
310.881	1.10225
314.255	1.63634
317.63	1.30411
321.005	6.64543
324.38	5.45759
327.755	0.527397
331.13	1.25323
334.504	1.28002
337.879	0.371841
341.254	8.42059
344.629	4.77339
348.004	5.00607
351.378	12.7014
354.753	22.2022
358.128	10.175
361.503	6.10412
364.878	2.93005
368.253	4.16392
371.627	14.631
375.002	25.6549
378.377	37.8494
381.752	57.2774
385.127	79.9448
388.502	89.5431
391.876	71.5028
395.251	45.5402
398.626	26.3076
402.001	19.6294
405.376	18.37
408.75	20.1205
412.125	20.9042
415.5	29.2573
418.875	32.5258
422.25	37.8604
425.625	43.0817
428.999	30.229
432.374	14.2877
435.749	1.98184
439.124	0.301933
442.499	1.90666
445.873	0.277279
449.248	2.17888
452.623	1.36637
455.998	3.61054
459.373	8.34429
462.748	12.6786
466.122	17.9749
469.497	24.1142
472.872	25.8111
476.247	23.0259
479.622	16.5782
482.996	14.5905
486.371	10.0008
489.746	12.5397
493.121	9.4565
496.496	9.59711
499.87	13.7893
503.245	12.7133
506.62	16.7258
509.995	20.886
513.37	22.3339
516.745	19.1918
520.119	15.9696
523.494	7.75605
526.869	10.0366
530.244	6.42289
533.619	3.82429
536.994	4.32429
540.368	2.62822
543.743	2.5518
547.118	0.010639
550.493	1.51326
553.868	1.11031
557.242	0.335876
560.617	0.580841
563.992	0.183578
567.367	3.21213
570.742	0.530411
574.117	1.6723
577.491	0.634182
580.866	1.0501
584.241	2.29675
587.616	3.83155
590.991	9.20574
594.365	11.2004
597.74	16.7263
601.115	21.1055
604.49	30.1463
607.865	43.4096
611.24	63.6299
614.614	96.885
617.989	138.523
621.364	182.716
624.739	227.574
628.114	246.515
631.489	229.84
634.863	191.175
638.238	152.719
641.613	118.45
644.988	91.902
648.363	68.7491
651.737	48.8183
655.112	38.6721
658.487	27.4514
661.862	22.9333
665.237	15.1809
668.612	12.8802
671.986	7.06274
675.361	5.40727
678.736	5.59368
682.111	3.4371
685.486	1.29843
688.861	0.071983
692.235	0.173843
695.61	1.22401
698.985	3.16427
702.36	5.51681
705.735	15.9979
709.109	17.819
712.484	29.3309
715.859	45.3299
719.234	65.5817
722.609	98.0415
725.984	137.535
729.358	188.771
732.733	242.751
736.108	278.677
739.483	244.059
742.858	158.329
746.232	80.1179
749.607	42.1895
752.982	20.4699
756.357	9.95956
759.732	1.91718
763.107	0.445267
766.481	4.45053
769.856	4.37408
773.231	1.36974
776.606	0.911957
779.981	8.91556
783.356	15.5458
786.73	24.2071
790.105	29.2035
793.48	42.1699
796.855	52.7482
800.23	65.602
803.604	83.4236
806.979	100.793
810.354	127.199
813.729	155.307
817.104	191.12
820.479	223.952
823.853	261.855
827.228	284.902
830.603	298.92
833.978	291.911
837.353	284.873
840.727	260.084
844.102	230.719
847.477	210.47
850.852	189.497
854.227	184.004
857.601	171.429
860.976	138.124
864.351	91.115
867.726	53.061
871.101	40.2844
874.476	32.9444
877.851	28.6361
881.225	31.9103
884.6	21.2881
887.975	12.8748
891.35	12.8257
894.725	8.43942
898.099	9.36601
901.474	14.7312
904.849	11.2703
908.224	2.33326
911.599	1.3361
914.973	3.91552
918.348	0.441906
921.723	0.642143
925.098	1.54876
928.473	1.85197
931.847	2.36896
935.222	1.07681
938.597	4.51464
941.972	2.51771
945.347	3.03963
948.722	5.65491
952.096	8.60335
955.471	6.29958
958.846	9.54139
962.221	8.18094
965.596	8.20849
968.971	6.85247
972.345	6.31449
975.72	4.60366
979.095	6.45921
982.47	3.76324
985.845	4.18702
989.22	4.37449
992.594	4.0234
995.969	2.08411
999.344	4.92967
1002.72	3.23821
1006.09	5.65411
1009.47	3.9899
1012.84	3.33285
1016.22	0.194626
1019.59	5.29644
1022.97	0.014006
1026.34	1.63042
1029.72	3.27215
1033.09	4.42679
1036.47	7.18591
1039.84	3.15696
1043.22	1.55831
1046.59	1.35905
1049.97	4.02658
1053.34	4.06811
1056.72	3.0908
1060.09	0.735149
1063.47	4.20801
1066.84	1.44037
1070.21	1.80958
1073.59	2.26901
1076.96	1.18647
1080.34	3.25888
1083.71	4.10919
1087.09	2.58783
1090.46	1.71033
1093.84	4.39063
1097.21	1.81687
1100.59	1.35648
1103.96	6.14038
1107.34	3.23066
1110.71	4.58157
1114.09	1.48342
1117.46	3.86741
1120.84	3.94399
1124.21	1.42792
1127.59	4.27065
1130.96	1.14392
1134.34	0.157902
1137.71	0.876314
1141.09	1.79061
1144.46	2.49311
1147.84	1.25421
1151.21	2.20804
1154.59	2.56601
1157.96	0.362953
1161.34	3.912
1164.71	1.82091
1168.09	3.68654
1171.46	3.76278
1174.84	3.40767
1178.21	2.17019
1181.58	4.49516
1184.96	4.8048
1188.33	5.73144
1191.71	3.20983
1195.08	2.70549
1198.46	3.83739
1201.83	0.660944
1205.21	4.08958
1208.58	6.51837
1211.96	3.97284
1215.33	0.581953
1218.71	1.39368
1222.08	1.76669
1225.46	5.75548
1228.83	2.90102
1232.21	5.32354
1235.58	2.26146
1238.96	2.81341
1242.33	4.05377
1245.71	4.4564
1249.08	0.531462
1252.45	1.74489
1255.83	0.938953
1259.2	4.43552
1262.58	0.744663
1265.95	1.44967
1269.33	2.1266
1272.7	3.52389
1276.08	0.451809
1279.45	2.53134
1282.83	3.64461
1286.2	4.41165
1289.58	1.62073
1292.95	3.21626
1296.33	2.99433
1299.7	6.25558
