Measurement: Raman, 780 nm, unoriented, Raman Data Processed
Mineral: Desautelsite
Rruff sample: R060303
Ideal chemistry: Mg_6_Mn^3+^_2_CO_3_(OH)_16_4H_2_O
Locality: 1.5 miles west of San Benito mountain, southern San Benito County, California, USA
Source: Michael Scott
Description: A druse of orange colored thin hexagonal crystals
Raman shift (cm-1)	intensity
149.869	0
152.762	0.325043
155.655	2.23206
158.547	1.84319
161.44	1.85307
164.333	3.2635
167.226	4.57795
170.118	3.17402
173.011	4.5423
175.904	4.03667
178.796	2.98958
181.689	3.44009
184.582	2.91492
187.474	2.91177
190.367	0.61306
193.26	1.61942
196.153	1.64125
199.045	0.524529
201.938	0.564781
204.831	0.03392
207.723	0.294647
210.616	0.517731
213.509	2.80391
216.401	3.21427
219.294	6.7837
222.187	7.17917
225.079	6.73193
227.972	9.49385
230.865	9.75595
233.758	10.4387
236.65	11.3591
239.543	12.1081
242.436	12.5263
245.328	14.4423
248.221	13.9792
251.114	14.6516
254.006	16.8053
256.899	15.1474
259.792	16.14
262.685	16.0323
265.577	18.6201
268.47	18.1657
271.363	18.3481
274.255	19.7917
277.148	18.4939
280.041	18.6257
282.933	18.7974
285.826	15.68
288.719	14.8034
291.612	13.6815
294.504	12.7081
297.397	11.5223
300.29	9.57696
303.182	9.53217
306.075	8.27636
308.968	6.51134
311.861	5.79609
314.753	6.98067
317.646	4.4904
320.539	4.44373
323.431	5.18638
326.324	3.53012
329.217	1.70427
332.109	1.54871
335.002	1.62814
337.895	1.87085
340.788	2.90152
343.68	1.82641
346.573	1.88781
349.466	1.71748
352.358	0.131062
355.251	1.5267
358.144	2.57315
361.036	0.773888
363.929	0.672798
366.822	0.641624
369.715	0.320438
372.607	0.188259
375.5	0.235077
378.393	0.264179
381.285	0.551659
384.178	1.09147
387.071	0.118763
389.964	0.420303
392.856	0.82354
395.749	0.629505
398.642	0.950649
401.534	0.289833
404.427	1.50317
407.32	0.529434
410.212	2.03546
413.105	1.94665
415.998	2.87785
418.89	5.56703
421.783	4.53611
424.676	6.6905
427.569	7.27519
430.461	8.38398
433.354	7.39698
436.247	8.60127
439.139	9.39024
442.032	8.65771
444.925	10.7176
447.817	10.3765
450.71	12.0223
453.603	11.2368
456.496	10.8426
459.388	8.26551
462.281	7.25756
465.174	4.43368
468.066	2.49525
470.959	0.574738
473.852	0.12862
476.745	0.514229
479.637	0.912769
482.53	0.075371
485.423	0.980183
488.315	2.11063
491.208	4.00767
494.101	6.28713
496.993	9.01405
499.886	12.6371
502.779	18.9851
505.671	27.4351
508.564	35.559
511.457	47.3873
514.35	60.043
517.242	77.0103
520.135	93.4879
523.028	110.117
525.92	125.015
528.813	136.737
531.706	145.326
534.598	144.331
537.491	137.901
540.384	122.983
543.277	106.502
546.169	88.3531
549.062	74.7145
551.955	61.8541
554.847	52.3858
557.74	42.4817
560.633	37.1348
563.525	31.2553
566.418	24.0249
569.311	20.2364
572.204	16.6067
575.096	12.0837
577.989	8.50361
580.882	6.53859
583.774	5.29855
586.667	2.59279
589.56	2.44627
592.452	0.862064
595.345	1.35751
598.238	1.02564
601.131	0.03764
604.023	0.022797
606.916	0.040192
609.809	0.011425
612.701	0.391907
615.594	0.567558
618.487	0.709183
621.38	0.324284
624.272	1.15455
627.165	0.584911
630.058	0.809887
632.95	1.21897
635.843	0.429863
638.736	0.494837
641.628	1.08976
644.521	0.865173
647.414	2.20106
650.307	1.64809
653.199	2.19513
656.092	2.56354
658.985	1.28238
661.877	1.86808
664.77	2.71444
667.663	2.4429
670.555	3.30829
673.448	1.96123
676.341	2.87895
679.234	2.54672
682.126	2.68145
685.019	2.48832
687.912	3.47414
690.804	1.77427
693.697	3.38853
696.59	1.78355
699.482	2.27323
702.375	1.50855
705.268	2.23731
708.16	1.08525
711.053	1.40966
713.946	0.570017
716.839	1.52761
719.731	0.495922
722.624	0.843653
725.517	0.116966
728.409	0.081985
731.302	0.97113
734.195	1.28137
737.087	0.940104
739.98	0.037336
742.873	1.0185
745.766	0.839941
748.658	0.93383
751.551	0.442537
754.444	0.445673
757.336	0.610964
760.229	1.10075
763.122	1.10953
766.014	0.294125
768.907	1.3351
771.8	1.19269
774.693	0.605307
777.585	0.755827
780.478	1.08071
783.371	0.222969
786.263	0.710449
789.156	0.144234
792.049	0.150553
794.942	0.395166
797.834	1.45239
800.727	0.705187
803.62	0.902716
806.512	1.36682
809.405	1.70524
812.298	1.67519
815.19	2.00307
818.083	2.11964
820.976	1.60192
823.869	1.77555
826.761	1.46691
829.654	2.06844
832.547	1.82732
835.439	2.36497
838.332	1.84495
841.225	1.53716
844.117	0.972015
847.01	1.94115
849.903	3.1461
852.795	2.42024
855.688	0.415203
858.581	1.62032
861.474	1.40456
864.366	2.33632
867.259	1.6693
870.152	2.20603
873.044	2.22348
875.937	2.16402
878.83	1.78401
881.722	1.69449
884.615	1.19976
887.508	1.12053
890.401	1.69429
893.293	1.06516
896.186	0.553978
899.079	0.872156
901.971	1.63802
904.864	0.43257
907.757	0.264502
910.649	0.719934
913.542	0.001637
916.435	0.041027
919.328	0.315887
922.22	1.30848
925.113	1.18236
928.006	0.68618
930.898	0.6001
933.791	1.13629
936.684	0.717255
939.577	1.40968
942.469	0.528646
945.362	1.25796
948.255	0.619102
951.147	0.607336
954.04	0.316877
956.933	0.722872
959.825	0.652424
962.718	0.084126
965.611	0.210039
968.504	0.197659
971.396	1.06688
974.289	0.557156
977.182	0.131729
980.074	1.27452
982.967	0.065912
985.86	1.23992
988.752	0.203711
991.645	1.07544
994.538	1.36668
997.431	1.43695
1000.32	0.489691
1003.22	1.92751
1006.11	1.99296
1009	2.25933
1011.89	2.22788
1014.79	2.27751
1017.68	2.30095
1020.57	2.03342
1023.47	2.52718
1026.36	2.78449
1029.25	3.16947
1032.14	2.79351
1035.04	2.8622
1037.93	4.57988
1040.82	6.1058
1043.71	7.56952
1046.61	8.80601
1049.5	11.608
1052.39	12.8315
1055.29	15.3275
1058.18	16.1103
1061.07	12.2162
1063.96	8.93115
1066.86	3.7911
1069.75	2.81667
1072.64	3.0091
1075.53	1.9462
1078.43	1.37065
1081.32	1.22053
1084.21	0.808001
1087.1	1.45853
1090	0.562064
1092.89	0.042772
1095.78	1.07766
1098.67	0.088268
1101.57	1.03564
1104.46	0.938285
1107.35	0.892413
1110.25	1.27903
1113.14	0.908031
1116.03	0.063582
1118.92	0.919141
1121.82	0.064054
1124.71	1.11048
1127.6	0.475608
1130.49	1.08427
1133.39	0.241817
1136.28	2.29835
1139.17	0.121887
1142.07	0.03306
1144.96	0.403401
1147.85	1.10948
1150.74	0.736571
1153.64	1.00674
1156.53	0.801807
1159.42	0.98228
1162.31	0.577075
1165.21	0.842005
1168.1	1.07126
1170.99	0.589746
1173.88	1.01987
1176.78	1.30867
1179.67	0.796601
1182.56	1.78039
1185.46	1.36119
1188.35	0.045334
1191.24	1.47342
1194.13	0.936583
1197.03	0.651498
1199.92	1.51869
1202.81	0.897587
1205.7	0.825442
1208.6	0.696127
1211.49	1.08183
1214.38	1.33211
1217.28	0.875239
1220.17	2.30964
1223.06	0.445813
1225.95	1.34252
1228.85	0.566751
1231.74	1.38001
1234.63	1.3627
1237.53	1.48212
1240.42	0.483733
1243.31	0.669193
1246.2	1.81573
1249.1	0.843012
1251.99	0.678967
1254.88	0.779025
1257.77	0.576379
1260.67	0.471851
1263.56	0.706679
1266.45	0.617037
1269.34	1.23915
1272.24	1.44965
1275.13	0.662034
1278.02	1.20238
1280.91	1.20826
1283.81	0.020848
