Measurement: Raman, 532 nm, unoriented, Raman Data Processed
Mineral: Desautelsite
Rruff sample: R060303
Ideal chemistry: Mg_6_Mn^3+^_2_CO_3_(OH)_16_4H_2_O
Locality: 1.5 miles west of San Benito mountain, southern San Benito County, California, USA
Source: Michael Scott
Description: A druse of orange colored thin hexagonal crystals
Raman shift (cm-1)	intensity
160.881	0
163.774	3.0397
166.667	7.02342
169.559	9.36195
172.452	10.958
175.345	7.28076
178.237	3.42619
181.13	4.42441
184.023	2.91441
186.916	2.94705
189.808	4.75818
192.701	5.22043
195.594	4.61085
198.486	3.75214
201.379	4.007
204.272	4.3703
207.164	0.007675
210.057	0.880432
212.95	0.481964
215.843	0.064194
218.735	0.231812
221.628	0.265656
224.521	2.50082
227.413	1.16538
230.306	0.429626
233.199	1.45311
236.091	2.53096
238.984	1.81564
241.877	2.93828
244.769	2.2108
247.662	5.96585
250.555	7.70769
253.448	7.82672
256.34	11.4086
259.233	12.9622
262.126	14.1985
265.018	19.4091
267.911	19.2977
270.804	22.7129
273.697	23.1831
276.589	23.5269
279.482	25.6821
282.375	26.482
285.267	23.8865
288.16	24.6203
291.053	21.6249
293.945	21.3072
296.838	19.2349
299.731	17.1325
302.623	14.8554
305.516	13.322
308.409	11.2642
311.302	10.5496
314.194	11.0788
317.087	11.7025
319.98	12.1539
322.872	9.49718
325.765	8.57169
328.658	5.47136
331.55	4.52577
334.443	4.19576
337.336	5.49846
340.229	7.88933
343.121	6.68404
346.014	6.46401
348.907	4.90358
351.799	2.51192
354.692	4.80264
357.585	3.53929
360.478	4.90511
363.37	4.30074
366.263	4.77982
369.156	3.10329
372.048	0.963852
374.941	4.36948
377.834	1.25053
380.726	1.71608
383.619	0.945057
386.512	0.314224
389.404	0.571274
392.297	0.677612
395.19	1.65509
398.083	0.729279
400.975	0.403503
403.868	0.584335
406.761	0.781937
409.653	0.528412
412.546	1.15147
415.439	2.59222
418.332	5.11826
421.224	4.87909
424.117	7.3885
427.01	8.82971
429.902	11.6653
432.795	13.3217
435.688	14.7701
438.58	18.08
441.473	19.7702
444.366	23.804
447.259	26.9481
450.151	29.8478
453.044	32.685
455.937	36.1247
458.829	34.8175
461.722	28.8564
464.615	22.9165
467.507	15.2978
470.4	6.33467
473.293	2.4874
476.185	1.02928
479.078	2.34039
481.971	0.945343
484.864	0.996796
487.756	0.587326
490.649	1.85971
493.542	6.74593
496.434	11.1193
499.327	17.3467
502.22	28.8696
505.113	40.4013
508.005	55.6268
510.898	79.2975
513.791	107.131
516.683	141.622
519.576	181.949
522.469	230.065
525.361	277.726
528.254	330.738
531.147	365.241
534.04	391.768
536.932	393.607
539.825	373.525
542.718	331.223
545.61	285.188
548.503	239.818
551.396	197.24
554.288	159.69
557.181	130.972
560.074	110.515
562.967	91.9847
565.859	76.2758
568.752	62.3487
571.645	50.275
574.537	40.1251
577.43	30.6215
580.323	23.9272
583.216	15.8564
586.108	14.5752
589.001	11.1572
591.894	7.23158
594.786	3.25163
597.679	2.87772
600.572	1.92471
603.464	2.26299
606.357	0.588394
609.25	1.99693
612.142	1.42538
615.035	0.595276
617.928	0.615585
620.821	0.597931
623.713	1.71548
626.606	0.162903
629.499	0.543198
632.391	0.719482
635.284	0.184311
638.177	1.14305
641.069	0.510757
643.962	0.024109
646.855	1.04739
649.747	3.32526
652.64	0.297485
655.533	2.22792
658.426	3.76932
661.318	2.97017
664.211	5.11035
667.104	4.8223
669.996	5.52603
672.889	5.21551
675.782	5.14629
678.674	4.87518
681.567	6.82921
684.46	6.07431
687.353	3.87622
690.245	7.50709
693.138	4.36986
696.031	5.31291
698.923	4.43254
701.816	5.97487
704.709	3.25485
707.601	5.0175
710.494	3.89198
713.387	3.8936
716.28	1.11876
719.172	2.96573
722.065	1.82523
724.958	4.58934
727.85	0.930969
730.743	1.12543
733.636	2.8519
736.529	4.23527
739.421	2.09622
742.314	1.64278
745.207	2.73903
748.099	0.475891
750.992	0.539993
753.885	1.54123
756.777	1.2328
759.67	1.35396
762.563	1.36148
765.456	2.99435
768.348	2.04829
771.241	1.0109
774.134	1.65514
777.026	1.83722
779.919	0.85878
782.812	0.640945
785.704	1.87619
788.597	2.14891
791.49	1.37611
794.383	1.55142
797.275	0.149933
800.168	1.0945
803.061	0.68428
805.953	1.08769
808.846	0.114151
811.739	1.13988
814.631	1.80551
817.524	1.30067
820.417	1.61841
823.309	2.50191
826.202	3.95306
829.095	1.29855
831.988	2.95143
834.88	2.05208
837.773	0.287033
840.666	4.45543
843.558	2.59399
846.451	2.45259
849.344	1.35873
852.236	0.595673
855.129	3.06125
858.022	0.37355
860.915	1.30759
863.807	1.17152
866.7	2.56325
869.593	1.79132
872.485	2.27806
875.378	4.13469
878.271	3.45322
881.163	3.32286
884.056	3.24564
886.949	3.47313
889.842	2.29121
892.734	2.23604
895.627	2.11604
898.52	2.64214
901.412	4.49063
904.305	2.08539
907.198	4.96205
910.091	2.03162
912.983	1.39674
915.876	3.40361
918.769	4.13574
921.661	1.95201
924.554	3.48029
927.447	0.119003
930.339	2.03572
933.232	2.46588
936.125	1.21855
939.018	0.678619
941.91	2.67511
944.803	1.14742
947.696	1.04715
950.588	0.758301
953.481	3.52307
956.374	1.32742
959.266	2.31049
962.159	0.115601
965.052	0.539307
967.944	1.14334
970.837	0.309067
973.73	0.849518
976.623	1.05304
979.515	1.45793
982.408	2.4668
985.301	0.18428
988.193	3.30306
991.086	1.46707
993.979	2.82149
996.871	2.56601
999.764	0.521942
1002.66	3.52541
1005.55	1.84273
1008.44	4.31047
1011.34	5.19347
1014.23	2.94214
1017.12	6.5572
1020.01	4.34837
1022.91	3.36215
1025.8	4.52101
1028.69	5.82594
1031.58	4.86705
1034.48	6.01233
1037.37	8.05933
1040.26	9.45914
1043.15	12.0416
1046.05	16.449
1048.94	23.2085
1051.83	32.7679
1054.73	42.07
1057.62	52.1831
1060.51	52.1329
1063.4	38.6818
1066.3	22.4781
1069.19	10.2359
1072.08	7.88004
1074.97	4.23215
1077.87	5.05817
1080.76	3.23138
1083.65	3.90466
1086.55	4.07959
1089.44	0.668152
1092.33	0.15979
1095.22	1.40781
1098.12	1.53348
1101.01	1.09106
1103.9	0.570496
1106.79	0.94574
1109.69	0.341309
1112.58	2.07544
1115.47	0.565247
1118.37	2.8096
1121.26	2.59369
1124.15	2.84332
1127.04	3.75165
1129.94	1.99408
1132.83	3.45306
1135.72	0.025391
1138.61	2.31039
1141.51	0.417755
1144.4	1.73605
1147.29	3.11328
1150.18	2.61844
1153.08	2.22305
1155.97	2.91403
1158.86	1.63116
1161.76	1.55817
1164.65	2.19052
1167.54	3.42874
1170.43	2.90494
1173.33	2.99368
1176.22	3.02573
1179.11	4.16205
1182	3.72211
1184.9	2.14963
1187.79	3.58911
1190.68	2.80749
1193.58	2.96497
1196.47	3.60211
1199.36	3.14264
1202.25	3.05643
1205.15	2.91324
1208.04	3.03274
1210.93	2.75604
1213.82	3.40185
1216.72	3.34903
1219.61	3.47308
1222.5	0.23114
1225.39	3.51895
1228.29	1.59567
1231.18	2.59891
1234.07	5.39783
1236.97	1.51202
1239.86	0.274628
1242.75	0.020752
1245.64	0.355347
1248.54	2.28824
1251.43	4.4184
1254.32	3.66913
1257.21	0.328247
1260.11	2.56274
1263	3.93381
1265.89	4.33026
1268.79	3.03848
1271.68	3.86868
1274.57	4.159
1277.46	1.34991
1280.36	2.65002
1283.25	2.67847
1286.14	1.6297
1289.03	0.601654
1291.93	0.83905
1294.82	1.37579
1297.71	3.14737
1300.61	1.54968
