Measurement: Raman, 532 nm, unoriented, Raman Data Processed
Mineral: Descloizite
Rruff sample: R050037
Ideal chemistry: PbZnVO_4_(OH)
Locality: Berg Aukas mine, Namibia
Source: Eugene Schlepp
Description: Group of brown thin tabular single crystals
Measured chemistry: Pb_1.00_(Zn_0.98_Cu_0.02_)_Σ=1_((V_0.98_As_0.02_)_Σ=1_O_4_)(OH) ; OH estimated by difference and stoichiometry
Raman shift (cm-1)	intensity
110.61	0
113.985	2.99909
117.36	1.48906
120.735	23.1356
124.11	76.834
127.484	184.23
130.859	336.681
134.234	522.711
137.609	690.329
140.984	746.783
144.358	687.557
147.733	620.9
151.108	530.538
154.483	479.517
157.858	427.099
161.233	378.148
164.607	338.618
167.982	332.774
171.357	354.053
174.732	389.058
178.107	414.293
181.482	480.364
184.856	581.867
188.231	612.958
191.606	572.666
194.981	466.422
198.356	381.147
201.731	288.256
205.105	196.722
208.48	160.679
211.855	130.089
215.23	102.133
218.605	83.2181
221.979	73.7407
225.354	48.6895
228.729	35.3852
232.104	17.7971
235.479	0.419098
238.853	3.86246
242.228	14.1565
245.603	4.39398
248.978	25.7984
252.353	25.6311
255.727	16.4358
259.102	8.45343
262.477	2.80475
265.852	20.5917
269.227	27.4907
272.602	107.899
275.976	166.834
279.351	281.625
282.726	499.443
286.101	750.401
289.476	1102.28
292.851	1519.02
296.225	1826.99
299.6	1936.93
302.975	1603.56
306.35	1180.46
309.725	964.255
313.099	901.458
316.474	959.976
319.849	1085.81
323.224	1108.63
326.599	1235.55
329.974	1476.36
333.348	1943.65
336.723	2336.22
340.098	2350.35
343.473	1924.6
346.848	1295.66
350.223	880.447
353.597	626.261
356.972	513.804
360.347	411.872
363.722	324.629
367.097	304.423
370.471	394.009
373.846	546.884
377.221	735.224
380.596	960.22
383.971	1033.87
387.346	744.538
390.72	374.642
394.095	138.861
397.47	55.9326
400.845	42.8987
404.219	13.1877
407.594	36.6013
410.969	53.3215
414.344	28.3946
417.719	18.6352
421.094	96.8193
424.469	203.766
427.843	342.397
431.218	417.533
434.593	372.782
437.968	240.87
441.343	119.38
444.717	57.2825
448.092	35.8536
451.467	24.08
454.842	20.9939
458.217	16.9273
461.591	26.6776
464.966	18.9081
468.341	35.9495
471.716	2.95599
475.091	0.434509
478.466	3.14005
481.84	11.7567
485.215	1.06079
488.59	17.5525
491.965	10.952
495.34	1.45157
498.714	19.5581
502.089	32.1371
505.464	25.1544
508.839	15.3212
512.214	35.895
515.589	28.6999
518.963	16.6453
522.338	25.7582
525.713	13.9232
529.088	18.8266
532.463	7.89514
535.837	16.0031
539.212	5.56522
542.587	11.8535
545.962	9.1644
549.337	0.835236
552.712	5.2695
556.086	13.6531
559.461	2.64575
562.836	2.41299
566.211	15.1147
569.586	0.572021
572.96	0.753845
576.335	0.251495
579.71	3.89157
583.085	2.03989
586.46	13.9765
589.835	12.0489
593.209	28.008
596.584	29.4962
599.959	35.773
603.334	45.0201
606.709	27.5916
610.083	25.8369
613.458	23.2262
616.833	14.167
620.208	13.0574
623.583	0.002594
626.958	19.6004
630.332	11.8998
633.707	10.0483
637.082	22.8133
640.457	17.4467
643.832	32.9472
647.207	33.2149
650.581	45.2511
653.956	34.3344
657.331	37.5704
660.706	30.5638
664.081	29.466
667.455	47.0457
670.83	53.6449
674.205	68.0222
677.58	95.9171
680.955	123.882
684.33	131.885
687.704	146.645
691.079	166.547
694.454	207.365
697.829	210.602
701.204	200.739
704.578	191.642
707.953	150.645
711.328	95.2502
714.703	70.8988
718.078	28.4216
721.452	13.9062
724.827	14.939
728.202	19.6402
731.577	25.7236
734.952	21.9501
738.327	30.0308
741.701	19.8566
745.076	18.1952
748.451	69.436
751.826	170.464
755.201	341.364
758.576	624.013
761.95	1109.04
765.325	1902.63
768.7	2858.54
772.075	3830.08
775.45	4265.6
778.824	3590.74
782.199	2433.17
785.574	1678.4
788.949	1370.66
792.324	1264.97
795.698	1232.79
799.073	1046.58
802.448	665.068
805.823	463.935
809.198	433.149
812.573	453.24
815.947	625.734
819.322	775.108
822.697	1013.15
826.072	1439.05
829.447	2352.13
832.822	4234.23
836.196	7729.35
839.571	12246.6
842.946	16339.1
846.321	16033.5
849.696	8564.8
853.07	3582.78
856.445	1712.35
859.82	1022.04
863.195	688.128
866.57	385.639
869.944	232.465
873.319	135.302
876.694	126.498
880.069	134.051
883.444	154.752
886.819	188.566
890.193	205.385
893.568	150.965
896.943	94.2665
900.318	25.434
903.693	9.94891
907.067	25.4955
910.442	33.1512
913.817	33.1946
917.192	28.8494
920.567	27.3208
923.942	2.86469
927.316	5.62732
930.691	10.378
934.066	15.975
937.441	25.8908
940.816	30.7055
944.191	46.0769
947.565	59.5217
950.94	51.0793
954.315	62.3998
957.69	79.8156
961.065	102.79
964.439	90.0568
967.814	109.868
971.189	87.8762
974.564	93.5031
977.939	82.7972
981.313	86.4554
984.688	74.8375
988.063	60.6509
991.438	63.5959
994.813	68.4077
998.188	53.9894
1001.56	65.1099
1004.94	61.148
1008.31	56.8316
1011.69	42.5663
1015.06	48.4774
1018.44	38.4677
1021.81	48.8274
1025.19	38.5813
1028.56	30.222
1031.94	48.9547
1035.31	40.0141
1038.68	30.1934
1042.06	15.7987
1045.43	27.1489
1048.81	17.0505
1052.18	22.4499
1055.56	36.3857
1058.93	22.425
1062.31	24.9589
1065.68	13.3438
1069.06	29.9523
1072.43	28.6255
1075.81	23.8242
1079.18	1.19214
1082.56	17.6753
1085.93	28.743
1089.31	15.6943
1092.68	10.6935
1096.06	13.4978
1099.43	9.68369
1102.81	6.41144
1106.18	2.21811
1109.56	7.8472
1112.93	10.0227
1116.31	5.93204
1119.68	4.939
1123.06	3.15958
1126.43	3.88058
1129.81	15.1705
1133.18	10.3363
1136.56	16.7192
1139.93	14.0435
1143.31	5.55887
1146.68	10.3996
1150.05	12.3267
1153.43	0.102417
1156.8	11.3379
1160.18	19.5372
1163.55	6.16711
1166.93	2.8818
1170.3	2.72229
1173.68	4.94888
1177.05	12.308
1180.43	11.8716
1183.8	17.0048
1187.18	20.3686
1190.55	23.4693
1193.93	17.0218
1197.3	0.831757
1200.68	18.3664
1204.05	23.7386
1207.43	16.7293
1210.8	16.1545
1214.18	14.7355
1217.55	15.2311
1220.93	4.02451
1224.3	16.08
1227.67	7.94763
1231.05	8.97949
1234.42	9.07025
1237.8	13.7903
1241.17	11.9986
1244.55	6.14819
1247.92	19.6955
1251.3	9.32306
1254.67	16.8523
1258.05	9.13187
1261.42	15.2982
1264.8	18.2304
1268.17	10.1302
1271.55	2.50937
1274.92	0.927734
1278.3	26.0502
1281.67	23.7101
1285.05	19.4946
1288.42	25.7062
1291.8	20.9467
1295.17	9.4126
1298.55	11.4343
1301.92	16.9935
1305.3	11.7747
1308.67	0
