Measurement: Raman, 532 nm, unoriented, Raman Data Processed
Mineral: Descloizite
Rruff sample: R050509
Ideal chemistry: PbZnVO_4_(OH)
Locality: Grootfontein district, Namibia
Source: University of Arizona Mineral Museum
Description: Group of brown tabular crystals
Measured chemistry: Pb_1.00_(Zn_0.85_Cu_0.15_)_Σ=1_((V_0.97_As_0.03_)_Σ=1_O_4_)(OH) ; (OH) estimated by difference and stoichiometry
Raman shift (cm-1)	intensity
112.621	0
115.996	4.299
119.371	69.0175
122.746	212.947
126.121	302.336
129.495	436.174
132.87	672.824
136.245	863.405
139.62	981.189
142.995	1052.25
146.369	1069.47
149.744	1094.91
153.119	1079.43
156.494	1023.95
159.869	913.559
163.244	780.669
166.618	657.38
169.993	558.245
173.368	481.017
176.743	443.519
180.118	424.895
183.493	425.856
186.867	428.25
190.242	372.534
193.617	315.946
196.992	263.137
200.367	215.405
203.741	161.237
207.116	125.759
210.491	91.931
213.866	73.1907
217.241	56.1249
220.615	35.3122
223.99	25.07
227.365	12.5489
230.74	1.89453
234.115	2.09375
237.489	9.06018
240.864	12.3255
244.239	20.1997
247.614	21.8131
250.989	26.3165
254.364	22.7238
257.738	10.0913
261.113	5.77216
264.488	31.8463
267.863	91.3118
271.238	170.454
274.613	301.227
277.987	498.945
281.362	759.247
284.737	1075.38
288.112	1448.88
291.487	1796.17
294.861	1999.28
298.236	1983.45
301.611	1723.83
304.986	1377.77
308.361	1203.72
311.736	1204.94
315.11	1373.74
318.485	1599.12
321.86	1818.5
325.235	2004.12
328.61	2175.61
331.984	2401.83
335.359	2683.66
338.734	2930.59
342.109	2948.45
345.484	2691.65
348.858	2402.87
352.233	2178.34
355.608	1968.88
358.983	1642.72
362.358	1092.47
365.733	652.436
369.107	419.803
372.482	305.462
375.857	274.301
379.232	295.515
382.607	336.827
385.981	343.358
389.356	256.755
392.731	138.635
396.106	55.3932
399.481	0.746826
402.856	29.9475
406.23	45.5278
409.605	40.5632
412.98	7.81671
416.355	97.8148
419.73	230.395
423.104	381.174
426.479	559.221
429.854	706.193
433.229	720.684
436.604	561.16
439.978	370.584
443.353	236.478
446.728	160.838
450.103	120.418
453.478	94.5217
456.853	81.353
460.227	77.8227
463.602	60.0067
466.977	38.8876
470.352	22.7373
473.727	9.09009
477.101	1.10232
480.476	10.9968
483.851	11.8542
487.226	4.35214
490.601	6.36969
493.976	21.2067
497.35	30.5606
500.725	42.1753
504.1	55.3254
507.475	74.2714
510.85	92.0559
514.224	100.013
517.599	100.601
520.974	88.3642
524.349	66.4749
527.724	51.9327
531.098	40.1096
534.473	31.7072
537.848	24.8242
541.223	12.0354
544.598	6.54028
547.973	6.77197
551.347	1.91345
554.722	5.32645
558.097	9.58987
561.472	13.0609
564.847	22.3529
568.221	37.0451
571.596	53.6921
574.971	78.5623
578.346	116.178
581.721	158.492
585.096	206.384
588.47	244.173
591.845	279.049
595.22	314.987
598.595	351.068
601.97	366.558
605.344	339.476
608.719	263.29
612.094	177.081
615.469	108.89
618.844	64.9512
622.218	41.501
625.593	27.499
628.968	18.0761
632.343	13.1548
635.718	9.5798
639.093	7.3168
642.467	19.608
645.842	4.52341
649.217	1.50244
652.592	0.02478
655.967	0.637268
659.341	1.6926
662.716	4.79108
666.091	14.8207
669.466	34.079
672.841	71.0909
676.216	122.759
679.59	179.432
682.965	236.847
686.34	284.965
689.715	325.973
693.09	371.816
696.465	402.141
699.839	426.707
703.214	422.695
706.589	407.6
709.964	364.783
713.339	297.212
716.713	208.88
720.088	115.669
723.463	37.9596
726.838	13.4663
730.213	41.3355
733.587	52.8644
736.962	59.1444
740.337	43.8394
743.712	6.91669
747.087	56.3044
750.462	158.821
753.836	340.906
757.211	637.557
760.586	1135.49
763.961	1890.88
767.336	2964.54
770.71	4347.86
774.085	5839.4
777.46	6624.53
780.835	6035.43
784.21	4789.23
787.585	3669.96
790.959	2855.98
794.334	2268.43
797.709	1835.78
801.084	1532.19
804.459	1345.99
807.833	1363.01
811.208	1539.93
814.583	1980.33
817.958	2719.19
821.333	3784.8
824.707	5454.3
828.082	8122.76
831.457	11449.2
834.832	14192.5
838.207	16380.1
841.582	18050.2
844.956	16437.5
848.331	10239.4
851.706	5014.71
855.081	2583.07
858.456	1472.87
861.83	892.791
865.205	531.051
868.58	289.912
871.955	137.422
875.33	54.647
878.705	11.0764
882.079	4.422
885.454	2.91534
888.829	5.67633
892.204	5.61175
895.579	1.9148
898.953	3.51269
902.328	13.2875
905.703	21.251
909.078	30.0032
912.453	34.0751
915.827	26.9938
919.202	15.9505
922.577	3.53659
925.952	11.571
929.327	22.4031
932.702	37.6318
936.076	49.3317
939.451	60.2735
942.826	72.7204
946.201	86.4246
949.576	95.459
952.951	112.668
956.325	121.847
959.7	131.977
963.075	137.348
966.45	137.087
969.825	132.769
973.199	123.676
976.574	110.976
979.949	107.055
983.324	97.6261
986.699	96.4586
990.073	95.4363
993.448	90.685
996.823	87.9554
1000.2	83.2471
1003.57	80.8954
1006.95	77.5448
1010.32	74.8146
1013.7	72.1394
1017.07	72.8943
1020.45	67.9279
1023.82	68.3132
1027.2	62.9763
1030.57	62.762
1033.95	60.6343
1037.32	58.0853
1040.7	51.1461
1044.07	52.9534
1047.44	50.8397
1050.82	50.9532
1054.19	44.9809
1057.57	40.1471
1060.94	36.0308
1064.32	32.4793
1067.69	28.5524
1071.07	27.0643
1074.44	21.4089
1077.82	21.5025
1081.19	20.4584
1084.57	17.6957
1087.94	14.0729
1091.32	11.4124
1094.69	10.1245
1098.07	5.52081
1101.44	4.45642
1104.82	3.42151
1108.19	0.720459
1111.57	0.52951
1114.94	0.353271
1118.32	1.9765
1121.69	0.927521
1125.07	3.18973
1128.44	1.94711
1131.82	1.98456
1135.19	1.6221
1138.57	0.079468
1141.94	0.565979
1145.32	0.692352
1148.69	3.16394
1152.07	1.10169
1155.44	2.62631
1158.81	1.26788
1162.19	3.49649
1165.56	1.70941
1168.94	1.01041
1172.31	3.14752
1175.69	3.97989
1179.06	5.51352
1182.44	3.41138
1185.81	4.5321
1189.19	4.00232
1192.56	4.08875
1195.94	3.8396
1199.31	4.10403
1202.69	3.43521
1206.06	4.93869
1209.44	5.38403
1212.81	3.67154
1216.19	5.07809
1219.56	4.50076
1222.94	6.71753
1226.31	4.8782
1229.68	3.46992
1233.06	5.38826
1236.43	2.9372
1239.81	1.6662
1243.18	1.37927
1246.56	0.820541
1249.93	1.02588
1253.31	0.904388
1256.68	3.27008
1260.06	2.40605
1263.43	3.27397
1266.81	3.44074
1270.18	5.30777
1273.56	15.4805
1276.93	3.81413
1280.31	4.10381
1283.68	2.03371
1287.06	3.86323
1290.43	3.37608
1293.81	3.62831
1297.18	2.0065
1300.56	3.16538
