Measurement: Raman, 780 nm, unoriented, Raman Data Processed
Mineral: Descloizite
Rruff sample: R050509
Ideal chemistry: PbZnVO_4_(OH)
Locality: Grootfontein district, Namibia
Source: University of Arizona Mineral Museum
Description: Group of brown tabular crystals
Measured chemistry: Pb_1.00_(Zn_0.85_Cu_0.15_)_Σ=1_((V_0.97_As_0.03_)_Σ=1_O_4_)(OH) ; (OH) estimated by difference and stoichiometry
Raman shift (cm-1)	intensity
92.3769	0
95.7518	118.414
99.1266	320.329
102.501	570.363
105.876	807.628
109.251	523.118
112.626	194.071
116.001	58.7654
119.376	11.7021
122.75	2.88107
126.125	15.3726
129.5	1.1405
132.875	6.25064
136.25	13.9069
139.624	23.0195
142.999	19.7477
146.374	21.3427
149.749	18.4339
153.124	40.5531
156.499	58.4586
159.873	66.6894
163.248	73.9536
166.623	80.3209
169.998	87.5971
173.373	96.7413
176.747	104.07
180.122	110.316
183.497	107.022
186.872	97.4432
190.247	85.0883
193.621	70.8924
196.996	56.6186
200.371	37.9123
203.746	27.2228
207.121	17.4604
210.495	15.2754
213.87	8.92342
217.245	4.28995
220.62	3.46228
223.995	1.12727
227.37	0.866608
230.744	5.47859
234.119	2.31017
237.494	5.84979
240.869	6.70731
244.244	5.87463
247.619	5.39847
250.993	0.114349
254.368	4.75464
257.743	13.3034
261.118	25.7716
264.493	53.1189
267.867	89.2776
271.242	136.651
274.617	196.614
277.992	271.652
281.367	348.809
284.741	431.951
288.116	500.328
291.491	551.045
294.866	577.842
298.241	566.674
301.616	510.271
304.99	455.167
308.365	440.163
311.74	472.237
315.115	522.393
318.49	589.179
321.865	646.224
325.239	698.221
328.614	746.545
331.989	802.137
335.364	844.959
338.739	848.275
342.113	790.568
345.488	706.144
348.863	623.934
352.238	553.221
355.613	485.651
358.987	377.068
362.362	227.764
365.737	142.111
369.112	105.256
372.487	94.8366
375.861	94.6053
379.236	101.915
382.611	108.069
385.986	95.4988
389.361	63.2348
392.736	33.8664
396.11	12.9087
399.485	0.417801
402.86	9.17963
406.235	14.4802
409.61	13.1222
412.985	9.1891
416.359	1.49158
419.734	7.74246
423.109	18.3763
426.484	30.4076
429.859	34.2663
433.233	30.6081
436.608	22.9469
439.983	12.9914
443.358	11.7437
446.733	10.6152
450.108	10.4942
453.482	13.2207
456.857	14.7061
460.232	16.962
463.607	12.8342
466.982	8.11942
470.356	6.98766
473.731	2.51337
477.106	1.62102
480.481	3.96507
483.856	4.48
487.231	2.75486
490.605	5.76325
493.98	5.02698
497.355	5.94164
500.73	6.36688
504.104	6.66446
507.479	6.78226
510.854	7.02591
514.229	2.76863
517.604	2.92853
520.979	2.12012
524.354	1.70306
527.728	1.27845
531.103	1.14079
534.478	2.81609
537.853	0.1339
541.227	0.34602
544.602	0.287819
547.977	0.597923
551.352	1.78217
554.727	1.47845
558.102	0.051456
561.476	2.09
564.851	1.56998
568.226	0.57872
571.601	0.389423
574.976	2.06308
578.351	4.44406
581.725	3.54258
585.1	6.65881
588.475	4.70014
591.85	6.93339
595.225	7.1631
598.599	7.47953
601.974	6.94624
605.349	5.27156
608.724	3.29467
612.099	2.68905
615.473	2.57949
618.848	0.018768
622.223	0.294495
625.598	0.64349
628.973	0.763573
632.347	0.354919
635.722	2.02624
639.097	0.987396
642.472	0.631691
645.847	1.26646
649.222	0.782135
652.596	4.78421
655.971	0.639549
659.346	3.56406
662.721	6.2776
666.096	9.15526
669.471	16.2044
672.845	23.3364
676.22	31.0298
679.595	39.7536
682.97	48.798
686.345	49.911
689.719	54.7139
693.094	60.6808
696.469	59.2233
699.844	52.1583
703.219	48.2528
706.593	37.7847
709.968	29.009
713.343	18.1601
716.718	9.12702
720.093	3.74577
723.468	0.884819
726.842	4.51536
730.217	5.94799
733.592	6.91296
736.967	6.58987
740.342	1.62723
743.716	11.882
747.091	13.7016
750.466	33.2912
753.841	58.0246
757.216	103.816
760.591	169.087
763.965	249.633
767.34	347.896
770.715	451.889
774.09	537.61
777.465	546.534
780.84	463.825
784.214	363.629
787.589	283.247
790.964	229.628
794.339	203.817
797.714	186.45
801.088	180.346
804.463	190.447
807.838	219.136
811.213	276.426
814.588	365.82
817.962	494.704
821.337	653.023
824.712	845.808
828.087	1056.58
831.462	1243.2
834.837	1368.7
838.211	1451.33
841.586	1440.26
844.961	1183.51
848.336	699.945
851.711	355.262
855.085	189.831
858.46	107.703
861.835	66.1291
865.21	41.4826
868.585	23.3891
871.96	12.4045
875.334	7.12207
878.709	5.23276
882.084	0.43721
885.459	1.60427
888.834	1.6733
892.208	1.42989
895.583	2.51012
898.958	1.78699
902.333	2.40085
905.708	4.1235
909.082	3.90388
912.457	2.72369
915.832	4.56107
919.207	1.4674
922.582	1.86764
925.957	4.35649
929.331	2.21733
932.706	6.06604
936.081	8.818
939.456	8.42344
942.831	8.6173
946.205	10.5816
949.58	14.5525
952.955	16.6832
956.33	17.9353
959.705	18.7286
963.08	18.2836
966.454	17.0596
969.829	16.344
973.204	14.8335
976.579	11.7228
979.954	13.4836
983.328	11.3835
986.703	11.7274
990.078	10.7145
993.453	8.4561
996.828	9.01106
1000.2	10.4331
1003.58	7.93087
1006.95	7.61801
1010.33	8.039
1013.7	6.86946
1017.08	8.4357
1020.45	8.253
1023.83	7.94637
1027.2	6.06742
1030.58	4.64692
1033.95	6.66135
1037.33	10.7464
1040.7	5.70319
1044.08	6.1476
1047.45	5.19818
1050.83	4.03616
1054.2	5.28662
1057.57	5.5651
1060.95	3.47129
1064.32	4.68053
1067.7	3.84443
1071.07	2.19981
1074.45	3.30766
1077.82	3.02251
1081.2	4.61379
1084.57	3.67411
1087.95	0.17905
1091.32	1.52152
1094.7	3.05881
1098.07	2.50945
1101.45	0.598763
1104.82	0.210659
1108.2	1.28593
1111.57	0.633514
1114.95	0.715847
1118.32	1.98206
1121.7	0.469494
1125.07	0.805397
1128.45	0.116352
1131.82	0.870529
1135.19	1.11955
1138.57	1.5703
1141.94	0.094936
1145.32	0.61552
1148.69	2.13054
1152.07	1.85637
1155.44	1.8485
1158.82	2.10423
1162.19	0.151535
1165.57	1.31915
1168.94	1.44774
1172.32	0.81332
1175.69	0.322884
1179.07	1.17258
1182.44	2.18182
1185.82	0.262886
1189.19	2.10847
1192.57	3.70325
1195.94	0.446789
1199.32	0.350582
1202.69	3.4196
1206.07	3.01605
1209.44	3.62682
1212.82	1.56218
1216.19	0.550053
1219.57	1.42153
1222.94	3.05972
1226.32	2.63366
1229.69	1.25087
1233.07	2.45266
1236.44	3.2273
1239.81	1.66172
1243.19	1.10183
1246.56	2.69827
1249.94	3.59485
1253.31	2.12752
1256.69	1.0053
1260.06	2.00196
1263.44	0.402866
1266.81	1.0432
1270.19	2.27631
1273.56	1.48652
1276.94	3.72959
1280.31	2.57966
1283.69	0.799648
