Measurement: Raman, 785 nm, unoriented, Raman Data Processed
Mineral: Descloizite
Rruff sample: R050037
Ideal chemistry: PbZnVO_4_(OH)
Locality: Berg Aukas mine, Namibia
Source: Eugene Schlepp
Description: Group of brown thin tabular single crystals
Measured chemistry: Pb_1.00_(Zn_0.98_Cu_0.02_)_Σ=1_((V_0.98_As_0.02_)_Σ=1_O_4_)(OH) ; OH estimated by difference and stoichiometry
Raman shift (cm-1)	intensity
128.251	0
131.144	28.8294
134.037	83.2901
136.929	100.381
139.822	131.784
142.715	216.781
145.607	290.882
148.5	318.029
151.393	287.783
154.286	211.89
157.178	138.724
160.071	103.041
162.964	108.119
165.856	109.149
168.749	110.328
171.642	133.624
174.534	135.072
177.427	168.379
180.32	207.781
183.212	285.374
186.105	361.833
188.998	391.805
191.891	383.83
194.783	324.163
197.676	254.877
200.569	198.562
203.461	149.866
206.354	111.351
209.247	77.2282
212.139	52.9868
215.032	49.5414
217.925	20.7716
220.818	28.3126
223.71	20.0064
226.603	22.6333
229.496	0.675934
232.388	6.12115
235.281	12.9955
238.174	3.71686
241.066	6.67703
243.959	10.9348
246.852	15.5142
249.745	24.6017
252.637	2.99603
255.53	12.6724
258.423	10.9271
261.315	12.5249
264.208	16.4151
267.101	39.977
269.993	49.7913
272.886	64.8392
275.779	145.654
278.672	207.381
281.564	332.699
284.457	471.962
287.35	699.716
290.242	944.889
293.135	1257.1
296.028	1596.4
298.921	1863.6
301.813	1743.38
304.706	1350
307.599	994.667
310.491	733.724
313.384	642.327
316.277	655.359
319.169	718.728
322.062	731.023
324.955	749.112
327.847	800.068
330.74	935.871
333.633	1161.71
336.526	1452.03
339.418	1648.95
342.311	1544.07
345.204	1181.8
348.096	783.02
350.989	531.652
353.882	374.67
356.774	312.886
359.667	262.955
362.56	218.02
365.452	219.903
368.345	278.153
371.238	381.527
374.131	548.27
377.023	776.378
379.916	1051.7
382.809	1362.6
385.701	1460.03
388.594	1101.92
391.487	648.647
394.38	339.448
397.272	160.747
400.165	105.2
403.058	83.447
405.95	26.5362
408.843	22.3037
411.736	35.905
414.628	37.7479
417.521	20.4452
420.414	6.39163
423.307	29.2526
426.199	54.0856
429.092	94.1545
431.985	139.485
434.877	135.947
437.77	87.3133
440.663	50.2826
443.555	20.164
446.448	11.8369
449.341	7.19093
452.234	4.46849
455.126	15.1575
458.019	19.4984
460.912	16.7879
463.804	15.3193
466.697	19.1963
469.59	19.2819
472.483	2.06476
475.375	15.1272
478.268	1.36258
481.161	8.45225
484.053	8.21281
486.946	7.9131
489.839	11.8687
492.731	10.1991
495.624	14.3923
498.517	12.4947
501.409	22.4541
504.302	16.0325
507.195	16.7784
510.088	21.0691
512.98	15.0218
515.873	16.0644
518.766	10.4691
521.658	11.188
524.551	0.332733
527.444	12.0687
530.337	9.91008
533.229	4.05511
536.122	0.015747
539.015	8.86656
541.907	5.9615
544.8	5.81892
547.693	2.45067
550.585	0.230087
553.478	1.35968
556.371	14.2292
559.263	3.63531
562.156	11.4485
565.049	0.316498
567.942	1.39848
570.834	3.79704
573.727	1.90288
576.62	10.7989
579.512	7.96901
582.405	3.07854
585.298	6.32434
588.19	6.42062
591.083	4.96108
593.976	6.52246
596.869	2.59503
599.761	8.94037
602.654	7.75655
605.547	14.2795
608.439	3.6696
611.332	1.19568
614.225	13.032
617.117	3.01813
620.01	0.858353
622.903	17.4406
625.795	5.54866
628.688	12.1203
631.581	15.0962
634.474	9.32376
637.366	13.5232
640.259	17.7025
643.152	13.7394
646.044	14.3681
648.937	9.84856
651.83	19.211
654.722	12.8679
657.615	1.78296
660.508	12.3858
663.401	11.5531
666.293	12.159
669.186	12.1536
672.079	26.3785
674.971	38.6898
677.864	47.5901
680.757	60.2679
683.649	83.345
686.542	91.386
689.435	102.541
692.328	125.2
695.22	145.006
698.113	160.696
701.006	171.949
703.898	198.52
706.791	172.704
709.684	142.82
712.577	105.792
715.469	63.0108
718.362	34.2084
721.255	28.6448
724.147	2.07104
727.04	7.06168
729.933	23.5347
732.825	11.3464
735.718	22.3525
738.611	18.6432
741.504	14.1175
744.396	7.09195
747.289	19.0846
750.182	30.2838
753.074	76.7918
755.967	141.776
758.86	234.414
761.752	414.735
764.645	655.009
767.538	1018.94
770.431	1493.25
773.323	2007.32
776.216	2313.44
779.109	1985.37
782.001	1405.69
784.894	932.636
787.787	663.463
790.679	529.084
793.572	458.318
796.465	428.766
799.357	359.285
802.25	263.296
805.143	181.687
808.036	167.719
810.928	182.391
813.821	226.281
816.714	246.536
819.606	330.14
822.499	418.817
825.392	533.075
828.284	729.672
831.177	1112.44
834.07	1972.17
836.963	3336.24
839.855	5405.73
842.748	8219.58
845.641	10281.1
848.533	8051.57
851.426	4110.11
854.319	1902.31
857.212	960.043
860.104	595.996
862.997	376.822
865.89	239.222
868.782	159.228
871.675	109.258
874.568	59.7751
877.46	49.3771
880.353	28.9314
883.246	26.1634
886.139	19.8454
889.031	38.6634
891.924	41.8391
894.817	37.5291
897.709	17.0622
900.602	8.88605
903.495	0.381653
906.388	6.60681
909.28	2.13171
912.173	14.35
915.066	20.4377
917.958	10.5698
920.851	16.0761
923.744	1.98227
926.636	8.27411
929.529	0.870514
932.422	12.6943
935.314	4.67221
938.207	6.79355
941.1	14.3698
943.993	21.6222
946.885	22.2005
949.778	20.212
952.671	39.0886
955.563	19.8008
958.456	34.5403
961.349	36.2722
964.241	34.5917
967.134	36.4356
970.027	35.4845
972.92	41.425
975.812	30.4422
978.705	25.3117
981.598	19.1037
984.49	25.124
987.383	22.2407
990.276	27.2675
993.168	29.488
996.061	26.6029
998.954	32.8864
1001.85	20.8203
1004.74	18.0313
1007.63	21.9697
1010.52	28.2313
1013.42	14.0809
1016.31	23.6393
1019.2	14.1288
1022.1	19.9757
1024.99	25.335
1027.88	22.0565
1030.77	11.4782
1033.67	9.30637
1036.56	22.6177
1039.45	14.3023
1042.34	15.8792
1045.24	21.5536
1048.13	21.9656
1051.02	19.1751
1053.91	18.1847
1056.81	11.6414
1059.7	13.7566
1062.59	8.91713
1065.49	4.38081
1068.38	4.65299
1071.27	18.9864
1074.16	5.08957
1077.06	4.36487
1079.95	5.51491
1082.84	11.3481
1085.73	7.73534
1088.63	7.44617
1091.52	10.6946
1094.41	8.16324
1097.31	1.05115
1100.2	8.11882
1103.09	1.82167
1105.98	17.1428
1108.88	3.26312
1111.77	4.59091
1114.66	4.33758
1117.56	9.4292
1120.45	2.71576
1123.34	4.27031
1126.23	3.37282
1129.12	3.77031
1132.02	3.56969
1134.91	3.97278
1137.8	8.81703
1140.7	0.450851
1143.59	5.15576
1146.48	7.91945
1149.37	10.4301
1152.27	4.96742
1155.16	15.0092
1158.05	3.71307
1160.94	6.34311
1163.84	4.48564
1166.73	9.63387
1169.62	9.34682
1172.52	7.33482
1175.41	12.1533
1178.3	10.6868
1181.19	2.00272
1184.09	17.5054
1186.98	11.9122
1189.87	5.06517
1192.77	12.2529
1195.66	0.341843
1198.55	17.649
1201.44	11.68
1204.34	15.1558
1207.23	14.5937
1210.12	7.02032
1213.01	4.87852
1215.91	22.2137
1218.8	13.0354
1221.69	15.054
1224.58	16.1363
1227.48	1.61678
1230.37	15.4833
1233.26	7.05707
1236.15	1.43819
