Measurement: Raman, 532 nm, unoriented, Raman Data Processed
Mineral: Descloizite
Rruff sample: R120097
Ideal chemistry: PbZnVO_4_(OH)
Locality: Collins Vein, Mammoth mine, Tiger, Arizona
Source: Bob Downs and Hexiong Yang
Description: Brown transparent closed pyramids, like flattened octahedra, associated with vanadinite
Raman shift (cm-1)	intensity
195.594	0
198.486	2.83646
201.379	4.19739
204.272	7.0681
207.164	11.5352
210.057	19.4686
212.95	21.6021
215.843	28.4626
218.735	27.0334
221.628	36.3692
224.521	43.188
227.413	41.2531
230.306	33.0076
233.199	26.444
236.091	16.6024
238.984	8.5376
241.877	3.65057
244.769	3.16328
247.662	9.11171
250.555	12.3921
253.448	15.3114
256.34	9.8031
259.233	2.75562
262.126	3.94434
265.018	16.7803
267.911	33.9622
270.804	63.8301
273.697	100.864
276.589	152.733
279.482	214.212
282.375	288.838
285.267	371.957
288.16	468.632
291.053	564.997
293.945	647.315
296.838	674.795
299.731	645.909
302.623	576.769
305.516	515.918
308.409	487.718
311.302	494.475
314.194	528.144
317.087	581.532
319.98	625.403
322.872	681.186
325.765	730.248
328.658	773.846
331.55	816.987
334.443	848.544
337.336	834.623
340.229	797.234
343.121	729.523
346.014	656.151
348.907	605.781
351.799	584.017
354.692	561.172
357.585	502.639
360.478	395.312
363.37	285.43
366.263	227.193
369.156	209.8
372.048	225.184
374.941	256.849
377.834	304.296
380.726	356.076
383.619	397.045
386.512	391.488
389.404	337.029
392.297	248.737
395.19	161.608
398.083	89.5776
400.975	40.1462
403.868	5.70508
406.761	10.701
409.653	20.8313
412.546	19.0418
415.439	13.9103
418.332	1.69504
421.224	14.7652
424.117	34.2491
427.01	52.5055
429.902	62.4686
432.795	58.124
435.688	43.8925
438.58	29.4131
441.473	19.7975
444.366	12.6539
447.259	10.7258
450.151	9.93491
453.044	11.5214
455.937	13.612
458.829	14.8809
461.722	16.9414
464.615	18.2436
467.507	12.3919
470.4	9.20032
473.293	2.81026
476.185	0.200081
479.078	1.24322
481.971	1.16081
484.864	0.649193
487.756	0.546852
490.649	0.742546
493.542	2.08469
496.434	6.3126
499.327	7.0127
502.22	6.91751
505.113	10.4322
508.005	11.5672
510.898	9.34607
513.791	11.2541
516.683	10.3947
519.576	10.779
522.469	9.67236
525.361	11.017
528.254	10.9337
531.147	9.8401
534.04	9.6386
536.932	9.25433
539.825	8.41454
542.718	8.31197
545.61	4.36486
548.503	5.95416
551.396	4.08362
554.288	6.18085
557.181	4.00166
560.074	3.82355
562.967	3.90057
565.859	2.46986
568.752	3.60442
571.645	2.50592
574.537	1.81926
577.43	3.20599
580.323	4.90352
583.216	2.63972
586.108	3.20326
589.001	3.0301
591.894	4.10757
594.786	4.85555
597.679	4.79472
600.572	5.98989
603.464	6.18033
606.357	6.11364
609.25	6.22852
612.142	4.73653
615.035	4.04925
617.928	3.2226
620.821	3.83875
623.713	2.92625
626.606	1.75374
629.499	2.97867
632.391	3.80787
635.284	2.18061
638.177	3.23164
641.069	3.728
643.962	2.52178
646.855	2.72857
649.747	3.32805
652.64	2.53904
655.533	3.39474
658.426	4.17665
661.318	6.12411
664.211	5.38634
667.104	16.2031
669.996	22.6856
672.889	32.6373
675.782	46.6161
678.674	62.4266
681.567	76.235
684.46	90.4988
687.353	99.5881
690.245	105.371
693.138	109.647
696.031	111.356
698.923	107.856
701.816	101.273
704.709	88.9775
707.601	81.1625
710.494	63.6423
713.387	50.3882
716.28	34.2861
719.172	17.2124
722.065	5.84471
724.958	5.27241
727.85	11.3577
730.743	17.4596
733.636	20.7481
736.529	20.8269
739.421	19.5594
742.314	12.5322
745.207	0.239227
748.099	18.4719
750.992	49.0451
753.885	95.543
756.777	161.643
759.67	250.903
762.563	374.193
765.456	532.136
768.348	715.802
771.241	902.103
774.134	1063.66
777.026	1128.62
779.919	1073.17
782.812	926.9
785.704	772.352
788.597	650.406
791.49	578.844
794.383	545.944
797.275	536.956
800.168	565.631
803.061	623.395
805.953	737.843
808.846	908.865
811.739	1111.25
814.631	1373.43
817.524	1584.89
820.417	1665.11
823.309	1763.18
826.202	2025.82
829.095	2470.07
831.988	3021.25
834.88	3579.76
837.773	4083.72
840.666	4282.05
843.558	3866.05
846.451	2865.43
849.344	1818.69
852.236	1130.4
855.129	730.578
858.022	492.822
860.915	341.219
863.807	244.919
866.7	170.534
869.593	123.525
872.485	88.5362
875.378	66.6786
878.271	52.5647
881.163	42.7336
884.056	47.0154
886.949	49.0714
889.842	46.5155
892.734	45.5135
895.627	34.1769
898.52	13.551
901.412	2.61054
904.305	12.9242
907.198	19.4866
910.091	19.928
912.983	17.3534
915.876	15.3771
918.769	9.11882
921.661	4.73238
924.554	0.127625
927.447	5.84973
930.339	13.1786
933.232	14.8761
936.125	21.432
939.018	26.0416
941.91	30.2584
944.803	34.9781
947.696	38.0223
950.588	42.8947
953.481	46.9469
956.374	50.1066
959.266	55.5472
962.159	56.873
965.052	55.6295
967.944	53.0708
970.837	47.2416
973.73	42.9486
976.623	41.6898
979.515	37.2328
982.408	33.4764
985.301	32.0732
988.193	30.616
991.086	29.4407
993.979	29.3464
996.871	26.9383
999.764	27.6274
1002.66	25.795
1005.55	24.1195
1008.44	24.3328
1011.34	24.123
1014.23	22.1333
1017.12	20.2873
1020.01	18.4968
1022.91	18.4466
1025.8	17.2402
1028.69	17.4612
1031.58	15.4716
1034.48	15.4235
1037.37	13.9852
1040.26	11.7367
1043.15	11.4339
1046.05	11.4872
1048.94	10.4533
1051.83	8.0258
1054.73	8.45838
1057.62	7.10676
1060.51	6.14288
1063.4	7.1451
1066.3	4.5225
1069.19	3.63862
1072.08	4.11793
1074.97	4.91679
1077.87	2.67419
1080.76	2.66304
1083.65	2.48871
1086.55	2.03613
1089.44	1.89805
1092.33	0.957191
1095.22	2.16733
1098.12	1.54554
1101.01	0.112953
1103.9	0.42321
1106.79	0.179939
1109.69	0.448624
1112.58	1.52033
1115.47	0.782257
1118.37	0.53511
1121.26	0.292801
1124.15	1.16201
1127.04	0.103264
1129.94	0.459328
1132.83	1.00216
1135.72	0.3162
1138.61	0.44371
1141.51	0.404327
1144.4	1.85057
1147.29	0.770927
1150.18	2.03026
1153.08	0.343781
1155.97	2.17653
1158.86	7.66625
1161.76	2.03683
1164.65	2.77113
1167.54	2.45649
1170.43	1.79591
1173.33	2.16111
1176.22	2.67541
1179.11	1.62525
1182	3.8084
1184.9	2.74494
1187.79	3.902
1190.68	3.80793
1193.58	1.57328
1196.47	4.05402
1199.36	2.97078
1202.25	1.98306
1205.15	5.18884
1208.04	4.06044
1210.93	4.00211
1213.82	2.46523
1216.72	1.74581
1219.61	2.5706
1222.5	0.891747
1225.39	2.42588
1228.29	1.09197
1231.18	1.45039
1234.07	1.27142
1236.97	1.34282
1239.86	1.02669
1242.75	1.59338
1245.64	1.41765
1248.54	1.96899
1251.43	0.957802
1254.32	0.1978
1257.21	0.104813
1260.11	0.476395
1263	0.236435
1265.89	0.865288
1268.79	1.20709
1271.68	2.40056
1274.57	1.71641
1277.46	0.878326
1280.36	0.41811
1283.25	0.837322
1286.14	1.3429
1289.03	0.5891
1291.93	0.484337
1294.82	0.522644
1297.71	0.47094
1300.61	0.240677
