Measurement: Raman, 514 nm, unoriented, Raman Data Processed
Mineral: Descloizite
Rruff sample: R050037
Ideal chemistry: PbZnVO_4_(OH)
Locality: Berg Aukas mine, Namibia
Source: Eugene Schlepp
Description: Group of brown thin tabular single crystals
Measured chemistry: Pb_1.00_(Zn_0.98_Cu_0.02_)_Σ=1_((V_0.98_As_0.02_)_Σ=1_O_4_)(OH) ; OH estimated by difference and stoichiometry
Raman shift (cm-1)	intensity
52.866	0
57.065	56.866
61.262	36.463
65.458	247.762
69.651	551.114
73.842	859.62
78.031	1296.34
82.218	1725.23
86.404	1990.56
90.587	2362.47
94.768	2468.69
98.947	2734.05
103.124	3099.34
107.3	3283.84
111.473	3423.1
115.644	3851.78
119.813	3482.61
123.981	3215.36
128.146	3098.89
132.309	2971.13
136.47	2714.96
140.63	2259.58
144.787	1825.72
148.942	1379.85
153.096	1163.19
157.247	995.266
161.396	862.839
165.544	754.212
169.689	686.942
173.833	547.002
177.974	449.355
182.114	452.954
186.251	402.75
190.387	287.698
194.52	266.959
198.652	225.7
202.782	250.059
206.909	275.98
211.035	191.422
215.159	131.467
219.281	166.53
223.4	171.138
227.518	168.144
231.634	194.978
235.748	219.308
239.86	318.668
243.97	342.78
248.079	352.418
252.185	485.42
256.289	637.685
260.391	813.096
264.492	1018.56
268.59	1368.01
272.687	1831.36
276.781	2483.51
280.874	3406.42
284.964	4975.08
289.053	6954.41
293.14	9065.37
297.225	10015.9
301.308	8960.97
305.389	7327.53
309.468	6204.58
313.545	5581.06
317.62	5929.98
321.693	6721.3
325.765	8015.5
329.834	9558.94
333.902	10411.7
337.967	10225
342.031	8683.99
346.093	7519.58
350.153	6904.91
354.21	6958.11
358.267	6373.17
362.321	4315.25
366.373	2828.64
370.423	2021
374.471	1895.59
378.518	2155.76
382.563	2029.36
386.605	1628.56
390.646	1002.44
394.685	597.525
398.722	406.372
402.757	307.998
406.79	233.461
410.821	348.201
414.851	412.594
418.878	776.196
422.904	1264.55
426.927	2000.44
430.949	2205.48
434.969	1968.72
438.987	1442.95
443.003	940.056
447.018	695.49
451.03	504.69
455.041	389.406
459.049	335.015
463.056	303.904
467.061	230.035
471.064	140.355
475.065	74.278
479.064	104.935
483.062	8.315
487.057	38.6
491.051	40.921
495.043	56.685
499.032	45.964
503.02	42.797
507.007	61.247
510.991	26.401
514.973	34.172
518.954	16.625
522.933	41.757
526.91	77.608
530.885	52.248
534.858	0.611
538.829	90.605
542.799	44.435
546.766	46.975
550.732	43.165
554.696	15.008
558.658	68.51
562.618	5.554
566.576	47.103
570.533	5.211
574.488	35.825
578.44	44.034
582.391	29.428
586.341	8.669
590.288	17.254
594.233	11.4
598.177	1.157
602.119	23.507
606.059	39.353
609.997	38.813
613.933	37.879
617.868	43.578
621.801	14.934
625.731	78.946
629.66	69.671
633.588	58.126
637.513	143.32
641.437	177.262
645.358	146.735
649.278	166.435
653.196	297.136
657.113	264.996
661.027	356.762
664.94	420.706
668.851	535.358
672.76	724.628
676.667	930.756
680.572	1207.38
684.476	1622.17
688.378	2254.93
692.278	2999.22
696.176	3901.08
700.072	4614.16
703.967	5090.43
707.86	5453.7
711.751	5044.08
715.64	4586.1
719.527	4146.95
723.413	3706.18
727.297	3486.39
731.179	3307.72
735.059	3417.46
738.937	3582.75
742.814	4082.82
746.689	4748.27
750.562	5734.75
754.433	7449
758.303	10176.4
762.17	14015.8
766.036	20562.8
769.901	30740.2
773.763	39078.8
777.624	39738.8
781.482	32652.3
785.339	23941.2
789.195	18267.6
793.048	14634.2
796.9	12583.2
800.75	11819.5
804.598	11669.2
808.445	12827.3
812.289	16115
816.132	20630.1
819.973	20664.2
823.813	18838
827.65	20045
831.486	26026
835.32	37785.8
839.152	55393.2
842.983	61388.3
846.812	43642
850.639	24342.4
854.464	14231.9
858.288	9534.19
862.11	7075.57
865.93	5291
869.748	4302.93
873.564	3604.06
877.379	3048.62
881.192	2872.6
885.004	2620.05
888.813	2710.93
892.621	2514.28
896.427	2082.1
900.232	1723.4
904.034	1383.1
907.835	1233.2
911.634	980.714
915.432	911.661
919.227	763.003
923.021	722.739
926.813	643.854
930.604	487.344
934.393	477.195
938.18	388.379
941.965	303.906
945.749	208.724
949.53	151.086
953.311	88.349
957.089	40.683
960.866	45.341
964.641	23.33
968.414	28.554
972.185	45.7
975.955	28.635
979.723	27.573
983.49	55.725
987.254	12.665
991.017	53.983
994.779	35.193
998.538	17.814
1002.3	82.604
1006.05	29.75
1009.81	3.951
1013.56	4.352
1017.31	3.507
1021.06	54.383
1024.81	55.825
1028.55	62.209
1032.3	96.904
1036.04	106.465
1039.78	126.098
1043.52	135.491
1047.26	199.567
1050.99	176.648
1054.73	221.371
1058.46	226.845
1062.19	194.083
1065.92	171.998
1069.65	139.413
1073.37	194.179
1077.1	129.543
1080.82	182.492
1084.54	144.125
1088.26	131.726
1091.97	161.524
1095.69	168.002
1099.4	104.152
1103.12	110.153
1106.83	199.503
1110.54	170.104
1114.24	142.689
1117.95	133.773
1121.65	261.292
1125.35	255.562
1129.06	59.031
1132.75	132.486
1136.45	164.519
1140.15	123.22
1143.84	172.203
1147.53	164.819
1151.22	109.218
1154.91	150.352
1158.6	190.581
1162.28	187.433
1165.97	218.919
1169.65	200.05
1173.33	251.593
1177.01	203.472
1180.69	181.455
1184.36	253.696
1188.04	234.547
1191.71	188.932
1195.38	238.943
1199.05	275.498
1202.71	239.188
1206.38	229.23
1210.04	253.114
1213.71	283.775
1217.37	233.551
1221.03	247.304
1224.68	236.389
1228.34	207.596
1231.99	278.47
1235.65	265.479
1239.3	222.703
1242.95	193.945
1246.59	226.207
1250.24	186.304
1253.88	156.012
1257.53	164.443
1261.17	81.813
1264.81	124.124
1268.45	140.68
1272.08	79.03
1275.72	91.027
1279.35	88.198
1282.98	61.527
1286.61	66.412
1290.24	93.485
1293.87	42.417
1297.49	1.298
1301.11	26.49
1304.73	11.413
1308.36	41.406
1311.97	11.581
1315.59	11.975
1319.2	1.684
1322.82	25.03
1326.43	26.844
1330.04	11.039
1333.65	2.576
1337.26	26.24
1340.86	19.221
1344.47	4.674
1348.07	5.715
1351.67	32.18
1355.27	11.306
1358.87	13.637
1362.46	14.339
1366.06	10.219
1369.65	10.014
1373.24	7.65
1376.83	9.454
1380.42	36.336
1384	69.276
1387.59	95.918
1391.17	51.645
1394.75	113.275
1398.33	126.451
1401.91	91.154
1405.49	50.781
1409.06	35.172
1412.64	42.817
1416.21	89.928
1419.78	29.44
1423.35	48.364
1426.91	5.023
1430.48	15.614
1434.05	52.069
1437.61	75.661
1441.17	12.408
1444.73	29.059
1448.29	44.77
1451.84	43.168
1455.4	59.148
1458.95	20.044
1462.5	75.062
1466.05	31.108
1469.6	3.675
1473.15	11.694
1476.69	27.472
1480.24	65.767
1483.78	113.905
1487.32	72.52
1490.86	160.592
1494.39	210.756
1497.93	251.702
1501.46	277.921
1505	425.865
1508.53	526.242
1512.06	683.452
1515.59	888.931
1519.11	1107.06
1522.64	1590.11
1526.16	2335.38
