Measurement: Raman, 780 nm, unoriented, Raman Data Processed
Mineral: Descloizite
Rruff sample: R120097
Ideal chemistry: PbZnVO_4_(OH)
Locality: Collins Vein, Mammoth mine, Tiger, Arizona
Source: Bob Downs and Hexiong Yang
Description: Brown transparent closed pyramids, like flattened octahedra, associated with vanadinite
Raman shift (cm-1)	intensity
92.5678	0
95.9426	119.025
99.3174	295.255
102.692	496.24
106.067	460.101
109.442	222.514
112.817	70.0855
116.192	15.6736
119.566	3.37433
122.941	2.25732
126.316	1.86395
129.691	1.56045
133.066	1.44284
136.44	2.27591
139.815	3.90997
143.19	2.97076
146.565	1.84048
149.94	2.1179
153.315	7.69952
156.689	18.3713
160.064	29.2919
163.439	35.5417
166.814	42.0817
170.189	48.5543
173.563	60.0422
176.938	66.2331
180.313	75.5327
183.688	74.8821
187.063	68.8907
190.437	59.8723
193.812	48.9442
197.187	38.0564
200.562	28.7227
203.937	22.2204
207.311	16.4045
210.686	13.3299
214.061	11.6074
217.436	15.5709
220.811	20.4267
224.186	22.6501
227.56	13.1703
230.935	0.270401
234.31	2.2244
237.685	4.32256
241.06	3.83078
244.435	1.29982
247.809	1.92129
251.184	2.23721
254.559	0.256622
257.934	7.24994
261.309	13.3629
264.683	28.5268
268.058	44.0087
271.433	67.3808
274.808	98.8842
278.183	139.737
281.558	185.795
284.932	241.772
288.307	298.304
291.682	343.594
295.057	356.747
298.432	345.889
301.806	329.254
305.181	314.337
308.556	320.648
311.931	335.089
315.306	359.121
318.68	389.201
322.055	411.387
325.43	428.753
328.805	447.828
332.18	456.433
335.555	445.762
338.929	405.337
342.304	357.941
345.679	310.941
349.054	267.517
352.429	236.487
355.803	207.016
359.178	168.339
362.553	116.267
365.928	80.234
369.303	61.7895
372.678	54.5411
376.052	55.6421
379.427	62.3268
382.802	60.0103
386.177	51.004
389.552	34.4201
392.926	16.3622
396.301	3.75284
399.676	4.38556
403.051	5.9552
406.426	5.6311
409.8	6.71268
413.175	2.75228
416.55	1.67001
419.925	7.13744
423.3	13.7235
426.675	20.0175
430.049	20.5302
433.424	13.7374
436.799	7.6772
440.174	3.69592
443.549	1.64676
446.923	0.132107
450.298	0.795544
453.673	2.17151
457.048	1.67044
460.423	2.72576
463.798	4.11068
467.172	2.89187
470.547	2.97646
473.922	4.27603
477.297	5.44115
480.672	6.45611
484.046	8.05108
487.421	8.70177
490.796	9.80587
494.171	11.0291
497.546	12.018
500.921	11.1883
504.295	10.5204
507.67	9.5811
511.045	7.11836
514.42	4.96329
517.795	5.41178
521.169	3.15007
524.544	3.33357
527.919	3.17215
531.294	3.25768
534.669	2.93981
538.044	2.38983
541.418	1.7955
544.793	1.67585
548.168	1.36579
551.543	1.74561
554.918	2.25235
558.293	1.55
561.667	1.05133
565.042	0.804609
568.417	0.435806
571.792	0.434385
575.167	0.159595
578.541	1.36256
581.916	0.517424
585.291	1.02216
588.666	2.07481
592.041	2.75557
595.415	1.99352
598.79	3.45077
602.165	6.40988
605.54	6.22773
608.915	6.91504
612.29	4.07734
615.664	3.34204
619.039	3.45847
622.414	1.7281
625.789	0.964289
629.164	0.028149
632.538	0.014277
635.913	0.742678
639.288	0.08663
642.663	1.40404
646.038	0.402405
649.413	0.749838
652.787	1.17898
656.162	0.263468
659.537	0.724861
662.912	0.957355
666.287	2.39181
669.661	5.10591
673.036	7.4018
676.411	10.3995
679.786	16.0511
683.161	17.2691
686.535	19.1124
689.91	21.2714
693.285	22.3495
696.66	22.6978
700.035	21.361
703.41	19.4143
706.784	17.5051
710.159	13.198
713.534	8.86014
716.909	4.94039
720.284	1.85383
723.659	0.902889
727.033	3.15205
730.408	4.85443
733.783	5.28826
737.158	4.03427
740.533	3.00197
743.907	0.134682
747.282	8.17289
750.657	17.4998
754.032	32.0572
757.407	55.0106
760.782	81.4461
764.156	117.832
767.531	163.6
770.906	204.782
774.281	232.65
777.656	240.748
781.03	219.066
784.405	189.444
787.78	162.476
791.155	146.656
794.53	139.309
797.904	133.487
801.279	137.974
804.654	151.745
808.029	178.04
811.404	215.934
814.779	266.772
818.153	334.807
821.528	413.866
824.903	525.122
828.278	666.3
831.653	822.467
835.028	962.292
838.402	1013.9
841.777	881.984
845.152	631.918
848.527	408.99
851.902	259.005
855.276	166.077
858.651	107.2
862.026	72.6754
865.401	50.3989
868.776	31.7818
872.15	22.4183
875.525	14.2564
878.9	8.71258
882.275	5.96572
885.65	5.11145
889.024	4.40662
892.399	0.510696
895.774	0.705589
899.149	2.87076
902.524	1.82629
905.899	2.24336
909.273	4.0272
912.648	2.02618
916.023	1.81189
919.398	0.118877
922.773	0.220879
926.148	1.31514
929.522	2.30343
932.897	2.17587
936.272	4.40704
939.647	5.87347
943.022	5.75019
946.396	7.17725
949.771	9.17332
953.146	10.1437
956.521	12.0257
959.896	11.5009
963.27	11.2476
966.645	12.1402
970.02	11.6208
973.395	11.1198
976.77	9.76225
980.145	10.1789
983.519	9.33471
986.894	8.94557
990.269	8.08655
993.644	8.02377
997.019	7.55454
1000.39	6.98999
1003.77	5.79115
1007.14	5.76067
1010.52	4.89105
1013.89	5.50749
1017.27	5.80314
1020.64	5.84924
1024.02	5.74909
1027.39	5.62977
1030.77	3.926
1034.14	3.92492
1037.52	3.30524
1040.89	3.28796
1044.27	2.62263
1047.64	2.7832
1051.02	3.88593
1054.39	3.84519
1057.77	2.69176
1061.14	2.60744
1064.52	2.18341
1067.89	1.65183
1071.27	2.04672
1074.64	2.35016
1078.01	1.96365
1081.39	1.83563
1084.76	1.39987
1088.14	1.70792
1091.51	0.238857
1094.89	1.98508
1098.26	0.576233
1101.64	0.646442
1105.01	0.517899
1108.39	1.17007
1111.76	1.45645
1115.14	0.350664
1118.51	0.722734
1121.89	1.21643
1125.26	0.41417
1128.64	0.347443
1132.01	0.441194
1135.39	1.04167
1138.76	1.14176
1142.14	0.239053
1145.51	0.860992
1148.88	1.30078
1152.26	0.298953
1155.63	0.62841
1159.01	0.511791
1162.38	1.44598
1165.76	0.718553
1169.13	1.29056
1172.51	0.686855
1175.88	0.380809
1179.26	0.630656
1182.63	1.30621
1186.01	0.841837
1189.38	0.232423
1192.76	0.931509
1196.13	1.57411
1199.51	0.725199
1202.88	0.100253
1206.26	1.14779
1209.63	1.21073
1213.01	0.475492
1216.38	0.790749
1219.76	1.38492
1223.13	0.891854
1226.51	0.521885
1229.88	1.10951
1233.26	0.109897
1236.63	1.8009
1240.01	1.30773
1243.38	0.274785
1246.76	0.401614
1250.13	0.835948
1253.51	0.594142
1256.88	0.699705
1260.25	1.54018
1263.63	1.35942
1267	1.71561
1270.38	0.809606
1273.75	0.119052
1277.13	0.680625
1280.5	0.420617
1283.88	0.891247
