Measurement: Raman, 780 nm, unoriented, Raman Data Processed
Mineral: Despujolsite
Rruff sample: R100208
Ideal chemistry: Ca_3_Mn^4+^(SO_4_)_2_(OH)_6_3H_2_O
Locality: N'Chwaning III mine, Kalahari Manganese Field, Northern Cape Province, South Africa
Source: Marcus Origlieri
Description: Lime green transparent crystal fragment. Sample was used in Barkley et al (2011)
Measured chemistry: Ca_3.44_(Mn^+4^_0.86_Fe^+3^_0.06_)_Σ=0.92_(S_0.96_O_4_)_2_(OH)_6_·3H_2_O
Raman shift (cm-1)	intensity
90.6055	0
93.9803	5.61246
97.3551	0.780319
100.73	1.4554
104.105	15.6686
107.48	46.1781
110.854	30.0252
114.229	38.6599
117.604	62.2745
120.979	112.073
124.354	158.788
127.728	223.426
131.103	359.67
134.478	493.308
137.853	520.573
141.228	379.486
144.602	199.933
147.977	98.2966
151.352	51.5846
154.727	37.8365
158.102	41.3478
161.477	69.1707
164.851	106.523
168.226	166.358
171.601	171.275
174.976	111.897
178.351	57.2466
181.726	22.8025
185.1	1.8154
188.475	4.37965
191.85	7.70946
195.225	0.946075
198.6	8.82922
201.974	28.9785
205.349	56.0202
208.724	51.6664
212.099	28.2357
215.474	6.31825
218.848	8.64249
222.223	22.7871
225.598	59.7927
228.973	110.602
232.348	182.518
235.722	282.052
239.097	403.318
242.472	635.578
245.847	787.005
249.222	627.59
252.597	451.62
255.971	374.93
259.346	346.597
262.721	349.42
266.096	364.655
269.471	403.301
272.846	441.305
276.22	425.78
279.595	324.212
282.97	211.731
286.345	124.55
289.719	62.9169
293.094	30.0068
296.469	4.71599
299.844	8.82072
303.219	13.7798
306.594	14.4103
309.968	2.85596
313.343	10.7476
316.718	37.8958
320.093	77.7161
323.468	127.37
326.842	201.878
330.217	298.66
333.592	424.652
336.967	619.507
340.342	921.268
343.717	1204.13
347.091	1149.27
350.466	958.806
353.841	921.985
357.216	1107.14
360.591	1586.21
363.965	2168.14
367.34	2029.17
370.715	1233.01
374.09	664.272
377.465	388.672
380.839	260.455
384.214	194.798
387.589	191.378
390.964	226.835
394.339	286.658
397.714	366.611
401.088	463.839
404.463	504.514
407.838	416.756
411.213	262.588
414.588	137.001
417.962	57.721
421.337	18.6823
424.712	6.65859
428.087	17.1975
431.462	18.078
434.837	2.49066
438.211	19.0446
441.586	72.1329
444.961	145.694
448.336	277.765
451.711	556.994
455.085	1032.85
458.46	1463.97
461.835	1699.86
465.21	2536.65
468.585	3698.97
471.959	2822.88
475.334	1511.2
478.709	1238.79
482.084	1798.76
485.459	3751.63
488.834	5236.45
492.208	2310.81
495.583	800.992
498.958	348.08
502.333	156.416
505.708	70.0422
509.082	16.4963
512.457	4.32538
515.832	16.1396
519.207	0.257355
522.582	27.4964
525.957	69.4539
529.331	143.007
532.706	241.086
536.081	388.577
539.456	652.567
542.831	1183.63
546.205	1992.71
549.58	2968.26
552.955	5220.07
556.33	11279.9
559.705	19274.2
563.08	12786.7
566.454	4647.69
569.829	2036.77
573.204	1085.78
576.579	657.393
579.954	375.026
583.328	182.699
586.703	86.7332
590.078	35.3969
593.453	6.12843
596.828	8.61441
600.202	9.80284
603.577	2.26723
606.952	17.8101
610.327	57.3356
613.702	107.361
617.077	178.75
620.451	291.827
623.826	484.515
627.201	679.433
630.576	657.034
633.951	515.488
637.325	293.704
640.7	130.189
644.075	60.9755
647.45	33.8197
650.825	18.8031
654.199	4.77656
657.574	2.42242
660.949	1.48249
664.324	1.30048
667.699	2.76587
671.073	0.319847
674.448	2.66962
677.823	3.80639
681.198	6.97019
684.573	10.6535
687.948	16.4005
691.322	16.0732
694.697	27.4216
698.072	23.8054
701.447	29.7111
704.822	32.0941
708.197	36.2764
711.571	41.0105
714.946	42.2656
718.321	48.5745
721.696	48.4859
725.071	58.5148
728.445	67.4397
731.82	82.2451
735.195	96.8304
738.57	121.648
741.945	130.124
745.319	130.224
748.694	110.981
752.069	87.4636
755.444	61.5442
758.819	43.2268
762.193	30.3825
765.568	18.2254
768.943	15.4881
772.318	8.04729
775.693	3.86405
779.068	0.264084
782.442	0.211803
785.817	1.20451
789.192	2.01377
792.567	0.065197
795.942	2.14105
799.317	4.22725
802.691	4.53955
806.066	6.9136
809.441	8.9712
812.816	7.75761
816.191	10.887
819.565	9.08791
822.94	9.93059
826.315	4.96209
829.69	3.9196
833.065	4.00983
836.439	2.46837
839.814	1.857
843.189	2.98928
846.564	2.27075
849.939	0.161373
853.313	3.41116
856.688	6.65284
860.063	0.238487
863.438	1.97098
866.813	1.79909
870.188	0.740841
873.562	0.894157
876.937	5.23527
880.312	0.231632
883.687	4.82082
887.062	2.33108
890.437	0.079517
893.811	3.792
897.186	0.927235
900.561	4.78099
903.936	5.63826
907.311	7.08147
910.685	8.9798
914.06	2.84942
917.435	7.83007
920.81	6.81236
924.185	4.13363
927.559	2.3565
930.934	0.091053
934.309	2.08941
937.684	1.29056
941.059	1.45232
944.433	0.274193
947.808	1.09431
951.183	6.42241
954.558	12.7313
957.933	14.1359
961.308	22.2571
964.682	29.0021
968.057	42.6904
971.432	56.0605
974.807	74.7398
978.182	103.226
981.557	129.294
984.931	168.138
988.306	197.98
991.681	222.734
995.056	249.882
998.431	294.266
1001.8	365.616
1005.18	476.821
1008.55	686.186
1011.93	990.877
1015.3	1799.77
1018.68	3889.09
1022.05	4708.16
1025.43	1392.92
1028.8	466.891
1032.18	230.124
1035.55	135.973
1038.93	90.5692
1042.3	60.7579
1045.68	38.3342
1049.05	23.9025
1052.43	13.1714
1055.8	3.78554
1059.18	4.82942
1062.55	1.91088
1065.93	0.836056
1069.3	1.39709
1072.68	4.54173
1076.05	2.84809
1079.43	0.245319
1082.8	0.210415
1086.18	7.46592
1089.55	4.29978
1092.92	6.97594
1096.3	10.7305
1099.67	18.9687
1103.05	25.0969
1106.42	32.681
1109.8	44.0422
1113.17	54.5687
1116.55	68.9728
1119.92	84.7853
1123.3	117.357
1126.67	160.849
1130.05	243.401
1133.42	361.943
1136.8	503.257
1140.17	630.817
1143.55	763.615
1146.92	678.089
1150.3	412.445
1153.67	230.311
1157.05	138.232
1160.42	81.8022
1163.8	53.2606
1167.17	36.2702
1170.55	22.9275
1173.92	15.8687
1177.3	6.92019
1180.67	4.66541
1184.05	2.15295
1187.42	2.03916
1190.8	4.27498
1194.17	0.083862
1197.55	0.482874
1200.92	1.04941
1204.29	1.01631
1207.67	0.865587
1211.04	2.28591
1214.42	2.54137
1217.79	1.26682
1221.17	3.40238
1224.54	5.07796
1227.92	1.13938
1231.29	5.45966
1234.67	5.68392
1238.04	9.42775
1241.42	6.68648
1244.79	4.18127
1248.17	5.74016
1251.54	7.86707
1254.92	7.35349
1258.29	11.595
1261.67	7.67097
1265.04	5.74737
1268.42	6.35364
1271.79	3.62124
1275.16	2.5672
1278.54	1.0865
1281.91	7.08489
