Measurement: Raman, 532 nm, unoriented, Raman Data Processed
Mineral: Despujolsite
Rruff sample: R100208
Ideal chemistry: Ca_3_Mn^4+^(SO_4_)_2_(OH)_6_3H_2_O
Locality: N'Chwaning III mine, Kalahari Manganese Field, Northern Cape Province, South Africa
Source: Marcus Origlieri
Description: Lime green transparent crystal fragment. Sample was used in Barkley et al (2011)
Measured chemistry: Ca_3.44_(Mn^+4^_0.86_Fe^+3^_0.06_)_Σ=0.92_(S_0.96_O_4_)_2_(OH)_6_·3H_2_O
Raman shift (cm-1)	intensity
91.0352	0
94.41	2.77245
97.7848	2.92655
101.16	4.11685
104.534	10.0731
107.909	10.9213
111.284	11.7895
114.659	17.0259
118.034	18.5127
121.409	20.3104
124.783	15.2777
128.158	11.407
131.533	4.88479
134.908	2.97412
138.283	3.93601
141.657	0.387955
145.032	2.42363
148.407	2.39521
151.782	1.89691
155.157	7.91181
158.532	12.3037
161.906	21.6403
165.281	25
168.656	37.431
172.031	42.8863
175.406	33.9969
178.78	26.1636
182.155	19.2936
185.53	12.0271
188.905	11.4544
192.28	12.4394
195.655	12.4523
199.029	16.3722
202.404	22.5575
205.779	28.4249
209.154	23.5329
212.529	13.7648
215.904	1.23534
219.278	4.63911
222.653	16.3954
226.028	42.6968
229.403	90.1962
232.778	164.741
236.152	259.502
239.527	395.269
242.902	620.738
246.277	827.422
249.652	689.773
253.026	444.611
256.401	295.873
259.776	208.183
263.151	153.157
266.526	124.773
269.901	115.764
273.276	112.176
276.65	103.846
280.025	75.0675
283.4	43.7424
286.775	19.4665
290.15	3.45821
293.524	3.26527
296.899	10.6308
300.274	9.36446
303.649	6.23956
307.024	1.14062
310.399	10.7039
313.773	22.9249
317.148	47.5621
320.523	76.4605
323.898	118.794
327.273	187.583
330.647	282.558
334.022	413.12
337.397	599.74
340.772	865.635
344.147	1121.21
347.522	1081.78
350.896	779.904
354.271	556.304
357.646	466.5
361.021	485.885
364.396	570.472
367.77	560.105
371.145	381.048
374.52	234.208
377.895	173.909
381.27	158.815
384.644	181.713
388.019	237.316
391.394	319.491
394.769	422.725
398.144	522.096
401.519	615.021
404.894	645.98
408.268	534.302
411.643	331.442
415.018	166.056
418.393	72.2249
421.767	23.7714
425.142	2.68301
428.517	6.56918
431.892	15.9337
435.267	5.1311
438.642	10.651
442.017	44.6903
445.391	106.422
448.766	217.771
452.141	433.655
455.516	882.106
458.891	1552.89
462.265	2214.91
465.64	3363.26
469.015	5057.01
472.39	4586.09
475.765	2136.85
479.139	1150.56
482.514	980.052
485.889	1283.68
489.264	1775.69
492.639	1030.01
496.014	350.272
499.388	146.636
502.763	59.3822
506.138	16.9246
509.513	2.60319
512.888	7.98546
516.263	6.58197
519.637	6.60423
523.012	25.109
526.387	59.7871
529.762	110.116
533.137	179.723
536.511	282.859
539.886	450.379
543.261	757.616
546.636	1396.97
550.011	2567.97
553.386	4596.08
556.76	8575.98
560.135	14981.5
563.51	13680.2
566.885	5109.07
570.26	2114.46
573.635	1078.12
577.009	633.121
580.384	374.995
583.759	200.32
587.134	101.755
590.509	48.8731
593.883	18.5458
597.258	0.892761
600.633	6.81064
604.008	2.74536
607.383	2.8349
610.758	15.2345
614.132	39.9384
617.507	78.2222
620.882	140.44
624.257	227.884
627.632	298.777
631.006	254.687
634.381	154.013
637.756	87.7272
641.131	40.9188
644.506	17.6935
647.881	7.09365
651.255	1.31546
654.63	1.09232
658.005	0.825165
661.38	2.69981
664.755	0.429817
668.13	0.429291
671.504	0.763546
674.879	0.339581
678.254	5.03009
681.629	7.91387
685.004	9.03244
688.378	13.0133
691.753	18.6877
695.128	19.36
698.503	25.8896
701.878	29.0545
705.253	34.9393
708.627	35.6922
712.002	38.331
715.377	39.6148
718.752	40.1306
722.127	45.7981
725.501	51.0195
728.876	60.3716
732.251	71.8739
735.626	90.8821
739.001	107.7
742.375	122.531
745.75	123.59
749.125	106.242
752.5	82.3808
755.875	61.6558
759.25	41.1657
762.625	29.483
765.999	18.2226
769.374	11.5812
772.749	7.02098
776.124	2.50792
779.499	2.69579
782.873	0.265148
786.248	0.12521
789.623	0.380699
792.998	0.611374
796.373	3.86137
799.747	5.38017
803.122	6.05815
806.497	8.77027
809.872	10.3069
813.247	11.1238
816.621	11.1692
819.996	10.9093
823.371	9.97931
826.746	7.44984
830.121	5.69126
833.496	3.54582
836.87	3.99372
840.245	3.39534
843.62	2.42884
846.995	0.224426
850.37	1.3551
853.745	3.61782
857.119	0.407204
860.494	1.49022
863.869	1.33948
867.244	0.559494
870.619	0.464081
873.994	0.517227
877.368	0.454033
880.743	0.770145
884.118	3.86995
887.493	1.23598
890.868	3.40375
894.242	1.58399
897.617	0.927673
900.992	3.02811
904.367	2.80281
907.742	3.91902
911.116	5.84647
914.491	5.71858
917.866	6.21014
921.241	2.75583
924.616	2.37648
927.991	0.344933
931.365	0.331039
934.74	1.35296
938.115	0.560806
941.49	0.320778
944.865	1.80875
948.24	5.09733
951.614	9.99728
954.989	18.8668
958.364	22.2939
961.739	25.7417
965.114	29.5644
968.489	33.2466
971.863	43.4336
975.238	56.3816
978.613	77.1536
981.988	100.789
985.362	124.309
988.737	143.302
992.112	145.277
995.487	138.352
998.862	132.83
1002.24	135.497
1005.61	147.857
1008.99	189.977
1012.36	321.214
1015.74	628.428
1019.11	1340.49
1022.49	2000.44
1025.86	816.477
1029.23	278.469
1032.61	154.705
1035.98	100.632
1039.36	75.9849
1042.73	52.7339
1046.11	35.9046
1049.48	21.5321
1052.86	11.1744
1056.23	5.14143
1059.61	1.16774
1062.98	1.19614
1066.36	3.51289
1069.73	0.075512
1073.11	0.048912
1076.48	0.604889
1079.86	0.606239
1083.23	2.93133
1086.61	5.47408
1089.98	7.78684
1093.36	11.7628
1096.73	15.5941
1100.11	22.4649
1103.48	32.0408
1106.86	41.8026
1110.23	46.6691
1113.61	51.3329
1116.98	54.9802
1120.36	59.8291
1123.73	62.5717
1127.11	71.85
1130.48	95.0072
1133.86	132.046
1137.23	173.913
1140.6	191.15
1143.98	207.519
1147.35	192.096
1150.73	122.325
1154.1	67.9292
1157.48	40.1095
1160.85	25.4205
1164.23	17.0483
1167.6	10.4596
1170.98	7.03957
1174.35	2.82537
1177.73	1.52014
1181.1	2.09565
1184.48	0.983248
1187.85	0.002487
1191.23	0.277691
1194.6	0.848879
1197.98	1.14565
1201.35	0.498611
1204.73	1.32865
1208.1	0.886768
1211.48	0.263701
1214.85	1.55183
1218.22	0.379891
1221.6	0.559943
1224.97	0.758595
1228.35	0.992362
1231.72	1.24744
1235.1	2.17073
1238.47	2.6267
1241.85	3.02266
1245.22	1.49804
1248.6	2.61185
1251.97	4.19841
1255.35	4.34884
1258.72	4.36066
1262.1	3.39744
1265.47	3.2087
1268.85	3.11271
1272.22	1.38721
1275.6	2.55968
1278.97	2.05943
1282.35	0.432434
1285.72	1.08421
1289.1	0.761385
1292.47	0.062937
1295.85	0.607944
1299.22	2.6158
1302.6	0
