Measurement: Raman, 532 nm, unoriented, Raman Data Processed
Mineral: Destinezite
Rruff sample: R050631
Ideal chemistry: Fe^3+^_2_(PO_4_)(SO_4_)(OH)6H_2_O
Locality: Patagonia Mountains, Arizona, USA
Source: University of Arizona Mineral Museum
Description: Colorless acicular crystal
Raman shift (cm-1)	intensity
151.011	0
153.903	20.248
156.796	18.3625
159.689	28.3068
162.581	34.9305
165.474	16.1968
168.367	2.2356
171.259	2.82971
174.152	0.535034
177.045	0.731689
179.938	11.5911
182.83	13.5709
185.723	35.5933
188.616	55.9524
191.508	87.01
194.401	116.96
197.294	173.782
200.186	229.046
203.079	283.959
205.972	274.331
208.864	210.985
211.757	150.559
214.65	95.4852
217.543	56.3431
220.435	36.6819
223.328	39.5107
226.221	47.8447
229.113	63.9301
232.006	59.6968
234.899	66.8889
237.792	75.0214
240.684	94.055
243.577	95.8494
246.47	99.9235
249.362	99.3284
252.255	122.355
255.148	124.185
258.041	121.331
260.933	121.315
263.826	141.538
266.719	172.584
269.611	195.644
272.504	225.219
275.397	249.653
278.289	286.616
281.182	327.479
284.075	356.645
286.967	393.881
289.86	409.587
292.753	410.611
295.646	422.068
298.538	427.814
301.431	403.043
304.324	332.711
307.216	237.605
310.109	153.157
313.002	94.2208
315.895	55.6044
318.787	25.8765
321.68	7.1084
324.573	3.22742
327.465	10.2013
330.358	8.40686
333.251	10.5625
336.144	8.85706
339.036	4.72205
341.929	0.747192
344.822	1.08228
347.714	19.8218
350.607	34.529
353.5	47.0795
356.392	64.8568
359.285	77.24
362.178	88.9562
365.07	100.314
367.963	97.2412
370.856	89.4563
373.749	73.3496
376.641	54.1337
379.534	41.7172
382.427	27.5051
385.32	14.2872
388.212	10.9071
391.105	6.81848
393.998	4.59387
396.89	10.4012
399.783	21.043
402.676	30.6942
405.568	44.0956
408.461	45.1187
411.354	52.6764
414.247	59.3573
417.139	63.1235
420.032	66.4117
422.925	66.6135
425.817	74.3248
428.71	82.5763
431.603	85.3479
434.495	78.731
437.388	87.7568
440.281	85.8135
443.173	103.137
446.066	125.916
448.959	158.523
451.852	205.434
454.744	268.596
457.637	327.432
460.53	372.112
463.423	408.134
466.315	397.949
469.208	362.583
472.101	308.063
474.993	242.925
477.886	176.39
480.779	132.112
483.671	92.2968
486.564	59.6124
489.457	32.863
492.349	23.3389
495.242	13.5432
498.135	9.47339
501.028	11.0541
503.92	0.229492
506.813	3.04675
509.706	5.59644
512.598	10.3202
515.491	1.41333
518.384	1.85217
521.277	3.04199
524.169	3.31921
527.062	19.092
529.955	29.9282
532.847	47.0612
535.74	68.3231
538.633	88.0782
541.525	108.266
544.418	135.433
547.311	154.846
550.204	162.363
553.096	168.631
555.989	160.284
558.882	144.993
561.774	110.912
564.667	79.0439
567.56	52.7683
570.452	34.8062
573.345	18.6016
576.238	12.6165
579.131	10.8001
582.023	8.77856
584.916	17.0891
587.809	15.8906
590.701	27.0465
593.594	29.5909
596.487	30.8505
599.38	45.2341
602.272	58.1454
605.165	68.525
608.058	86.8185
610.95	83.4353
613.843	87.5043
616.736	87.1007
619.629	88.6501
622.521	95.4206
625.414	93.1311
628.307	81.7104
631.199	74.3117
634.092	57.1356
636.985	44.9934
639.877	27.6432
642.77	21.8962
645.663	18.2365
648.556	14.5595
651.448	9.93237
654.341	7.60193
657.234	4.49585
660.126	8.20605
663.019	3.47986
665.912	4.83765
668.804	3.27942
671.697	2.77954
674.59	0.757324
677.482	4.37854
680.375	0.307739
683.268	0.757446
686.161	1.34766
689.053	3.17224
691.946	0.811157
694.839	0.648071
697.731	1.48279
700.624	6.40832
703.517	5.22815
706.409	7.15198
709.302	9.13415
712.195	8.80908
715.088	12.7759
717.98	13.4789
720.873	14.1559
723.766	14.4418
726.659	15.4313
729.551	9.91443
732.444	7.2688
735.337	7.77405
738.229	11.1871
741.122	18.5873
744.015	11.7457
746.907	14.3813
749.8	4.25317
752.693	3.92603
755.586	8.97778
758.478	5.28906
761.371	7.15601
764.264	7.28686
767.156	4.5542
770.049	5.58301
772.942	2.52893
775.835	3.00403
778.727	7.69458
781.62	4.58008
784.513	6.76306
787.405	4.01721
790.298	0.55957
793.191	3.12415
796.083	2.57629
798.976	4.44311
801.869	6.5415
804.761	5.45032
807.654	4.87085
810.547	6.7207
813.44	9.21948
816.332	5.70728
819.225	7.45862
822.118	3.69568
825.01	12.0204
827.903	9.87024
830.796	11.0216
833.688	14.3453
836.581	13.6433
839.474	15.8817
842.367	16.8304
845.259	15.7933
848.152	15.7164
851.045	13.8405
853.937	17.3661
856.83	18.9176
859.723	13.639
862.616	10.1066
865.508	8.6687
868.401	14.2753
871.294	12.0241
874.186	15.9992
877.079	12.6692
879.972	8.45422
882.865	9.96765
885.757	12.3962
888.65	13.0952
891.543	5.30603
894.435	3.23108
897.328	6.10596
900.221	17.1907
903.113	9.07556
906.006	4.18762
908.899	5.27002
911.792	3.30029
914.684	0.400391
917.577	2.21655
920.47	2.87305
923.362	1.4469
926.255	7.07202
929.148	8.72388
932.04	7.13293
934.933	2.1532
937.826	6.2395
940.719	7.67712
943.611	11.1067
946.504	19.6232
949.397	28.3091
952.289	55.8276
955.182	102.632
958.075	171.522
960.967	271.989
963.86	401.462
966.753	522.823
969.646	585.519
972.538	502.39
975.431	373.309
978.324	303.007
981.216	302.345
984.109	352.447
987.002	412.824
989.894	365.935
992.787	212.692
995.68	110.988
998.573	59.5895
1001.47	36.3425
1004.36	25.8143
1007.25	27.1842
1010.14	39.8164
1013.04	49.6218
1015.93	73.2091
1018.82	103.806
1021.71	125.541
1024.61	144.592
1027.5	167.739
1030.39	202.989
1033.29	267.523
1036.18	363.98
1039.07	495.269
1041.96	648.266
1044.86	810.762
1047.75	915.328
1050.64	979.687
1053.53	974.501
1056.43	862.76
1059.32	626.682
1062.21	393.787
1065.11	242.833
1068	169.419
1070.89	133.134
1073.78	105.31
1076.68	102.65
1079.57	97.589
1082.46	82.5679
1085.35	60.2821
1088.25	40.9102
1091.14	19.4371
1094.03	8.52783
1096.92	0.790527
1099.82	2.68726
1102.71	4.04407
1105.6	5.27698
1108.49	5.81616
1111.39	2.9967
1114.28	3.21338
1117.17	3.93835
1120.07	6.36133
1122.96	4.7439
1125.85	2.62341
1128.74	6.91016
1131.64	3.52429
1134.53	4.1842
1137.42	0.034912
1140.32	1.90747
1143.21	6.43579
1146.1	5.30054
1148.99	9.4447
1151.89	6.20068
1154.78	9.98779
1157.67	7.36194
1160.56	9.10107
1163.46	11.4382
1166.35	22.5476
1169.24	24.4039
1172.13	39.9924
1175.03	49.218
1177.92	57.8862
1180.81	66.776
1183.71	71.8897
1186.6	65.5371
1189.49	56.0821
1192.38	52.3149
1195.28	37.2396
1198.17	28.5169
1201.06	22.3042
1203.95	22.3423
1206.85	17.8581
1209.74	12.438
1212.63	10.0806
1215.53	11.6252
1218.42	5.03113
1221.31	8.82483
1224.2	7.48267
1227.1	8.33704
1229.99	6.30774
1232.88	7.56665
1235.77	7.0321
1238.67	2.11743
1241.56	4.77222
1244.45	1.99915
1247.35	15.3117
1250.24	6.22803
1253.13	5.55359
1256.02	4.40491
1258.92	8.91113
1261.81	8.63721
1264.7	6.64258
1267.59	11.3815
1270.49	9.31921
1273.38	4.13184
1276.27	1.82202
1279.16	6.99365
1282.06	5.83435
1284.95	5.04089
1287.84	3.42615
1290.74	9.16089
1293.63	3.79761
1296.52	1.0835
1299.41	2.30786
