Measurement: Raman, 532 nm, unoriented, Raman Data Processed
Mineral: Devilline
Rruff sample: R060126
Ideal chemistry: CaCu_4_(SO_4_)_2_(OH)_6_3H_2_O
Locality: Herrengrund, Hungary
Source: University of Arizona Mineral Museum
Description: Greenish-blue pseudohexagonal crystals
Raman shift (cm-1)	intensity
150.528	0
153.421	1.82074
156.314	2.91297
159.207	4.47581
162.099	6.99074
164.992	11.7474
167.885	13.9324
170.777	8.99453
173.67	0.104088
176.563	0.650063
179.455	0.671112
182.348	3.84133
185.241	7.6001
188.133	12.8656
191.026	16.5983
193.919	22.3086
196.812	27.0761
199.704	31.8173
202.597	35.9838
205.49	38.9605
208.382	42.0373
211.275	42.6843
214.168	41.8686
217.06	40.1111
219.953	36.1768
222.846	35.4487
225.739	33.8342
228.631	35.7118
231.524	37.9315
234.417	40.1145
237.31	43.5776
240.202	45.73
243.095	44.0714
245.988	39.7003
248.88	34.8622
251.773	30.7237
254.666	24.0993
257.558	17.975
260.451	11.8332
263.344	5.9347
266.236	2.18388
269.129	0.253593
272.022	1.34351
274.915	0.106613
277.807	0.930367
280.7	2.08492
283.593	5.12538
286.485	7.9084
289.378	6.59332
292.271	6.32424
295.163	3.91911
298.056	0.811966
300.949	0.973831
303.842	1.30896
306.734	2.8514
309.627	5.87234
312.52	8.21485
315.413	10.5638
318.305	12.9147
321.198	13.8399
324.091	14.1191
326.983	13.7076
329.876	14.0082
332.769	12.8992
335.661	12.1704
338.554	10.4396
341.447	7.48769
344.339	6.07686
347.232	4.51344
350.125	5.4173
353.018	2.68607
355.91	1.46346
358.803	0.275406
361.696	1.39026
364.588	2.25421
367.481	0.863869
370.374	1.0451
373.267	0.774261
376.159	0.751968
379.052	0.127403
381.945	1.91199
384.837	4.83947
387.73	10.391
390.623	17.6005
393.515	28.1503
396.408	40.8798
399.301	57.8927
402.194	74.7356
405.086	97.3065
407.979	115.038
410.872	120.985
413.764	109.731
416.657	92.5291
419.55	78.1911
422.442	71.0209
425.335	64.1883
428.228	57.1928
431.121	52.546
434.013	58.1948
436.906	60.8193
439.799	59.4255
442.691	62.5733
445.584	60.9579
448.477	55.8169
451.37	47.2306
454.262	43.7026
457.155	39.9084
460.048	39.6141
462.94	37.1537
465.833	39.1874
468.726	40.8045
471.618	39.1862
474.511	38.9964
477.404	36.374
480.297	36.6797
483.189	36.7325
486.082	34.2105
488.975	30.2114
491.867	25.9459
494.76	22.3075
497.653	20.1421
500.546	21.0874
503.438	19.5825
506.331	19.0652
509.224	18.374
512.116	16.9447
515.009	12.6547
517.902	8.92658
520.794	4.12448
523.687	3.03253
526.58	0.622719
529.472	0.530846
532.365	1.74248
535.258	1.24848
538.151	1.37186
541.043	2.91743
543.936	1.32878
546.829	0.677284
549.721	0.02343
552.614	0.243988
555.507	0.105148
558.4	2.05097
561.292	3.01724
564.185	3.71796
567.078	5.9396
569.97	6.84928
572.863	8.24729
575.756	12.6356
578.649	15.191
581.541	19.6533
584.434	24.6244
587.327	28.0362
590.219	33.2621
593.112	36.8053
596.005	37.6222
598.898	35.0247
601.79	34.5018
604.683	35.7084
607.576	37.9132
610.468	38.481
613.361	36.2228
616.254	32.8011
619.146	28.2
622.039	23.7744
624.932	19.8864
627.824	16.8972
630.717	14.5531
633.61	12.313
636.503	9.66025
639.395	10.2163
642.288	11.385
645.181	13.3656
648.073	17.5791
650.966	21.5025
653.859	22.8221
656.751	22.3563
659.644	20.9159
662.537	14.4867
665.43	9.97011
668.322	8.23299
671.215	5.41952
674.108	3.85899
677	2.07215
679.893	1.26796
682.786	1.66785
685.679	1.2709
688.571	0.184425
691.464	0.721931
694.357	0.143784
697.249	0.360786
700.142	0.663254
703.035	0.131104
705.928	0.982353
708.82	0.545029
711.713	0.067986
714.606	0.353249
717.498	1.04639
720.391	1.0098
723.284	1.7143
726.177	0.772301
729.069	1.06059
731.962	0.565544
734.855	2.05724
737.747	1.01711
740.64	3.48107
743.533	3.28337
746.425	3.59315
749.318	2.0304
752.211	3.07208
755.104	3.18545
757.996	4.19442
760.889	3.69077
763.782	2.28375
766.674	2.72208
769.567	1.95556
772.46	0.870865
775.352	1.28369
778.245	0.248055
781.138	0.632423
784.03	0.631706
786.923	0.768539
789.816	1.4931
792.709	0.399666
795.601	0.68325
798.494	1.79937
801.387	2.49858
804.279	3.47628
807.172	3.97002
810.065	3.98922
812.957	3.80851
815.85	3.92496
818.743	3.69998
821.636	3.51132
824.528	2.55665
827.421	2.20932
830.314	2.44136
833.207	1.44824
836.099	1.90975
838.992	2.11943
841.885	1.32726
844.777	2.47942
847.67	1.88136
850.563	1.58839
853.455	2.15445
856.348	2.17383
859.241	2.11473
862.134	1.75649
865.026	1.28207
867.919	0.86412
870.812	1.39888
873.704	1.30577
876.597	0.518051
879.49	0.967194
882.382	1.25209
885.275	1.77638
888.168	0.095451
891.061	0.052589
893.953	0.377113
896.846	0.524529
899.739	1.23398
902.631	0.494904
905.524	0.131653
908.417	0.33799
911.309	0.342041
914.202	0.565125
917.095	0.630775
919.988	0.621468
922.88	0.310562
925.773	0.579758
928.666	0.521667
931.558	1.08613
934.451	1.30122
937.344	2.44349
940.236	2.60372
943.129	2.59456
946.022	3.94016
948.915	4.36546
951.807	5.9306
954.7	7.63362
957.593	8.13935
960.486	11.2374
963.378	13.9592
966.271	18.2451
969.164	24.4189
972.056	34.7332
974.949	56.4036
977.842	98.8081
980.734	166.948
983.627	250.797
986.52	374.821
989.413	542.667
992.305	538.805
995.198	300.062
998.091	113.826
1000.98	52.1651
1003.88	29.841
1006.77	18.4153
1009.66	12.7154
1012.55	8.05524
1015.45	5.66078
1018.34	4.87836
1021.23	3.33369
1024.12	1.50484
1027.02	0.878052
1029.91	0.20813
1032.8	0.532204
1035.7	0.032242
1038.59	0.984596
1041.48	0.127014
1044.37	0.553162
1047.27	0.518631
1050.16	0.198257
1053.05	0.2752
1055.94	1.4028
1058.84	2.77611
1061.73	4.30285
1064.62	6.22651
1067.52	9.53834
1070.41	12.622
1073.3	16.0789
1076.19	19.4427
1079.09	18.3989
1081.98	15.733
1084.87	11.2141
1087.76	9.52792
1090.66	9.41235
1093.55	10.766
1096.44	10.8097
1099.34	11.9748
1102.23	12.538
1105.12	16.2502
1108.01	18.731
1110.91	23.0611
1113.8	27.5775
1116.69	34.4498
1119.58	42.3342
1122.48	52.1681
1125.37	60.2153
1128.26	66.3655
1131.15	71.7993
1134.05	64.6158
1136.94	47.6116
1139.83	30.6538
1142.73	18.7285
1145.62	11.3449
1148.51	6.80465
1151.4	4.19734
1154.3	3.61773
1157.19	2.85433
1160.08	3.7296
1162.97	6.27812
1165.87	8.7897
1168.76	12.9111
1171.65	15.954
1174.55	15.7419
1177.44	11.5224
1180.33	7.39153
1183.22	3.21551
1186.12	2.32533
1189.01	0.25407
1191.9	0.791008
1194.79	0.01429
1197.69	0.29834
1200.58	0.690117
1203.47	0.378593
1206.37	0.980312
1209.26	0.197987
1212.15	0.4869
1215.04	1.18702
1217.94	1.04291
1220.83	0.938713
1223.72	1.06103
1226.61	0.617863
1229.51	0.435925
1232.4	0.473724
1235.29	0.769867
1238.18	1.28212
1241.08	1.16567
1243.97	0.958206
1246.86	2.02006
1249.76	1.61896
1252.65	1.20457
1255.54	0.815773
1258.43	1.12788
1261.33	1.36023
1264.22	1.09534
1267.11	1.19923
1270.01	1.13857
1272.9	1.32752
1275.79	0.602184
1278.68	1.07181
1281.58	0.645016
1284.47	1.17266
1287.36	1.21774
1290.25	1.73034
1293.15	1.35784
1296.04	0.029541
1298.93	1.58209
1301.82	0.002251
