Measurement: Raman, 780 nm, unoriented, Raman Data Processed
Mineral: Dewindtite
Rruff sample: R050608
Ideal chemistry: H_2_Pb_3_(UO_2_)_6_O_4_(PO_4_)_4_12H_2_O
Locality: La Faye pres Grury, Saone et Loire, France
Source: University of Arizona Mineral Museum
Description: Yellow platy crystals associated with yellow acicular parsonsite
Raman shift (cm-1)	intensity
149.919	0
152.812	3.54327
155.705	0.45636
158.597	0.293518
161.49	3.92059
164.383	3.5741
167.276	2.46399
170.168	5.41998
173.061	5.12256
175.954	4.31226
178.846	5.3595
181.739	6.00024
184.632	9.9657
187.524	15.2974
190.417	18.7299
193.31	23.2071
196.203	23.4176
199.095	27.2922
201.988	27.4304
204.881	35.1575
207.773	34.4532
210.666	32.9668
213.559	33.9246
216.451	32.6977
219.344	31.747
222.237	30.7436
225.13	29.6808
228.022	29.2368
230.915	28.74
233.808	27.9784
236.7	27.204
239.593	25.527
242.486	24.4092
245.378	23.3317
248.271	21.7649
251.164	20.3947
254.056	20.3409
256.949	15.4635
259.842	18.6674
262.735	16.2922
265.627	12.4117
268.52	15.8177
271.413	17.0905
274.305	14.4255
277.198	15.2038
280.091	13.7498
282.983	16.4988
285.876	15.4501
288.769	12.4569
291.662	14.5146
294.554	17.5673
297.447	18.4799
300.34	16.3749
303.232	14.1072
306.125	8.37329
309.018	7.86438
311.911	3.7533
314.803	3.00836
317.696	2.9281
320.589	1.28192
323.481	1.23676
326.374	2.6637
329.267	1.0285
332.159	2.53241
335.052	3.69147
337.945	2.52582
340.837	2.92224
343.73	2.91913
346.623	7.82519
349.516	9.47241
352.408	9.32196
355.301	12.9996
358.194	16.3798
361.086	17.5413
363.979	22.9661
366.872	28.4583
369.764	35.9232
372.657	42.2706
375.55	48.3888
378.442	51.4103
381.335	56.1016
384.228	59.2272
387.121	66.0275
390.013	65.9683
392.906	63.897
395.799	64.1428
398.691	60.6843
401.584	59.0714
404.477	52.3193
407.37	51.6382
410.262	48.0558
413.155	42.5141
416.048	44.2573
418.94	44.4169
421.833	45.7112
424.726	47.0879
427.618	48.5531
430.511	50.9827
433.404	51.6323
436.296	49.9171
439.189	49.8929
442.082	45.7455
444.975	39.1241
447.867	35.2986
450.76	29.8615
453.653	22.2522
456.545	18.6273
459.438	12.0487
462.331	9.46765
465.224	6.3063
468.116	5.87984
471.009	6.18543
473.902	4.59717
476.794	2.74268
479.687	4.05164
482.58	1.70575
485.472	1.52564
488.365	0.680298
491.258	2.34924
494.151	2.10742
497.043	1.66174
499.936	3.88257
502.829	2.466
505.721	0.88623
508.614	1.987
511.507	0.695068
514.399	3.19
517.292	3.88599
520.185	6.71429
523.077	6.34552
525.97	5.59491
528.863	10.2347
531.756	6.67627
534.648	6.85101
537.541	6.15857
540.434	9.46741
543.326	9.72119
546.219	10.0974
549.112	11.7358
552.004	9.73578
554.897	11.955
557.79	13.7372
560.683	13.6517
563.575	11.4047
566.468	9.7641
569.361	10.5308
572.253	8.70026
575.146	10.3939
578.039	7.69128
580.931	4.78278
583.824	2.716
586.717	2.57617
589.61	2.47192
592.502	0.244019
595.395	1.21558
598.288	1.48853
601.18	3.2699
604.073	3.56177
606.966	3.25952
609.858	0.881042
612.751	0.810425
615.644	0.630249
618.537	2.5459
621.429	1.37396
624.322	1.30011
627.215	2.38049
630.107	4.70337
633	3.23096
635.893	2.6936
638.785	3.63959
641.678	0.428955
644.571	0.787231
647.463	2.59216
650.356	1.61816
653.249	2.17523
656.141	1.88434
659.034	0.63147
661.927	2.50623
664.82	1.34692
667.712	0.706543
670.605	1.38501
673.498	3.25149
676.39	2.4111
679.283	3.0047
682.176	3.25415
685.068	3.31635
687.961	5.31632
690.854	1.89691
693.747	3.46503
696.639	5.06256
699.532	3.99097
702.425	5.62659
705.317	1.23596
708.21	1.00354
711.103	2.79657
713.995	1.16153
716.888	3.0463
719.781	2.89142
722.674	0.271698
725.566	2.47263
728.459	1.53378
731.352	1.32959
734.244	2.22351
737.137	0.16214
740.03	2.23224
742.923	0.465912
745.815	0.909485
748.708	0.887573
751.601	2.20828
754.493	1.76147
757.386	3.74817
760.279	4.39685
763.171	8.47818
766.064	10.4775
768.957	13.7311
771.85	15.7055
774.742	19.8587
777.635	22.9244
780.528	29.8641
783.42	34.9628
786.313	40.1463
789.206	45.663
792.098	51.4357
794.991	57.3852
797.884	61.9174
800.776	64.6522
803.669	69.8872
806.562	73.5562
809.455	76.65
812.347	79.3325
815.24	84.1777
818.133	92.5994
821.025	99.0164
823.918	112.18
826.811	120.388
829.703	134.594
832.596	140.569
835.489	132.939
838.381	126.597
841.274	102.766
844.167	72.3543
847.06	43.3115
849.952	27.2752
852.845	15.612
855.738	9.76599
858.63	6.05643
861.523	4.62582
864.416	4.19061
867.308	0.530365
870.201	1.79791
873.094	0.457397
875.987	0.940216
878.879	1.54361
881.772	3.89008
884.665	2.75949
887.557	4.6145
890.45	1.38321
893.343	1.42856
896.236	1.00464
899.128	0.546234
902.021	1.44843
904.914	0.52887
907.806	1.6225
910.699	0.399048
913.592	0.370972
916.484	0.773285
919.377	2.42764
922.27	1.48022
925.163	0.267609
928.055	0.737488
930.948	2.18014
933.841	0.546936
936.733	1.63187
939.626	0.669373
942.519	0.77478
945.411	1.15839
948.304	1.59482
951.197	1.07904
954.09	1.23187
956.982	2.76141
959.875	1.45416
962.768	2.60077
965.66	1.50787
968.553	4.95538
971.446	7.26929
974.338	9.13556
977.231	7.70984
980.124	9.57788
983.016	14.0918
985.909	13.448
988.802	13.2294
991.694	16.1703
994.587	17.2663
997.48	17.5611
1000.37	18.3238
1003.26	16.199
1006.16	16.4141
1009.05	13.3863
1011.94	11.2693
1014.84	13.5323
1017.73	14.7132
1020.62	13.3191
1023.51	12.2891
1026.41	12.356
1029.3	13.8397
1032.19	12.9075
1035.09	11.6432
1037.98	13.4739
1040.87	11.4427
1043.76	9.33832
1046.66	7.9957
1049.55	8.4512
1052.44	7.62781
1055.33	7.11795
1058.23	4.37582
1061.12	4.15695
1064.01	2.37888
1066.9	2.43677
1069.8	0.920074
1072.69	1.99808
1075.58	1.06317
1078.47	1.65921
1081.37	0.618866
1084.26	1.95328
1087.15	1.11331
1090.05	0.209839
1092.94	1.39255
1095.83	1.28726
1098.72	0.424042
1101.62	1.38544
1104.51	0.806824
1107.4	0.925171
1110.3	0.246246
1113.19	0.304108
1116.08	1.83615
1118.97	3.24985
1121.87	0.989105
1124.76	1.52792
1127.65	0.955414
1130.54	0.024536
1133.44	0.513275
1136.33	0.552094
1139.22	0.512482
1142.12	2.40183
1145.01	1.24237
1147.9	0.040558
1150.79	2.78394
1153.69	1.25253
1156.58	0.530396
1159.47	2.08493
1162.36	2.52927
1165.26	3.83481
1168.15	3.75497
1171.04	6.90527
1173.93	8.05704
1176.83	7.13907
1179.72	9.93283
1182.61	9.55869
1185.51	10.9646
1188.4	11.8422
1191.29	13.3992
1194.18	15.5313
1197.08	16.4694
1199.97	15.831
1202.86	17.7613
1205.75	18.6419
1208.65	18.0492
1211.54	19.0668
1214.43	22.8806
1217.33	21.8405
1220.22	22.8736
1223.11	24.9079
1226	22.2062
1228.9	22.4826
1231.79	22.6323
1234.68	23.1112
1237.57	20.9985
1240.47	20.2754
1243.36	20.8742
1246.25	17.6701
1249.14	14.2431
1252.04	10.8703
1254.93	9.11041
1257.82	7.83896
1260.71	5.05911
1263.61	2.93024
1266.5	2.55035
1269.39	1.63416
1272.29	1.04926
1275.18	0.579041
1278.07	1.4444
1280.96	0.24646
1283.86	0.183319
