Measurement: Raman, 532 nm, unoriented, Raman Data Processed
Mineral: Diaboleite
Rruff sample: R050270
Ideal chemistry: CuPb_2_Cl_2_(OH)_4_
Locality: Tiger, Pinal County, Arizona, USA
Source: Marcus Origlieri
Description: Blue irregular crystalline
Measured chemistry: (Cu_0.97_Pb_0.03_)_Î£=1_Pb_2.00_Cl_2.00_(OH)_4_
Raman shift (cm-1)	intensity
160.038	0
162.93	0.976959
165.823	24.3216
168.716	60.8997
171.608	107.027
174.501	165.643
177.394	245.641
180.286	343.839
183.179	446.201
186.072	436.568
188.965	292.185
191.857	172.104
194.75	111.138
197.643	86.9724
200.535	85.7456
203.428	96.8144
206.321	121.137
209.214	152.928
212.106	190.465
214.999	247.271
217.892	302.505
220.784	354.594
223.677	397.653
226.57	428.798
229.462	433.885
232.355	409.192
235.248	360.747
238.141	297.327
241.033	236.094
243.926	178.484
246.819	123.907
249.711	84.4815
252.604	53.9144
255.497	32.5315
258.389	18.4614
261.282	6.91777
264.175	0.634949
267.067	4.12737
269.96	8.07261
272.853	7.24295
275.746	2.95146
278.638	1.57619
281.531	8.28607
284.424	18.4261
287.316	29.7596
290.209	36.384
293.102	46.4035
295.995	48.6277
298.887	49.0725
301.78	39.6283
304.673	27.0304
307.565	15.0612
310.458	4.43137
313.351	1.84343
316.243	3.73328
319.136	2.38306
322.029	0.809677
324.921	3.66451
327.814	8.82225
330.707	14.5035
333.6	22.508
336.492	30.4497
339.385	43.8412
342.278	54.1581
345.17	75.3829
348.063	95.7147
350.956	123.146
353.849	160.995
356.741	202.08
359.634	249.587
362.527	296.927
365.419	343.696
368.312	373.567
371.205	393.765
374.097	384.453
376.99	356.487
379.883	318.962
382.776	271.611
385.668	222.571
388.561	179.32
391.454	144.267
394.346	112.73
397.239	86.1776
400.132	66.715
403.024	49.3834
405.917	35.1435
408.81	23.7441
411.702	14.9711
414.595	7.68945
417.488	4.26511
420.381	4.07387
423.273	1.8165
426.166	6.91097
429.059	11.2944
431.951	19.7913
434.844	28.3305
437.737	37.4347
440.63	36.0717
443.522	26.3658
446.415	19.2514
449.308	13.6221
452.2	17.2783
455.093	28.7562
457.986	44.4639
460.878	64.3972
463.771	90.0256
466.664	121.658
469.557	134.493
472.449	116.949
475.342	75.7094
478.235	43.811
481.127	23.8847
484.02	12.776
486.913	8.15072
489.805	3.63743
492.698	1.24832
495.591	0.847832
498.483	1.36305
501.376	1.17396
504.269	1.6003
507.162	1.98959
510.054	1.50263
512.947	1.48402
515.84	1.7714
518.732	1.31924
521.625	0.350296
524.518	0.483807
527.41	1.69994
530.303	3.08124
533.196	3.86894
536.089	4.53773
538.981	5.28884
541.874	5.78331
544.767	6.03441
547.659	7.67559
550.552	8.58369
553.445	9.15817
556.337	10.5444
559.23	9.6093
562.123	10.8998
565.016	10.3724
567.908	9.45594
570.801	9.09294
573.694	8.76137
576.586	6.5172
579.479	6.28803
582.372	6.19711
585.264	4.14769
588.157	4.37545
591.05	3.88086
593.942	2.24933
596.835	3.32514
599.728	2.43036
602.621	1.37501
605.513	0.71307
608.406	0.107121
611.299	0.567993
614.191	0.628311
617.084	0.039764
619.977	0.187569
622.87	1.09285
625.762	2.50167
628.655	4.02682
631.548	4.54254
634.44	8.3831
637.333	11.0285
640.226	14.634
643.118	19.0457
646.011	24.6356
648.904	32.1386
651.797	37.447
654.689	47.7754
657.582	54.2524
660.475	63.2525
663.367	72.9504
666.26	74.1911
669.153	79.9952
672.045	85.9866
674.938	83.7383
677.831	83.7518
680.723	79.4697
683.616	73.7475
686.509	65.7299
689.402	55.9999
692.294	46.3717
695.187	36.5884
698.08	28.9763
700.972	18.705
703.865	12.5503
706.758	7.78587
709.65	3.64315
712.543	0.254227
715.436	0.843307
718.329	1.70823
721.221	2.47575
724.114	0.403168
727.007	0.166458
729.899	1.72421
732.792	3.69687
735.685	7.85808
738.577	12.3054
741.47	14.8571
744.363	20.1649
747.256	25.2941
750.148	32.1327
753.041	40.3287
755.934	48.3185
758.826	61.6579
761.719	73.4554
764.612	89.4417
767.505	106.818
770.397	121.587
773.29	138.955
776.183	154.272
779.075	163.451
781.968	167.775
784.861	166.038
787.753	157.504
790.646	140.676
793.539	121.493
796.432	104.312
799.324	82.2262
802.217	65.704
805.11	51.4485
808.002	40.6867
810.895	31.0973
813.788	23.823
816.68	17.7851
819.573	11.8514
822.466	9.23867
825.359	6.42297
828.251	2.18658
831.144	2.52264
834.037	1.93562
836.929	1.07687
839.822	0.157806
842.715	0.419983
845.607	0.175125
848.5	0.625694
851.393	0.560089
854.285	0.439705
857.178	0.402569
860.071	0.06863
862.964	0.446621
865.856	0.491455
868.749	1.38423
871.642	0.319168
874.534	0.899696
877.427	0.216301
880.32	0.898594
883.212	1.3229
886.105	1.11342
888.998	0.664772
891.891	0.339687
894.783	0.540531
897.676	1.04079
900.569	1.42921
903.461	1.2433
906.354	1.24897
909.247	0.468559
912.139	0.811611
915.032	1.30218
917.925	1.0742
920.818	1.47756
923.71	1.05604
926.603	0.876968
929.496	1.62991
932.388	1.71222
935.281	1.47186
938.174	1.42555
941.067	1.54215
943.959	1.93151
946.852	0.839657
949.745	0.529514
952.637	1.34943
955.53	1.58967
958.423	0.553074
961.315	0.854969
964.208	0.429375
967.101	1.22858
969.994	1.34074
972.886	1.41279
975.779	0.669662
978.672	1.55584
981.564	1.72648
984.457	0.659279
987.35	1.61794
990.242	0.339119
993.135	1.14422
996.028	0.360924
998.92	0.840214
1001.81	0.638739
1004.71	0.337015
1007.6	0.217983
1010.49	1.44514
1013.38	0.856991
1016.28	1.14197
1019.17	0.004419
1022.06	0.27313
1024.95	0.264383
1027.85	0.572155
1030.74	1.02505
1033.63	1.35006
1036.53	0.566057
1039.42	0.788933
1042.31	1.02827
1045.2	0.158079
1048.1	1.43133
1050.99	1.05397
1053.88	0.39979
1056.77	0.762611
1059.67	0.61845
1062.56	0.270159
1065.45	0.750957
1068.35	0.276546
1071.24	0.215445
1074.13	0.221695
1077.02	0.337246
1079.92	0.982552
1082.81	0.479242
1085.7	0.416193
1088.59	0.888994
1091.49	0.095524
1094.38	0.555107
1097.27	0.243195
1100.16	0.189728
1103.06	0.51211
1105.95	0.724449
1108.84	0.652304
1111.74	0.293987
1114.63	0.66375
1117.52	1.03409
1120.41	0.293804
1123.31	1.00606
1126.2	0.554422
1129.09	0.207975
1131.98	0.130783
1134.88	0.682066
1137.77	0.661575
1140.66	0.837372
1143.56	0.93395
1146.45	0.553944
1149.34	0.349218
1152.23	0.527065
1155.13	0.89414
1158.02	0.442478
1160.91	0.479364
1163.8	1.10806
1166.7	0.988174
1169.59	0.629175
1172.48	0.120655
1175.38	0.153971
1178.27	0.691204
1181.16	1.3476
1184.05	0.4877
1186.95	0.488686
1189.84	1.32147
1192.73	0.458578
1195.62	0.405188
1198.52	0.037971
1201.41	0.283791
1204.3	0.133217
1207.19	1.08245
1210.09	0.007593
1212.98	0.189451
1215.87	0.963558
1218.77	1.00097
1221.66	0.093447
1224.55	0.796219
1227.44	0.525642
1230.34	0.748808
1233.23	0.297775
1236.12	0.823282
1239.02	0.614206
1241.91	0.53186
1244.8	0.602558
1247.69	1.18415
1250.59	1.38172
1253.48	0.243141
1256.37	1.24053
1259.26	0.099751
1262.16	1.24293
1265.05	1.24548
1267.94	1.03052
1270.83	1.27938
1273.73	1.34127
1276.62	1.43108
1279.51	1.20117
1282.4	0.061974
