Measurement: Raman, 780 nm, unoriented, Raman Data Processed
Mineral: Diaboleite
Rruff sample: R050372
Ideal chemistry: CuPb_2_Cl_2_(OH)_4_
Locality: Collins Vein, Mammoth mine, Tiger, Arizona
Source: Eugene Schlepp
Description: Blue massive fragment
Measured chemistry: (Cu_0.91_Pb_0.09_)_Î£=1_Pb_2.00_Cl_2.00_(OH)_4_
Raman shift (cm-1)	intensity
101.201	0
104.576	12.8234
107.951	39.1483
111.326	51.9899
114.701	21.925
118.076	9.90393
121.45	20.2713
124.825	47.5546
128.2	69.5222
131.575	74.7442
134.95	30.3336
138.325	6.42656
141.699	1.57549
145.074	2.55302
148.449	1.44068
151.824	2.10473
155.199	5.68451
158.573	10.1425
161.948	15.8947
165.323	24.1441
168.698	35.0711
172.073	40.7136
175.447	35.5276
178.822	23.9779
182.197	15.5024
185.572	12.4414
188.947	10.9013
192.322	10.3441
195.696	8.87766
199.071	8.28666
202.446	5.19859
205.821	4.90633
209.196	4.24269
212.571	4.54766
215.945	5.09868
219.32	6.08326
222.695	7.82124
226.07	8.58701
229.445	8.01768
232.819	8.48684
236.194	7.81451
239.569	7.5624
242.944	5.33735
246.319	4.03475
249.694	2.57551
253.068	1.42835
256.443	0.572763
259.818	0.343445
263.193	0.345995
266.567	0.347778
269.942	0.455759
273.317	1.16311
276.692	2.56741
280.067	3.06605
283.442	3.73635
286.816	6.4151
290.191	6.36156
293.566	7.28213
296.941	6.74404
300.316	4.44747
303.69	2.90899
307.065	1.02022
310.44	0.154104
313.815	0.930933
317.19	0.194658
320.565	0.593534
323.939	0.337896
327.314	0.968266
330.689	1.38732
334.064	3.72325
337.439	5.3601
340.813	7.47004
344.188	11.4672
347.563	14.8388
350.938	17.641
354.313	19.4104
357.688	21.6243
361.062	20.8791
364.437	20.5334
367.812	18.348
371.187	16.0849
374.562	13.0963
377.937	10.5944
381.311	8.04657
384.686	5.94824
388.061	4.69248
391.436	3.1193
394.811	3.35079
398.185	2.04801
401.56	0.557516
404.935	0.752836
408.31	0.375685
411.685	0.532747
415.06	0.629116
418.434	0.281115
421.809	0.262539
425.184	0.245663
428.559	0.363405
431.934	1.32963
435.308	1.33664
438.683	0.534518
442.058	0.672785
445.433	0.380731
448.808	0.981104
452.183	1.19605
455.557	3.69538
458.932	3.98665
462.307	5.44294
465.682	6.31466
469.057	6.97595
472.431	4.79742
475.806	1.93379
479.181	0.989308
482.556	1.78817
485.931	0.713293
489.305	0.284879
492.68	0.923204
496.055	1.04904
499.43	0.46485
502.805	1.51922
506.18	0.306975
509.554	0.614651
512.929	1.00409
516.304	0.386972
519.679	0.036706
523.054	0.416464
526.428	0.543635
529.803	0.929322
533.178	0.908907
536.553	1.16458
539.928	1.31234
543.303	0.978042
546.677	0.03404
550.052	0.446361
553.427	0.304822
556.802	0.13228
560.177	0.699146
563.551	0.519282
566.926	0.826514
570.301	0.867201
573.676	0.945546
577.051	0.470559
580.426	0.922824
583.8	0.387937
587.175	1.0164
590.55	0.973803
593.925	1.28187
597.3	0.008381
600.674	0.155491
604.049	0.707139
607.424	0.819087
610.799	1.10764
614.174	1.02324
617.548	0.118357
620.923	0.457537
624.298	0.515775
627.673	0.94276
631.048	0.792183
634.423	0.702948
637.797	1.34185
641.172	1.33492
644.547	0.933448
647.922	1.71797
651.297	2.4216
654.671	2.39652
658.046	2.7169
661.421	3.16625
664.796	3.17586
668.171	3.2588
671.545	2.88429
674.92	2.2023
678.295	1.80073
681.67	2.88715
685.045	2.37765
688.42	1.16367
691.794	0.952547
695.169	1.68531
698.544	0.883905
701.919	0.976524
705.294	1.05738
708.668	0.223319
712.043	0.586713
715.418	0.796338
718.793	0.568575
722.168	0.488278
725.543	0.698163
728.917	0.784712
732.292	0.711006
735.667	0.600157
739.042	1.08036
742.417	1.54048
745.792	2.42111
749.166	2.81376
752.541	3.35937
755.916	4.34753
759.291	4.51047
762.666	5.67197
766.04	5.75912
769.415	6.72917
772.79	7.31944
776.165	7.51315
779.54	8.60318
782.914	7.82892
786.289	6.64556
789.664	6.36665
793.039	4.41011
796.414	3.6585
799.789	3.23043
803.163	2.89408
806.538	2.49862
809.913	2.05701
813.288	1.6481
816.663	0.82869
820.038	0.215214
823.412	0.698864
826.787	0.709364
830.162	0.91077
833.537	1.32605
836.912	0.920583
840.286	0.73919
843.661	1.35024
847.036	1.21764
850.411	0.866903
853.786	1.5588
857.16	2.21395
860.535	1.10747
863.91	1.32731
867.285	1.68187
870.66	1.00623
874.034	1.365
877.409	0.688766
880.784	0.90342
884.159	1.40769
887.534	0.950039
890.909	0.000164
894.283	0.300013
897.658	0.298703
901.033	0.561659
904.408	0.255549
907.783	0.180059
911.158	0.318508
914.532	0.525529
917.907	0.033062
921.282	0.359509
924.657	0.54206
928.032	0.603389
931.406	0.029162
934.781	0.750017
938.156	0.288177
941.531	0.669102
944.906	1.36365
948.28	0.236506
951.655	0.690498
955.03	0.780287
958.405	1.45217
961.78	0.431617
965.154	1.07835
968.529	0.790223
971.904	0.877399
975.279	0.467895
978.654	0.527976
982.029	0.520274
985.403	1.02905
988.778	0.144936
992.153	0.792948
995.528	1.2873
998.903	0.851912
1002.28	1.36517
1005.65	0.465781
1009.03	0.863781
1012.4	0.865047
1015.78	1.25401
1019.15	1.21343
1022.53	0.771599
1025.9	0.982913
1029.28	0.445582
1032.65	0.322358
1036.03	0.512194
1039.4	1.23262
1042.78	0.917511
1046.15	1.54978
1049.53	0.003526
1052.9	0.527246
1056.28	1.16505
1059.65	0.762791
1063.02	0.31239
1066.4	0.984352
1069.77	0.230145
1073.15	0.996639
1076.52	1.22141
1079.9	0.758377
1083.27	1.00826
1086.65	1.00824
1090.02	0.64596
1093.4	1.09858
1096.77	0.861206
1100.15	0.610112
1103.52	0.367574
1106.9	0.605622
1110.27	0.960217
1113.65	0.755402
1117.02	0.2076
1120.4	0.127894
1123.77	0.018861
1127.15	0.269709
1130.52	1.09448
1133.89	1.1273
1137.27	0.412201
1140.64	0.423847
1144.02	0.435481
1147.39	0.826083
1150.77	0.023487
1154.14	0.199688
1157.52	0.280722
1160.89	1.22577
1164.27	0.659667
1167.64	0.771468
1171.02	0.686192
1174.39	0.601212
1177.77	0.596885
1181.14	0.54232
1184.52	1.20456
1187.89	0.687781
1191.27	0.068485
1194.64	0.692663
1198.02	0.864032
1201.39	0.243499
1204.77	0.743605
1208.14	1.2258
1211.52	0.731609
1214.89	0.199723
1218.27	0.849716
1221.64	0.316512
1225.02	0.376132
1228.39	0.706964
1231.77	0.554548
1235.14	1.00311
1238.52	1.22744
1241.89	0.394566
1245.26	0.420319
1248.64	0.606975
1252.01	0.319208
1255.39	0.47282
1258.76	0.811986
1262.14	1.36187
1265.51	0.633012
1268.89	1.0001
1272.26	0.275134
1275.64	0.217549
