Measurement: Raman, 514 nm, unoriented, Raman Data Processed
Mineral: Diaboleite
Rruff sample: R050270
Ideal chemistry: CuPb_2_Cl_2_(OH)_4_
Locality: Tiger, Pinal County, Arizona, USA
Source: Marcus Origlieri
Description: Blue irregular crystalline
Measured chemistry: (Cu_0.97_Pb_0.03_)_Î£=1_Pb_2.00_Cl_2.00_(OH)_4_
Raman shift (cm-1)	intensity
52.866	0
57.065	332.646
61.262	109.09
65.458	548.386
69.651	610.044
73.842	1765.09
78.031	7194.37
82.218	18012.9
86.404	28246
90.587	26743.3
94.768	22896.5
98.947	30809.3
103.124	38028.3
107.3	35305.7
111.473	29706.4
115.644	20693
119.813	15234.8
123.981	22804.1
128.146	35278.7
132.309	35195.8
136.47	23718.1
140.63	13439.3
144.787	8434.83
148.942	6117.77
153.096	4761.09
157.247	3908.23
161.396	3751.35
165.544	3983.51
169.689	4941.65
173.833	6466.81
177.974	7706.03
182.114	8413
186.251	9175.68
190.387	10305.6
194.52	11854.9
198.652	13575.7
202.782	14851.4
206.909	15341.1
211.035	15427.8
215.159	17452.3
219.281	21619.7
223.4	26806.6
227.518	30470.4
231.634	30353.4
235.748	26102.1
239.86	20454.3
243.97	14398.8
248.079	9942.62
252.185	6621.05
256.289	4678.47
260.391	3579.39
264.492	3339.43
268.59	3177.31
272.687	2809.78
276.781	1975.63
280.874	838.663
284.964	95.584
289.053	255.857
293.14	317.982
297.225	248.969
301.308	212.867
305.389	359.755
309.468	450.819
313.545	470.234
317.62	2.955
321.693	1166.37
325.765	3263.81
329.834	3072.28
333.902	2113.72
337.967	1207.11
342.031	858.616
346.093	929.135
350.153	1506.35
354.21	2580.24
358.267	3939.16
362.321	5938.35
366.373	8305.19
370.423	10741.6
374.471	12970.6
378.518	14195.1
382.563	13498
386.605	11589.4
390.646	9194.43
394.685	7250.95
398.722	5566.13
402.757	4369.93
406.79	3305.8
410.821	2709.5
414.851	2213.04
418.878	1848.13
422.904	1704.55
426.927	1664.46
430.949	1708.11
434.969	1869.65
438.987	2065.57
443.003	1860.32
447.018	1460.85
451.03	1163.85
455.041	1077.07
459.049	1364.32
463.056	2158.55
467.061	3643.03
471.064	4541.97
475.065	3353.97
479.064	1874.15
483.062	875.693
487.057	479.814
491.051	303.487
495.043	141.69
499.032	82.339
503.02	17.256
507.007	40.78
510.991	37.13
514.973	100.088
518.954	80.833
522.933	140.413
526.91	127.839
530.885	77.141
534.858	32.277
538.829	90.114
542.799	32.616
546.766	18.711
550.732	58.719
554.696	120.853
558.658	193.854
562.618	225.835
566.576	277.87
570.533	377.04
574.488	489.449
578.44	509.149
582.391	590.238
586.341	690.42
590.288	771.989
594.233	844.845
598.177	819.991
602.119	901.426
606.059	915.153
609.997	971.247
613.933	978.943
617.868	1054.23
621.801	1078.1
625.731	1203.62
629.66	1319.02
633.588	1459.37
637.513	1756.45
641.437	1994.91
645.358	2276.75
649.278	2642
653.196	3228.29
657.113	3639.17
661.027	4323.04
664.94	5037.68
668.851	5580.13
672.76	6215.63
676.667	6613.43
680.572	6688.19
684.476	6580.95
688.378	5852.66
692.278	5208.52
696.176	4351.32
700.072	3719.03
703.967	2880.31
707.86	2592.12
711.751	2193.14
715.64	1936.78
719.527	1750.82
723.413	1660.34
727.297	1671.31
731.179	1697.74
735.059	1697.32
738.937	1699.78
742.814	1707.15
746.689	1805.43
750.562	1892.63
754.433	2164.74
758.303	2395.77
762.17	2620.74
766.036	3071.66
769.901	3698.54
773.763	4395.38
777.624	5090.18
781.482	5519.03
785.339	5731.8
789.195	5536.93
793.048	4821.04
796.9	4016.07
800.75	3248.03
804.598	2594.35
808.445	2002.74
812.289	1615.87
816.132	1318.46
819.973	1131.87
823.813	951.413
827.65	777.812
831.486	690.896
835.32	654.603
839.152	561.372
842.983	544.375
846.812	529.81
850.639	518.061
854.464	482.09
858.288	459.063
862.11	490.423
865.93	429.457
869.748	452.273
873.564	380.843
877.379	362.739
881.192	305.298
885.004	281.115
888.813	287.268
892.621	193.163
896.427	178.339
900.232	113.026
904.034	115.173
907.835	112.357
911.634	69.812
915.432	116.246
919.227	34.667
923.021	7.21
926.813	22.822
930.604	47.726
934.393	49.448
938.18	2.009
941.965	17.333
945.749	45.761
949.53	24.705
953.311	77.502
957.089	41.902
960.866	69.719
964.641	74.465
968.414	30.424
972.185	29.504
975.955	75.025
979.723	56.684
983.49	80.409
987.254	9.429
991.017	1.136
994.779	6.523
998.538	23.757
1002.3	41.513
1006.05	31.158
1009.81	13.781
1013.56	31.488
1017.31	3.939
1021.06	43.959
1024.81	42.204
1028.55	41.084
1032.3	3.186
1036.04	23.813
1039.78	4.585
1043.52	1.794
1047.26	22.356
1050.99	49.83
1054.73	49.605
1058.46	69.997
1062.19	78.91
1065.92	73.461
1069.65	44.479
1073.37	51.714
1077.1	46.181
1080.82	58.535
1084.54	88.856
1088.26	90.674
1091.97	116.515
1095.69	103.836
1099.4	61.422
1103.12	68.572
1106.83	34.035
1110.54	82.828
1114.24	10.755
1117.95	42.014
1121.65	134.21
1125.35	143.436
1129.06	99.286
1132.75	53.776
1136.45	84.205
1140.15	79.877
1143.84	39.147
1147.53	51.789
1151.22	34.333
1154.91	48.267
1158.6	82.37
1162.28	30.925
1165.97	14.197
1169.65	52.764
1173.33	55.617
1177.01	47.172
1180.69	0.928
1184.36	22.442
1188.04	19.411
1191.71	38.445
1195.38	6.379
1199.05	33.29
1202.71	49.063
1206.38	44.797
1210.04	5.122
1213.71	17.331
1217.37	6.681
1221.03	33.327
1224.68	66.087
1228.34	37.685
1231.99	53.443
1235.65	10.141
1239.3	22.739
1242.95	56.236
1246.59	31.967
1250.24	39.753
1253.88	0.57
1257.53	2.38
1261.17	32.981
1264.81	34.588
1268.45	13.926
1272.08	27.3
1275.72	48.441
1279.35	66.266
1282.98	28.967
1286.61	49.993
1290.24	55.401
1293.87	55.855
1297.49	65.456
1301.11	28.875
1304.73	28.441
1308.36	70.938
1311.97	27.294
1315.59	52.631
1319.2	32.125
1322.82	30.65
1326.43	58.01
1330.04	59.357
1333.65	56.504
1337.26	19.741
1340.86	67.02
1344.47	53.968
1348.07	81.43
1351.67	96.025
1355.27	49.595
1358.87	100.976
1362.46	90.612
1366.06	42.821
1369.65	101.392
1373.24	93.212
1376.83	99.791
1380.42	108.281
1384	128.755
1387.59	125.128
1391.17	95.51
1394.75	127.845
1398.33	147.582
1401.91	111.964
1405.49	76.357
1409.06	116.777
1412.64	141.174
1416.21	99.218
1419.78	85.6
1423.35	83.997
1426.91	91.429
1430.48	90.805
1434.05	106.314
1437.61	126.89
1441.17	131.533
1444.73	141.229
1448.29	88.882
1451.84	68.239
1455.4	62.307
1458.95	126.135
1462.5	87.118
1466.05	68.17
1469.6	106.447
1473.15	48.878
1476.69	68.463
1480.24	71.223
1483.78	57.18
1487.32	51.394
1490.86	54.928
1494.39	40.998
1497.93	53.226
1501.46	30.185
1505	3.922
1508.53	52.726
1512.06	14.104
1515.59	14.026
1519.11	0
