Measurement: Raman, 532 nm, unoriented, Raman Data Processed
Mineral: Diaboleite
Rruff sample: R050372
Ideal chemistry: CuPb_2_Cl_2_(OH)_4_
Locality: Collins Vein, Mammoth mine, Tiger, Arizona
Source: Eugene Schlepp
Description: Blue massive fragment
Measured chemistry: (Cu_0.91_Pb_0.09_)_Î£=1_Pb_2.00_Cl_2.00_(OH)_4_
Raman shift (cm-1)	intensity
103.442	0
106.817	19.3207
110.192	129.574
113.567	305.968
116.942	299.785
120.316	383.824
123.691	553.957
127.066	900.844
130.441	1689.87
133.816	1759.18
137.19	547.744
140.565	127.714
143.94	18.0017
147.315	7.38471
150.69	5.12839
154.065	17.3796
157.439	39.7503
160.814	94.3231
164.189	150.425
167.564	246.08
170.939	407.741
174.313	637.403
177.688	594.095
181.063	276.133
184.438	99.2498
187.813	34.2417
191.187	7.19278
194.562	0.774719
197.937	2.52939
201.312	1.31317
204.687	17.2848
208.061	27.2794
211.436	46.5124
214.811	69.4688
218.186	91.1366
221.561	115.184
224.936	138.757
228.31	155.527
231.685	156.293
235.06	143.383
238.435	120.002
241.81	97.6398
245.185	58.7964
248.559	35.5817
251.934	15.6143
255.309	3.35286
258.684	1.68877
262.059	4.06657
265.433	4.61627
268.808	3.94864
272.183	2.7411
275.558	11.6324
278.933	27.3307
282.308	44.4214
285.682	72.0203
289.057	95.8762
292.432	119.96
295.807	134.831
299.182	131.178
302.556	114.366
305.931	80.3657
309.306	50.6292
312.681	34.1723
316.056	24.8353
319.43	21.7265
322.805	25.5885
326.18	40.882
329.555	62.8976
332.93	98.2177
336.305	145.522
339.679	206.963
343.054	273.687
346.429	351.833
349.804	429.362
353.179	496.368
356.553	539.711
359.928	558.572
363.303	552.507
366.678	516.739
370.053	458.826
373.428	391.892
376.802	327.356
380.177	264.1
383.552	203.148
386.927	155.486
390.302	115.882
393.676	82.6135
397.051	59.5492
400.426	38.2621
403.801	22.1865
407.176	9.52393
410.55	3.03101
413.925	4.01831
417.3	4.82219
420.675	5.86182
424.05	3.08429
427.425	14.2055
430.799	28.3413
434.174	52.5706
437.549	74.4075
440.924	72.7864
444.299	50.2281
447.673	40.7496
451.048	51.6974
454.423	77.2005
457.798	128.366
461.173	192.686
464.548	250.673
467.922	266.552
471.297	234.851
474.672	149.729
478.047	78.9537
481.422	39.2709
484.796	23.4592
488.171	11.2248
491.546	8.24152
494.921	2.52163
498.296	0.653194
501.671	2.48611
505.045	0.539711
508.42	0.18906
511.795	0.318451
515.17	0.020012
518.545	0.660751
521.919	1.52232
525.294	1.97296
528.669	3.13472
532.044	3.57672
535.419	3.07318
538.794	5.46619
542.168	6.19478
545.543	7.0533
548.918	8.65709
552.293	9.78146
555.668	9.13067
559.043	11.1217
562.417	11.3388
565.792	10.0167
569.167	9.32671
572.542	8.15334
575.917	7.19294
579.291	7.53886
582.666	5.89015
586.041	4.49891
589.416	3.42822
592.791	3.8144
596.165	2.31097
599.54	1.33767
602.915	1.11102
606.29	0.513161
609.665	2.04987
613.039	0.01598
616.414	1.24808
619.789	1.00622
623.164	0.88134
626.539	2.80807
629.914	5.86353
633.288	8.81873
636.663	14.1186
640.038	19.507
643.413	24.361
646.788	36.4634
650.163	46.4549
653.537	61.4369
656.912	74.6248
660.287	86.8484
663.662	102.297
667.037	112.094
670.411	113.951
673.786	114.118
677.161	109.194
680.536	96.8335
683.911	85.0636
687.285	64.6433
690.66	49.6204
694.035	39.3599
697.41	25.3905
700.785	13.0126
704.159	7.64712
707.534	1.28163
710.909	0.24427
714.284	2.72205
717.659	1.19299
721.034	0.600334
724.408	2.58508
727.783	6.60385
731.158	12.0168
734.533	17.8614
737.908	22.361
741.283	32.1891
744.657	42.2184
748.032	55.9879
751.407	69.4962
754.782	91.7426
758.157	110.246
761.531	140.84
764.906	175.376
768.281	213.417
771.656	261.403
775.031	295.247
778.405	328.675
781.78	345.238
785.155	341.236
788.53	324.984
791.905	281.536
795.28	238.252
798.654	188.197
802.029	145.153
805.404	111.357
808.779	83.492
812.154	62.51
815.529	43.9352
818.903	30.8491
822.278	22.1146
825.653	15.5361
829.028	11.4978
832.403	6.26031
835.777	3.33362
839.152	3.03042
842.527	0.852242
845.902	0.150986
849.277	1.33032
852.652	2.23974
856.026	0.311741
859.401	0.029957
862.776	1.01093
866.151	1.30304
869.526	0.655537
872.9	0.535023
876.275	0.289391
879.65	2.28678
883.025	1.01744
886.4	0.671223
889.774	2.07703
893.149	1.22533
896.524	2.71134
899.899	3.34346
903.274	4.54094
906.649	0.777493
910.023	1.90392
913.398	1.1144
916.773	1.42904
920.148	1.31169
923.523	2.59737
926.898	2.76423
930.272	2.21526
933.647	1.3055
937.022	1.75419
940.397	0.971247
943.771	0.279476
947.146	0.339775
950.521	0.909845
953.896	0.996578
957.271	1.87014
960.646	0.647249
964.02	1.37716
967.395	1.37461
970.77	1.65504
974.145	1.32389
977.52	1.94969
980.894	2.13273
984.269	2.07634
987.644	1.58588
991.019	1.45678
994.394	0.616838
997.769	1.74093
1001.14	1.00046
1004.52	0.173433
1007.89	2.59893
1011.27	0.435322
1014.64	0.992462
1018.02	1.52861
1021.39	1.17823
1024.77	0.824121
1028.14	0.16543
1031.52	0.129709
1034.89	0.194544
1038.27	0.675486
1041.64	0.02545
1045.02	0.232635
1048.39	1.78809
1051.77	2.30711
1055.14	2.16596
1058.52	1.77077
1061.89	0.820137
1065.27	1.1112
1068.64	1.60017
1072.02	0.371677
1075.39	1.51056
1078.76	1.01898
1082.14	1.21024
1085.51	0.310876
1088.89	0.840244
1092.26	0.384769
1095.64	0.195383
1099.01	0.645723
1102.39	0.048125
1105.76	1.04404
1109.14	0.223067
1112.51	1.48191
1115.89	0.252563
1119.26	0.531033
1122.64	1.1161
1126.01	1.23998
1129.39	2.03262
1132.76	0.874383
1136.14	0.784459
1139.51	2.02482
1142.89	0.95924
1146.26	1.91256
1149.63	2.38664
1153.01	2.05655
1156.38	2.28307
1159.76	2.13241
1163.13	2.81815
1166.51	1.29619
1169.88	1.70953
1173.26	0.43161
1176.63	0.982441
1180.01	0.77671
1183.38	1.32772
1186.76	0.90235
1190.13	0.00353
1193.51	0.550113
1196.88	0.642175
1200.26	2.10285
1203.63	1.12841
1207.01	1.11243
1210.38	0.887519
1213.76	0.862669
1217.13	1.58133
1220.51	0.818228
1223.88	1.53637
1227.26	1.98015
1230.63	0.979905
1234.01	2.34158
1237.38	0.568643
1240.76	0.374224
1244.13	1.12101
1247.51	2.33217
1250.88	1.33736
1254.26	0.762539
1257.63	0.554975
1261	2.26507
1264.38	1.44033
1267.75	1.28008
1271.13	1.17888
1274.5	1.27896
1277.88	1.56487
1281.25	0
