Measurement: Raman, 532 nm, unoriented, Raman Data Processed
Mineral: Diadochite
Rruff sample: R120021
Ideal chemistry: Fe^3+^_2_(PO_4_)(SO_4_)(OH)6H_2_O
Locality: Vysočany, Prague, Czech Republic
Source: Dr. Jürgen Wachsmuth
Description: Pale yellow to colorless pulverant aggregate
Raman shift (cm-1)	intensity
192.701	0
195.594	8.76932
198.486	34.7514
201.379	73.6943
204.272	106.435
207.164	106.426
210.057	77.8599
212.95	51.0663
215.843	24.0107
218.735	4.40515
221.628	4.07288
224.521	5.31161
227.413	18.3801
230.306	21.909
233.199	22.3866
236.091	24.8695
238.984	35.1216
241.877	45.1914
244.769	45.5042
247.662	49.2928
250.555	53.3679
253.448	60.5372
256.34	62.6604
259.233	61.8707
262.126	61.3912
265.018	67.3294
267.911	82.2318
270.804	99.811
273.697	116.299
276.589	131.412
279.482	151.881
282.375	176.437
285.267	193.217
288.16	206.076
291.053	213.332
293.945	217.174
296.838	225.406
299.731	235.231
302.623	224.383
305.516	182.688
308.409	124.412
311.302	77.59
314.194	44.8265
317.087	24.3164
319.98	10.9539
322.872	3.29922
325.765	3.02942
328.658	2.29658
331.55	5.1723
334.443	4.63625
337.336	2.60289
340.229	1.61877
343.121	1.2614
346.014	4.63522
348.907	9.89993
351.799	17.2767
354.692	25.4393
357.585	37.018
360.478	46.6047
363.37	54.6967
366.263	57.7315
369.156	58.2017
372.048	54.2707
374.941	45.4618
377.834	36.5686
380.726	27.7826
383.619	20.8541
386.512	14.4733
389.404	10.6203
392.297	8.85525
395.19	11.0921
398.083	14.3651
400.975	20.2306
403.868	28.8109
406.761	33.5377
409.653	37.8247
412.546	39.2297
415.439	39.5953
418.332	39.2089
421.224	41.3503
424.117	43.3187
427.01	48.4143
429.902	49.3724
432.795	50.3171
435.688	47.5999
438.58	45.1529
441.473	45.232
444.366	52.9597
447.259	67.1103
450.151	86.8124
453.044	115.177
455.937	145.755
458.829	180.915
461.722	213.095
464.615	229.761
467.507	224.703
470.4	201.214
473.293	163.995
476.185	127.955
479.078	93.5165
481.971	66.371
484.864	44.7034
487.756	31.7168
490.649	18.5586
493.542	9.53214
496.434	5.72798
499.327	3.47258
502.22	1.05699
505.113	2.48743
508.005	4.08855
510.898	3.37984
513.791	2.0695
516.683	0.802628
519.576	1.43933
522.469	3.13255
525.361	6.96274
528.254	13.2458
531.147	20.8838
534.04	27.7326
536.932	38.1393
539.825	49.771
542.718	64.0821
545.61	74.5981
548.503	84.8393
551.396	94.1012
554.288	98.2502
557.181	93.6769
560.074	82.1006
562.967	62.6773
565.859	41.7596
568.752	25.5546
571.645	14.2134
574.537	8.59479
577.43	2.9027
580.323	2.13481
583.216	0.199509
586.108	2.35057
589.001	3.73056
591.894	6.7677
594.786	10.0623
597.679	14.3014
600.572	21.5497
603.464	26.1765
606.357	37.7403
609.25	39.8815
612.142	40.1581
615.035	40.2319
617.928	40.2219
620.821	42.3873
623.713	43.0379
626.606	44.2557
629.499	41.0537
632.391	33.389
635.284	25.5917
638.177	18.0045
641.069	11.9406
643.962	9.61073
646.855	5.86957
649.747	3.72604
652.64	2.23454
655.533	1.37198
658.426	2.99113
661.318	0.368668
664.211	0.137451
667.104	0.249329
669.996	0.467056
672.889	0.190811
675.782	0.052094
678.674	0.758499
681.567	0.869781
684.46	1.30714
687.353	0.991364
690.245	1.28361
693.138	0.497742
696.031	2.95728
698.923	1.98712
701.816	1.96518
704.709	2.34656
707.601	2.5421
710.494	4.71371
713.387	3.41608
716.28	3.95198
719.172	3.32935
722.065	5.21266
724.958	3.68176
727.85	4.18915
730.743	3.54167
733.636	3.43629
736.529	3.69115
739.421	5.50305
742.314	4.83743
745.207	3.98158
748.099	2.66859
750.992	3.28274
753.885	3.47492
756.777	3.74127
759.67	2.73839
762.563	0.871017
765.456	1.78604
768.348	3.35036
771.241	0.839539
774.134	0.954575
777.026	1.20329
779.919	1.24698
782.812	0.944931
785.704	2.30298
788.597	0.416824
791.49	0.988708
794.383	2.51065
797.275	0.958603
800.168	0.040253
803.061	1.57283
805.953	1.41763
808.846	2.65802
811.739	2.75807
814.631	2.84392
817.524	4.19913
820.417	3.44804
823.309	4.84199
826.202	3.79492
829.095	3.17534
831.988	4.9489
834.88	4.4743
837.773	5.29111
840.666	6.45593
843.558	6.19081
846.451	7.75101
849.344	6.50192
852.236	6.3803
855.129	7.51747
858.022	7.50259
860.915	8.48842
863.807	7.48187
866.7	7.1176
869.593	7.32036
872.485	7.86826
875.378	7.35837
878.271	8.35391
881.163	7.06619
884.056	6.5934
886.949	6.33728
889.842	6.13002
892.734	6.1998
895.627	2.63509
898.52	3.06854
901.412	2.20784
904.305	2.8499
907.198	2.13768
910.091	1.34599
912.983	0.725082
915.876	0.373795
918.769	0.08812
921.661	0.982254
924.554	2.7516
927.447	1.71083
930.339	0.86441
933.232	3.06004
936.125	1.78429
939.018	0.126358
941.91	2.74301
944.803	4.81575
947.696	8.67552
950.588	20.2826
953.481	34.254
956.374	58.0997
959.266	96.8303
962.159	158.012
965.052	240.854
967.944	330.727
970.837	358.827
973.73	279.422
976.623	192.137
979.515	154.036
982.408	164.67
985.301	214.068
988.193	261.867
991.086	208.292
993.979	105.247
996.871	51.1134
999.764	23.8429
1002.66	10.4526
1005.55	9.98143
1008.44	12.3542
1011.34	17.5459
1014.23	26.8948
1017.12	43.2877
1020.01	60.2067
1022.91	74.9544
1025.8	81.1407
1028.69	83.4066
1031.58	99.9599
1034.48	140.199
1037.37	198.678
1040.26	283.268
1043.15	398.275
1046.05	511.48
1048.94	584.205
1051.83	638.027
1054.73	664.733
1057.62	590.095
1060.51	410.77
1063.4	252.62
1066.3	149.786
1069.19	96.2977
1072.08	68.4412
1074.97	60.0056
1077.87	58.6012
1080.76	57.7526
1083.65	48.9829
1086.55	33.2587
1089.44	17.3784
1092.33	8.90742
1095.22	2.31039
1098.12	0.98996
1101.01	0.353958
1103.9	3.99147
1106.79	2.07716
1109.69	2.61128
1112.58	1.68153
1115.47	1.95402
1118.37	2.25397
1121.26	5.50652
1124.15	6.99618
1127.04	5.43362
1129.94	2.97165
1132.83	1.54225
1135.72	0.235596
1138.61	0.345016
1141.51	0.226135
1144.4	0.468903
1147.29	0.427231
1150.18	2.00397
1153.08	1.65205
1155.97	3.94742
1158.86	5.10184
1161.76	7.16408
1164.65	7.47684
1167.54	12.0932
1170.43	14.6078
1173.33	20.7104
1176.22	30.0882
1179.11	38.4111
1182	46.756
1184.9	49.7803
1187.79	49.2996
1190.68	38.9562
1193.58	29.5264
1196.47	21.6776
1199.36	16.4243
1202.25	12.1473
1205.15	9.28954
1208.04	8.9812
1210.93	7.10098
1213.82	5.7361
1216.72	4.8822
1219.61	3.41423
1222.5	1.534
1225.39	3.18086
1228.29	3.16286
1231.18	0.314377
1234.07	1.97211
1236.97	1.03207
1239.86	1.21582
1242.75	1.57272
1245.64	2.3638
1248.54	2.07658
1251.43	0.782547
1254.32	1.68948
1257.21	1.80196
1260.11	1.13765
1263	2.93018
1265.89	2.46893
1268.79	1.73743
1271.68	1.32094
1274.57	1.08581
1277.46	1.42375
1280.36	0.033661
1283.25	0.183456
1286.14	1.65724
1289.03	1.58243
1291.93	1.60358
1294.82	1.0734
1297.71	0.039719
1300.61	1.60951
