Measurement: Raman, 780 nm, unoriented, Raman Data Processed
Mineral: Diamond
Rruff sample: R150087
Ideal chemistry: C
Locality: unknown
Source: Michael Scott
Description: A dark-brown single crystal cube
Raman shift (cm-1)	intensity
100.019	0
109.662	297.818
119.304	260.228
128.946	154.022
138.589	76.1865
148.231	20.1011
157.874	2.83984
167.516	0.980957
177.158	51.9971
186.8	128.473
196.443	257.523
206.085	358.305
215.727	461.752
225.37	499.836
235.012	513.744
244.655	502.3
254.297	477.139
263.939	483.622
273.582	483.851
283.224	470.199
292.866	470.229
302.509	453.598
312.151	455.939
321.793	448.652
331.435	372.199
341.078	309.243
350.72	224.192
360.363	143.08
370.005	101.572
379.647	74.0229
389.29	22.6133
398.932	2.7251
408.574	5.23828
418.217	14.7602
427.859	38.8023
437.501	0.845703
447.144	14.1934
456.786	1.52393
466.428	42.4355
476.071	45.1431
485.713	73.1655
495.355	67.5523
504.998	89.3174
514.64	95.856
524.282	123.869
533.925	118.319
543.567	113.376
553.209	112.251
562.852	130.083
572.494	132.185
582.136	129.969
591.779	105.043
601.421	99.0454
611.063	93.7261
620.706	115.466
630.348	132.552
639.99	125.478
649.633	109.412
659.275	96.2905
668.917	102.227
678.56	101.767
688.202	99.2764
697.844	101.315
707.487	125.439
717.129	149.52
726.771	147.52
736.414	179.556
746.056	202.549
755.698	196.883
765.341	223.856
774.983	235.648
784.625	232.272
794.268	230.202
803.91	254.912
813.552	276.515
823.195	303.038
832.837	317.852
842.479	326.278
852.122	357.916
861.764	324.274
871.406	305.174
881.049	274.7
890.691	256.898
900.333	224.513
909.976	194.784
919.618	177.836
929.26	147.441
938.903	97.5425
948.545	96.7803
958.187	71.0854
967.83	62.3442
977.472	34.9458
987.114	35.9399
996.757	18.251
1006.4	31.915
1016.04	10.231
1025.68	0.67334
1035.33	15.2685
1044.97	12.6724
1054.61	30.8931
1064.25	31.3506
1073.89	3.82031
1083.54	1.41162
1093.18	2.8418
1102.82	8.75098
1112.46	9.67529
1122.11	55.6069
1131.75	69.6831
1141.39	99.0156
1151.03	169.403
1160.68	222.236
1170.32	267.714
1179.96	322.688
1189.6	348.448
1199.25	421.529
1208.89	462.892
1218.53	483.37
1228.17	497.412
1237.82	482.894
1247.46	423.949
1257.1	430.495
1266.74	463.194
1276.38	487.682
1286.03	634.502
1295.67	936.718
1305.31	2565.13
1314.95	8294.44
1324.6	18655.6
1334.24	48783.5
1343.88	23358.6
1353.52	7885.87
1363.16	2663.37
1372.81	1224.86
1382.45	659.132
1392.09	532.055
1401.73	472.076
1411.38	458.881
1421.02	433.625
1430.66	460.691
1440.3	468.843
1449.95	519.27
1459.59	575.705
1469.23	627.176
1478.87	646.727
1488.52	626.512
1498.16	555.851
1507.8	478.9
1517.44	422.342
1527.09	348.989
1536.73	277.487
1546.37	199.543
1556.01	187.062
1565.65	140.01
1575.3	112.158
1584.94	100.034
1594.58	53.063
1604.22	40.3452
1613.87	14.5093
1623.51	18.3462
1633.15	2.771
1642.79	22.1665
1652.43	24.0024
1662.08	10.064
1671.72	10.7329
1681.36	10.3511
1691.01	7.4585
1700.65	12.8237
1710.29	21.9961
1719.93	31.8481
1729.57	28.5464
1739.22	45.665
1748.86	29.6226
1758.5	31.6963
1768.14	48.5527
1777.79	34.8481
1787.43	41.5483
1797.07	62.1938
1806.71	67.8496
1816.36	47.3877
1826	55.148
1835.64	67.5581
1845.28	56.333
1854.92	45.5537
1864.57	50.9219
1874.21	44.7642
1883.85	46.647
1893.49	31.2559
1903.14	21.6714
1912.78	30.3174
1922.42	16.3989
1932.06	20.917
1941.7	25.1396
1951.35	19.8945
1960.99	21.8081
1970.63	5.86377
1980.28	14.6528
1989.92	25.8159
1999.56	54.751
2009.2	51.3227
2018.84	70.6279
2028.49	100.217
2038.13	81.7935
2047.77	82.3423
2057.41	88.5537
2067.06	85.1006
2076.7	37.4287
2086.34	43.9453
2095.98	24.5342
2105.62	17.2583
2115.27	7.75977
2124.91	3.46387
2134.55	1.85352
2144.19	3.44873
2153.84	22.0967
2163.48	5.63574
2173.12	63.0327
2182.76	63.9282
2192.41	44.4297
2202.05	40.1914
2211.69	3.91797
2221.33	24.9727
2230.97	16.4321
2240.62	10.0674
2250.26	17.144
2259.9	40.8272
2269.55	51.1157
2279.19	44.0723
2288.83	47.4707
2298.47	52.8379
2308.11	53.708
2317.76	65.6357
2327.4	41.4141
2337.04	36.585
2346.68	57.0059
2356.33	58.4971
2365.97	62.6143
2375.61	56.417
2385.25	68.0225
2394.89	83.0283
2404.54	106.039
2414.18	82.7744
2423.82	74.1191
2433.46	78.1846
2443.11	93.8926
2452.75	103.431
2462.39	106.774
2472.03	95.8897
2481.68	103.857
2491.32	80.0259
2500.96	59.477
2510.6	42.9443
2520.24	56.1494
2529.89	56.769
2539.53	75.6206
2549.17	100.179
2558.82	105.968
2568.46	111.368
2578.1	128.05
2587.74	163.36
2597.38	164.969
2607.03	216.186
2616.67	291.948
2626.31	388.863
2635.95	509.81
2645.6	641.75
2655.24	840.345
2664.88	1040.52
2674.52	1280.44
2684.16	1453.46
2693.81	1546.19
2703.45	1561.3
2713.09	1413.07
2722.73	1228.88
2732.38	1013.41
2742.02	831.144
2751.66	673.86
2761.3	527.532
2770.95	422.193
2780.59	349.163
2790.23	292.719
2799.87	228.499
2809.51	203.399
2819.16	161.904
2828.8	141.248
2838.44	125.31
2848.09	87.6455
2857.73	70.8955
2867.37	56.6519
2877.01	26.7666
2886.65	20.9053
2896.3	4.5293
2905.94	10.2368
2915.58	24.084
2925.22	16.8936
2934.87	14.1514
2944.51	5.18311
2954.15	8.29932
2963.79	23.6421
2973.43	26.1943
2983.08	44.2105
2992.72	44.2234
3002.36	49.1975
3012	86.9875
3021.65	87.7666
3031.29	128.199
3040.93	149.61
3050.57	131.118
3060.22	131.567
3069.86	171.304
3079.5	188.586
3089.14	232.039
3098.78	235.787
3108.43	254.355
3118.07	239.586
3127.71	253.457
3137.36	257.06
3147	252.598
3156.64	249.457
3166.28	233.637
3175.92	219.929
3185.57	174.567
3195.21	122.642
3204.85	93.0852
3214.49	73.2466
3224.14	22.0732
3233.78	3.28735
3243.42	17.2625
3253.06	17.8671
3262.7	3.97083
3272.35	14.5525
3281.99	21.5514
3291.63	56.4724
3301.27	86.21
3310.92	111.057
3320.56	120.473
3330.2	132.586
3339.84	166.701
3349.49	161.61
3359.13	139.029
3368.77	121.3
3378.41	103.213
3388.05	102.404
3397.7	96.868
3407.34	67.2416
3416.98	48.1585
3426.62	47.9409
3436.27	30.7976
3445.91	19.7079
3455.55	0
