Measurement: Raman, 780 nm, unoriented, Raman Data Processed
Mineral: Diamond
Rruff sample: R150088
Ideal chemistry: C
Locality: unknown
Source: Michael Scott
Description: Colorless faceted crystals
Raman shift (cm-1)	intensity
76.8779	0
86.5203	14.7135
96.1626	41.1491
105.805	25.0378
115.447	16.774
125.09	9.36271
134.732	4.93152
144.374	5.76036
154.017	4.21343
163.659	2.45769
173.301	2.11361
182.944	0.329506
192.586	1.55427
202.228	1.51675
211.871	0.964607
221.513	1.97852
231.155	1.9711
240.798	2.80516
250.44	2.32964
260.082	3.17157
269.725	4.24122
279.367	3.46272
289.009	3.83809
298.652	3.88064
308.294	6.02526
317.936	3.57897
327.579	8.26108
337.221	4.44886
346.863	8.70824
356.506	8.25922
366.148	7.41388
375.79	4.82327
385.433	6.35411
395.075	4.33521
404.717	4.31715
414.36	5.03395
424.002	3.6105
433.644	1.78845
443.287	0.476753
452.929	1.29341
462.571	2.48328
472.214	1.37154
481.856	2.27998
491.498	2.71381
501.141	1.74277
510.783	0.138496
520.425	0.556526
530.068	0.544395
539.71	0.323875
549.352	1.99423
558.995	0.271477
568.637	0.221619
578.279	0.203072
587.922	0.224182
597.564	0.210457
607.206	1.04198
616.849	1.02158
626.491	0.827057
636.133	2.22456
645.776	0.945801
655.418	2.65602
665.06	4.61586
674.703	3.41685
684.345	2.66715
693.987	3.20986
703.63	3.93613
713.272	4.69392
722.914	6.51357
732.557	6.43669
742.199	6.25722
751.841	8.0332
761.484	8.46643
771.126	7.75607
780.768	9.57983
790.411	10.7112
800.053	12.2125
809.695	11.3573
819.338	13.0617
828.98	12.5915
838.622	12.2797
848.265	14.3257
857.907	9.07303
867.549	8.44834
877.192	10.0992
886.834	10.1543
896.476	4.67696
906.119	3.69066
915.761	0.174194
925.403	0.499275
935.046	0.968555
944.688	1.4353
954.33	0.16309
963.973	0.606792
973.615	0.689892
983.257	1.05937
992.9	0.668724
1002.54	0.275394
1012.18	0.385193
1021.83	0.159409
1031.47	0.216927
1041.11	1.65431
1050.75	1.82503
1060.4	2.42721
1070.04	2.83663
1079.68	2.1578
1089.32	5.46275
1098.96	4.55711
1108.61	4.8013
1118.25	10.4947
1127.89	9.73742
1137.54	14.4541
1147.18	18.1894
1156.82	17.9057
1166.46	22.4955
1176.1	21.8316
1185.75	20.6634
1195.39	21.2686
1205.03	22.3376
1214.67	20.496
1224.32	23.3292
1233.96	23.8953
1243.6	25.7908
1253.24	31.1406
1262.88	37.1398
1272.53	43.5187
1282.17	64.7466
1291.81	107.48
1301.45	236.916
1311.1	2342.18
1320.74	4285.6
1330.38	21989.3
1340.02	27199.7
1349.67	6546.1
1359.31	1060.98
1368.95	267.762
1378.59	97.7907
1388.23	50.8241
1397.88	32.0472
1407.52	22.2331
1417.16	14.1185
1426.81	12.0462
1436.45	7.43548
1446.09	5.63186
1455.73	5.58629
1465.37	4.27489
1475.02	4.21255
1484.66	0.8605
1494.3	2.65525
1503.94	0.536205
1513.59	0.962776
1523.23	1.85099
1532.87	1.41865
1542.51	2.5272
1552.15	2.04953
1561.8	1.74379
1571.44	0.032566
1581.08	0.613544
1590.72	0.838383
1600.37	1.12874
1610.01	0.798836
1619.65	0.085712
1629.29	0.331535
1638.94	1.0911
1648.58	0.165607
1658.22	1.08905
1667.86	0.404594
1677.51	0.93224
1687.15	0.711056
1696.79	0.731838
1706.43	0.05167
1716.08	2.25267
1725.72	2.34069
1735.36	2.48183
1745	3.54313
1754.64	1.51026
1764.29	3.63564
1773.93	4.28583
1783.57	2.55883
1793.21	3.62977
1802.86	4.57627
1812.5	6.59817
1822.14	4.29996
1831.78	5.56826
1841.42	5.70606
1851.07	5.97263
1860.71	8.05984
1870.35	7.83987
1879.99	6.482
1889.64	4.21182
1899.28	3.62923
1908.92	3.72142
1918.56	4.59208
1928.21	0.143696
1937.85	2.44861
1947.49	1.62297
1957.13	1.9606
1966.78	3.45411
1976.42	2.67446
1986.06	2.88993
1995.7	3.97802
2005.35	3.4868
2014.99	3.65523
2024.63	3.7999
2034.27	1.65547
2043.91	4.27327
2053.56	0.010185
2063.2	0.189869
2072.84	0.166168
2082.48	0.373726
2092.13	1.16213
2101.77	1.5136
2111.41	2.86119
2121.05	1.45069
2130.7	1.57277
2140.34	0.219604
2149.98	2.97112
2159.62	7.48582
2169.26	10.8086
2178.91	16.1219
2188.55	15.7807
2198.19	17.0412
2207.83	13.4273
2217.48	14.8857
2227.12	17.5543
2236.76	20.7861
2246.4	24.6371
2256.05	31.5178
2265.69	29.1033
2275.33	33.4809
2284.97	38.8739
2294.61	41.4156
2304.26	45.6158
2313.9	47.0434
2323.54	52.2227
2333.18	57.5959
2342.83	56.7465
2352.47	55.5505
2362.11	54.8355
2371.75	51.5657
2381.4	57.6134
2391.04	57.6679
2400.68	61.5502
2410.32	65.2546
2419.97	66.4597
2429.61	71.9279
2439.25	74.5663
2448.89	86.9513
2458.53	97.8328
2468.18	105.018
2477.82	96.7439
2487.46	87.9937
2497.1	81.3443
2506.75	72.6855
2516.39	61.5123
2526.03	50.4146
2535.67	40.9946
2545.32	33.819
2554.96	34.357
2564.6	32.1261
2574.24	25.5202
2583.89	28.4503
2593.53	28.1429
2603.17	26.5536
2612.81	25.6938
2622.45	25.3332
2632.1	22.4098
2641.74	19.6657
2651.38	20.4862
2661.02	19.361
2670.67	26.4251
2680.31	12.614
2689.95	1.83586
2699.59	0.836479
2709.24	1.62199
2718.88	1.3949
2728.52	1.54004
2738.16	0.657654
2747.8	0.739503
2757.45	0.135438
2767.09	1.07361
2776.73	2.08629
2786.37	2.34353
2796.02	2.28811
2805.66	1.89148
2815.3	1.75442
2824.94	2.13589
2834.59	4.49864
2844.23	4.76997
2853.87	4.68073
2863.51	1.36177
2873.16	2.93437
2882.8	3.70525
2892.44	2.3158
2902.08	4.13176
2911.72	3.68984
2921.37	2.74143
2931.01	4.9466
2940.65	5.78958
2950.29	4.76084
2959.94	5.35205
2969.58	3.81063
2979.22	3.67668
2988.86	3.14485
2998.51	2.40436
3008.15	3.32556
3017.79	4.34438
3027.43	5.59527
3037.07	3.53547
3046.72	3.39744
3056.36	3.72173
3066	3.72124
3075.64	3.42025
3085.29	4.04998
3094.93	1.51978
3104.57	1.01688
3114.21	0.31795
3123.86	6.67488
3133.5	3.67467
3143.14	2.67607
3152.78	0.993883
3162.43	2.7181
3172.07	3.09334
3181.71	3.06487
3191.35	1.80888
3200.99	3.15661
3210.64	1.20427
3220.28	0.93391
3229.92	3.2444
3239.56	4.12873
3249.21	1.3851
3258.85	3.51206
3268.49	3.03447
3278.13	4.20527
3287.78	1.74873
3297.42	1.45712
3307.06	4.40891
3316.7	2.08058
3326.34	2.76213
3335.99	1.74766
3345.63	1.5789
3355.27	5.03664
3364.91	4.30509
3374.56	2.10358
3384.2	3.28479
3393.84	1.41139
3403.48	3.50829
3413.12	11.7004
3422.77	16.9671
3432.41	11.3087
3442.05	3.80114
3451.7	0.499691
