Measurement: Raman, 780 nm, unoriented, Raman Data Processed
Mineral: Diamond
Rruff sample: R150107
Ideal chemistry: C
Locality: Za√Øre
Source: Rock Currier
Description: Tan or grey octahedral or spinel twinned crystals.
Raman shift (cm-1)	intensity
140.517	0
150.16	5.67255
159.802	7.48206
169.444	11.2818
179.087	3.92877
188.729	7.27356
198.371	9.0451
208.014	15.272
217.656	15.9246
227.298	12.8279
236.941	2.32605
246.583	2.66736
256.225	3.92285
265.868	1.56885
275.51	3.01074
285.152	11.3736
294.795	11.2741
304.437	18.4595
314.079	25.6652
323.722	33.759
333.364	26.3293
343.006	20.6534
352.649	21.172
362.291	24.9985
371.933	30.8677
381.576	27.4705
391.218	15.9977
400.86	4.41168
410.503	1.20294
420.145	5.05664
429.787	6.77539
439.43	13.1569
449.072	17.681
458.714	23.5247
468.357	25.252
477.999	31.3977
487.641	29.0472
497.284	20.9027
506.926	19.603
516.568	14.9569
526.211	15.1892
535.853	19.2669
545.495	27.0863
555.138	24.7236
564.78	19.1235
574.422	16.9727
584.065	5.35632
593.707	13.4388
603.349	19.3108
612.992	24.783
622.634	29.7317
632.276	34.295
641.919	38.026
651.561	40.5661
661.203	34.2505
670.846	24.7092
680.488	22.2325
690.13	15.001
699.773	21.8949
709.415	13.5595
719.057	11.7394
728.7	10.029
738.342	7.07123
747.984	11.782
757.627	17.2504
767.269	17.6017
776.911	17.5507
786.554	18.229
796.196	9.7077
805.838	15.4752
815.481	19.8123
825.123	19.443
834.765	22.5289
844.408	18.5701
854.05	19.6633
863.692	14.2946
873.335	18.3571
882.977	33.0334
892.619	36.5533
902.262	35.676
911.904	38.1204
921.546	38.7128
931.189	36.1387
940.831	26.4136
950.473	14.405
960.116	8.46057
969.758	2.52026
979.4	2.38861
989.043	1.81317
998.685	3.08148
1008.33	1.58203
1017.97	0.604187
1027.61	3.92291
1037.25	2.20429
1046.9	2.91467
1056.54	0.242554
1066.18	10.2388
1075.82	3.59827
1085.47	4.60651
1095.11	3.64966
1104.75	9.70996
1114.39	12.5595
1124.04	15.7285
1133.68	16.7228
1143.32	24.6785
1152.96	25.1262
1162.61	24.6603
1172.25	42.4544
1181.89	64.37
1191.53	91.7723
1201.17	117.159
1210.82	103.245
1220.46	99.4413
1230.1	81.9455
1239.74	69.4017
1249.39	46.364
1259.03	38.0457
1268.67	21.4487
1278.31	22.1974
1287.95	41.912
1297.6	68.3603
1307.24	180.701
1316.88	410.943
1326.52	1089.07
1336.17	2326.52
1345.81	965.262
1355.45	310.963
1365.09	108.645
1374.74	69.2175
1384.38	58.6006
1394.02	49.152
1403.66	49.7727
1413.31	52.6282
1422.95	63.8904
1432.59	72.964
1442.23	88.991
1451.88	110.142
1461.52	123.105
1471.16	150.679
1480.8	169.857
1490.44	178.378
1500.09	180.671
1509.73	184.151
1519.37	180.515
1529.01	181.512
1538.66	158.787
1548.3	140.922
1557.94	127.483
1567.58	106.411
1577.22	83.2615
1586.87	68.4767
1596.51	50.2728
1606.15	35.0431
1615.79	26.0623
1625.44	7.63892
1635.08	15.7433
1644.72	5.56274
1654.36	3.34558
1664.01	0.123779
1673.65	0.297974
1683.29	1.73413
1692.93	4.50549
1702.58	7.92114
1712.22	10.3494
1721.86	4.26636
1731.5	1.8739
1741.14	8.16199
1750.79	2.57275
1760.43	0.790527
1770.07	7.91418
1779.71	1.12659
1789.36	2.38452
1799	1.00147
1808.64	0.082886
1818.28	0.144531
1827.93	6.33997
1837.57	20.5747
1847.21	11.0624
1856.85	14.2716
1866.49	18.4301
1876.14	23.3359
1885.78	39.9797
1895.42	35.224
1905.06	35.0481
1914.71	36.5677
1924.35	43.7847
1933.99	47.3319
1943.63	54.5317
1953.28	55.4176
1962.92	53.5791
1972.56	58.7695
1982.2	63.8392
1991.85	65.8439
2001.49	63.1957
2011.13	64.5244
2020.77	60.9725
2030.41	72.5742
2040.06	65.3633
2049.7	64.4197
2059.34	70.8455
2068.98	57.8682
2078.63	52.3023
2088.27	48.7091
2097.91	44.6344
2107.55	40.7825
2117.2	41.6624
2126.84	31.2082
2136.48	21.9204
2146.12	31.3522
2155.76	24.3118
2165.41	21.3364
2175.05	20.989
2184.69	19.9025
2194.33	17.2929
2203.98	14.2415
2213.62	9.55249
2223.26	1.98071
2232.9	1.98999
2242.55	1.35278
2252.19	1.56555
2261.83	6.13049
2271.47	3.46887
2281.11	2.47253
2290.76	1.8689
2300.4	7.19507
2310.04	2.8999
2319.68	1.97083
2329.33	2.60681
2338.97	6.89941
2348.61	5.26392
2358.25	1.23962
2367.9	5.40796
2377.54	7.72314
2387.18	17.8363
2396.82	16.2194
2406.47	20.6327
2416.11	11.4738
2425.75	11.9169
2435.39	8.74402
2445.03	13.6398
2454.68	18.4175
2464.32	13.0322
2473.96	12.1205
2483.6	17.6931
2493.25	15.8423
2502.89	18.3733
2512.53	17.5493
2522.17	26.4021
2531.82	28.3539
2541.46	36.579
2551.1	36.4395
2560.74	39.4296
2570.39	44.13
2580.03	55.361
2589.67	47.3355
2599.31	55.6399
2608.95	67.8469
2618.6	88.0741
2628.24	107.125
2637.88	133.639
2647.52	153.782
2657.17	183.979
2666.81	213.195
2676.45	238.863
2686.09	258.154
2695.74	255.193
2705.38	241.203
2715.02	225.022
2724.66	187.793
2734.3	157.368
2743.95	139.189
2753.59	112.17
2763.23	87.8237
2772.88	76.4733
2782.52	59.5947
2792.16	57.1757
2801.8	55.1807
2811.44	37.6267
2821.09	27.2225
2830.73	32.3893
2840.37	24.1966
2850.01	20.7857
2859.66	10.5663
2869.3	8.69293
2878.94	7.03052
2888.58	3.30255
2898.22	0.623352
2907.87	2.63519
2917.51	2.98389
2927.15	1.72571
2936.79	2.5365
2946.44	2.89691
2956.08	4.18036
2965.72	23.1018
2975.36	13.9175
2985.01	11.5881
2994.65	5.93329
3004.29	12.0395
3013.93	20.326
3023.57	20.7351
3033.22	23.6652
3042.86	29.9913
3052.5	22.8567
3062.14	33.8681
3071.79	35.9853
3081.43	42.0429
3091.07	42.1127
3100.71	46.1337
3110.36	48.4166
3120	51.2851
3129.64	52.2673
3139.28	44.3935
3148.93	49.9737
3158.57	44.8699
3168.21	40.4785
3177.85	41.1192
3187.49	23.1556
3197.14	22.6806
3206.78	17.7012
3216.42	12.9528
3226.06	8.87344
3235.71	3.15283
3245.35	3.44992
3254.99	3.55454
3264.63	0.36377
3274.28	6.81839
3283.92	9.90045
3293.56	15.0188
3303.2	9.4843
3312.84	20.0666
3322.49	26.3366
3332.13	29.1772
3341.77	32.8539
3351.41	34.3862
3361.06	30.2809
3370.7	17.2958
3380.34	17.768
3389.98	19.595
3399.63	15.1772
3409.27	13.4595
3418.91	25.9983
3428.55	17.3865
3438.2	7.62712
3447.84	5.67784
