Measurement: Raman, 532 nm, unoriented, Raman Data Processed
Mineral: Diamond
Rruff sample: R150086
Ideal chemistry: C
Locality: unknown
Source: Michael Scott
Description: Colorless faceted crystal with inclusions
Raman shift (cm-1)	intensity
98.3997	0
109.971	9.15757
121.541	5.18056
133.112	5.69217
144.683	6.7052
156.254	10.2131
167.825	12.4883
179.395	15.5372
190.966	11.7322
202.537	10.1947
214.108	11.929
225.679	7.89838
237.249	8.66902
248.82	8.2412
260.391	4.81699
271.962	5.84242
283.533	5.64405
295.103	7.33723
306.674	11.3748
318.245	15.0578
329.816	20.5025
341.387	22.5006
352.957	27.8344
364.528	30.2299
376.099	27.9627
387.67	25.1661
399.24	25.9755
410.811	25.4173
422.382	19.361
433.953	17.7159
445.524	20.0667
457.094	23.6645
468.665	18.6117
480.236	21.11
491.807	22.0931
503.378	3.35864
514.948	0.098816
526.519	1.30238
538.09	0.647797
549.661	1.84813
561.232	1.20248
572.803	0.452225
584.373	1.30333
595.944	3.65301
607.515	1.73792
619.086	3.89688
630.657	0.177521
642.227	3.2063
653.798	3.78456
665.369	1.99706
676.94	3.55222
688.51	5.32222
700.081	3.61639
711.652	2.12927
723.223	3.97041
734.794	7.57005
746.365	3.23669
757.935	5.14166
769.506	0.498138
781.077	2.25638
792.648	1.33989
804.218	1.1115
815.789	3.80754
827.36	4.78197
838.931	2.35748
850.502	2.50853
862.072	4.59146
873.643	2.98306
885.214	3.1855
896.785	1.48927
908.356	3.20291
919.927	0.805054
931.497	2.74558
943.068	1.05165
954.639	1.62974
966.21	1.48961
977.78	1.35141
989.351	1.57703
1000.92	0.296158
1012.49	2.4586
1024.06	4.15828
1035.63	4.0724
1047.2	3.54143
1058.78	2.87299
1070.35	2.37483
1081.92	3.61345
1093.49	5.56513
1105.06	9.00211
1116.63	5.37837
1128.2	6.23972
1139.77	5.57602
1151.34	10.2339
1162.91	8.73766
1174.48	11.7291
1186.06	12.717
1197.63	9.7113
1209.2	9.59274
1220.77	12.9382
1232.34	10.4091
1243.91	7.37175
1255.48	10.4501
1267.05	15.9176
1278.62	23.6694
1290.19	57.4359
1301.76	501.961
1313.33	583.811
1324.9	1985.19
1336.47	14516.1
1348.05	2412.64
1359.62	355.312
1371.19	61.7485
1382.76	20.7549
1394.33	7.38829
1405.9	4.78534
1417.47	3.63522
1429.04	0.055161
1440.61	2.84701
1452.18	2.50867
1463.75	2.57898
1475.33	4.24231
1486.9	2.56503
1498.47	0.309692
1510.04	2.29425
1521.61	0.96344
1533.18	6.26871
1544.75	0.053589
1556.32	3.38898
1567.89	4.05402
1579.46	2.41516
1591.03	2.63858
1602.6	3.32834
1614.17	2.10931
1625.74	6.77545
1637.32	6.85996
1648.89	9.30469
1660.46	9.34689
1672.03	11.3617
1683.6	10.1485
1695.17	9.90234
1706.74	6.45273
1718.31	6.68607
1729.88	6.70056
1741.45	7.20688
1753.02	14.4238
1764.6	13.4286
1776.17	15.6882
1787.74	13.9355
1799.31	12.4752
1810.88	9.76562
1822.45	8.16141
1834.02	9.92459
1845.59	9.3725
1857.16	6.9548
1868.73	7.00092
1880.3	10.3319
1891.87	6.21317
1903.44	7.51462
1915.02	10.1969
1926.59	8.43408
1938.16	9.49719
1949.73	6.17584
1961.3	5.68912
1972.87	3.1716
1984.44	4.98456
1996.01	2.3342
2007.58	6.70996
2019.15	2.79196
2030.72	6.26819
2042.29	2.54883
2053.86	0.244843
2065.44	0.988983
2077.01	0.970428
2088.58	4.15094
2100.15	2.03168
2111.72	0.577118
2123.29	0.992737
2134.86	0.839172
2146.43	0.341583
2158	1.40393
2169.57	0.541351
2181.14	5.9093
2192.72	5.69739
2204.28	4.17703
2215.86	4.02609
2227.43	9.66034
2239	11.6726
2250.57	13.5113
2262.14	17.7581
2273.71	22.9761
2285.28	23.0264
2296.85	28.101
2308.42	31.0543
2319.99	34.9186
2331.56	42.7698
2343.14	40.4412
2354.71	40.5825
2366.28	41.7143
2377.85	51.178
2389.42	61.2132
2400.99	73.9233
2412.56	107.552
2424.13	141.177
2435.7	185.992
2447.27	186.826
2458.84	166.483
2470.41	149.777
2481.99	126.948
2493.55	115.077
2505.13	103.699
2516.7	88.277
2528.27	70.5088
2539.84	62.4299
2551.41	47.49
2562.98	46.096
2574.55	39.9998
2586.12	35.2652
2597.69	37.836
2609.26	37.6801
2620.83	36.4407
2632.41	37.7527
2643.98	39.2259
2655.55	41.5365
2667.12	43.3782
2678.69	25.4049
2690.26	3.32846
2701.83	2.32315
2713.4	0.466278
2724.97	0.057373
2736.54	0.711334
2748.11	1.39505
2759.68	0.076508
2771.26	3.79364
2782.82	4.14566
2794.4	3.65936
2805.97	1.996
2817.54	0.310455
2829.11	2.83261
2840.68	1.05966
2852.25	1.6387
2863.82	1.85666
2875.39	3.27997
2886.96	3.82263
2898.53	6.34659
2910.1	5.357
2921.68	7.03265
2933.25	15.0746
2944.82	17.6953
2956.39	16.9466
2967.96	14.0106
2979.53	8.19708
2991.1	9.53476
3002.67	5.25436
3014.24	3.54645
3025.81	2.03192
3037.38	3.56372
3048.95	0.170837
3060.53	2.25088
3072.09	8.09775
3083.67	0.728058
3095.24	3.97809
3106.81	0.832214
3118.38	3.49686
3129.95	3.4046
3141.52	2.59979
3153.09	0.624664
3164.66	2.23483
3176.23	5.5946
3187.8	3.74991
3199.37	0.478729
3210.95	5.75845
3222.52	4.00275
3234.09	3.31042
3245.66	9.25949
3257.23	1.01996
3268.8	8.6105
3280.37	9.50775
3291.94	6.66556
3303.51	2.77725
3315.08	4.80417
3326.65	6.50333
3338.22	3.36777
3349.8	10.0758
3361.36	0.153442
3372.94	2.74777
3384.51	3.86743
3396.08	4.55966
3407.65	0.403351
3419.22	3.40741
3430.79	1.79657
3442.36	2.70044
3453.93	0.566345
3465.5	3.33218
3477.07	0.207184
3488.64	2.89706
3500.22	3.86533
3511.79	8.81952
3523.36	15.6097
3534.93	23.2284
3546.5	28.8438
3558.07	37.4333
3569.64	43.5214
3581.21	38.8452
3592.78	33.9542
3604.35	27.8445
3615.92	22.4531
3627.49	14.7492
3639.07	6.81256
3650.64	8.26914
3662.21	4.53107
3673.78	4.20654
3685.35	2.35834
3696.92	3.51141
3708.49	4.69663
3720.06	3.62659
3731.63	1.06082
3743.2	0.786713
3754.77	1.78381
3766.34	4.03271
3777.91	2.72256
3789.49	3.63266
3801.06	0.962219
3812.63	7.27081
3824.2	10.3755
3835.77	13.5438
3847.34	13.6757
3858.91	11.3797
3870.48	19.2102
3882.05	18.8029
3893.62	21.5158
3905.19	20.0017
3916.76	16.4924
3928.34	15.0815
3939.91	13.2805
3951.48	12.8677
3963.05	12.721
3974.62	11.4528
3986.19	12.4516
3997.76	9.88611
4009.33	6.841
4020.9	12.4398
4032.47	4.55182
4044.04	7.89447
4055.61	9.62158
4067.18	11.0377
4078.76	6.39172
4090.33	5.83044
4101.9	4.21973
4113.47	4.23242
4125.04	4.88434
4136.61	2.9256
4148.18	5.23016
4159.75	14.3175
4171.32	6.62646
4182.89	8.45892
4194.46	4.79224
4206.03	2.2027
4217.6	0.869019
4229.18	0.327087
4240.75	0.110046
