Measurement: Raman, 780 nm, unoriented, Raman Data Processed
Mineral: Diamond
Rruff sample: R150106
Ideal chemistry: C
Locality: Premier mine, Cullinan, Pretoria, Gauteng Province, South Africa
Source: Rock Currier
Description: Colorless triangle platy crystal (spinel twin).
Raman shift (cm-1)	intensity
152.088	0
161.731	0.186981
171.373	10.0184
181.015	10.0879
190.657	11.4044
200.3	16.1854
209.942	28.0261
219.584	41.185
229.227	47.853
238.869	38.7893
248.512	31.6054
258.154	24.3639
267.796	15.6704
277.438	16.9179
287.081	7.34412
296.723	7.84012
306.365	4.88989
316.008	3.06885
325.65	2.94284
335.293	3.20703
344.935	2.24942
354.577	1.54184
364.219	3.93915
373.862	0.321625
383.504	1.89081
393.147	1.95959
402.789	2.66428
412.431	2.84796
422.074	3.75012
431.716	4.41745
441.358	5.66666
451	5.88956
460.643	10.5244
470.285	11.0258
479.928	13.0587
489.57	14.2322
499.212	17.4474
508.854	16.7897
518.497	16.7371
528.139	15.8052
537.782	13.8817
547.424	14.4445
557.066	14.5557
566.708	15.4832
576.351	11.019
585.993	7.63776
595.635	5.86475
605.278	10.0345
614.92	9.43164
624.562	8.87381
634.205	12.2329
643.847	11.5068
653.49	11.7077
663.132	6.61011
672.774	12.4273
682.417	14.6925
692.059	7.67825
701.701	15.9389
711.343	15.3543
720.986	17.0908
730.628	19.7727
740.27	17.3215
749.913	19.7637
759.555	22.7957
769.197	18.8263
778.84	20.4934
788.482	20.2773
798.125	21.6605
807.767	16.2477
817.409	21.0009
827.052	17.2846
836.694	18.0687
846.336	16.6815
855.979	18.3915
865.621	12.7316
875.263	10.3374
884.905	8.86813
894.548	2.82742
904.19	2.53397
913.832	7.08829
923.475	3.80197
933.117	0.803406
942.76	2.5632
952.402	2.4841
962.044	2.11276
971.687	2.76901
981.329	0.24176
990.971	1.54272
1000.61	0.641266
1010.26	0.735107
1019.9	1.25662
1029.54	2.73297
1039.18	2.58014
1048.83	1.83133
1058.47	1.47125
1068.11	3.25644
1077.75	2.8667
1087.39	5.45319
1097.04	3.6962
1106.68	7.67679
1116.32	5.52884
1125.96	3.13156
1135.61	3.97409
1145.25	4.75049
1154.89	5.11765
1164.53	9.14114
1174.18	5.63617
1183.82	9.32364
1193.46	6.56247
1203.1	5.29562
1212.74	3.86374
1222.39	5.9292
1232.03	7.40317
1241.67	8.56326
1251.31	10.0234
1260.96	13.5588
1270.6	16.4777
1280.24	19.1907
1289.88	33.9156
1299.53	57.5456
1309.17	454.992
1318.81	1079.78
1328.45	4257.29
1338.1	9881.81
1347.74	3467.02
1357.38	827.475
1367.02	170.18
1376.66	55.9355
1386.31	18.5391
1395.95	9.71606
1405.59	5.98346
1415.23	3.3782
1424.88	2.37604
1434.52	1.31558
1444.16	5.47476
1453.8	1.28891
1463.45	0.223969
1473.09	2.70688
1482.73	1.42139
1492.37	5.17337
1502.02	1.1962
1511.66	1.42697
1521.3	1.10785
1530.94	1.92828
1540.58	1.25668
1550.23	0.761169
1559.87	1.82291
1569.51	1.51898
1579.15	2.36646
1588.8	1.6759
1598.44	6.60184
1608.08	6.39053
1617.72	4.73132
1627.37	4.39947
1637.01	2.70758
1646.65	0.977325
1656.29	2.40897
1665.93	3.55832
1675.58	3.28833
1685.22	4.43918
1694.86	1.32809
1704.5	6.99658
1714.15	7.88504
1723.79	6.80335
1733.43	4.07306
1743.07	7.07458
1752.72	6.62967
1762.36	9.69434
1772	7.61569
1781.64	10.9963
1791.29	8.32245
1800.93	11.0856
1810.57	9.09399
1820.21	7.23291
1829.85	6.96014
1839.5	11.4059
1849.14	8.85434
1858.78	8.41019
1868.42	12.374
1878.07	10.9136
1887.71	12.9283
1897.35	12.9933
1906.99	15.3712
1916.63	9.82895
1926.28	9.29367
1935.92	15.8452
1945.56	8.41684
1955.2	12.352
1964.85	4.98386
1974.49	4.72803
1984.13	3.87524
1993.77	0.499481
2003.42	3.01126
2013.06	3.0972
2022.7	4.21567
2032.34	0.830078
2041.99	3.7952
2051.63	0.470215
2061.27	4.2099
2070.91	1.94513
2080.55	3.39056
2090.2	5.69894
2099.84	2.48425
2109.48	1.77463
2119.12	0.870483
2128.77	1.39188
2138.41	2.84476
2148.05	6.74762
2157.69	8.55157
2167.34	4.82404
2176.98	10.6037
2186.62	3.31271
2196.26	3.64465
2205.91	7.47485
2215.55	5.96503
2225.19	6.23846
2234.83	9.10779
2244.47	15.8318
2254.12	13.781
2263.76	21.5315
2273.4	20.6272
2283.04	18.8539
2292.69	19.302
2302.33	18.6056
2311.97	17.6898
2321.61	19.9623
2331.26	14.8065
2340.9	15.1816
2350.54	11.52
2360.18	11.2555
2369.82	8.20184
2379.47	14.8309
2389.11	13.6597
2398.75	13.4226
2408.39	13.766
2418.04	15.4828
2427.68	10.4084
2437.32	19.1833
2446.96	17.3423
2456.61	15.3573
2466.25	18.7791
2475.89	14.9992
2485.53	16.1129
2495.18	13.8132
2504.82	12.1239
2514.46	10.0102
2524.1	12.8541
2533.74	0.696304
2543.39	6.6329
2553.03	5.55258
2562.67	8.29027
2572.31	8.36705
2581.96	9.58028
2591.6	4.77173
2601.24	11.6308
2610.88	14.5928
2620.53	14.0774
2630.17	12.0866
2639.81	14.1779
2649.45	11.4312
2659.09	13.052
2668.74	6.43178
2678.38	6.53699
2688.02	3.99284
2697.66	2.23044
2707.31	1.95282
2716.95	3.87732
2726.59	0.258362
2736.23	2.4781
2745.88	0.658142
2755.52	1.83971
2765.16	2.94798
2774.8	2.9175
2784.45	0.969307
2794.09	3.17792
2803.73	0.582901
2813.37	1.02607
2823.01	0.329491
2832.66	0.692543
2842.3	1.73211
2851.94	5.43805
2861.58	0.400139
2871.23	0.611465
2880.87	4.81471
2890.51	5.67048
2900.15	0.584267
2909.8	3.20929
2919.44	1.26119
2929.08	5.5353
2938.72	5.77595
2948.36	6.06403
2958.01	6.71819
2967.65	5.79263
2977.29	9.85408
2986.93	8.94994
2996.58	4.02138
3006.22	4.63554
3015.86	5.66075
3025.5	3.30543
3035.15	5.13586
3044.79	4.55317
3054.43	4.74112
3064.07	1.63505
3073.72	9.48545
3083.36	4.83389
3093	2.92342
3102.64	3.05028
3112.28	6.06787
3121.93	6.18456
3131.57	2.27842
3141.21	0.403431
3150.85	5.36769
3160.5	2.29819
3170.14	2.02188
3179.78	7.3538
3189.42	2.01781
3199.07	2.8221
3208.71	4.17207
3218.35	3.14501
3227.99	0.380983
3237.64	3.0426
3247.28	0.567299
3256.92	5.85043
3266.56	5.43405
3276.2	3.97595
3285.85	7.77173
3295.49	5.15436
3305.13	2.67783
3314.77	7.27698
3324.42	10.0596
3334.06	7.26933
3343.7	4.88131
3353.34	1.93651
3362.99	5.56843
3372.63	1.55784
3382.27	3.35703
3391.91	0.093359
3401.55	2.23596
3411.2	9.45557
3420.84	44.5158
3430.48	15.0695
3440.12	3.02716
3449.77	0.031153
