Measurement: Raman, 785 nm, unoriented, Raman Data Processed
Mineral: Diamond
Rruff sample: R050206
Ideal chemistry: C
Locality: Unknown
Source: Eric Van Valkenburg
Description: Single crystal, type IIA
Raman shift (cm-1)	intensity
117.453	0
121.792	1.82741
126.131	33.1995
130.47	117.612
134.809	178.491
139.148	79.9612
143.487	71.8794
147.826	131.168
152.166	154.542
156.505	63.5225
160.844	80.7557
165.183	68.9183
169.522	35.552
173.861	41.7104
178.2	32.0614
182.539	10.8263
186.878	9.39524
191.217	13.6556
195.556	2.98119
199.895	12.0357
204.234	10.7274
208.573	11.945
212.912	1.42976
217.251	13.7853
221.59	9.15321
225.929	3.65918
230.268	2.17083
234.607	9.51273
238.946	4.84591
243.286	0.573406
247.625	2.74103
251.964	7.6932
256.303	9.64465
260.642	7.53152
264.981	8.76124
269.32	10.0156
273.659	13.7921
277.998	2.71958
282.337	4.11116
286.676	0.368958
291.015	8.81866
295.354	8.93262
299.693	7.38077
304.032	9.85809
308.371	12.0369
312.71	10.4411
317.049	8.93501
321.388	5.54601
325.727	9.24993
330.067	12.1838
334.406	5.28763
338.745	17.8937
343.084	7.55746
347.423	10.0784
351.762	7.6802
356.101	6.63067
360.44	5.8574
364.779	5.49867
369.118	14.7263
373.457	3.41209
377.796	9.57595
382.135	13.9848
386.474	7.72512
390.813	13.0982
395.152	11.4634
399.491	9.86822
403.83	7.85984
408.169	4.9438
412.508	11.5279
416.848	5.6004
421.187	7.98284
425.526	5.59397
429.865	8.24994
434.204	7.24511
438.543	6.12556
442.882	7.00539
447.221	4.47531
451.56	9.95758
455.899	15.7126
460.238	8.17972
464.577	5.90561
468.916	7.62091
473.255	8.79363
477.594	9.80824
481.933	8.30209
486.272	8.03991
490.611	7.25065
494.95	2.95295
499.289	5.09775
503.628	6.01553
507.967	4.87324
512.307	15.8456
516.646	11.0142
520.985	5.32533
525.324	4.37877
529.663	6.60315
534.002	7.85179
538.341	1.20744
542.68	13.4441
547.019	4.39501
551.358	8.15207
555.697	16.7562
560.036	6.99734
564.375	2.37732
568.714	14.4477
573.053	6.53807
577.392	14.9613
581.731	10.7729
586.07	16.379
590.409	12.4837
594.749	3.98155
599.087	11.4379
603.427	12.2529
607.766	3.93761
612.105	19.0692
616.444	15.8602
620.783	13.0928
625.122	11.2773
629.461	7.44061
633.8	4.03735
638.139	12.5435
642.478	16.3547
646.817	11.6481
651.156	8.88614
655.495	11.7562
659.834	7.61086
664.173	4.78526
668.512	15.5032
672.851	7.82779
677.19	10.7048
681.529	10.1854
685.869	5.03389
690.208	10.5385
694.547	0.497776
698.886	4.14125
703.225	11.1512
707.564	4.69603
711.903	5.27643
716.242	0.206902
720.581	10.8062
724.92	0.706673
729.259	9.38779
733.598	1.16523
737.937	4.7212
742.276	14.7758
746.615	10.3773
750.954	8.29052
755.293	3.59283
759.632	5.11129
763.971	6.71199
768.31	7.87632
772.649	7.88146
776.989	5.07643
781.328	5.05364
785.667	0.537861
790.006	10.7118
794.345	4.28112
798.684	1.38044
803.023	5.94449
807.362	3.38873
811.701	7.77649
816.04	1.50846
820.379	8.47658
824.718	4.32082
829.057	1.83639
833.396	2.0369
837.735	7.63809
842.074	2.73653
846.413	7.81682
850.752	6.87883
855.091	15.308
859.431	12.7779
863.769	7.14505
868.109	7.63768
872.448	11.8099
876.787	6.69141
881.126	7.50397
885.465	10.8799
889.804	1.6799
894.143	1.48653
898.482	7.89767
902.821	8.79106
907.16	5.31513
911.499	3.41653
915.838	2.46236
920.177	11.6782
924.516	7.83384
928.855	7.63942
933.194	2.25541
937.533	0.020481
941.872	7.81904
946.211	2.59921
950.551	3.76205
954.889	5.89444
959.229	4.7182
963.568	6.96798
967.907	4.85293
972.246	3.79196
976.585	4.6572
980.924	10.1757
985.263	6.16046
989.602	6.13104
993.941	4.20165
998.28	5.7402
1002.62	14.4162
1006.96	6.33908
1011.3	6.65464
1015.64	6.77906
1019.98	11.3658
1024.31	14.7494
1028.65	9.65821
1032.99	1.0501
1037.33	1.94972
1041.67	6.42379
1046.01	12.3709
1050.35	7.8276
1054.69	13.3195
1059.03	4.19328
1063.37	8.44192
1067.7	8.24234
1072.04	4.42224
1076.38	7.42245
1080.72	7.38336
1085.06	12.4738
1089.4	9.6053
1093.74	19.5809
1098.08	6.31379
1102.42	11.6747
1106.76	9.70698
1111.1	10.0772
1115.43	9.84361
1119.77	8.14542
1124.11	10.2897
1128.45	0.285206
1132.79	3.23072
1137.13	9.02495
1141.47	5.45131
1145.81	11.7205
1150.15	8.67511
1154.49	13.1545
1158.83	6.86086
1163.16	13.1633
1167.5	15.5009
1171.84	5.98332
1176.18	18.6657
1180.52	12.9316
1184.86	22.0708
1189.2	14.654
1193.54	8.93733
1197.88	12.7246
1202.21	0.813442
1206.55	8.41055
1210.89	4.90724
1215.23	6.96987
1219.57	0.790848
1223.91	0.880905
1228.25	3.11454
1232.59	2.70153
1236.93	4.17773
1241.27	0.421722
1245.61	2.71555
1249.94	0.559875
1254.28	3.67355
1258.62	17.1366
1262.96	10.1731
1267.3	9.81605
1271.64	15.9704
1275.98	13.7828
1280.32	21.2304
1284.66	26.8088
1289	45.2579
1293.34	49.1894
1297.67	58.5057
1302.01	80.8882
1306.35	118.427
1310.69	215.985
1315.03	390.825
1319.37	1160.66
1323.71	6366.59
1328.05	18950.3
1332.39	49861.6
1336.73	6012.58
1341.07	959.59
1345.4	378.123
1349.74	185.39
1354.08	112.707
1358.42	63.8444
1362.76	44.8239
1367.1	40.9029
1371.44	14.7314
1375.78	20.1159
1380.12	6.2431
1384.45	11.7688
1388.79	0.928612
1393.13	6.82365
1397.47	10.0067
1401.81	4.37013
1406.15	12.2977
1410.49	3.04417
1414.83	4.47082
1419.17	16.0808
1423.51	6.03445
1427.85	20.1599
1432.18	3.96836
1436.52	9.61068
1440.86	13.9848
1445.2	12.9637
1449.54	14.9637
1453.88	9.93502
1458.22	14.2019
1462.56	14.5572
1466.9	15.719
1471.24	13.6098
1475.58	10.5538
1479.91	8.66278
1484.25	12.4331
1488.59	11.0858
1492.93	15.3161
1497.27	15.1828
1501.61	0.402401
1505.95	1.75753
1510.29	9.38214
1514.63	18.6181
1518.97	7.40879
1523.31	6.67506
1527.64	16.5914
1531.98	12.4169
1536.32	4.76706
1540.66	8.72722
1545	16.298
1549.34	4.49552
1553.68	12.7628
1558.02	14.3335
1562.36	17.0605
1566.69	10.8578
1571.04	16.8842
1575.37	16.1218
1579.71	17.1034
1584.05	14.3686
1588.39	11.8306
1592.73	9.10475
1597.07	9.4791
1601.41	12.289
1605.75	10.2301
1610.09	8.83194
1614.42	12.4353
1618.76	11.2607
1623.1	1.25782
1627.44	10.7997
1631.78	5.55905
1636.12	5.62137
1640.46	9.28002
1644.8	4.38479
1649.14	8.85498
1653.48	6.80522
1657.82	10.8789
1662.15	11.5867
1666.49	14.5296
1670.83	7.13721
1675.17	21.4995
1679.51	10.9747
1683.85	0.871769
1688.19	0
