Measurement: Raman, 532 nm, unoriented, Raman Data Processed
Mineral: Diamond
Rruff sample: R050206
Ideal chemistry: C
Locality: Unknown
Source: Eric Van Valkenburg
Description: Single crystal, type IIA
Raman shift (cm-1)	intensity
117.398	0
121.737	3.14204
126.076	16.8661
130.415	42.8806
134.754	40.4666
139.093	43.124
143.432	46.8513
147.771	50.8258
152.11	50.4204
156.449	62.0261
160.788	44.0044
165.127	48.9104
169.466	46.6314
173.805	41.481
178.144	28.6097
182.483	29.9446
186.822	30.4406
191.161	26.1211
195.501	29.6162
199.84	22.0414
204.179	20.8125
208.518	22.8775
212.857	13.6832
217.196	27.5631
221.535	13.4699
225.874	15.6792
230.213	6.50272
234.552	2.55965
238.891	0.542862
243.23	3.6573
247.569	3.12094
251.908	2.36128
256.247	0.587936
260.586	1.19957
264.925	0.382126
269.264	6.94495
273.603	2.60049
277.942	14.5956
282.282	3.8262
286.621	5.79662
290.96	5.75743
295.299	2.96559
299.638	5.74849
303.977	5.41632
308.316	7.03734
312.655	4.74463
316.994	12.0523
321.333	12.5873
325.672	1.69295
330.011	10.7091
334.35	18.9105
338.689	14.6039
343.028	5.90012
347.367	18.1129
351.706	5.76404
356.045	0.204437
360.385	12.3745
364.724	11.2988
369.063	3.87975
373.402	13.0403
377.741	10.9542
382.08	26.0124
386.419	15.5968
390.758	22.6235
395.097	29.876
399.436	20.3095
403.775	13.2772
408.114	22.3468
412.453	13.0397
416.792	10.3256
421.131	18.4689
425.47	18.7337
429.809	11.7553
434.148	24.9098
438.487	14.4358
442.826	3.48981
447.165	20.1492
451.505	16.8327
455.844	8.06395
460.183	17.8323
464.522	9.07526
468.861	12.5039
473.2	15.2319
477.539	1.40756
481.878	7.09108
486.217	9.23494
490.556	20.1063
494.895	11.9007
499.234	6.97087
503.573	1.80568
507.912	13.166
512.251	13.1639
516.59	12.5342
520.929	20.8063
525.268	11.8309
529.607	5.65082
533.946	15.4856
538.285	5.40503
542.625	16.7243
546.964	4.60938
551.303	9.17889
555.642	6.9834
559.981	3.59909
564.32	5.78217
568.659	3.43997
572.998	5.94766
577.337	5.79489
581.676	14.6474
586.015	13.1987
590.354	12.9192
594.693	5.18189
599.032	2.41733
603.371	18.4872
607.71	6.70062
612.049	14.6996
616.388	9.66162
620.727	10.9137
625.067	15.6058
629.405	15.3239
633.745	9.77237
638.084	8.04907
642.423	20.3719
646.762	13.4828
651.101	8.77112
655.44	14.4444
659.779	5.12759
664.118	4.7374
668.457	6.97684
672.796	11.4739
677.135	15.4323
681.474	7.50964
685.813	6.93722
690.152	7.5589
694.491	5.81003
698.83	15.4018
703.169	5.1622
707.508	3.76907
711.847	4.86829
716.187	2.94901
720.526	10.8169
724.865	6.86496
729.204	7.82697
733.543	2.6275
737.882	5.70032
742.221	15.5674
746.56	11.4929
750.899	17.2293
755.238	10.0319
759.577	14.6009
763.916	7.80463
768.255	6.86057
772.594	3.73618
776.933	14.4499
781.272	11.5945
785.611	12.0824
789.95	7.31714
794.289	11.3589
798.628	5.42841
802.967	7.17969
807.307	6.55551
811.646	3.52066
815.985	1.92822
820.324	6.76941
824.663	1.3598
829.002	4.42987
833.341	10.1227
837.68	15.0286
842.019	2.96329
846.358	4.30646
850.697	4.89297
855.036	5.40213
859.375	0.975616
863.714	13.6088
868.053	1.28455
872.392	6.97943
876.731	8.39349
881.07	6.63138
885.409	8.01462
889.749	2.09524
894.087	12.9828
898.427	4.3909
902.766	9.30679
907.105	2.65463
911.444	7.39828
915.783	12.2658
920.122	5.75244
924.461	15.9668
928.8	1.74408
933.139	4.8689
937.478	11.6764
941.817	15.4817
946.156	14.9216
950.495	20.6225
954.834	15.5433
959.173	8.81076
963.512	22.4128
967.851	18.8773
972.19	5.30011
976.529	15.258
980.869	10.1963
985.207	2.44153
989.547	11.8545
993.886	13.5362
998.225	11.4861
1002.56	11.0859
1006.9	10.9138
1011.24	6.60428
1015.58	16.2797
1019.92	11.8804
1024.26	16.7981
1028.6	5.87448
1032.94	9.39355
1037.28	1.68961
1041.62	5.33322
1045.95	1.73193
1050.29	4.1329
1054.63	3.49063
1058.97	2.49426
1063.31	5.94293
1067.65	10.5653
1071.99	3.328
1076.33	7.53162
1080.67	7.10928
1085.01	4.44577
1089.35	17.2418
1093.68	12.8633
1098.02	18.5635
1102.36	33.8231
1106.7	22.1092
1111.04	23.8846
1115.38	36.1959
1119.72	38.6867
1124.06	47.349
1128.4	53.7734
1132.73	77.4016
1137.07	82.9776
1141.41	100.88
1145.75	118.642
1150.09	130.87
1154.43	123.263
1158.77	125.36
1163.11	125.237
1167.45	115.226
1171.79	103.923
1176.13	111.631
1180.46	91.8601
1184.8	92.2574
1189.14	104.889
1193.48	69.0489
1197.82	75.6196
1202.16	72.7906
1206.5	55.2966
1210.84	35.5565
1215.18	18.3533
1219.52	8.96133
1223.86	7.74087
1228.19	11.1289
1232.53	6.62634
1236.87	0.355499
1241.21	10.3536
1245.55	2.26498
1249.89	1.91058
1254.23	19.3513
1258.57	10.0179
1262.91	24.1145
1267.25	42.8805
1271.59	24.135
1275.92	48.0806
1280.26	56.1357
1284.6	73.3958
1288.94	78.2828
1293.28	96.986
1297.62	130.547
1301.96	135.518
1306.3	187.663
1310.64	271.52
1314.97	431.667
1319.31	1041.11
1323.65	6311.15
1327.99	20420
1332.33	67114.9
1336.67	5144.14
1341.01	1058.77
1345.35	421.075
1349.69	229.173
1354.03	129.029
1358.37	85.8656
1362.7	39.1788
1367.04	45.2011
1371.38	0.482544
1375.72	12.4254
1380.06	8.69174
1384.4	6.84161
1388.74	4.17368
1393.08	2.44986
1397.42	1.12924
1401.76	4.40042
1406.1	1.87244
1410.43	16.4905
1414.77	2.75864
1419.11	13.2149
1423.45	12.5194
1427.79	21.6691
1432.13	13.1511
1436.47	29.9813
1440.81	23.5395
1445.15	37.4142
1449.49	24.8925
1453.83	20.7605
1458.16	14.645
1462.5	19.5067
1466.84	17.1216
1471.18	8.69635
1475.52	4.88519
1479.86	0.199402
1484.2	2.71155
1488.54	12.6451
1492.88	8.88953
1497.21	24.8205
1501.55	20.3154
1505.89	31.0179
1510.23	45.9569
1514.57	52.1265
1518.91	52.8938
1523.25	94.9672
1527.59	100.925
1531.93	132.455
1536.27	135.472
1540.61	148.234
1544.94	147.106
1549.28	149.396
1553.62	127.084
1557.96	112.466
1562.3	96.5676
1566.64	79.8317
1570.98	68.8452
1575.32	66.6557
1579.66	43.5008
1584	42.5326
1588.34	51.1121
1592.67	20.45
1597.01	18.3683
1601.35	18.5215
1605.69	17.2153
1610.03	6.61487
1614.37	1.8078
1618.71	0.327271
1623.05	15.3127
1627.39	1.18726
1631.73	14.968
1636.07	16.5563
1640.4	4.14539
1644.74	33.9765
1649.08	5.19782
1653.42	11.6935
1657.76	28.657
1662.1	20.4373
1666.44	11.6649
1670.78	25.7676
1675.12	17.6282
1679.45	42.7587
1683.79	13.421
1688.13	17.9678
