Measurement: Raman, 532 nm, unoriented, Raman Data Processed
Mineral: Diamond
Rruff sample: R050204
Ideal chemistry: C
Locality: Unknown
Source: Eric Van Valkenburg
Description: Single crystal, type IIA
Raman shift (cm-1)	intensity
127.832	0
131.689	7.21649
135.546	6.6911
139.403	8.7197
143.26	10.8419
147.117	24.454
150.974	34.432
154.831	17.7626
158.688	12.9014
162.545	13.4555
166.402	20.6071
170.259	7.88361
174.115	19.8723
177.972	9.54114
181.829	4.43097
185.686	11.5416
189.543	15.5136
193.4	20.6504
197.257	16.3386
201.114	28.1896
204.971	16.7482
208.828	15.2836
212.685	18.9907
216.542	15.169
220.399	3.91968
224.256	10.1193
228.113	10.233
231.97	22.205
235.826	13.9163
239.683	1.96466
243.54	21.1491
247.397	2.64557
251.254	19.2869
255.111	23.5778
258.968	16.8338
262.825	36.6425
266.682	8.6662
270.539	12.5509
274.396	9.08313
278.253	30.2637
282.11	11.9182
285.967	16.7948
289.824	30.1424
293.68	3.20123
297.537	15.8709
301.394	21.1495
305.251	7.31274
309.108	16.2598
312.965	11.994
316.822	19.3314
320.679	19.9221
324.536	27.4257
328.393	6.71124
332.25	14.5536
336.107	2.42224
339.964	24.2826
343.821	26.0712
347.678	14.6399
351.534	8.85974
355.391	21.2367
359.248	0.629333
363.105	48.8021
366.962	8.21063
370.819	26.1735
374.676	22.775
378.533	12.0895
382.39	21.292
386.247	31.8085
390.104	26.7142
393.961	16.5715
397.818	18.577
401.675	10.3603
405.531	5.83649
409.388	21.9158
413.245	3.09076
417.102	11.3844
420.959	1.77331
424.816	4.67371
428.673	1.4079
432.53	10.1405
436.387	10.5574
440.244	18.3975
444.101	12.9477
447.958	13.5758
451.815	13.6388
455.672	14.0145
459.529	2.78589
463.385	20.0007
467.242	23.3621
471.099	24.9349
474.956	27.6048
478.813	8.0932
482.67	17.1067
486.527	13.8978
490.384	2.58594
494.241	25.991
498.098	1.02783
501.955	28.6921
505.812	28.042
509.669	20.917
513.526	5.12329
517.383	16.8839
521.24	6.48096
525.096	14.9207
528.953	14.1295
532.81	11.1334
536.667	9.3988
540.524	7.0293
544.381	36.6224
548.238	3.66846
552.095	23.1794
555.952	23.662
559.809	20.901
563.666	2.38391
567.523	25.1371
571.38	23.5017
575.237	30.6848
579.093	29.2572
582.95	23.2002
586.807	34.804
590.664	25.3914
594.521	32.9355
598.378	41.4779
602.235	48.9696
606.092	35.6354
609.949	39.3549
613.806	24.9121
617.663	35.6859
621.52	39.0421
625.377	20.5712
629.234	47.8317
633.091	36.1917
636.947	15.8447
640.804	5.38123
644.661	17.6337
648.518	21.6791
652.375	2.55518
656.232	9.46252
660.089	15.5101
663.946	27.6582
667.803	21.552
671.66	16.2662
675.517	37.4558
679.374	42.752
683.231	25.9838
687.088	12.4751
690.944	14.4808
694.802	26.9508
698.658	12.375
702.515	32.8304
706.372	32.4993
710.229	6.02112
714.086	15.1945
717.943	24.6337
721.8	10.3989
725.657	20.5806
729.514	35.3767
733.371	9.83093
737.228	7.55383
741.085	12.791
744.942	4.46314
748.798	19.6344
752.655	32.0062
756.512	28.4462
760.369	41.9204
764.226	27.2752
768.083	41.494
771.94	28.2787
775.797	22.5169
779.654	28.7932
783.511	21.9578
787.368	11.615
791.225	20.5625
795.082	3.2041
798.939	12.4027
802.796	1.06848
806.653	7.00256
810.51	6.96814
814.366	11.2385
818.223	10.5891
822.08	37.1711
825.937	38.7908
829.794	63.2034
833.651	66.2314
837.508	45.6086
841.365	43.0125
845.222	28.6677
849.079	20.374
852.936	34.1509
856.793	32.3179
860.65	44.7581
864.506	32.5222
868.364	39.2327
872.22	34.8291
876.077	18.5252
879.934	20.3096
883.791	7.06958
887.648	3.65894
891.505	10.501
895.362	6.37671
899.219	22.3743
903.076	14.8643
906.933	1.06274
910.79	26.3494
914.647	25.4331
918.504	8.80005
922.361	30.0598
926.217	35.7461
930.074	43.1191
933.931	41.6692
937.788	52.3691
941.645	58.46
945.502	58.4949
949.359	65.4788
953.216	39.2063
957.073	27.5703
960.93	6.94751
964.787	16.8889
968.644	11.5703
972.501	7.29688
976.357	3.70459
980.215	19.3926
984.071	13.5105
987.928	4.41772
991.785	13.2053
995.642	51.0564
999.499	26.6558
1003.36	49.0703
1007.21	69.7227
1011.07	79.0054
1014.93	81.1819
1018.78	64.5967
1022.64	87.6748
1026.5	77.8071
1030.36	78.2578
1034.21	80.3535
1038.07	74.6482
1041.92	63.7656
1045.78	64.3198
1049.64	82.8508
1053.5	51.1357
1057.35	66.1074
1061.21	70.7517
1065.07	85.4119
1068.92	95.5161
1072.78	67.8294
1076.64	77.0159
1080.49	70.5476
1084.35	74.2927
1088.21	44.2805
1092.07	47.9944
1095.92	46.3196
1099.78	14.0398
1103.64	46.3601
1107.49	36.3262
1111.35	6.87573
1115.21	3.17188
1119.06	11.0666
1122.92	4.47681
1126.78	5.39331
1130.63	3.73169
1134.49	99.062
1138.35	119.155
1142.21	117.498
1146.06	108.065
1149.92	133.719
1153.78	136.798
1157.63	141.375
1161.49	80.5874
1165.35	64.5459
1169.2	99.4961
1173.06	104.497
1176.92	95.563
1180.78	55.8579
1184.63	37.1733
1188.49	24.293
1192.35	0.104004
1196.2	25.46
1200.06	42.1626
1203.92	44.8603
1207.77	28.8174
1211.63	12.8989
1215.49	0.367188
1219.34	24.7441
1223.2	16.6738
1227.06	13.6274
1230.91	45.206
1234.77	57.6445
1238.63	36.9395
1242.49	44.1484
1246.34	6.03223
1250.2	33.1543
1254.06	97.8603
1257.91	86.7056
1261.77	29.583
1265.63	25.0571
1269.48	43.3911
1273.34	30.1255
1277.2	5.11182
1281.06	27.0254
1284.91	4.80078
1288.77	1.56348
1292.63	14.2783
1296.48	9.77344
1300.34	77.5879
1304.2	80.6699
1308.05	75.1362
1311.91	151.11
1315.77	340.24
1319.62	1190.71
1323.48	4042.28
1327.34	11494.9
1331.19	42414.8
1335.05	6795
1338.91	1101.65
1342.77	407.355
1346.62	247.942
1350.48	215.914
1354.34	164.734
1358.19	103.995
1362.05	95.8345
1365.91	33.2529
1369.77	56.1548
1373.62	97.5371
1377.48	79.1572
1381.34	87.4268
1385.19	85.3726
1389.05	92.2749
1392.91	99.9023
1396.76	90.9868
1400.62	82.2529
1404.48	109.881
1408.33	49.2168
1412.19	53.2197
1416.05	8.46435
1419.9	46.8315
1423.76	31.4424
1427.62	27.5708
1431.48	25.2324
1435.33	33.9419
1439.19	61.2334
1443.05	37.127
1446.9	6.28174
1450.76	59.2632
1454.62	79.8462
1458.47	10.2207
1462.33	54.2275
1466.19	73.5928
1470.05	107.99
1473.9	91.1748
1477.76	61.4863
1481.62	103.255
1485.47	56.1807
1489.33	49.2666
1493.19	87.8008
1497.04	20.7578
