Measurement: Raman, 780 nm, unoriented, Raman Data Processed
Mineral: Diamond
Rruff sample: R150089
Ideal chemistry: C
Locality: unknown
Source: Michael Scott
Description: Faceted pale-yellow
Raman shift (cm-1)	intensity
76.8779	0
86.5203	70.4597
96.1626	961.26
105.805	1523.51
115.447	1767.06
125.09	1801.69
134.732	1714.82
144.374	1559.78
154.017	1353.69
163.659	1131.49
173.301	957.34
182.944	834.693
192.586	716.154
202.228	632.472
211.871	567.651
221.513	502.56
231.155	460.339
240.798	422.555
250.44	377.393
260.082	339.673
269.725	301.501
279.367	278.094
289.009	248.04
298.652	240.049
308.294	221.623
317.936	181.828
327.579	157.145
337.221	158.883
346.863	147.381
356.506	156.946
366.148	153.863
375.79	155.693
385.433	148.96
395.075	133.772
404.717	138.302
414.36	132.386
424.002	131.666
433.644	120.294
443.287	124.355
452.929	103.869
462.571	102.84
472.214	72.2405
481.856	50.8901
491.498	46.7078
501.141	11.5337
510.783	10.1352
520.425	14.8962
530.068	30.8706
539.71	33.7239
549.352	23.0664
558.995	31.689
568.637	21.0596
578.279	17.4385
587.922	20.9165
597.564	11.5283
607.206	0.006104
616.849	22.9123
626.491	36.074
636.133	52.7891
645.776	48.2827
655.418	60.2747
665.06	40.0234
674.703	48.5535
684.345	78.53
693.987	71.1863
703.63	62.3875
713.272	70.0132
722.914	57.9404
732.557	49.5781
742.199	57.7756
751.841	40.5056
761.484	42.8987
771.126	34.2966
780.768	33.533
790.411	19.4866
800.053	13.8384
809.695	15.7183
819.338	14.8127
828.98	13.8918
838.622	19.6592
848.265	15.926
857.907	27.5957
867.549	12.7769
877.192	15.5547
886.834	17.2461
896.476	13.5203
906.119	6.99268
915.761	2.40894
925.403	15.7378
935.046	6.55957
944.688	12.1731
954.33	21.9988
963.973	21.5969
973.615	31.572
983.257	19.7808
992.9	19.2793
1002.54	25.6099
1012.18	26.5681
1021.83	1.44897
1031.47	4.95557
1041.11	9.72168
1050.75	7.04248
1060.4	8.66602
1070.04	18.0378
1079.68	7.99463
1089.32	20.1316
1098.96	17.1841
1108.61	22.5408
1118.25	13.1211
1127.89	16.3608
1137.54	17.792
1147.18	20.0867
1156.82	33.4651
1166.46	17.8865
1176.1	31.834
1185.75	30.8821
1195.39	34.8254
1205.03	34.7632
1214.67	25.2822
1224.32	40.8425
1233.96	46.3933
1243.6	38.801
1253.24	40.4236
1262.88	58.166
1272.53	73.6995
1282.17	101.669
1291.81	211.381
1301.45	468.58
1311.1	2763.02
1320.74	5715.45
1330.38	31230.3
1340.02	32099.1
1349.67	7896.48
1359.31	1369.67
1368.95	354.823
1378.59	135.375
1388.23	76.8479
1397.88	56.2859
1407.52	47.1397
1417.16	43.9885
1426.81	48.1946
1436.45	29.9219
1446.09	36.7339
1455.73	28.3118
1465.37	31.2205
1475.02	16.1162
1484.66	5.70679
1494.3	4.09375
1503.94	4.45996
1513.59	4.77051
1523.23	10.3415
1532.87	8.38452
1542.51	6.47363
1552.15	12.8435
1561.8	30.6934
1571.44	25.1067
1581.08	32.8623
1590.72	40.6936
1600.37	33.596
1610.01	40.9832
1619.65	30.0283
1629.29	19.5373
1638.94	22.5518
1648.58	21.063
1658.22	20.5059
1667.86	10.1296
1677.51	6.33057
1687.15	4.48242
1696.79	1.76025
1706.43	2.76269
1716.08	3.97583
1725.72	3.82446
1735.36	3.10791
1745	20.4556
1754.64	34.8528
1764.29	59.1348
1773.93	81.1372
1783.57	99.3806
1793.21	112.562
1802.86	123.431
1812.5	123.062
1822.14	139.201
1831.78	176.925
1841.42	229.516
1851.07	238.376
1860.71	248.388
1870.35	187.667
1879.99	145.228
1889.64	91.1438
1899.28	43.333
1908.92	31.0422
1918.56	4.64062
1928.21	5.24536
1937.85	0.996094
1947.49	2.99731
1957.13	0.968506
1966.78	3.66577
1976.42	3.94531
1986.06	18.3286
1995.7	41.4221
2005.35	53.6699
2014.99	80.8569
2024.63	110.163
2034.27	151.397
2043.91	209.065
2053.56	262.359
2063.2	365.335
2072.84	503.906
2082.48	680.575
2092.13	898.787
2101.77	1090.23
2111.41	1123.87
2121.05	998.347
2130.7	770.276
2140.34	528.988
2149.98	359.019
2159.62	239.907
2169.26	165.922
2178.91	118.13
2188.55	77.8883
2198.19	51.7176
2207.83	22.5236
2217.48	12.9451
2227.12	2.95923
2236.76	3.17798
2246.4	4.74255
2256.05	16.5127
2265.69	2.21875
2275.33	8.33813
2284.97	3.1438
2294.61	6.17603
2304.26	6.63379
2313.9	6.71338
2323.54	11.1338
2333.18	8.6333
2342.83	18.934
2352.47	20.2841
2362.11	24.7632
2371.75	24.2375
2381.4	30.3358
2391.04	33.8442
2400.68	48.5188
2410.32	46.7685
2419.97	56.259
2429.61	57.1381
2439.25	73.1183
2448.89	90.068
2458.53	95.2382
2468.18	111.923
2477.82	118.198
2487.46	111.03
2497.1	109.438
2506.75	111.804
2516.39	97.7147
2526.03	87.2913
2535.67	75.3499
2545.32	63.3163
2554.96	61.8771
2564.6	56.0424
2574.24	47.25
2583.89	50.5659
2593.53	53.931
2603.17	50.2009
2612.81	57.0087
2622.45	51.8967
2632.1	61.7833
2641.74	50.4812
2651.38	46.5038
2661.02	38.5996
2670.67	46.0763
2680.31	24.727
2689.95	13.6485
2699.59	7.75513
2709.24	0.503967
2718.88	2.8847
2728.52	0.290955
2738.16	6.94525
2747.8	3.88306
2757.45	6.49341
2767.09	3.26788
2776.73	7.54022
2786.37	3.12329
2796.02	2.98142
2805.66	4.1116
2815.3	6.16046
2824.94	4.31046
2834.59	11.8401
2844.23	11.4031
2853.87	7.9805
2863.51	4.00928
2873.16	0.567169
2882.8	6.03717
2892.44	2.57245
2902.08	1.92624
2911.72	1.77048
2921.37	4.01236
2931.01	6.70645
2940.65	9.8038
2950.29	6.99271
2959.94	11.1444
2969.58	7.26308
2979.22	7.61038
2988.86	9.73721
2998.51	7.32108
3008.15	9.80263
3017.79	12.8915
3027.43	13.4683
3037.07	14.3351
3046.72	13.4738
3056.36	16.5467
3066	18.297
3075.64	20.4212
3085.29	23.1109
3094.93	22.6658
3104.57	22.2402
3114.21	17.808
3123.86	23.5389
3133.5	17.5187
3143.14	13.0282
3152.78	10.6147
3162.43	7.66532
3172.07	7.03433
3181.71	4.23045
3191.35	0.260765
3200.99	0.708824
3210.64	0.3591
3220.28	11.6901
3229.92	1.18933
3239.56	1.96378
3249.21	0.872025
3258.85	3.14367
3268.49	2.69757
3278.13	5.08631
3287.78	3.55418
3297.42	5.13069
3307.06	9.48545
3316.7	8.56912
3326.34	5.88395
3335.99	4.9629
3345.63	3.06905
3355.27	5.54752
3364.91	5.14309
3374.56	1.85075
3384.2	2.56247
3393.84	18.1935
3403.48	4.11766
3413.12	11.1531
3422.77	15.5194
3432.41	10.968
3442.05	3.64004
3451.7	0.247833
