Measurement: Raman, 532 nm, unoriented, Raman Data Processed
Mineral: Diamond
Rruff sample: R150088
Ideal chemistry: C
Locality: unknown
Source: Michael Scott
Description: Colorless faceted crystals
Raman shift (cm-1)	intensity
98.3997	0
109.971	5.17741
121.541	11.0178
133.112	10.2826
144.683	9.72257
156.254	11.0691
167.825	11.9775
179.395	12.5241
190.966	13.0558
202.537	14.3463
214.108	13.1013
225.679	12.2682
237.249	11.6263
248.82	7.64133
260.391	9.55411
271.962	8.28244
283.533	6.37759
295.103	6.75591
306.674	8.60213
318.245	8.04697
329.816	10.7745
341.387	12.4793
352.957	17.9936
364.528	14.7617
376.099	16.1447
387.67	14.0984
399.24	16.4797
410.811	15.6711
422.382	14.7183
433.953	10.0878
445.524	11.4041
457.094	11.6642
468.665	10.9877
480.236	11.9424
491.807	19.6626
503.378	6.52151
514.948	0.12986
526.519	1.70332
538.09	2.51927
549.661	2.11683
561.232	0.706978
572.803	1.34856
584.373	6.7478
595.944	0.035706
607.515	0.932907
619.086	1.16579
630.657	1.87733
642.227	2.05393
653.798	4.47935
665.369	4.72708
676.94	2.87874
688.51	3.30215
700.081	2.92675
711.652	2.31715
723.223	2.08279
734.794	6.14634
746.365	1.80284
757.935	3.23255
769.506	0.845047
781.077	3.61839
792.648	3.17983
804.218	4.05778
815.789	2.40867
827.36	3.33879
838.931	4.08224
850.502	3.02875
862.072	2.8028
873.643	1.11783
885.214	0.655846
896.785	1.20463
908.356	3.57566
919.927	1.27799
931.497	1.57308
943.068	0.06868
954.639	0.301208
966.21	0.515015
977.78	0.203949
989.351	1.61031
1000.92	0.032623
1012.49	1.26458
1024.06	3.10916
1035.63	4.1633
1047.2	3.42894
1058.78	4.99666
1070.35	3.52917
1081.92	3.77834
1093.49	6.62359
1105.06	5.78255
1116.63	9.40386
1128.2	9.61578
1139.77	13.0273
1151.34	14.4628
1162.91	13.216
1174.48	14.5967
1186.06	18.2568
1197.63	15.4871
1209.2	15.7651
1220.77	16.3681
1232.34	21.8609
1243.91	21.7913
1255.48	27.0183
1267.05	32.9581
1278.62	52.639
1290.19	147.707
1301.76	1879.01
1313.33	1748.33
1324.9	5239.8
1336.47	28676.5
1348.05	6000.19
1359.62	796.089
1371.19	137.057
1382.76	51.0148
1394.33	26.6099
1405.9	15.1766
1417.47	10.9653
1429.04	6.48364
1440.61	4.54628
1452.18	4.37975
1463.75	3.73204
1475.33	4.00172
1486.9	3.34534
1498.47	3.14413
1510.04	1.51656
1521.61	2.58732
1533.18	4.67707
1544.75	5.7831
1556.32	4.40196
1567.89	4.21433
1579.46	2.82172
1591.03	2.83596
1602.6	2.82399
1614.17	0.027702
1625.74	3.65801
1637.32	5.11034
1648.89	7.65577
1660.46	8.66836
1672.03	6.17255
1683.6	9.55366
1695.17	6.88195
1706.74	6.73445
1718.31	4.06727
1729.88	8.84155
1741.45	7.12798
1753.02	12.7678
1764.6	12.3554
1776.17	12.8777
1787.74	14.1426
1799.31	10.5037
1810.88	9.37697
1822.45	10.1993
1834.02	10.2834
1845.59	8.28183
1857.16	7.40975
1868.73	10.0276
1880.3	5.72163
1891.87	6.00888
1903.44	8.71161
1915.02	5.09575
1926.59	8.85692
1938.16	4.88292
1949.73	4.73496
1961.3	3.91982
1972.87	6.69379
1984.44	2.32138
1996.01	1.70393
2007.58	5.33027
2019.15	1.76846
2030.72	1.76051
2042.29	0.139862
2053.86	1.46338
2065.44	0.895859
2077.01	1.65956
2088.58	2.43521
2100.15	0.968765
2111.72	2.64484
2123.29	0.512756
2134.86	0.680878
2146.43	3.36844
2158	4.91212
2169.57	12.3602
2181.14	17.4635
2192.72	20.0757
2204.28	14.7589
2215.86	19.8317
2227.43	26.0213
2239	32.0073
2250.57	40.3178
2262.14	46.4196
2273.71	54.0207
2285.28	60.0379
2296.85	69.1989
2308.42	76.3183
2319.99	84.6575
2331.56	94.1829
2343.14	101.4
2354.71	99.706
2366.28	105.482
2377.85	105.25
2389.42	123.599
2400.99	132.509
2412.56	153.412
2424.13	178.911
2435.7	227.305
2447.27	260.373
2458.84	283.864
2470.41	274.352
2481.99	238.572
2493.55	222.305
2505.13	199.941
2516.7	174.047
2528.27	135.608
2539.84	114.36
2551.41	103.861
2562.98	101.372
2574.55	87.8391
2586.12	85.6505
2597.69	84.3591
2609.26	81.1094
2620.83	78.4006
2632.41	77.2126
2643.98	76.7292
2655.55	74.8436
2667.12	90.7063
2678.69	49.8697
2690.26	11.5556
2701.83	4.83704
2713.4	1.85297
2724.97	1.25426
2736.54	0.736656
2748.11	2.13809
2759.68	0.216423
2771.26	1.62662
2782.82	3.24319
2794.4	3.62865
2805.97	1.08962
2817.54	2.95703
2829.11	4.21844
2840.68	0.216446
2852.25	3.12048
2863.82	0.384972
2875.39	9.45784
2886.96	4.37967
2898.53	10.1724
2910.1	8.99281
2921.68	7.49377
2933.25	13.3935
2944.82	9.45422
2956.39	18.1416
2967.96	14.6578
2979.53	8.74832
2991.1	5.13698
3002.67	5.03966
3014.24	6.49183
3025.81	5.10677
3037.38	4.46586
3048.95	2.30484
3060.53	2.02641
3072.09	3.51039
3083.67	4.12587
3095.24	4.0197
3106.81	4.60591
3118.38	2.2428
3129.95	3.98423
3141.52	8.46523
3153.09	6.51936
3164.66	4.40592
3176.23	6.7934
3187.8	2.34214
3199.37	2.09757
3210.95	4.17805
3222.52	1.83156
3234.09	2.70678
3245.66	1.75279
3257.23	5.25604
3268.8	2.04146
3280.37	2.9196
3291.94	3.64967
3303.51	3.04083
3315.08	0.219749
3326.65	0.886375
3338.22	0.538887
3349.8	1.24273
3361.36	0.156876
3372.94	2.31738
3384.51	4.91172
3396.08	3.18857
3407.65	2.63048
3419.22	6.45132
3430.79	7.94949
3442.36	4.59199
3453.93	2.05023
3465.5	2.08913
3477.07	2.85199
3488.64	4.77653
3500.22	3.68326
3511.79	3.56755
3523.36	0.038589
3534.93	5.44223
3546.5	2.28632
3558.07	0.500626
3569.64	4.58894
3581.21	1.4864
3592.78	1.6393
3604.35	4.76585
3615.92	4.42618
3627.49	3.33777
3639.07	6.92206
3650.64	3.14818
3662.21	4.52623
3673.78	9.26691
3685.35	2.13669
3696.92	2.50642
3708.49	3.95529
3720.06	9.17311
3731.63	2.56895
3743.2	5.04619
3754.77	5.77306
3766.34	2.7226
3777.91	3.51683
3789.49	1.67087
3801.06	2.39442
3812.63	5.95245
3824.2	1.91939
3835.77	3.93179
3847.34	0.829681
3858.91	0.9785
3870.48	4.2162
3882.05	1.22958
3893.62	3.08112
3905.19	2.55798
3916.76	3.59882
3928.34	2.70935
3939.91	0.739609
3951.48	4.57243
3963.05	5.53674
3974.62	3.45723
3986.19	6.64598
3997.76	0.130569
4009.33	4.71713
4020.9	5.71629
4032.47	5.24921
4044.04	8.27974
4055.61	3.74924
4067.18	1.31294
4078.76	4.71614
4090.33	2.16766
4101.9	1.59364
4113.47	5.78122
4125.04	5.96201
4136.61	0.031616
4148.18	3.90424
4159.75	1.93425
4171.32	3.30933
4182.89	0.858185
4194.46	1.59286
4206.03	5.03218
4217.6	4.9547
4229.18	0.522781
4240.75	0.828201
