Measurement: Raman, 532 nm, unoriented, Raman Data Processed
Mineral: Diamond
Rruff sample: R150106
Ideal chemistry: C
Locality: Premier mine, Cullinan, Pretoria, Gauteng Province, South Africa
Source: Rock Currier
Description: Colorless triangle platy crystal (spinel twin).
Raman shift (cm-1)	intensity
115.756	0
127.327	40.3905
138.898	82.5215
150.468	149.389
162.039	231.101
173.61	305.831
185.181	305.592
196.751	270.286
208.322	252.551
219.893	219.521
231.464	193.817
243.035	164.278
254.606	158.634
266.176	159.584
277.747	139.664
289.318	116.776
300.889	109.959
312.459	100.484
324.03	88.749
335.601	93.6329
347.172	89.7825
358.743	65.6775
370.313	53.3466
381.884	39.6174
393.455	47.7506
405.026	43.6954
416.597	20.6547
428.168	1.90344
439.738	11.7432
451.309	9.71973
462.88	4.52698
474.451	1.3833
486.022	6.00098
497.592	4.97205
509.163	0.640503
520.734	4.35779
532.305	7.13867
543.875	2.17627
555.446	2.89563
567.017	8.92725
578.588	4.36231
590.159	8.75207
601.73	11.7861
613.3	9.89343
624.871	5.63525
636.442	10.0593
648.013	7.28638
659.583	5.28625
671.154	3.66736
682.725	11.7197
694.296	7.875
705.867	9.14331
717.438	6.78247
729.008	3.88818
740.579	0.226807
752.15	2.54321
763.721	2.78296
775.292	8.35889
786.862	2.26489
798.433	2.68726
810.004	0.022949
821.575	10.8086
833.145	25.8227
844.716	22.304
856.287	33.0994
867.858	39.2141
879.429	38.7415
891	40.0984
902.57	33.2156
914.141	39.2751
925.712	31.9123
937.283	27.3
948.854	41.8042
960.424	52.2707
971.995	54.2874
983.566	59.2754
995.137	54.178
1006.71	43.571
1018.28	45.5044
1029.85	47.0427
1041.42	45.9646
1052.99	37.5271
1064.56	35.1079
1076.13	40.3408
1087.7	40.8176
1099.27	20.021
1110.85	20.2722
1122.42	36.1885
1133.99	15.7178
1145.56	13.5476
1157.13	4.57593
1168.7	6.76294
1180.27	7.97754
1191.84	5.5769
1203.41	4.96826
1214.98	9.5564
1226.55	2.9104
1238.12	0.332764
1249.69	7.34644
1261.27	18.1025
1272.84	15.3648
1284.41	66.1397
1295.98	802.361
1307.55	2209.09
1319.12	3218.07
1330.69	16588.2
1342.26	17553.7
1353.83	3277.24
1365.4	445.312
1376.97	229.862
1388.54	217.004
1400.12	275.088
1411.69	333.723
1423.26	426.96
1434.83	525.268
1446.4	626.924
1457.97	672.565
1469.54	545.831
1481.11	389.514
1492.68	265.056
1504.25	196.62
1515.82	147.282
1527.39	117.698
1538.96	86.4841
1550.54	70.4937
1562.11	54.0952
1573.68	34.9155
1585.25	29.1052
1596.82	3.62378
1608.39	6.74097
1619.96	8.28076
1631.53	13.437
1643.1	8.81567
1654.67	12.1338
1666.24	12.8726
1677.81	24.8186
1689.38	40.5542
1700.96	41.7517
1712.53	22.5635
1724.1	40.4319
1735.67	23.1096
1747.24	16.0518
1758.81	34.3625
1770.38	27.5994
1781.95	32.1897
1793.52	23.2375
1805.09	10.0977
1816.66	6.24731
1828.23	14.9246
1839.81	4.46216
1851.38	6.2334
1862.95	7.67188
1874.52	21.8169
1886.09	5.92871
1897.66	0.083984
1909.23	7.48438
1920.8	2.76416
1932.37	8.46387
1943.94	16.8328
1955.51	5.58423
1967.08	11.4155
1978.65	33.6003
1990.23	47.075
2001.8	73.8816
2013.37	105.531
2024.94	132.056
2036.51	147.574
2048.08	161.946
2059.65	166.15
2071.22	182.564
2082.79	172.985
2094.36	155.578
2105.93	163.776
2117.5	144.723
2129.07	138.093
2140.65	146.026
2152.22	144.318
2163.79	139.991
2175.36	122.509
2186.93	119.348
2198.5	99.2915
2210.07	63.2808
2221.64	56.9937
2233.21	60.9863
2244.78	40.103
2256.35	26.2441
2267.93	26.8682
2279.5	20.6851
2291.07	12.7119
2302.64	4.76367
2314.21	8.54834
2325.78	0.266113
2337.35	16.5825
2348.92	4.24951
2360.49	8.29199
2372.06	2.90723
2383.63	12.8477
2395.2	55.7773
2406.77	90.0713
2418.34	124.148
2429.92	194.161
2441.49	243.295
2453.06	311.292
2464.63	406.435
2476.2	443.269
2487.77	450.377
2499.34	448.174
2510.91	392.157
2522.48	294.554
2534.05	222.19
2545.62	180.32
2557.2	160.809
2568.77	158.48
2580.34	160.457
2591.91	167.575
2603.48	155.347
2615.05	163.113
2626.62	164.558
2638.19	188.135
2649.76	173.93
2661.33	183.882
2672.9	168.479
2684.47	97.895
2696.04	75.1348
2707.61	97.2686
2719.19	60.8682
2730.76	61.5703
2742.33	64.603
2753.9	41.8389
2765.47	44.3501
2777.04	63.0591
2788.61	40.3472
2800.18	13.8833
2811.75	16.8364
2823.32	10.9409
2834.89	9.31982
2846.47	21.541
2858.04	16.1352
2869.61	1.76367
2881.18	5.48389
2892.75	17.7231
2904.32	23.4639
2915.89	16.7314
2927.46	18.041
2939.03	40.7632
2950.6	42.0796
2962.17	81.2466
2973.74	108.1
2985.31	157.277
2996.89	188.852
3008.46	222.125
3020.03	292.769
3031.6	368.583
3043.17	463.416
3054.74	536.369
3066.31	639.097
3077.88	742.264
3089.45	810.413
3101.02	893.148
3112.59	933.351
3124.16	919.764
3135.74	861.622
3147.31	753.722
3158.88	605.882
3170.45	519.664
3182.02	458.651
3193.59	412.12
3205.16	351.188
3216.73	280.815
3228.3	259.812
3239.87	171.708
3251.44	150.717
3263.01	100.43
3274.58	70.4326
3286.16	28.3828
3297.73	0.113281
3309.3	3.24707
3320.87	24.7871
3332.44	11.8281
3344.01	27.3613
3355.58	12.8027
3367.15	48.0557
3378.72	39.7236
3390.29	41.0469
3401.86	83.4102
3413.43	143.504
3425.01	185.284
3436.58	225.94
3448.15	274.211
3459.72	279.802
3471.29	321.475
3482.86	358.791
3494.43	441.393
3506	467.557
3517.57	552.617
3529.14	611.479
3540.71	692.271
3552.28	735.979
3563.85	779.627
3575.43	839.989
3587	867.816
3598.57	915.558
3610.14	921.102
3621.71	901.127
3633.28	943.598
3644.85	913.079
3656.42	897.938
3667.99	865.054
3679.56	803.587
3691.13	757.917
3702.7	671.779
3714.28	644.052
3725.85	523.792
3737.42	485.017
3748.99	394.132
3760.56	335.743
3772.13	268.378
3783.7	230.873
3795.27	166.683
3806.84	107.939
3818.41	117.618
3829.98	0.092773
3841.55	25.6416
3853.12	49.0605
3864.7	29.7998
3876.27	5.46094
3887.84	22.3633
3899.41	28.4453
3910.98	75.5869
3922.55	130.128
3934.12	115.176
3945.69	141.239
3957.26	223.173
3968.83	292.318
3980.4	331.22
3991.97	326.503
4003.55	376.857
4015.12	406.6
4026.69	451.231
4038.26	456.233
4049.83	478.502
4061.4	457.17
4072.97	510.393
4084.54	486.656
4096.11	470.644
4107.68	440.965
4119.25	401.684
4130.82	415.725
4142.4	384.752
4153.97	376.697
4165.54	343.844
4177.11	307.414
4188.68	283.603
4200.25	184.201
4211.82	77.3809
4223.39	83.7832
4234.96	9.87109
