Measurement: Raman, 780 nm, unoriented, Raman Data Processed
Mineral: Diamond
Rruff sample: X080011
Ideal chemistry: C
Locality: Synthetic
Source: Gemological Institute of America
Description: Faceted yellow gemstone, 0.19 ct
Raman shift (cm-1)	intensity
93.7832	0
97.6401	5.28519
101.497	11.4422
105.354	4.342
109.211	10.9421
113.068	5.32782
116.925	15.838
120.782	5.39398
124.639	10.8902
128.496	13.3862
132.352	18.3469
136.209	11.4476
140.066	0.393761
143.923	5.2558
147.78	8.56519
151.637	11.2339
155.494	7.30943
159.351	12.5076
163.208	9.84985
167.065	9.42443
170.922	9.74954
174.779	9.81944
178.636	17.1373
182.493	20.2104
186.35	2.08085
190.207	5.27419
194.064	9.93096
197.92	14.2578
201.777	10.324
205.634	14.6296
209.491	9.01901
213.348	0.238226
217.205	8.80625
221.062	8.75671
224.919	7.82052
228.776	5.84204
232.633	15.3222
236.49	10.9493
240.347	7.11952
244.204	17.1915
248.061	20.2813
251.917	16.4231
255.774	3.83413
259.631	14.2932
263.488	19.2528
267.345	8.29289
271.202	3.80188
275.059	15.7421
278.916	14.0915
282.773	7.55091
286.63	5.75431
290.487	11.1415
294.344	1.08369
298.201	2.60141
302.058	17.0441
305.915	12.6431
309.772	11.5714
313.628	15.6886
317.485	15.2721
321.342	8.3064
325.199	7.88538
329.056	8.07632
332.913	12.1903
336.77	3.38503
340.627	15.7827
344.484	4.56262
348.341	4.49938
352.198	2.87129
356.055	14.6962
359.912	3.00522
363.769	12.585
367.625	10.5057
371.483	7.79459
375.339	3.2595
379.196	6.10075
383.053	3.75504
386.91	5.32337
390.767	10.1256
394.624	15.8149
398.481	11.1448
402.338	11.3038
406.195	8.60778
410.052	10.5502
413.909	6.6779
417.766	1.01785
421.623	1.50419
425.48	0.705025
429.337	1.49536
433.193	14.1319
437.05	9.20889
440.907	13.966
444.764	6.62932
448.621	18.7937
452.478	11.4826
456.335	5.76947
460.192	12.3633
464.049	8.33594
467.906	12.3317
471.763	10.8827
475.62	19.2318
479.477	5.05981
483.334	3.86201
487.19	9.31201
491.047	3.36244
494.904	6.90663
498.761	10.8224
502.618	13.7207
506.475	11.9553
510.332	8.94161
514.189	2.32979
518.046	14.223
521.903	1.17508
525.76	15.8761
529.617	11.9926
533.474	7.73128
537.331	1.16943
541.188	9.67898
545.044	3.19289
548.901	8.78212
552.758	8.97302
556.615	5.37289
560.472	11.084
564.329	7.02231
568.186	10.5322
572.043	4.06807
575.9	12.6776
579.757	6.89283
583.614	16.2572
587.471	8.01525
591.328	0.95743
595.185	4.37599
599.042	12.2731
602.899	4.70017
606.755	3.91843
610.612	10.9013
614.469	6.01896
618.326	5.77392
622.183	2.1755
626.04	13.9659
629.897	13.199
633.754	9.06556
637.611	8.18805
641.468	1.83533
645.325	18.9922
649.182	7.84472
653.039	11.2982
656.896	1.07303
660.753	4.68787
664.61	8.35861
668.466	13.0986
672.323	11.2646
676.18	11.6626
680.037	7.11439
683.894	2.19098
687.751	9.63698
691.608	9.79264
695.465	9.20538
699.322	1.45032
703.179	9.37321
707.036	12.5226
710.893	15.2915
714.75	11.9172
718.607	6.30761
722.463	8.62036
726.32	3.95813
730.177	4.59476
734.034	8.47927
737.891	16.8735
741.748	9.41053
745.605	6.04555
749.462	9.61454
753.319	5.16261
757.176	0.846946
761.033	15.382
764.89	10.3675
768.747	13.801
772.604	4.62678
776.461	14.6828
780.317	11.9455
784.174	7.11113
788.031	13.0209
791.888	15.4912
795.745	10.0084
799.602	12.4137
803.459	8.79404
807.316	4.20473
811.173	1.95123
815.03	7.27667
818.887	3.8112
822.744	6.94281
826.601	0.330901
830.458	2.76995
834.315	4.5652
838.172	1.75901
842.028	4.28067
845.885	12.4821
849.742	8.47122
853.599	1.76604
857.456	15.0938
861.313	8.06027
865.17	0.837556
869.027	6.03056
872.884	9.7903
876.741	4.4059
880.598	7.28849
884.455	4.85609
888.312	2.73936
892.169	7.82528
896.025	3.98086
899.882	4.88063
903.739	6.7779
907.596	5.99602
911.453	6.32631
915.31	6.17542
919.167	2.44278
923.024	5.46351
926.881	7.76976
930.738	7.04594
934.595	3.00734
938.452	10.4456
942.309	6.94616
946.166	7.10715
950.023	2.35107
953.88	5.04822
957.736	7.97796
961.593	7.16779
965.45	11.6831
969.307	2.67332
973.164	0.623212
977.021	4.25369
980.878	6.01114
984.735	3.9575
988.592	9.74104
992.449	3.26807
996.306	13.8213
1000.16	10.9092
1004.02	3.30291
1007.88	4.93805
1011.73	6.92572
1015.59	7.91513
1019.45	4.35453
1023.3	10.9127
1027.16	3.53475
1031.02	0.187354
1034.88	6.65214
1038.73	4.56546
1042.59	2.32734
1046.45	8.18703
1050.3	9.06785
1054.16	8.43706
1058.02	1.5412
1061.87	4.98039
1065.73	8.14379
1069.59	2.70701
1073.44	7.64998
1077.3	10.6643
1081.16	3.70428
1085.02	5.6959
1088.87	1.2942
1092.73	14.5765
1096.59	11.7871
1100.44	11.2927
1104.3	10.09
1108.16	5.47117
1112.01	3.92389
1115.87	3.99157
1119.73	9.27162
1123.59	7.37709
1127.44	10.2144
1131.3	8.47007
1135.16	10.2915
1139.01	7.09221
1142.87	2.14619
1146.73	9.5455
1150.58	12.6699
1154.44	10.1843
1158.3	6.2763
1162.15	8.75859
1166.01	11.865
1169.87	14.0475
1173.72	7.30377
1177.58	14.5225
1181.44	13.3631
1185.3	6.95326
1189.15	12.8444
1193.01	9.13148
1196.87	2.68554
1200.72	8.45147
1204.58	4.08112
1208.44	8.14757
1212.29	12.8112
1216.15	11.5641
1220.01	1.04802
1223.87	7.56827
1227.72	4.05969
1231.58	8.09927
1235.44	2.26423
1239.29	13.1518
1243.15	7.55377
1247.01	3.77077
1250.86	2.80104
1254.72	3.71086
1258.58	0.803474
1262.43	3.59282
1266.29	12.1721
1270.15	11.0568
1274.01	2.32666
1277.86	15.6684
1281.72	5.85852
1285.58	21.878
1289.43	21.7533
1293.29	43.5818
1297.15	42.7154
1301	57.4027
1304.86	78.1539
1308.72	128.474
1312.57	208.137
1316.43	497.672
1320.29	2192.37
1324.14	3258.83
1328	6923.91
1331.86	30840.2
1335.72	9572.85
1339.57	1114.36
1343.43	421.027
1347.29	233.762
1351.14	116.39
1355	77.0525
1358.86	48.6379
1362.71	40.3976
1366.57	33.7089
1370.43	28.2729
1374.29	18.6883
1378.14	15.2814
1382	8.98157
1385.86	10.0509
1389.71	0.778725
1393.57	7.71381
1397.43	0.070545
1401.28	2.09262
1405.14	3.30411
1409	1.11195
1412.86	1.90184
1416.71	1.264
1420.57	1.03953
1424.43	5.43105
1428.28	14.4898
1432.14	13.7555
1436	3.09581
1439.85	7.9169
1443.71	15.9176
1447.57	22.0244
1451.42	10.9321
1455.28	8.22891
1459.14	5.03174
1462.99	4.30614
1466.85	15.8359
1470.71	14.3032
1474.57	8.41501
1478.42	9.68551
1482.28	14.7474
1486.14	16.3416
1489.99	16.7163
1493.85	10.092
1497.71	13.0679
