Measurement: Raman, 780 nm, unoriented, Raman Data Processed
Mineral: Diamond
Rruff sample: R150108
Ideal chemistry: C
Locality: Bushimaie River, Belgian Congo
Source: Rock Currier
Description: Tan modified-octahedral crystal
Raman shift (cm-1)	intensity
88.4487	0
98.0911	26.1853
107.733	29.6968
117.376	20.3592
127.018	14.5661
136.66	8.10925
146.303	2.95279
155.945	3.91672
165.587	4.40015
175.23	8.21338
184.872	14.0935
194.514	19.2443
204.157	24.4215
213.799	34.9611
223.441	42.5182
233.084	39.7152
242.726	46.5496
252.368	39.6191
262.011	35.8301
271.653	31.2348
281.295	21.6647
290.938	15.6378
300.58	9.17468
310.222	9.1282
319.865	6.46024
329.507	1.71262
339.149	0.05307
348.792	2.06885
358.434	5.23053
368.076	1.47491
377.719	0.74704
387.361	0.037231
397.003	0.187531
406.646	5.67432
416.288	1.15265
425.93	4.17297
435.573	0.315491
445.215	1.53235
454.857	7.75235
464.5	6.70377
474.142	5.82962
483.784	12.2387
493.427	10.8469
503.069	12.0432
512.711	8.86832
522.354	9.59915
531.996	10.3122
541.638	11.0153
551.281	9.6207
560.923	11.9623
570.565	13.5297
580.208	10.3275
589.85	14.3489
599.492	12.2095
609.135	14.4939
618.777	14.2837
628.419	15.8878
638.062	13.5536
647.704	12.6979
657.346	16.8909
666.989	14.3054
676.631	11.4188
686.273	13.949
695.916	11.618
705.558	13.3447
715.2	14.0449
724.843	13.742
734.485	15.4821
744.127	17.7262
753.77	14.5619
763.412	17.4756
773.054	16.484
782.697	16.161
792.339	16.0464
801.981	17.3432
811.624	14.2511
821.266	23.4013
830.908	16.7364
840.551	14.7888
850.193	15.4478
859.835	18.7468
869.478	17.1457
879.12	16.6334
888.763	12.9447
898.405	11.0968
908.047	5.80646
917.689	7.87448
927.332	14.5813
936.974	6.53702
946.616	9.23773
956.259	3.64258
965.901	3.1777
975.543	4.71643
985.186	4.44266
994.828	2.38934
1004.47	4.12018
1014.11	5.41336
1023.75	2.57352
1033.4	2.44052
1043.04	1.70062
1052.68	3.19293
1062.32	2.54211
1071.97	1.88898
1081.61	2.59415
1091.25	1.49475
1100.89	2.46304
1110.54	2.70206
1120.18	1.33194
1129.82	2.11005
1139.46	3.33264
1149.11	2.67862
1158.75	0.462372
1168.39	1.37756
1178.03	0.198456
1187.67	5.48639
1197.32	2.06519
1206.96	7.37885
1216.6	3.83014
1226.24	3.9805
1235.89	6.23578
1245.53	3.71506
1255.17	1.18207
1264.81	4.27396
1274.46	6.32996
1284.1	17.8134
1293.74	21.09
1303.38	48.292
1313.03	315.748
1322.67	565.687
1332.31	2083.48
1341.95	2214.51
1351.59	569.287
1361.24	111.127
1370.88	30.1222
1380.52	10.926
1390.16	4.8074
1399.81	1.20395
1409.45	3.61157
1419.09	8.35498
1428.73	4.73276
1438.38	2.50562
1448.02	5.34659
1457.66	7.23697
1467.3	5.32636
1476.94	2.6644
1486.59	7.96237
1496.23	2.83737
1505.87	4.99042
1515.51	3.87692
1525.16	7.88269
1534.8	2.40198
1544.44	2.53888
1554.08	4.76971
1563.73	3.92215
1573.37	1.1138
1583.01	3.74149
1592.65	4.30743
1602.3	4.5545
1611.94	5.68665
1621.58	0.150391
1631.22	0.645294
1640.87	0.653259
1650.51	4.27527
1660.15	4.11728
1669.79	0.429352
1679.43	0.158508
1689.08	4.47775
1698.72	5.2858
1708.36	0.901642
1718	4.92236
1727.65	4.48669
1737.29	5.42276
1746.93	3.54001
1756.57	2.78903
1766.21	1.04791
1775.86	7.94641
1785.5	2.8779
1795.14	3.77917
1804.78	8.9696
1814.43	6.05475
1824.07	7.60846
1833.71	8.11527
1843.35	2.94318
1853	3.50183
1862.64	5.89404
1872.28	3.95212
1881.92	7.87763
1891.57	0.753845
1901.21	2.65829
1910.85	3.86417
1920.49	2.63654
1930.13	1.11877
1939.78	5.0221
1949.42	2.80072
1959.06	0.296753
1968.7	2.21139
1978.35	6.45224
1987.99	7.86273
1997.63	3.36682
2007.27	10.6499
2016.92	11.8744
2026.56	13.1104
2036.2	13.1614
2045.84	15.0962
2055.49	19.8161
2065.13	14.382
2074.77	10.5214
2084.41	8.78044
2094.05	11.6632
2103.7	3.75093
2113.34	1.58023
2122.98	6.20927
2132.62	5.97601
2142.27	2.59402
2151.91	3.03238
2161.55	0.181183
2171.19	2.29596
2180.84	1.73909
2190.48	1.55568
2200.12	0.472382
2209.76	0.159714
2219.41	1.61473
2229.05	0.981003
2238.69	2.02655
2248.33	1.03201
2257.97	2.99968
2267.62	4.95975
2277.26	2.80948
2286.9	4.21851
2296.54	6.60808
2306.19	9.88136
2315.83	10.6194
2325.47	6.24065
2335.11	3.68527
2344.76	4.76793
2354.4	9.57742
2364.04	7.28024
2373.68	3.07964
2383.32	3.71201
2392.97	6.66469
2402.61	2.86643
2412.25	2.8197
2421.89	9.58989
2431.54	5.70717
2441.18	3.90772
2450.82	4.72975
2460.46	4.42191
2470.11	5.99435
2479.75	6.71673
2489.39	7.26154
2499.03	6.80398
2508.68	6.79472
2518.32	0.936874
2527.96	2.70883
2537.6	0.034737
2547.24	3.22827
2556.89	5.80085
2566.53	7.49569
2576.17	1.15874
2585.81	6.20283
2595.46	5.10967
2605.1	2.83844
2614.74	3.20458
2624.38	2.71132
2634.03	3.33881
2643.67	4.40588
2653.31	4.14904
2662.95	3.36504
2672.59	0.890884
2682.24	2.26289
2691.88	3.09838
2701.52	1.55291
2711.16	0.181229
2720.81	0.311325
2730.45	0.744816
2740.09	3.35237
2749.73	4.29872
2759.38	2.97644
2769.02	2.76364
2778.66	3.20263
2788.3	2.91759
2797.95	1.43912
2807.59	1.31438
2817.23	1.17595
2826.87	3.21688
2836.51	4.26898
2846.16	5.56279
2855.8	2.50553
2865.44	1.26366
2875.08	3.84161
2884.73	1.53917
2894.37	0.659752
2904.01	1.46646
2913.65	3.77889
2923.3	2.77775
2932.94	4.38863
2942.58	2.48869
2952.22	8.36714
2961.86	3.12543
2971.51	1.54309
2981.15	3.15879
2990.79	2.89334
3000.43	3.91634
3010.08	1.97367
3019.72	5.65469
3029.36	5.05989
3039	5.73617
3048.64	0.752024
3058.29	4.15618
3067.93	3.83063
3077.57	2.61212
3087.22	1.45594
3096.86	3.63193
3106.5	1.0022
3116.14	4.43751
3125.78	0.341074
3135.43	1.71443
3145.07	1.2446
3154.71	3.34226
3164.35	3.41352
3174	3.60242
3183.64	4.99942
3193.28	4.42233
3202.92	1.1742
3212.57	4.48752
3222.21	2.34734
3231.85	4.70585
3241.49	3.29798
3251.13	4.87369
3260.78	6.15518
3270.42	3.46021
3280.06	5.00311
3289.7	4.44537
3299.35	6.44135
3308.99	4.18991
3318.63	0.20288
3328.27	4.50047
3337.91	3.92974
3347.56	5.23454
3357.2	2.53508
3366.84	4.02843
3376.49	1.32779
3386.13	3.91245
3395.77	3.32192
3405.41	3.92396
3415.05	7.46661
3424.7	7.73629
3434.34	3.23025
3443.98	1.42471
3453.62	0.433873
