Measurement: Raman, 780 nm, unoriented, Raman Data Processed
Mineral: Diamond
Rruff sample: R050207
Ideal chemistry: C
Locality: Unknown
Source: Eric Van Valkenburg
Description: Single crystal,  type I
Raman shift (cm-1)	intensity
150.673	0
154.048	10.6537
157.423	0.987793
160.797	31.3107
164.172	31.4482
167.547	45.7457
170.922	19.2118
174.297	35.7293
177.672	20.8182
181.046	15.9867
184.421	38.037
187.796	29.3051
191.171	15.1908
194.546	34.6833
197.92	14.447
201.295	34.4137
204.67	20.398
208.045	22.6044
211.42	9.67004
214.794	25.8615
218.169	16.7335
221.544	21.4685
224.919	28.7926
228.294	33.0548
231.669	55.7842
235.043	27.4236
238.418	28.717
241.793	41.9128
245.168	48.0763
248.543	35.7542
251.917	40.5692
255.292	40.3573
258.667	52.5582
262.042	33.8108
265.417	25.5466
268.792	17.5105
272.166	28.043
275.541	3.82263
278.916	18.7017
282.291	12.2926
285.666	3.34387
289.041	26.1389
292.415	9.51929
295.79	5.48096
299.165	7.60217
302.54	30.3834
305.915	12.4905
309.289	48.8485
312.664	0.348755
316.039	1.04968
319.414	16.276
322.789	27.7261
326.163	0.365234
329.538	13.931
332.913	35.6964
336.288	11.9025
339.663	4.75195
343.038	16.1403
346.412	26.8253
349.787	22.9729
353.162	4.07043
356.537	21.6508
359.912	30.2875
363.286	27.963
366.661	16.3254
370.036	50.4616
373.411	31.7296
376.786	55.8543
380.161	34.4454
383.535	45.2798
386.91	40.3068
390.285	50.7052
393.66	19.0265
397.035	16.0725
400.409	42.1195
403.784	46.0324
407.159	31.3562
410.534	37.7007
413.909	11.6968
417.284	33.1816
420.658	31.9468
424.033	48.7849
427.408	40.3268
430.783	27.3793
434.158	68.4591
437.533	45.6829
440.907	31.2669
444.282	52.3243
447.657	61.1754
451.032	36.2978
454.407	73.0078
457.781	54.9247
461.156	25.524
464.531	40.6703
467.906	24.2112
471.281	29.4646
474.656	42.8241
478.03	2.3855
481.405	43.4493
484.78	35.7997
488.155	44.4099
491.529	15.7079
494.904	51.8735
498.279	13.0726
501.654	23.1345
505.029	16.2155
508.404	10.6065
511.779	16.7886
515.153	24.016
518.528	28.9219
521.903	2.78247
525.278	14.7977
528.653	8.53638
532.027	40.8094
535.402	0.203979
538.777	14.4628
542.152	23.7008
545.527	3.89929
548.901	0.305542
552.276	29.261
555.651	10.2965
559.026	22.4957
562.401	22.7881
565.775	4.21997
569.15	36.1118
572.525	9.40271
575.9	12.6588
579.275	0.789795
582.65	7.06946
586.024	19.3988
589.399	17.2174
592.774	14.0588
596.149	29.9833
599.524	28.4954
602.899	14.3241
606.273	39.2963
609.648	40.2654
613.023	27.7888
616.398	18.5925
619.773	37.2685
623.148	10.1406
626.522	36.7289
629.897	17.5701
633.272	24.892
636.647	23.1743
640.021	29.1849
643.396	44.2253
646.771	37.8696
650.146	22.3225
653.521	25.8889
656.896	5.24304
660.27	21.0135
663.645	17.0974
667.02	41.4003
670.395	55.0532
673.77	10.9456
677.144	49.2937
680.519	24.9171
683.894	20.5429
687.269	46.3998
690.644	28.5873
694.019	13.506
697.393	30.6553
700.768	15.733
704.143	38.1554
707.518	23.5271
710.893	47.7225
714.268	39.7657
717.642	27.0028
721.017	40.4818
724.392	24.3702
727.767	14.0708
731.142	25.6012
734.516	65.0554
737.891	39.6699
741.266	24.0154
744.641	6.18579
748.016	19.6307
751.39	26.2655
754.765	7.69336
758.14	6.90002
761.515	11.5124
764.89	21.1804
768.265	3.27905
771.639	14.0641
775.014	10.5706
778.389	17.7313
781.764	29.8265
785.139	3.29773
788.514	42.8015
791.888	14.3462
795.263	1.25317
798.638	18.4401
802.013	8.14331
805.388	28.3462
808.762	22.5845
812.137	15.6899
815.512	49.442
818.887	27.7927
822.262	6.06128
825.636	21.2826
829.011	27.2245
832.386	42.2615
835.761	10.2383
839.136	9.76782
842.511	54.2931
845.885	5.96387
849.26	33.7371
852.635	23.3599
856.01	15.3689
859.385	40.8655
862.76	39.1702
866.134	24.9451
869.509	18.8752
872.884	37.0553
876.259	11.8552
879.634	2.14417
883.008	19.0699
886.383	16.8004
889.758	16.4648
893.133	24.2776
896.508	12.2395
899.882	13.8622
903.257	9.17053
906.632	8.95276
910.007	25.91
913.382	0.354858
916.757	10.5525
920.131	34.014
923.506	17.317
926.881	39.1609
930.256	29.369
933.631	14.9923
937.005	4.8894
940.38	15.8901
943.755	29.0438
947.13	10.3632
950.505	5.6543
953.88	18.892
957.254	11.0566
960.629	41.465
964.004	15.5973
967.379	20.1725
970.754	24.059
974.129	20.7278
977.503	8.41382
980.878	16.6422
984.253	46.9956
987.628	34.5875
991.003	36.3191
994.377	8.73059
997.752	14.8008
1001.13	24.1797
1004.5	18.5508
1007.88	16.0104
1011.25	12.4239
1014.63	19.9041
1018	29.6574
1021.38	37.4211
1024.75	20.7815
1028.12	5.83752
1031.5	20.4829
1034.88	33.6401
1038.25	8.08374
1041.62	37.4431
1045	11.2382
1048.37	29.0356
1051.75	8.43127
1055.12	15.9718
1058.5	19.3934
1061.87	12.1019
1065.25	10.0652
1068.62	15.345
1072	10.6111
1075.37	12.5494
1078.75	26.8588
1082.12	33.9374
1085.5	18.5685
1088.87	4.38208
1092.25	24.2462
1095.62	10.2351
1099	32.0154
1102.37	52.2472
1105.75	23.5949
1109.12	18.1946
1112.5	16.2273
1115.87	33.7826
1119.25	3.06445
1122.62	12.5465
1125.99	0.293213
1129.37	0.838013
1132.74	29.1971
1136.12	25.8097
1139.49	13.4235
1142.87	15.397
1146.24	4.26807
1149.62	15.903
1152.99	5.62781
1156.37	35.6101
1159.74	21.3176
1163.12	10.2858
1166.49	18.6686
1169.87	27.3613
1173.24	25.5945
1176.62	8.88818
1179.99	30.4222
1183.37	33.6283
1186.74	35.6338
1190.12	15.1188
1193.49	34.9477
1196.87	24.7278
1200.24	19.7358
1203.62	34.2433
1206.99	57.072
1210.37	19.0485
1213.74	9.52624
1217.12	52.8882
1220.49	43.4145
1223.87	21.5865
1227.24	16.2664
1230.62	38.7161
1233.99	15.1389
1237.36	13.2568
1240.74	31.3961
1244.11	29.0779
1247.49	21.8579
1250.86	15.0239
1254.24	37.0446
1257.61	19.6765
1260.99	17.1959
1264.36	2.33154
1267.74	2.41406
1271.11	14.8961
1274.49	15.7932
1277.86	17.5636
1281.24	44.0021
1284.61	30.4751
1287.99	31.7488
1291.36	21.5145
1294.74	30.458
1298.11	76.397
1301.49	41.1043
1304.86	79.2892
1308.23	110.922
1311.61	138.55
1314.98	269.669
1318.36	756.7
1321.73	1441.65
1325.11	2347.14
1328.48	5195.76
1331.86	16158.5
1335.23	8759.27
1338.61	1426.06
1341.98	496.512
1345.36	222.38
1348.73	154.802
1352.11	70.213
1355.48	66.0093
1358.86	45.6614
1362.23	40.9534
1365.61	28.4667
1368.98	7.48731
1372.36	13.3461
1375.73	25.9355
1379.11	18.8936
1382.48	4.80505
1385.86	22.8919
1389.23	3.95898
1392.61	28.7239
1395.98	4.77612
1399.36	35.0211
1402.73	0.558472
1406.11	17.7672
1409.48	3.65796
1412.86	20.0995
1416.23	18.5267
1419.6	26.8793
1422.98	17.1703
1426.35	44.2056
1429.73	23.0362
1433.1	54.3148
1436.48	15.61
1439.85	22.2467
1443.23	45.1514
1446.6	34.5076
1449.98	22.1001
1453.35	11.0563
1456.73	51.5804
1460.1	9.61108
1463.48	10.6862
1466.85	30.2063
1470.23	21.53
1473.6	7.56079
1476.98	41.5188
1480.35	3.82263
1483.73	18.5636
1487.1	1.53027
1490.48	54.1038
1493.85	17.4048
1497.22	18.0048
