Measurement: Raman, 532 nm, unoriented, Raman Data Processed
Mineral: Diamond
Rruff sample: R150108
Ideal chemistry: C
Locality: Bushimaie River, Belgian Congo
Source: Rock Currier
Description: Tan modified-octahedral crystal
Raman shift (cm-1)	intensity
98.3997	0
109.971	19.3833
121.541	15.0994
133.112	9.51607
144.683	13.3167
156.254	17.2705
167.825	16.5842
179.395	24.8239
190.966	22.0282
202.537	16.4652
214.108	18.6492
225.679	15.3352
237.249	12.8042
248.82	11.3158
260.391	9.33037
271.962	8.69315
283.533	6.07019
295.103	6.73726
306.674	11.6635
318.245	16.7405
329.816	22.7203
341.387	26.6131
352.957	39.3734
364.528	36.0256
376.099	34.2438
387.67	31.1657
399.24	29.6715
410.811	32.8039
422.382	30.4032
433.953	24.8503
445.524	26.3704
457.094	21.9803
468.665	22.7656
480.236	27.3129
491.807	36.8524
503.378	12.5096
514.948	1.97879
526.519	1.95145
538.09	3.52695
549.661	2.78467
561.232	4.45645
572.803	2.42245
584.373	0.988678
595.944	1.88946
607.515	3.93329
619.086	1.93573
630.657	1.49979
642.227	2.88062
653.798	2.36481
665.369	5.11926
676.94	7.25934
688.51	12.4601
700.081	5.58859
711.652	9.95651
723.223	6.48318
734.794	8.5043
746.365	10.1783
757.935	7.93903
769.506	8.77194
781.077	7.57831
792.648	6.53412
804.218	2.496
815.789	5.93808
827.36	6.3765
838.931	8.80997
850.502	8.81577
862.072	7.13229
873.643	10.471
885.214	4.01321
896.785	1.68167
908.356	1.33792
919.927	1.52414
931.497	2.28531
943.068	3.47156
954.639	5.54025
966.21	3.17841
977.78	6.51428
989.351	3.08505
1000.92	5.42127
1012.49	9.83929
1024.06	1.32925
1035.63	2.47803
1047.2	8.00116
1058.78	3.57858
1070.35	8.8085
1081.92	3.36652
1093.49	1.42377
1105.06	2.90183
1116.63	5.80154
1128.2	1.44229
1139.77	5.25784
1151.34	1.24588
1162.91	3.40057
1174.48	2.69504
1186.06	1.56305
1197.63	7.08124
1209.2	10.4572
1220.77	10.5145
1232.34	10.2262
1243.91	13.4889
1255.48	16.0873
1267.05	21.265
1278.62	24.509
1290.19	68.9296
1301.76	481.844
1313.33	518.494
1324.9	1858.3
1336.47	9076.52
1348.05	1602.99
1359.62	226.718
1371.19	48.5009
1382.76	13.6677
1394.33	5.19428
1405.9	2.97604
1417.47	0.684692
1429.04	2.75995
1440.61	3.30603
1452.18	1.21094
1463.75	2.40601
1475.33	2.77368
1486.9	0.203979
1498.47	0.406738
1510.04	0.850647
1521.61	1.76044
1533.18	9.97467
1544.75	10.8909
1556.32	8.78583
1567.89	10.8738
1579.46	5.87427
1591.03	6.49811
1602.6	10.2076
1614.17	8.08942
1625.74	7.30487
1637.32	10.0866
1648.89	8.26349
1660.46	16.0162
1672.03	19.6504
1683.6	18.819
1695.17	12.9984
1706.74	11.5223
1718.31	12.5279
1729.88	17.2408
1741.45	10.2918
1753.02	11.864
1764.6	19.4742
1776.17	24.4175
1787.74	19.8264
1799.31	17.4371
1810.88	13.1362
1822.45	11.5053
1834.02	15.4095
1845.59	14.6578
1857.16	6.31238
1868.73	11.583
1880.3	6.46503
1891.87	13.3215
1903.44	8.76587
1915.02	8.32117
1926.59	13.4252
1938.16	11.1209
1949.73	11.6805
1961.3	1.85718
1972.87	4.49982
1984.44	3.98706
1996.01	3.3609
2007.58	1.97766
2019.15	6.2887
2030.72	4.35407
2042.29	3.06537
2053.86	11.8016
2065.44	2.57843
2077.01	2.52228
2088.58	1.40454
2100.15	1.50385
2111.72	2.04981
2123.29	3.15289
2134.86	0.608459
2146.43	3.15662
2158	4.67322
2169.57	4.10919
2181.14	6.43921
2192.72	4.77301
2204.28	3.10303
2215.86	1.19177
2227.43	0.201477
2239	5.28064
2250.57	8.50964
2262.14	16.3856
2273.71	16.9366
2285.28	25.8053
2296.85	22.6392
2308.42	25.8797
2319.99	26.3161
2331.56	40.7301
2343.14	33.1733
2354.71	44.9855
2366.28	41.6399
2377.85	43.9213
2389.42	51.5418
2400.99	71.5538
2412.56	109.402
2424.13	162.789
2435.7	245.536
2447.27	259.483
2458.84	210.994
2470.41	170.058
2481.99	135.197
2493.55	125.933
2505.13	119.304
2516.7	102.598
2528.27	73.6536
2539.84	64.761
2551.41	56.6421
2562.98	48.8648
2574.55	37.7815
2586.12	33.4228
2597.69	33.6489
2609.26	32.6744
2620.83	36.3796
2632.41	29.0088
2643.98	39.095
2655.55	40.7554
2667.12	41.1375
2678.69	27.3011
2690.26	0.643921
2701.83	1.05054
2713.4	1.03473
2724.97	2.54944
2736.54	4.06433
2748.11	7.64825
2759.68	0.546814
2771.26	0.67865
2782.82	6.50116
2794.4	1.19769
2805.97	0.540771
2817.54	3.46362
2829.11	3.76331
2840.68	7.26483
2852.25	3.40491
2863.82	9.3606
2875.39	7.00732
2886.96	6.77661
2898.53	16.2952
2910.1	20.0172
2921.68	23.2855
2933.25	32.912
2944.82	41.5792
2956.39	40.6874
2967.96	36.5308
2979.53	23.4906
2991.1	16.968
3002.67	10.9313
3014.24	10.5832
3025.81	2.5827
3037.38	5.56714
3048.95	0.785522
3060.53	6.13293
3072.09	5.05109
3083.67	2.94611
3095.24	7.19086
3106.81	7.29266
3118.38	3.75909
3129.95	8.9455
3141.52	2.83929
3153.09	10.4292
3164.66	10.3398
3176.23	13.7534
3187.8	12.3007
3199.37	11.1196
3210.95	5.61285
3222.52	13.3622
3234.09	9.68073
3245.66	9.80481
3257.23	12.4422
3268.8	3.0647
3280.37	5.31439
3291.94	0.545532
3303.51	6.84558
3315.08	2.61621
3326.65	1.97375
3338.22	7.63806
3349.8	7.09399
3361.36	0.202148
3372.94	5.90204
3384.51	3.66876
3396.08	8.60004
3407.65	5.39056
3419.22	6.56787
3430.79	17.4451
3442.36	9.81335
3453.93	2.87769
3465.5	0.647522
3477.07	3.70032
3488.64	4.7536
3500.22	4.51978
3511.79	0.248535
3523.36	0.154114
3534.93	7.02631
3546.5	5.95758
3558.07	10.0331
3569.64	15.1602
3581.21	16.7915
3592.78	13.083
3604.35	12.5311
3615.92	7.88532
3627.49	12.7548
3639.07	8.3183
3650.64	4.79529
3662.21	9.44959
3673.78	4.7135
3685.35	2.68646
3696.92	6.11816
3708.49	9.28332
3720.06	10.8206
3731.63	6.1908
3743.2	7.13037
3754.77	2.41315
3766.34	1.31012
3777.91	2.41992
3789.49	5.11987
3801.06	1.15112
3812.63	7.94598
3824.2	10.2882
3835.77	7.42017
3847.34	5.77295
3858.91	4.66382
3870.48	2.6853
3882.05	13.734
3893.62	10.3036
3905.19	9.90179
3916.76	7.38489
3928.34	6.81445
3939.91	7.36908
3951.48	10.4205
3963.05	8.92071
3974.62	8.16071
3986.19	0.064026
3997.76	1.31873
4009.33	8.42432
4020.9	3.19049
4032.47	8.03223
4044.04	8.60815
4055.61	9.59723
4067.18	2.75671
4078.76	6.50012
4090.33	6.72107
4101.9	1.31799
4113.47	1.65753
4125.04	1.96234
4136.61	7.65546
4148.18	4.95776
4159.75	1.39258
4171.32	3.48053
4182.89	14.2051
4194.46	10.0237
4206.03	1.245
4217.6	9.08429
4229.18	2.53638
4240.75	5.14197
