Measurement: Raman, 514 nm, unoriented, Raman Data Processed
Mineral: Diamond
Rruff sample: R050207
Ideal chemistry: C
Locality: Unknown
Source: Eric Van Valkenburg
Description: Single crystal,  type I
Raman shift (cm-1)	intensity
155.896	0
160.058	27.7653
164.217	30.7819
168.374	48.0167
172.528	34.5254
176.681	21.0145
180.832	34.2533
184.981	11.5692
189.127	29.4334
193.272	27.4367
197.414	57.3254
201.555	45.9464
205.693	63.8381
209.83	23.7508
213.964	26.5508
218.096	35.2855
222.226	5.12415
226.355	30.3271
230.481	12.6321
234.605	22.3081
238.727	45.0065
242.847	5.59204
246.965	52.3397
251.08	19.0364
255.194	7.56592
259.306	23.8761
263.416	50.2779
267.524	35.5894
271.629	29.8643
275.733	40.1184
279.835	27.3639
283.934	61.6418
288.032	35.9069
292.127	45.161
296.221	55.3854
300.312	39.6665
304.402	30.8713
308.489	6.06494
312.575	27.3435
316.658	16.516
320.74	43.0115
324.819	48.0111
328.897	60.455
332.972	25.3652
337.045	11.5298
341.117	26.8862
345.186	29.9834
349.253	9.17322
353.319	33.5736
357.382	48.918
361.443	68.3154
365.503	26.6547
369.56	39.8109
373.616	65.9149
377.669	36.0117
381.72	79.6086
385.77	44.0706
389.817	104.255
393.863	80.6862
397.906	114.841
401.947	91.8442
405.987	74.1315
410.024	129.398
414.06	73.4061
418.093	56.9785
422.125	97.4952
426.154	51.3629
430.182	73.4561
434.208	66.7655
438.231	46.5248
442.253	20.8829
446.273	45.0042
450.29	48.0509
454.306	46.0621
458.32	61.1061
462.332	52.2903
466.341	64.3415
470.349	50.227
474.355	54.2507
478.359	58.1282
482.361	5.09448
486.361	20.9065
490.359	81.0183
494.356	53.9175
498.35	59.9185
502.342	23.2671
506.332	42.5752
510.321	104.359
514.307	101.206
518.292	86.0461
522.274	87.9165
526.255	56.7056
530.233	74.5815
534.21	49.3738
538.185	47.1743
542.158	31.1243
546.129	54.5759
550.098	6.65649
554.065	4.09082
558.03	34.8237
561.993	46.5254
565.954	55.2161
569.913	41.8433
573.871	8.54468
577.826	21.6721
581.78	20.9382
585.731	48.3362
589.681	9.13452
593.629	21.7156
597.575	2.74048
601.519	57.8352
605.461	38.6057
609.401	28.0718
613.339	41.3865
617.275	46.6106
621.21	81.8494
625.142	51.3777
629.073	60.8887
633.001	126.402
636.928	152.994
640.853	164.451
644.776	132.762
648.697	94.1338
652.616	61.8452
656.534	56.4487
660.449	52.7978
664.362	57.9834
668.274	42.3323
672.184	60.5593
676.092	31.5093
679.997	51.7205
683.901	47.7329
687.804	60.8201
691.704	44.9609
695.602	6.10571
699.499	105.626
703.393	77.4705
707.286	33.9819
711.177	31.1623
715.066	69.291
718.953	73.062
722.838	64.6804
726.722	59.6211
730.603	12.7439
734.483	74.5544
738.361	58.158
742.236	18.1645
746.11	29.9121
749.983	76.4104
753.853	10.5684
757.721	10.9795
761.588	77.5842
765.453	26.0984
769.315	36.5178
773.176	51.7715
777.036	12.1443
780.893	69.5188
784.748	47.7
788.602	7.90015
792.454	17.1843
796.303	1.70801
800.151	35.6118
803.998	42.6206
807.842	2.33545
811.685	21.4231
815.525	32.5129
819.364	69.2539
823.201	41.0059
827.036	44.8213
830.869	18.5959
834.701	47.3176
838.531	54.0559
842.358	68.667
846.184	76.3516
850.008	53.4578
853.831	57.0071
857.651	18.884
861.47	8.39893
865.287	5.79785
869.102	49.4885
872.915	27.927
876.726	33.3638
880.536	24.8294
884.343	51.1069
888.149	27.281
891.953	84.5391
895.756	7.94775
899.556	15.1545
903.355	61.6294
907.152	64.8569
910.947	46.0471
914.74	66.0591
918.531	89.1033
922.321	50.5945
926.109	0.62207
929.895	5.68506
933.679	93.5396
937.461	27.314
941.242	119.326
945.021	28.9707
948.798	0.67749
952.573	69.4097
956.346	65.3555
960.118	91.2727
963.888	58.5247
967.656	47.1401
971.422	55.7297
975.186	53.9231
978.949	113.733
982.71	74.4534
986.469	116.934
990.226	151.06
993.982	68.8508
997.735	7.43237
1001.49	95.9187
1005.24	93.0471
1008.99	125.871
1012.73	94.3147
1016.48	82.3931
1020.22	70.658
1023.96	64.6829
1027.7	113.695
1031.44	111.881
1035.17	95.0288
1038.91	107.724
1042.64	36.0425
1046.37	8.59619
1050.1	15.1145
1053.83	74.8386
1057.55	115.526
1061.28	146.076
1065	85.4922
1068.72	91.543
1072.44	61.6289
1076.15	101.158
1079.87	105.535
1083.58	157.053
1087.29	218.492
1091	129.75
1094.71	18.7205
1098.42	67.0171
1102.12	30.2144
1105.82	112.264
1109.53	62.4575
1113.22	77.1274
1116.92	100.834
1120.62	4.37598
1124.31	33.7087
1128	31.8301
1131.69	33.9551
1135.38	50.9983
1139.07	42.9202
1142.76	53.7781
1146.44	29.9343
1150.12	28.6804
1153.8	54.3193
1157.48	14.8806
1161.15	39.3589
1164.83	51.7639
1168.5	35.9456
1172.17	24.187
1175.84	65.3179
1179.51	10.3086
1183.18	14.7234
1186.84	56.187
1190.51	93.9531
1194.17	108.523
1197.83	96.0466
1201.48	58.4683
1205.14	63.7239
1208.79	20.9424
1212.45	67.8359
1216.1	0.711914
1219.75	33.3164
1223.39	40.2769
1227.04	35.1694
1230.68	51.9785
1234.33	86.7549
1237.96	54.4722
1241.6	33.8267
1245.24	7.51025
1248.88	12.8887
1252.51	33.2998
1256.14	64.6802
1259.77	47.6128
1263.4	75.9927
1267.03	49.9346
1270.65	19.6582
1274.28	69.0147
1277.9	60.3999
1281.52	69.7012
1285.14	64.061
1288.76	67.3013
1292.37	53.5083
1295.98	102.592
1299.6	117.058
1303.21	135.03
1306.81	141.189
1310.42	248.273
1314.03	257.222
1317.63	435.419
1321.23	773.68
1324.83	1513.22
1328.43	4961.9
1332.03	38537.9
1335.62	19509.3
1339.21	3131.16
1342.81	1076.87
1346.4	537.486
1349.98	280.171
1353.57	219.706
1357.16	280.62
1360.74	200.748
1364.32	137.227
1367.9	140.664
1371.48	165.192
1375.06	119.79
1378.63	87.9106
1382.2	31.6133
1385.78	61.4858
1389.35	4.39453
1392.91	70.9282
1396.48	36.0488
1400.05	15.4424
1403.61	48.4277
1407.17	63.2412
1410.73	90.9878
1414.29	37.7466
1417.85	70.4849
1421.4	15.2236
1424.96	56.9585
1428.51	39.2627
1432.06	155.525
1435.61	118.428
1439.15	130.372
1442.7	136.572
1446.24	165.849
1449.79	129.156
1453.33	190.944
1456.87	84.3979
1460.4	110.586
1463.94	63.3516
1467.47	129.425
1471	128.028
1474.54	93.1406
1478.06	113.26
1481.59	55.0562
1485.12	147.747
1488.64	196.306
1492.16	37.1284
1495.68	101.492
1499.2	48.7305
1502.72	115.29
1506.24	83.0918
1509.75	75.0029
1513.27	166.103
1516.78	122.57
1520.29	0
