Measurement: Raman, 532 nm, unoriented, Raman Data Processed
Mineral: Diamond
Rruff sample: R150105
Ideal chemistry: C
Locality: Synthetic by GE.
Source: Rock Currier
Description: Pale green or grey greenish euhedral crystals.
Raman shift (cm-1)	intensity
98.3997	0
109.971	5.462
121.541	3.47972
133.112	2.67985
144.683	3.91258
156.254	4.41966
167.825	5.74801
179.395	3.33728
190.966	4.29686
202.537	3.30519
214.108	0.107372
225.679	3.0589
237.249	1.46991
248.82	2.96839
260.391	3.11859
271.962	2.24936
283.533	0.846218
295.103	0.215611
306.674	0.92363
318.245	3.42499
329.816	7.97776
341.387	12.4936
352.957	14.0861
364.528	14.2755
376.099	13.4873
387.67	12.8094
399.24	15.4377
410.811	12.4497
422.382	12.7643
433.953	11.0731
445.524	9.00417
457.094	9.98081
468.665	8.41486
480.236	12.0468
491.807	18.696
503.378	5.25515
514.948	0.785088
526.519	1.25874
538.09	0.684891
549.661	2.11104
561.232	2.37536
572.803	3.51908
584.373	2.09263
595.944	1.89854
607.515	1.64934
619.086	2.18322
630.657	0.563896
642.227	2.81673
653.798	3.08025
665.369	4.20726
676.94	6.39028
688.51	4.65011
700.081	4.96451
711.652	3.9965
723.223	7.73842
734.794	9.6601
746.365	10.1537
757.935	9.98735
769.506	15.7998
781.077	12.0262
792.648	14.0752
804.218	11.2023
815.789	13.267
827.36	19.6679
838.931	15.4789
850.502	15.5369
862.072	15.4756
873.643	16.0085
885.214	15.0745
896.785	10.6968
908.356	9.45133
919.927	6.89621
931.497	4.59263
943.068	2.87206
954.639	2.28902
966.21	4.67195
977.78	2.9879
989.351	0.915512
1000.92	2.20927
1012.49	0.988403
1024.06	0.508591
1035.63	1.98642
1047.2	0.587143
1058.78	0.760376
1070.35	0.552948
1081.92	2.32774
1093.49	3.18274
1105.06	4.16866
1116.63	11.1455
1128.2	23.8986
1139.77	31.7721
1151.34	36.3161
1162.91	37.3608
1174.48	39.5527
1186.06	26.7166
1197.63	19.3456
1209.2	12.1083
1220.77	8.08713
1232.34	3.51065
1243.91	1.16412
1255.48	3.40688
1267.05	3.42633
1278.62	7.10918
1290.19	43.0371
1301.76	531.483
1313.33	542.509
1324.9	1722.65
1336.47	5908.33
1348.05	1939.27
1359.62	376.415
1371.19	63.0387
1382.76	34.1499
1394.33	34.6395
1405.9	39.3129
1417.47	47.5956
1429.04	45.5748
1440.61	46.6695
1452.18	42.1716
1463.75	36.9815
1475.33	32.0917
1486.9	21.5868
1498.47	21.0743
1510.04	15.4047
1521.61	15.6723
1533.18	17.9263
1544.75	10.0519
1556.32	9.32794
1567.89	4.97952
1579.46	9.26752
1591.03	0.105927
1602.6	0.043579
1614.17	3.27887
1625.74	0.553741
1637.32	3.88477
1648.89	3.06152
1660.46	5.82852
1672.03	14.2219
1683.6	20.0978
1695.17	20.7325
1706.74	23.4418
1718.31	19.686
1729.88	27.8356
1741.45	19.815
1753.02	26.5611
1764.6	30.0927
1776.17	38.3923
1787.74	24.4535
1799.31	20.0462
1810.88	9.8902
1822.45	13.6725
1834.02	13.3615
1845.59	9.48206
1857.16	3.19525
1868.73	2.32379
1880.3	7.35443
1891.87	3.07666
1903.44	7.4632
1915.02	5.73944
1926.59	1.37634
1938.16	0.124756
1949.73	1.35968
1961.3	0.860474
1972.87	4.4176
1984.44	4.07233
1996.01	6.60602
2007.58	4.92554
2019.15	9.63184
2030.72	23.1865
2042.29	23.3172
2053.86	24.4482
2065.44	30.9039
2077.01	22.8989
2088.58	26.7887
2100.15	36.621
2111.72	28.553
2123.29	29.4492
2134.86	30.1296
2146.43	37.1094
2158	34.4172
2169.57	31.5184
2181.14	35.4941
2192.72	31.1446
2204.28	24.0107
2215.86	22.3555
2227.43	20.0529
2239	21.2749
2250.57	15.6733
2262.14	20.5635
2273.71	20.8667
2285.28	8.54968
2296.85	6.22876
2308.42	8.5249
2319.99	10.3276
2331.56	1.5282
2343.14	1.22766
2354.71	4.19263
2366.28	12.3896
2377.85	6.39075
2389.42	11.2189
2400.99	2.05493
2412.56	25.2117
2424.13	51.0079
2435.7	81.2278
2447.27	86.0955
2458.84	83.7302
2470.41	74.3398
2481.99	62.4198
2493.55	56.6556
2505.13	70.1295
2516.7	78.1458
2528.27	81.269
2539.84	74.45
2551.41	98.4827
2562.98	100.13
2574.55	126.997
2586.12	138.111
2597.69	174.294
2609.26	172.572
2620.83	188.315
2632.41	216.858
2643.98	226.647
2655.55	253.061
2667.12	261.966
2678.69	261.435
2690.26	253.177
2701.83	263.362
2713.4	281.197
2724.97	286.559
2736.54	297.245
2748.11	281.246
2759.68	278.296
2771.26	274.454
2782.82	248.396
2794.4	222.849
2805.97	199.47
2817.54	160.877
2829.11	147.356
2840.68	99.9717
2852.25	92.6802
2863.82	52.0996
2875.39	36.1113
2886.96	30.0747
2898.53	21.7134
2910.1	2.06152
2921.68	19.6265
2933.25	19.1904
2944.82	17.542
2956.39	1.02344
2967.96	16.356
2979.53	35.9321
2991.1	41.2607
3002.67	86.4424
3014.24	167.261
3025.81	261.515
3037.38	418.164
3048.95	622.208
3060.53	968.3
3072.09	1460.67
3083.67	2121.49
3095.24	3036.12
3106.81	4013.79
3118.38	4892.53
3129.95	5472.35
3141.52	5493.02
3153.09	5011.11
3164.66	4344.03
3176.23	3596.84
3187.8	2949.79
3199.37	2365.81
3210.95	1847.21
3222.52	1524.29
3234.09	1200.5
3245.66	945.767
3257.23	715.321
3268.8	535.648
3280.37	362.296
3291.94	254.564
3303.51	173.91
3315.08	55.7764
3326.65	45.252
3338.22	14.9619
3349.8	31.3301
3361.36	30.1299
3372.94	15.5654
3384.51	28.9502
3396.08	12.1797
3407.65	65.1963
3419.22	186.103
3430.79	234.248
3442.36	294.56
3453.93	447.014
3465.5	499.357
3477.07	641.385
3488.64	815.963
3500.22	956.746
3511.79	1186.75
3523.36	1435.97
3534.93	1648.21
3546.5	1927.22
3558.07	2142.41
3569.64	2403.32
3581.21	2676.73
3592.78	2970.16
3604.35	3180.72
3615.92	3339.28
3627.49	3496.12
3639.07	3660.45
3650.64	3677.75
3662.21	3694.15
3673.78	3591.16
3685.35	3493.94
3696.92	3272.56
3708.49	3084.97
3720.06	2872.02
3731.63	2595.89
3743.2	2337.48
3754.77	2008.61
3766.34	1846.53
3777.91	1519.55
3789.49	1319.55
3801.06	1081.99
3812.63	874.641
3824.2	656.705
3835.77	399.418
3847.34	292.275
3858.91	155.144
3870.48	108.838
3882.05	6.86133
3893.62	49.3828
3905.19	58.4004
3916.76	8.36914
3928.34	24.1074
3939.91	7.34961
3951.48	11.3691
3963.05	160.975
3974.62	251.475
3986.19	207.24
3997.76	256.748
4009.33	336.029
4020.9	456.973
4032.47	399.887
4044.04	460.969
4055.61	514.309
4067.18	570.711
4078.76	580.82
4090.33	491.363
4101.9	523.883
4113.47	536.859
4125.04	525.746
4136.61	564.672
4148.18	571.719
4159.75	539.504
4171.32	502.609
4182.89	474.906
4194.46	442.84
4206.03	238.363
4217.6	254.191
4229.18	30.8867
4240.75	38.3711
