Measurement: Raman, 780 nm, unoriented, Raman Data Processed
Mineral: Diamond
Rruff sample: R050205
Ideal chemistry: C
Locality: Unknown
Source: Eric Van Valkenburg
Description: Single crystal, type IIA
Raman shift (cm-1)	intensity
93.7832	0
97.6401	3.7304
101.497	20.8202
105.354	5.12526
109.211	17.83
113.068	13.7797
116.925	27.8854
120.782	11.7023
124.639	26.4201
128.496	20.8241
132.352	27.3783
136.209	19.4819
140.066	5.50282
143.923	9.63424
147.78	7.82367
151.637	21.3923
155.494	7.92054
159.351	17.3622
163.208	14.765
167.065	19.2417
170.922	21.2024
174.779	14.8016
178.636	22.0592
182.493	36.5063
186.35	3.39352
190.207	10.231
194.064	16.568
197.92	26.4843
201.777	14.6255
205.634	16.8279
209.491	7.03435
213.348	10.6811
217.205	9.12203
221.062	17.4226
224.919	6.23772
228.776	13.1686
232.633	29.575
236.49	24.1302
240.347	11.3426
244.204	31.5752
248.061	25.709
251.917	21.185
255.774	16.9914
259.631	21.2868
263.488	31.8471
267.345	9.66767
271.202	6.06245
275.059	26.1666
278.916	22.9629
282.773	7.54903
286.63	8.77045
290.487	18.4548
294.344	1.26096
298.201	1.9688
302.058	28.3941
305.915	16.9015
309.772	16.3688
313.628	27.9475
317.485	24.1435
321.342	9.32577
325.199	24.9053
329.056	1.53538
332.913	14.1599
336.77	4.01633
340.627	26.5122
344.484	9.94024
348.341	5.07775
352.198	2.29053
356.055	24.8365
359.912	13.6258
363.769	22.2279
367.625	13.5282
371.483	19.6924
375.339	5.3292
379.196	17.0586
383.053	4.25276
386.91	15.6307
390.767	13.8745
394.624	14.5838
398.481	19.2508
402.338	16.3673
406.195	17.5558
410.052	19.6135
413.909	14.5556
417.766	10.7954
421.623	11.8848
425.48	2.60617
429.337	2.13371
433.193	14.9381
437.05	5.85206
440.907	23.162
444.764	9.2571
448.621	26.2686
452.478	22.163
456.335	6.78661
460.192	19.4211
464.049	9.38027
467.906	10.4991
471.763	18.0343
475.62	25.7483
479.477	2.40743
483.334	3.61693
487.19	19.471
491.047	3.09708
494.904	13.0271
498.761	14.2579
502.618	20.9897
506.475	16.4978
510.332	19.8366
514.189	3.95574
518.046	31.7823
521.903	2.27549
525.76	22.9167
529.617	15.5346
533.474	13.9041
537.331	4.06954
541.188	10.2827
545.044	3.98487
548.901	9.40882
552.758	10.8256
556.615	7.08219
560.472	10.6782
564.329	14.272
568.186	13.8933
572.043	4.8069
575.9	20.7287
579.757	3.80807
583.614	24.6613
587.471	13.2626
591.328	3.98615
595.185	15.0347
599.042	15.795
602.899	8.76793
606.755	12.7495
610.612	26.1394
614.469	4.26474
618.326	16.5428
622.183	2.60158
626.04	18.0675
629.897	31.2607
633.754	14.6747
637.611	18.6446
641.468	2.18895
645.325	20.6089
649.182	19.9008
653.039	13.4516
656.896	2.84826
660.753	12.8876
664.61	18.2526
668.466	14.1018
672.323	21.9882
676.18	24.4338
680.037	10.7386
683.894	0.237446
687.751	15.262
691.608	13.6835
695.465	10.6229
699.322	7.84421
703.179	12.6125
707.036	18.8387
710.893	26.4316
714.75	16.1781
718.607	14.2027
722.463	11.8664
726.32	10.6124
730.177	7.94478
734.034	16.0946
737.891	20.3178
741.748	13.4915
745.605	16.0076
749.462	11.7922
753.319	9.57248
757.176	3.28434
761.033	14.957
764.89	12.3723
768.747	11.8149
772.604	3.64899
776.461	15.277
780.317	17.2997
784.174	12.6102
788.031	9.42396
791.888	20.3935
795.745	14.4249
799.602	14.0212
803.459	13.6357
807.316	10.6568
811.173	2.66115
815.03	12.5067
818.887	9.7836
822.744	14.9948
826.601	4.68597
830.458	2.20753
834.315	4.66604
838.172	1.52962
842.028	9.76885
845.885	16.3825
849.742	24.0342
853.599	9.48057
857.456	22.973
861.313	16.5227
865.17	5.03704
869.027	6.87892
872.884	12.2335
876.741	7.63892
880.598	16.3815
884.455	3.88073
888.312	6.64864
892.169	13.0367
896.025	11.6719
899.882	6.5771
903.739	5.4979
907.596	8.72997
911.453	10.6977
915.31	2.5224
919.167	1.76732
923.024	10.82
926.881	7.26448
930.738	13.5789
934.595	6.70777
938.452	17.7046
942.309	8.7545
946.166	17.3029
950.023	3.38582
953.88	5.22682
957.736	11.2215
961.593	17.2944
965.45	16.0285
969.307	2.35204
973.164	1.65357
977.021	5.01147
980.878	10.1896
984.735	6.83192
988.592	13.992
992.449	5.37957
996.306	20.7942
1000.16	16.9836
1004.02	3.49741
1007.88	6.1398
1011.73	7.84517
1015.59	16.05
1019.45	2.44736
1023.3	11.9106
1027.16	1.82994
1031.02	4.14602
1034.88	7.48567
1038.73	2.81955
1042.59	1.49858
1046.45	11.5121
1050.3	14.2967
1054.16	12.3992
1058.02	0.52738
1061.87	7.95858
1065.73	8.95898
1069.59	9.07772
1073.44	15.2279
1077.3	10.6096
1081.16	6.82929
1085.02	11.0493
1088.87	7.89588
1092.73	20.9818
1096.59	14.6909
1100.44	16.7896
1104.3	9.88308
1108.16	8.58214
1112.01	14.5162
1115.87	10.5726
1119.73	17.2839
1123.59	18.7822
1127.44	8.55795
1131.3	19.9893
1135.16	17.5672
1139.01	14.2805
1142.87	6.1292
1146.73	17.6278
1150.58	20.0556
1154.44	8.42196
1158.3	7.25307
1162.15	9.07766
1166.01	17.8132
1169.87	19.8048
1173.72	7.92054
1177.58	19.8872
1181.44	26.8635
1185.3	10.2044
1189.15	20.5361
1193.01	16.5744
1196.87	15.3196
1200.72	9.51966
1204.58	9.71946
1208.44	12.4938
1212.29	20.6539
1216.15	16.2758
1220.01	2.72446
1223.87	21.6121
1227.72	11.838
1231.58	18.0676
1235.44	7.18683
1239.29	14.8316
1243.15	11.9722
1247.01	8.08613
1250.86	0.018864
1254.72	6.03373
1258.58	2.18306
1262.43	5.31453
1266.29	13.3065
1270.15	12.1916
1274.01	6.71054
1277.86	25.469
1281.72	3.75168
1285.58	23.5368
1289.43	16.2023
1293.29	53.8471
1297.15	43.9976
1301	73.4904
1304.86	88.3078
1308.72	144.028
1312.57	217.612
1316.43	589.505
1320.29	2754.31
1324.14	3976.78
1328	8167.55
1331.86	35974
1335.72	12804.1
1339.57	1387.56
1343.43	510.435
1347.29	273.641
1351.14	147.954
1355	92.1743
1358.86	65.5721
1362.71	54.8934
1366.57	41.4368
1370.43	30.506
1374.29	21.2566
1378.14	28.4326
1382	27.5364
1385.86	13.6472
1389.71	0.642876
1393.57	11.7899
1397.43	6.85243
1401.28	15.0288
1405.14	6.62212
1409	0.322345
1412.86	0.252037
1416.71	4.21273
1420.57	5.24076
1424.43	14.1638
1428.28	19.4497
1432.14	19.6064
1436	0.380906
1439.85	12.0151
1443.71	26.9881
1447.57	20.9468
1451.42	11.9072
1455.28	23.1241
1459.14	4.18319
1462.99	9.07668
1466.85	21.3551
1470.71	21.3013
1474.57	16.6582
1478.42	18.8642
1482.28	21.2597
1486.14	19.6768
1489.99	24.9972
1493.85	15.8749
1497.71	17.3035
