Measurement: Raman, 532 nm, unoriented, Raman Data Processed
Mineral: Diamond
Rruff sample: R050205
Ideal chemistry: C
Locality: Unknown
Source: Eric Van Valkenburg
Description: Single crystal, type IIA
Raman shift (cm-1)	intensity
140.184	0
144.041	27.0432
147.898	6.85998
151.755	41.5507
155.611	30.1365
159.468	49.4868
163.325	39.3238
167.182	36.2035
171.039	43.3924
174.896	36.1958
178.753	22.3106
182.61	36.4932
186.467	32.1248
190.324	11.8785
194.181	21.2718
198.038	30.3445
201.895	23.9798
205.751	1.87378
209.608	27.1486
213.465	12.1594
217.322	21.8089
221.179	17.7823
225.036	28.7638
228.893	3.5734
232.75	9.77902
236.607	11.4374
240.464	0.411804
244.321	17.0487
248.178	12.8679
252.035	2.66324
255.892	18.8354
259.749	5.46872
263.606	3.41525
267.462	4.02707
271.319	23.0384
275.176	13.9106
279.033	11.0962
282.89	12.4836
286.747	0.488983
290.604	7.92703
294.461	20.4699
298.318	26.5288
302.175	8.01254
306.032	33.076
309.889	19.932
313.746	2.03458
317.603	8.64871
321.459	9.75241
325.316	19.6945
329.173	28.6677
333.03	15.2204
336.887	13.9237
340.744	26.8004
344.601	6.80618
348.458	22.7487
352.315	18.8952
356.172	27.738
360.029	0.866302
363.886	22.9144
367.743	18.4837
371.6	27.4102
375.457	21.6449
379.313	17.3781
383.17	31.6748
387.027	10.657
390.884	25.7171
394.741	22.5
398.598	33.9164
402.455	8.4545
406.312	28.8093
410.169	21.1901
414.026	35.7164
417.883	25.9428
421.74	20.7047
425.597	33.3064
429.454	21.3247
433.31	15.0944
437.168	24.8158
441.024	15.5203
444.881	25.4623
448.738	2.92227
452.595	6.79886
456.452	25.9965
460.309	14.9075
464.166	13.2744
468.023	2.90454
471.88	24.8569
475.737	7.94818
479.594	9.32852
483.451	4.98907
487.308	24.1682
491.164	4.61435
495.022	5.56891
498.878	2.28552
502.735	9.54871
506.592	10.0306
510.449	7.06766
514.306	7.51129
518.163	21.6761
522.02	1.75
525.877	12.2916
529.734	13.1166
533.591	10.6372
537.448	9.59857
541.305	2.51965
545.162	9.48514
549.019	12.1197
552.875	0.139221
556.732	7.60715
560.589	12.9436
564.446	5.883
568.303	10.1654
572.16	13.8352
576.017	14.9975
579.874	11.5905
583.731	17.1111
587.588	15.3898
591.445	6.52817
595.302	18.7838
599.159	19.1767
603.016	14.5709
606.872	12.7211
610.729	35.8227
614.586	21.6609
618.443	25.3454
622.3	10.8214
626.157	25.6557
630.014	28.857
633.871	15.2576
637.728	16.8809
641.585	28.8076
645.442	20.6959
649.299	12.1026
653.156	18.5878
657.013	14.8636
660.87	6.52508
664.726	10.2736
668.583	14.2812
672.44	11.7375
676.297	6.91299
680.154	8.99408
684.011	19.3674
687.868	17.3845
691.725	4.9216
695.582	12.481
699.439	9.42896
703.296	14.7433
707.153	22.92
711.01	9.02417
714.867	14.4845
718.723	1.96109
722.58	8.42123
726.437	1.83609
730.294	9.51062
734.151	7.4053
738.008	18.1224
741.865	6.11615
745.722	12.5306
749.579	16.0126
753.436	21.8114
757.293	18.6476
761.15	7.43747
765.007	16.4595
768.864	21.5163
772.721	17.9003
776.577	11.4665
780.434	21.9948
784.291	18.0463
788.148	9.37244
792.005	16.0825
795.862	20.0028
799.719	4.5791
803.576	15.248
807.433	15.8706
811.29	1.32062
815.147	15.4772
819.004	21.1561
822.861	15.77
826.718	21.9391
830.575	1.20901
834.432	1.20132
838.288	2.63684
842.145	12.5178
846.002	9.44461
849.859	10.1001
853.716	12.0321
857.573	16.7702
861.43	15.9182
865.287	8.70355
869.144	2.04227
873.001	21.3989
876.858	1.41949
880.715	12.184
884.572	11.7042
888.428	11.2007
892.285	8.66553
896.142	15.4175
899.999	4.82538
903.856	5.94955
907.713	3.67294
911.57	18.8565
915.427	7.70682
919.284	5.83343
923.141	8.01999
926.998	9.55899
930.855	26.2546
934.712	12.5118
938.569	12.3886
942.426	14.1442
946.283	12.583
950.139	2.97266
953.996	12.4316
957.853	5.4769
961.71	2.4494
965.567	3.00659
969.424	9.18698
973.281	18.5677
977.138	11.596
980.995	14.5366
984.852	24.1187
988.709	13.5784
992.566	14.2683
996.423	13.4735
1000.28	21.8717
1004.14	23.3909
1007.99	0.549591
1011.85	14.0483
1015.71	2.68304
1019.56	14.6573
1023.42	26.7198
1027.28	17.8231
1031.13	16.9711
1034.99	7.81879
1038.85	5.4122
1042.71	10.254
1046.56	9.36865
1050.42	2.19995
1054.28	12.504
1058.13	4.08011
1061.99	0.360626
1065.85	9.53076
1069.7	3.78278
1073.56	8.11566
1077.42	6.79602
1081.28	1.34259
1085.13	14.6256
1088.99	15.4151
1092.85	17.7053
1096.7	15.1782
1100.56	10.0403
1104.42	28.5833
1108.27	26.3268
1112.13	27.7914
1115.99	33.4781
1119.84	37.094
1123.7	47.459
1127.56	39.1233
1131.41	40.8351
1135.27	43.9031
1139.13	36.1078
1142.99	40.9082
1146.84	52.1329
1150.7	34.6191
1154.56	48.4269
1158.41	39.8881
1162.27	44.7116
1166.13	46.6397
1169.98	48.2426
1173.84	49.849
1177.7	42.8232
1181.56	49.4227
1185.41	27.2333
1189.27	35.2831
1193.13	38.9572
1196.98	30.6007
1200.84	13.4691
1204.7	32.4473
1208.55	11.444
1212.41	15.937
1216.27	3.51175
1220.12	8.61646
1223.98	0.756836
1227.84	0.722931
1231.7	6.25382
1235.55	3.86975
1239.41	2.89874
1243.27	10.1385
1247.12	15.1488
1250.98	1.97159
1254.84	8.98968
1258.69	25.0808
1262.55	17.2685
1266.41	30.272
1270.27	35.8385
1274.12	38.0265
1277.98	54.1019
1281.84	68.6453
1285.69	80.0293
1289.55	90.1184
1293.41	115.289
1297.26	163.7
1301.12	198.533
1304.98	238.659
1308.83	298.569
1312.69	435.019
1316.55	765.851
1320.4	2660.87
1324.26	9781.03
1328.12	20298.9
1331.98	77030.5
1335.83	24794.1
1339.69	2989.45
1343.55	1074.91
1347.4	535.918
1351.26	322.692
1355.12	201.912
1358.97	112.267
1362.83	88.1081
1366.69	42.4761
1370.55	25.9075
1374.4	11.6011
1378.26	7.57422
1382.12	0.05481
1385.97	7.18802
1389.83	6.14539
1393.69	1.61462
1397.54	3.34149
1401.4	4.01828
1405.26	13.306
1409.11	15.4157
1412.97	9.55399
1416.83	20.4933
1420.68	31.9985
1424.54	46.1916
1428.4	29.204
1432.26	45.2817
1436.11	37.4265
1439.97	65.7094
1443.83	76.9738
1447.68	74.7271
1451.54	51.0348
1455.4	42.0582
1459.26	52.4519
1463.11	43.4042
1466.97	31.9772
1470.83	12.6715
1474.68	0.293793
1478.54	27.5238
1482.4	24.186
1486.25	9.79855
1490.11	7.54398
1493.97	12.0508
1497.82	3.21887
