Measurement: Raman, 780 nm, unoriented, Raman Data Processed
Mineral: Diamond
Rruff sample: R150105
Ideal chemistry: C
Locality: Synthetic by GE.
Source: Rock Currier
Description: Pale green or grey greenish euhedral crystals.
Raman shift (cm-1)	intensity
80.7349	0
90.3772	53.9278
100.019	29.3052
109.662	4.53524
119.304	1.38677
128.946	1.8029
138.589	2.16902
148.231	1.17319
157.874	0.908096
167.516	0.393314
177.158	1.41941
186.8	3.68378
196.443	3.08158
206.085	3.91198
215.727	3.94615
225.37	5.10963
235.012	3.68451
244.655	3.15373
254.297	2.90411
263.939	3.48415
273.582	3.23073
283.224	5.39794
292.866	3.26554
302.509	4.52457
312.151	2.8165
321.793	4.73574
331.435	8.28469
341.078	9.08063
350.72	10.0244
360.363	10.4036
370.005	8.61684
379.647	7.61425
389.29	11.9409
398.932	8.04473
408.574	9.29868
418.217	7.65214
427.859	9.54839
437.501	8.10136
447.144	9.39667
456.786	7.37872
466.428	8.41857
476.071	9.03094
485.713	9.48593
495.355	8.04034
504.998	8.59412
514.64	9.60765
524.282	8.58492
533.925	7.73935
543.567	5.57949
553.209	5.45743
562.852	5.00014
572.494	7.89023
582.136	2.51776
591.779	6.06394
601.421	2.89608
611.063	1.69029
620.706	3.42778
630.348	1.34732
639.99	0.433464
649.633	2.04645
659.275	0.684837
668.917	2.33906
678.56	1.15063
688.202	0.214256
697.844	2.00729
707.487	2.40595
717.129	0.625854
726.771	0.160187
736.414	2.57831
746.056	2.59484
755.698	1.63523
765.341	2.95004
774.983	3.58649
784.625	4.78468
794.268	5.29768
803.91	6.82178
813.552	8.99224
823.195	8.77849
832.837	5.25003
842.479	6.25378
852.122	6.56766
861.764	4.94576
871.406	4.84281
881.049	3.30897
890.691	5.03668
900.333	2.00778
909.976	1.65918
919.618	4.86663
929.26	2.0108
938.903	3.30947
948.545	4.23318
958.187	2.58818
967.83	2.48651
977.472	6.09418
987.114	2.30914
996.757	0.588005
1006.4	3.84511
1016.04	3.58997
1025.68	1.47934
1035.33	2.7256
1044.97	7.72322
1054.61	3.53996
1064.25	3.06729
1073.89	1.07184
1083.54	4.33356
1093.18	2.17481
1102.82	4.31444
1112.46	1.68083
1122.11	3.76376
1131.75	0.81102
1141.39	0.774567
1151.03	1.97887
1160.68	2.0878
1170.32	1.77309
1179.96	1.82533
1189.6	0.680649
1199.25	2.93858
1208.89	5.66194
1218.53	10.9549
1228.17	15.3594
1237.82	24.7834
1247.46	30.0634
1257.1	37.0244
1266.74	47.2368
1276.38	54.2182
1286.03	63.1762
1295.67	70.5176
1305.31	97.6376
1314.95	236.049
1324.6	531.299
1334.24	1758.24
1343.88	935.646
1353.52	358.342
1363.16	103.214
1372.81	51.9254
1382.45	33.7227
1392.09	21.3449
1401.73	20.4865
1411.38	7.31052
1421.02	6.14932
1430.66	5.94681
1440.3	4.75748
1449.95	2.41922
1459.59	0.22934
1469.23	2.62024
1478.87	7.02512
1488.52	4.26489
1498.16	1.19525
1507.8	5.72012
1517.44	2.1153
1527.09	0.225861
1536.73	5.34314
1546.37	6.1669
1556.01	8.04785
1565.65	11.5078
1575.3	13.6957
1584.94	13.8171
1594.58	15.8625
1604.22	17.8271
1613.87	17.5987
1623.51	12.2616
1633.15	21.7468
1642.79	22.074
1652.43	26.0583
1662.08	29.4141
1671.72	32.0095
1681.36	28.4538
1691.01	32.6572
1700.65	40.9581
1710.29	43.8952
1719.93	45.573
1729.57	48.9169
1739.22	53.9929
1748.86	43.8292
1758.5	53.3097
1768.14	59.6285
1777.79	49.5627
1787.43	54.4888
1797.07	56.371
1806.71	58.185
1816.36	46.0885
1826	47.8978
1835.64	47.3879
1845.28	51.2873
1854.92	40.5826
1864.57	36.2797
1874.21	29.0973
1883.85	31.6702
1893.49	21.6593
1903.14	16.4511
1912.78	15.423
1922.42	3.84198
1932.06	7.47699
1941.7	10.0411
1951.35	4.11231
1960.99	9.59863
1970.63	1.93079
1980.28	2.47998
1989.92	1.8136
1999.56	0.440186
2009.2	4.95398
2018.84	6.82483
2028.49	5.4762
2038.13	9.9541
2047.77	9.94238
2057.41	10.064
2067.06	17.549
2076.7	8.59058
2086.34	12.2082
2095.98	14.654
2105.62	20.348
2115.27	19.3302
2124.91	24.9298
2134.55	31.4177
2144.19	28.7548
2153.84	42.544
2163.48	37.5453
2173.12	49.1599
2182.76	52.3015
2192.41	46.2809
2202.05	39.46
2211.69	28.4735
2221.33	24.8875
2230.97	20.1551
2240.62	23.0037
2250.26	21.7646
2259.9	19.772
2269.55	12.5148
2279.19	7.46045
2288.83	11.2332
2298.47	11.0479
2308.11	5.99255
2317.76	7.6106
2327.4	5.58765
2337.04	12.7433
2346.68	7.28113
2356.33	0.852295
2365.97	5.82373
2375.61	4.90186
2385.25	4.97827
2394.89	10.145
2404.54	6.35107
2414.18	5.22803
2423.82	3.55078
2433.46	3.79761
2443.11	0.049072
2452.75	1.63769
2462.39	6.35571
2472.03	4.2644
2481.68	2.30005
2491.32	2.80859
2500.96	4.47632
2510.6	22.7756
2520.24	24.1621
2529.89	35.1746
2539.53	54.2246
2549.17	53.5288
2558.82	62.4873
2568.46	56.7734
2578.1	76.9233
2587.74	96.4097
2597.38	95.5727
2607.03	125.627
2616.67	175.29
2626.31	228.58
2635.95	315.666
2645.6	439.665
2655.24	614.176
2664.88	826.382
2674.52	1091.35
2684.16	1304.21
2693.81	1382.55
2703.45	1262.24
2713.09	1031.1
2722.73	783.654
2732.38	578.644
2742.02	433.901
2751.66	330.855
2761.3	249.158
2770.95	198.299
2780.59	165.577
2790.23	138.932
2799.87	137.536
2809.51	124.431
2819.16	103.316
2828.8	103.549
2838.44	97.4299
2848.09	85.4014
2857.73	73.811
2867.37	65.887
2877.01	53.6338
2886.65	57.4558
2896.3	40.1511
2905.94	32.6199
2915.58	24.4241
2925.22	35.7627
2934.87	42.8935
2944.51	53.8215
2954.15	63.4939
2963.79	62.3662
2973.43	66.9299
2983.08	78.3337
2992.72	83.1239
3002.36	83.9927
3012	94.745
3021.65	91.598
3031.29	122.672
3040.93	130.757
3050.57	119.455
3060.22	126.041
3069.86	138.787
3079.5	158.261
3089.14	170.805
3098.78	175.032
3108.43	182.416
3118.07	181.916
3127.71	192.869
3137.36	182.089
3147	182.421
3156.64	178.601
3166.28	171.187
3175.92	164.138
3185.57	126.878
3195.21	94.0493
3204.85	82.775
3214.49	60.4562
3224.14	35.0552
3233.78	15.8108
3243.42	6.75232
3253.06	14.1502
3262.7	18.2627
3272.35	14.9403
3281.99	6.81683
3291.63	11.4721
3301.27	14.1153
3310.92	27.5517
3320.56	39.9821
3330.2	35.492
3339.84	56.3271
3349.49	66.4806
3359.13	65.1909
3368.77	65.2289
3378.41	58.3788
3388.05	62.0862
3397.7	49.345
3407.34	40.0087
3416.98	37.3926
3426.62	32.991
3436.27	18.7512
3445.91	7.18365
3455.55	0
