Measurement: Raman, 532 nm, unoriented, Raman Data Processed
Mineral: Diamond
Rruff sample: X080011
Ideal chemistry: C
Locality: Synthetic
Source: Gemological Institute of America
Description: Faceted yellow gemstone, 0.19 ct
Raman shift (cm-1)	intensity
155.611	0
158.986	44.0098
162.361	25.9399
165.736	15.2058
169.111	51.4526
172.486	21.8093
175.86	4.95093
179.235	70.0654
182.61	44.1082
185.985	75.8875
189.36	26.2285
192.734	39.3079
196.109	5.25879
199.484	9.08691
202.859	66.6836
206.234	20.929
209.608	51.3438
212.983	10.0156
216.358	37.9531
219.733	65.8557
223.108	16.1809
226.483	39.6707
229.857	41.1694
233.232	23.8999
236.607	44.8916
239.982	53.561
243.357	35.9136
246.731	54.3464
250.106	21.7524
253.481	70.5947
256.856	18.0547
260.231	61.8691
263.606	46.3586
266.98	48.9775
270.355	59.9214
273.73	76.9878
277.105	56.0335
280.48	45.9343
283.854	14.3679
287.229	41.4387
290.604	67.7978
293.979	75.491
297.354	50.3159
300.728	20.2344
304.103	66.311
307.478	18.3862
310.853	5.97144
314.228	40.7769
317.603	42.8284
320.977	17.4802
324.352	1.44311
327.727	35.2705
331.102	44.6797
334.477	34.7974
337.851	50.0085
341.226	16.9475
344.601	8.72607
347.976	22.6936
351.351	36.9963
354.726	29.5418
358.1	49.8657
361.475	69.0354
364.85	31.6396
368.225	34.4968
371.6	38.3792
374.974	31.363
378.349	42.5427
381.724	25.7375
385.099	27.3472
388.474	2.51245
391.849	70.5044
395.223	42.2639
398.598	2.73169
401.973	12.3916
405.348	9.67188
408.723	62.1079
412.097	24.602
415.472	36.8796
418.847	25.1602
422.222	27.3884
425.597	48.5762
428.971	10.3562
432.346	31.6174
435.721	21.9619
439.096	8.35034
442.471	37.3508
445.846	30.1489
449.22	2.53857
452.595	4.29175
455.97	21.4834
459.345	35.2659
462.72	28.7502
466.094	57.7278
469.469	39.7117
472.844	30.9182
476.219	8.21875
479.594	7.72656
482.969	39.9319
486.343	22.1575
489.718	28.4661
493.093	10.9028
496.468	34.3
499.843	24.9311
503.217	44.7537
506.592	42.062
509.967	35.8369
513.342	15.6895
516.717	1.8269
520.091	42.5452
523.466	42.6038
526.841	3.2544
530.216	7.0874
533.591	19.0144
536.966	9.3606
540.34	27.8486
543.715	36.4001
547.09	28.6238
550.465	45.5298
553.84	17.8984
557.215	19.6443
560.589	7.12085
563.964	21.9011
567.339	27.3235
570.714	15.8586
574.089	17.2009
577.463	12.5124
580.838	32.1084
584.213	30.0456
587.588	37.794
590.963	51.1143
594.337	38.0391
597.712	32.2991
601.087	41.1365
604.462	48.8054
607.837	9.21216
611.212	48.5017
614.586	6.33594
617.961	17.4839
621.336	4.08667
624.711	2.37329
628.086	0.712402
631.46	39.501
634.835	0.174805
638.21	9.25024
641.585	13.594
644.96	23.1052
648.335	22.6851
651.709	0.270264
655.084	9.17456
658.459	10.4866
661.834	42.8318
665.209	33.3401
668.583	25.7954
671.958	25.0334
675.333	17.4727
678.708	17.0652
682.083	37.5715
685.457	31.8098
688.832	5.66455
692.207	36.855
695.582	19.1668
698.957	24.0149
702.332	13.5518
705.706	16.9416
709.081	25.0879
712.456	32.4556
715.831	17.6184
719.206	14.9521
722.58	20.7512
725.955	32.5896
729.33	35.4609
732.705	35.0391
736.08	4.64868
739.455	20.6043
742.829	1.69385
746.204	9.11304
749.579	15.1819
752.954	15.1914
756.329	18.021
759.703	2.00757
763.078	17.6081
766.453	20.0742
769.828	28.554
773.203	13.021
776.577	1.89575
779.952	24.6741
783.327	24.0784
786.702	7.63452
790.077	22.2092
793.452	25.4822
796.826	33.0933
800.201	39.0247
803.576	25.2969
806.951	10.0156
810.326	22.0256
813.701	41.0852
817.075	20.2593
820.45	27.0017
823.825	29.1519
827.2	20.9851
830.575	4.2478
833.949	2.23633
837.324	15.9299
840.699	29.3914
844.074	18.0706
847.449	25.7834
850.823	6.48022
854.198	13.8103
857.573	39.248
860.948	14.8271
864.323	26.7053
867.697	34.6936
871.072	46.1401
874.447	12.0168
877.822	5.08814
881.197	26.6201
884.572	38.9793
887.946	17.0852
891.321	25.9636
894.696	17.5544
898.071	15.2175
901.446	21.3061
904.821	17.7331
908.195	8.08057
911.57	38.9458
914.945	23.5598
918.32	6.09009
921.695	24.1863
925.069	26.7607
928.444	32.6833
931.819	39.3142
935.194	36.0906
938.569	44.9605
941.943	1.22656
945.318	26.5439
948.693	17.5713
952.068	15.3049
955.443	26.5095
958.818	26.6267
962.192	22.4968
965.567	2.35596
968.942	7.84326
972.317	9.16675
975.692	20.1792
979.067	48.3586
982.441	6.03271
985.816	29.1194
989.191	15.8623
992.566	23.3098
995.941	4.19336
999.315	4.79224
1002.69	14.1926
1006.07	27.6309
1009.44	10.3528
1012.82	25.0252
1016.19	8.17261
1019.56	27.1636
1022.94	44.0698
1026.31	28.4644
1029.69	3.71924
1033.06	22.8728
1036.44	18.397
1039.81	46.9629
1043.19	50.6707
1046.56	41.7256
1049.94	14.0034
1053.31	0.345703
1056.69	15.8984
1060.06	5.15381
1063.44	7.47974
1066.81	42.0745
1070.19	0.851318
1073.56	29.782
1076.94	17.2659
1080.31	2.8291
1083.69	23.7939
1087.06	13.6899
1090.43	32.7212
1093.81	18.1726
1097.18	31.3645
1100.56	1.56592
1103.93	16.8984
1107.31	6.53735
1110.68	31.1594
1114.06	16.1221
1117.43	12.3623
1120.81	33.3
1124.18	5.93896
1127.56	27.5544
1130.93	40.248
1134.31	21.1443
1137.68	28.4688
1141.06	26.7749
1144.43	25.7158
1147.81	10.9995
1151.18	17.5418
1154.56	17.9287
1157.93	31.1943
1161.31	5.81494
1164.68	32.8379
1168.06	46.2151
1171.43	8.32642
1174.81	30.4978
1178.18	27.5747
1181.56	33.9775
1184.93	3.16626
1188.31	21.5806
1191.68	49.8831
1195.06	12.2947
1198.43	78.3289
1201.8	31.9111
1205.18	47.5859
1208.55	39.1475
1211.93	61.7668
1215.3	32.7293
1218.68	33.001
1222.05	30.3196
1225.43	56.6775
1228.8	57.0183
1232.18	63.1406
1235.55	67.458
1238.93	31.9309
1242.3	39.6267
1245.68	45.521
1249.05	17.3442
1252.43	23.3064
1255.8	10.9966
1259.18	2.59912
1262.55	17.3318
1265.93	15.1052
1269.3	5.55444
1272.67	14.6992
1276.05	25.249
1279.42	38.2402
1282.8	50.7034
1286.17	10.2363
1289.55	20.1658
1292.92	30.5146
1296.3	47.0295
1299.67	123.295
1303.05	113.842
1306.42	206.588
1309.8	329.568
1313.17	549.73
1316.55	926.257
1319.92	2590.43
1323.3	10034
1326.67	18042.8
1330.05	47661.6
1333.42	119310
1336.8	14059.5
1340.17	2865.3
1343.55	1129.91
1346.92	586.756
1350.3	243.947
1353.67	181.683
1357.05	38.0727
1360.42	43.0239
1363.8	5.67529
1367.17	6.70264
1370.55	27.7593
1373.92	11.8462
1377.3	89.2046
1380.67	20.0625
1384.04	147.47
1387.42	80.1968
1390.79	75.4434
1394.17	31.1294
1397.54	37.8384
1400.92	0.537598
