Measurement: Raman, 514 nm, unoriented, Raman Data Processed
Mineral: Diamond
Rruff sample: R050204
Ideal chemistry: C
Locality: Unknown
Source: Eric Van Valkenburg
Description: Single crystal, type IIA
Raman shift (cm-1)	intensity
150.345	0
154.509	157.85
158.671	3.92432
162.83	43.6543
166.988	84.3594
171.144	77.8852
175.297	19.4487
179.449	80.8384
183.598	52.8589
187.745	42.3813
191.891	68.3237
196.034	136.632
200.175	122.346
204.314	45.3721
208.451	79.5596
212.586	55.9019
216.719	119.397
220.85	54.0527
224.979	149.839
229.105	103.737
233.23	186.922
237.353	122.168
241.474	114.373
245.592	148.605
249.709	100.688
253.823	61.8618
257.936	56.1812
262.046	54.0742
266.155	58.9658
270.261	26.5586
274.365	69.2134
278.468	67.8301
282.568	122.672
286.666	116.076
290.762	146.81
294.857	144.685
298.949	118.603
303.039	179.576
307.127	109.597
311.213	161.79
315.297	106.264
319.379	103.63
323.46	101.706
327.538	76.9858
331.614	79.9653
335.688	85.4653
339.76	130.027
343.83	73.8555
347.898	48.5088
351.964	149.235
356.028	122.009
360.09	94.3901
364.15	82.6284
368.208	139.536
372.264	113.481
376.318	24.5835
380.37	49.7422
384.42	72.8994
388.468	164.08
392.514	143.223
396.558	2.73438
400.6	151.446
404.641	167.553
408.679	133.606
412.715	50.6699
416.749	56.5952
420.781	169.544
424.811	105.832
428.84	57.353
432.866	111.061
436.89	57.4165
440.913	91.6191
444.933	93.6221
448.951	72.6401
452.968	77.8911
456.982	120.854
460.995	34.79
465.005	37.0815
469.014	57.8706
473.02	135.763
477.025	45.873
481.027	50.6929
485.028	109.616
489.027	103.452
493.024	44.248
497.019	11.1313
501.012	15.0903
505.002	91.3442
508.992	60.1631
512.979	108.151
516.964	38.7363
520.947	36.2705
524.928	192.111
528.907	47.9624
532.885	45.3872
536.86	74.0415
540.834	123.735
544.805	98.2978
548.775	113.698
552.742	81.2754
556.708	32.5395
560.672	47.8272
564.634	69.1231
568.594	47.6455
572.552	37.021
576.508	3.82715
580.462	58.0132
584.414	66.2808
588.365	47.5776
592.313	29.5859
596.26	97.3418
600.204	101.017
604.147	112.649
608.088	39.2588
612.026	69.8018
615.963	100.313
619.898	86.2266
623.832	119.053
627.763	51.6313
631.692	8.81104
635.619	138.58
639.545	35.2212
643.469	56.8472
647.39	99.4541
651.31	170.475
655.228	139.326
659.144	153.295
663.058	94.6152
666.97	79.4839
670.881	57.3628
674.789	66.6792
678.696	97.1035
682.6	39.5772
686.503	14.9346
690.404	95.3633
694.303	111.512
698.2	137.866
702.095	82.8525
705.989	56.7622
709.88	166.51
713.77	175.127
717.658	96.6792
721.543	116.873
725.427	34.4219
729.31	1.00293
733.19	120.173
737.068	145.398
740.945	74.3267
744.819	51.5972
748.692	133.083
752.563	181.338
756.432	135.078
760.299	140.406
764.165	95.7437
768.028	109.683
771.89	105.68
775.749	34.3232
779.607	158.961
783.463	118.818
787.318	16.0161
791.17	7.41797
795.02	62.314
798.869	90.7485
802.716	13.5952
806.561	32.0508
810.404	49.2954
814.245	67.2681
818.085	143.017
821.922	101.205
825.758	87.1973
829.592	23.9014
833.424	33.6138
837.254	44.5298
841.083	147.842
844.909	46.8545
848.734	6.69043
852.557	43.7588
856.378	115.331
860.197	84.7622
864.015	104.196
867.83	33.2632
871.644	12.4111
875.456	57.5
879.266	11.9775
883.074	3.95752
886.881	56.439
890.686	1.33154
894.488	5.91211
898.29	29.2485
902.089	41.2866
905.886	115.37
909.682	123.59
913.476	73.769
917.268	45.9043
921.058	21.5991
924.846	117.707
928.633	132.055
932.418	136.85
936.201	68.7231
939.982	31.3852
943.761	58.8765
947.539	176.543
951.315	111.557
955.089	159.852
958.861	109.571
962.631	86.9819
966.4	136.245
970.167	100.496
973.932	39.0952
977.695	95.0889
981.456	94.2607
985.216	98.4468
988.974	108.11
992.73	143.731
996.484	126.526
1000.24	66.2178
1003.99	145.017
1007.74	135.835
1011.48	124.843
1015.23	74.418
1018.97	35.4605
1022.72	114.579
1026.45	184.486
1030.19	167.542
1033.93	166.894
1037.66	136.133
1041.4	116.911
1045.13	174.221
1048.86	144.063
1052.59	164.079
1056.31	123.279
1060.04	72.9385
1063.76	130.348
1067.48	152.665
1071.2	199.428
1074.92	231.88
1078.63	187.104
1082.35	127.73
1086.06	190.991
1089.77	87.5908
1093.47	63.3999
1097.18	35.4145
1100.89	65.3325
1104.59	221.165
1108.29	88.6533
1111.99	93.2808
1115.69	199.398
1119.38	55.7451
1123.08	46.8926
1126.77	75.1914
1130.46	86.918
1134.15	103.64
1137.84	72.6094
1141.53	140.115
1145.21	2.24902
1148.89	92.2549
1152.57	122.179
1156.25	91.7852
1159.93	103.971
1163.61	64.9678
1167.28	226.285
1170.95	154.024
1174.62	35.4395
1178.29	30.6787
1181.96	188.59
1185.62	167.113
1189.28	74.1904
1192.95	119.785
1196.61	103.792
1200.26	84.6787
1203.92	161.091
1207.58	137.642
1211.23	90.8633
1214.88	159.62
1218.53	109.172
1222.18	30.3418
1225.82	0.047852
1229.47	195.145
1233.11	58.331
1236.75	162.537
1240.39	125.142
1244.03	180.609
1247.66	156.036
1251.3	91.8184
1254.93	53.6533
1258.56	92.9336
1262.19	150.931
1265.82	192.865
1269.45	142.921
1273.07	15.6914
1276.69	43.6846
1280.31	4.30273
1283.93	38.0918
1287.55	55.0185
1291.16	151.769
1294.78	41.6455
1298.39	14.6719
1302	138.332
1305.61	4.04785
1309.22	109.734
1312.82	233.754
1316.43	207.33
1320.03	339.554
1323.63	780.938
1327.23	2263.47
1330.83	28854.8
1334.42	14495.5
1338.02	1625.97
1341.61	565.812
1345.2	335.106
1348.79	324.268
1352.38	62.667
1355.96	190.996
1359.55	201.834
1363.13	219.221
1366.71	265.458
1370.29	140.649
1373.86	216.291
1377.44	170.778
1381.01	252.589
1384.59	4.98047
1388.16	23.999
1391.72	112.852
1395.29	189.862
1398.86	12.8164
1402.42	109.167
1405.98	175.534
1409.55	96.7861
1413.11	67.2988
1416.66	120.315
1420.22	64.9981
1423.77	140.912
1427.32	36.3828
1430.88	31.4434
1434.42	146.117
1437.97	317.863
1441.52	369.202
1445.06	576.914
1448.61	453.673
1452.15	376.736
1455.68	466.527
1459.22	524.096
1462.76	531.653
1466.29	432.943
1469.83	187.559
1473.36	370.653
1476.89	143.439
1480.41	276.856
1483.94	501.249
1487.47	325.545
1490.99	441.448
1494.51	308.856
1498.03	457.406
1501.55	177.884
1505.07	391.239
1508.58	254.356
1512.09	123.246
1515.61	0.412109
