Measurement: Raman, 532 nm, unoriented, Raman Data Processed
Mineral: Diamond
Rruff sample: R150087
Ideal chemistry: C
Locality: unknown
Source: Michael Scott
Description: A dark-brown single crystal cube
Raman shift (cm-1)	intensity
98.3997	0
109.971	17.2171
121.541	27.8816
133.112	36.9867
144.683	38.2865
156.254	47.0332
167.825	41.9764
179.395	44.6679
190.966	40.6217
202.537	38.4433
214.108	34.6724
225.679	27.8733
237.249	28.6152
248.82	20.7876
260.391	21.6849
271.962	19.6071
283.533	24.8795
295.103	13.386
306.674	20.3939
318.245	19.0129
329.816	19.6332
341.387	17.2921
352.957	18.0823
364.528	11.7399
376.099	8.2088
387.67	0.715149
399.24	7.448
410.811	0.756775
422.382	1.54828
433.953	7.11395
445.524	0.19162
457.094	2.53622
468.665	10.4764
480.236	8.12805
491.807	18.125
503.378	1.26727
514.948	6.99878
526.519	4.37378
538.09	1.33545
549.661	4.37921
561.232	0.814453
572.803	4.1106
584.373	9.21289
595.944	14.723
607.515	18.4525
619.086	24.1829
630.657	28.1517
642.227	33.7936
653.798	42.9853
665.369	46.1925
676.94	58.9772
688.51	59.9304
700.081	61.1886
711.652	56.0654
723.223	63.6653
734.794	76.2836
746.365	72.4311
757.935	69.0678
769.506	67.1392
781.077	78.7797
792.648	81.1918
804.218	81.8804
815.789	79.7336
827.36	77.6281
838.931	80.8239
850.502	74.8514
862.072	69.869
873.643	61.3393
885.214	43.9872
896.785	31.602
908.356	21.2389
919.927	4.93884
931.497	0.926941
943.068	3.77173
954.639	0.077087
966.21	2.06366
977.78	0.284607
989.351	3.38788
1000.92	0.479309
1012.49	7.48523
1024.06	5.02405
1035.63	8.10132
1047.2	7.69739
1058.78	13.2103
1070.35	11.7494
1081.92	12.3133
1093.49	9.28882
1105.06	3.30579
1116.63	3.89789
1128.2	6.90008
1139.77	2.31067
1151.34	7.71014
1162.91	3.13062
1174.48	3.7666
1186.06	10.381
1197.63	13.9858
1209.2	20.7855
1220.77	32.1161
1232.34	38.5671
1243.91	50.1092
1255.48	65.055
1267.05	69.3445
1278.62	90.9596
1290.19	242.143
1301.76	1931.69
1313.33	2245.76
1324.9	6505.83
1336.47	22971.1
1348.05	7410.56
1359.62	1884.18
1371.19	300.321
1382.76	72.4166
1394.33	30.2911
1405.9	23.2091
1417.47	13.2007
1429.04	18.7266
1440.61	15.8055
1452.18	21.0743
1463.75	26.2739
1475.33	24.066
1486.9	16.2669
1498.47	9.92175
1510.04	4.46899
1521.61	1.66974
1533.18	6.5094
1544.75	0.761841
1556.32	12.1156
1567.89	4.0083
1579.46	2.26544
1591.03	1.27362
1602.6	4.97931
1614.17	1.18921
1625.74	5.88574
1637.32	8.2746
1648.89	6.05298
1660.46	9.97974
1672.03	11.3266
1683.6	9.97913
1695.17	5.90454
1706.74	7.53442
1718.31	0.909302
1729.88	14.9609
1741.45	0.43811
1753.02	8.95691
1764.6	12.5266
1776.17	11.9243
1787.74	17.0005
1799.31	6.61499
1810.88	6.81921
1822.45	8.98596
1834.02	7.77918
1845.59	7.49768
1857.16	11.3798
1868.73	10.0709
1880.3	14.4174
1891.87	14.1923
1903.44	15.1797
1915.02	14.628
1926.59	10.3926
1938.16	9.52185
1949.73	0.527344
1961.3	3.93799
1972.87	4.02466
1984.44	6.98181
1996.01	0.115967
2007.58	10.684
2019.15	9.29651
2030.72	13.4233
2042.29	10.1374
2053.86	11.3203
2065.44	2.35205
2077.01	5.52747
2088.58	0.372681
2100.15	2.0907
2111.72	7.57935
2123.29	10.9601
2134.86	3.05737
2146.43	2.60059
2158	5.68665
2169.57	13.2549
2181.14	15.3391
2192.72	22.7053
2204.28	14.8646
2215.86	22.2588
2227.43	32.1318
2239	40.3129
2250.57	43.1526
2262.14	52.3259
2273.71	62.005
2285.28	69.2716
2296.85	85.7711
2308.42	100.013
2319.99	111.163
2331.56	130.586
2343.14	128.434
2354.71	120.209
2366.28	126.728
2377.85	128.977
2389.42	149.636
2400.99	167.054
2412.56	184.345
2424.13	218.289
2435.7	264.545
2447.27	298.808
2458.84	332.36
2470.41	330.165
2481.99	296.378
2493.55	284.394
2505.13	256.623
2516.7	222.95
2528.27	172.767
2539.84	150.757
2551.41	123.537
2562.98	111.933
2574.55	100.453
2586.12	103.894
2597.69	108.562
2609.26	101.158
2620.83	105.238
2632.41	93.9263
2643.98	95.9925
2655.55	103.503
2667.12	111.268
2678.69	70.0098
2690.26	23.5309
2701.83	5.27441
2713.4	6.86047
2724.97	0.465942
2736.54	2.39197
2748.11	0.627686
2759.68	6.89966
2771.26	5.09058
2782.82	8.6294
2794.4	4.54675
2805.97	8.47986
2817.54	2.70654
2829.11	11.4872
2840.68	4.37
2852.25	8.67786
2863.82	0.882935
2875.39	18.0114
2886.96	9.71094
2898.53	19.6107
2910.1	22.2312
2921.68	19.9138
2933.25	24.3456
2944.82	24.4246
2956.39	28.7898
2967.96	24.2606
2979.53	24.5653
2991.1	26.3791
3002.67	19.3229
3014.24	13.9193
3025.81	9.28015
3037.38	6.51648
3048.95	3.63965
3060.53	11.4443
3072.09	10.1752
3083.67	10.2341
3095.24	25.059
3106.81	18.9318
3118.38	24.4507
3129.95	28.8363
3141.52	34.1675
3153.09	24.7749
3164.66	34.5549
3176.23	34.0727
3187.8	37.0353
3199.37	28.2532
3210.95	18.4123
3222.52	27.842
3234.09	25.7214
3245.66	18.9037
3257.23	26.9748
3268.8	11.0637
3280.37	12.7175
3291.94	6.75378
3303.51	4.95386
3315.08	4.51355
3326.65	0.833374
3338.22	3.38525
3349.8	4.6261
3361.36	1.34045
3372.94	9.56543
3384.51	10.7053
3396.08	0.348633
3407.65	2.35461
3419.22	3.44727
3430.79	8.20508
3442.36	10.3123
3453.93	12.5077
3465.5	3.14746
3477.07	9.34961
3488.64	13.2165
3500.22	3.31335
3511.79	1.89014
3523.36	2.37073
3534.93	13.2419
3546.5	24.0178
3558.07	21.0238
3569.64	28.5994
3581.21	36.1893
3592.78	42.3368
3604.35	45.7676
3615.92	38.376
3627.49	32.7082
3639.07	36.3652
3650.64	33.9028
3662.21	36.0994
3673.78	42.6077
3685.35	34.9065
3696.92	24.8965
3708.49	22.8916
3720.06	22.3928
3731.63	22.3789
3743.2	26.7244
3754.77	18.9072
3766.34	15.085
3777.91	8.53711
3789.49	10.4297
3801.06	5.50708
3812.63	9.85107
3824.2	9.96533
3835.77	3.69653
3847.34	6.82764
3858.91	16.5547
3870.48	2.59204
3882.05	5.29321
3893.62	14.0889
3905.19	7.44067
3916.76	13.6091
3928.34	17.1853
3939.91	18.3931
3951.48	10.0222
3963.05	18.8674
3974.62	16.3684
3986.19	22.0908
3997.76	8.90649
4009.33	14.585
4020.9	17.1096
4032.47	11.9573
4044.04	10.522
4055.61	3.07422
4067.18	2.18457
4078.76	8.17578
4090.33	0.102295
4101.9	0.923584
4113.47	9.25122
4125.04	11.0808
4136.61	4.17139
4148.18	14.2651
4159.75	9.82544
4171.32	14.5588
4182.89	23.8677
4194.46	12.1589
4206.03	32.6609
4217.6	12.9116
4229.18	0.657715
4240.75	4.85327
