Measurement: Raman, 532 nm, unoriented, Raman Data Processed
Mineral: Diamond
Rruff sample: R050207
Ideal chemistry: C
Locality: Unknown
Source: Eric Van Valkenburg
Description: Single crystal,  type I
Raman shift (cm-1)	intensity
93.9005	0
97.7575	5.64041
101.614	7.18989
105.471	0.209319
109.328	1.48703
113.185	6.36861
117.042	4.7748
120.899	10.0057
124.756	30.0175
128.613	38.0033
132.47	27.4891
136.327	31.4043
140.184	28.7042
144.041	35.1875
147.898	42.8546
151.755	29.774
155.611	26.0467
159.468	25.3917
163.325	20.5844
167.182	29.2603
171.039	23.8903
174.896	23.1316
178.753	14.8432
182.61	18.7373
186.467	16.2535
190.324	17.2468
194.181	9.77103
198.038	14.1507
201.895	6.39074
205.751	0.207371
209.608	10.7977
213.465	8.80206
217.322	4.9757
221.179	5.81211
225.036	1.39829
228.893	5.04432
232.75	1.20435
236.607	7.12872
240.464	8.90393
244.321	6.34729
248.178	9.32025
252.035	4.48995
255.892	4.91156
259.749	5.57712
263.606	0.947998
267.462	1.82214
271.319	6.52328
275.176	8.71795
279.033	2.7209
282.89	8.11063
286.747	6.74506
290.604	9.44139
294.461	4.52859
298.318	9.0084
302.175	5.93202
306.032	11.1115
309.889	5.7813
313.746	3.8145
317.603	8.94472
321.459	7.85833
325.316	0.39397
329.173	10.6802
333.03	12.5597
336.887	0.246437
340.744	8.43418
344.601	2.81454
348.458	5.39365
352.315	11.429
356.172	11.6021
360.029	6.74527
363.886	8.24583
367.743	7.27001
371.6	6.37198
375.457	6.82782
379.313	9.33215
383.17	10.1007
387.027	6.94397
390.884	5.7042
394.741	18.1876
398.598	7.82902
402.455	7.7863
406.312	4.17854
410.169	6.23124
414.026	10.9189
417.883	12.4023
421.74	4.60253
425.597	11.123
429.454	10.0055
433.31	12.4346
437.168	6.88192
441.024	1.70934
444.881	12.9485
448.738	6.40759
452.595	6.74291
456.452	7.68471
460.309	10.7556
464.166	12.1092
468.023	6.16201
471.88	6.0193
475.737	7.06635
479.594	4.44987
483.451	0.054665
487.308	4.5423
491.164	5.43642
495.022	3.67377
498.878	9.86598
502.735	0.412773
506.592	7.66303
510.449	8.82285
514.306	12.8138
518.163	4.1196
522.02	1.32624
525.877	4.82732
529.734	4.24519
533.591	6.41227
537.448	0.270081
541.305	3.19418
545.162	8.85438
549.019	6.02601
552.875	6.5313
556.732	0.072777
560.589	0.026535
564.446	2.39288
568.303	4.9745
572.16	4.91518
576.017	9.77764
579.874	6.6255
583.731	1.18282
587.588	5.4231
591.445	5.13041
595.302	3.65872
599.159	7.93935
603.016	5.30354
606.872	0.298111
610.729	1.75024
614.586	3.50523
618.443	5.29251
622.3	0.285057
626.157	4.965
630.014	8.47051
633.871	1.91371
637.728	7.31386
641.585	3.83644
645.442	7.53295
649.299	5.50375
653.156	12.9655
657.013	6.26802
660.87	4.04692
664.726	7.44383
668.583	0.629623
672.44	9.24519
676.297	9.02651
680.154	6.67203
684.011	3.87397
687.868	2.59554
691.725	7.6856
695.582	11.4696
699.439	4.24633
703.296	5.00226
707.153	1.42478
711.01	0.406471
714.867	9.91751
718.723	5.85374
722.58	3.82218
726.437	3.8567
730.294	6.21246
734.151	9.37563
738.008	9.09647
741.865	7.93691
745.722	4.21043
749.579	0.371826
753.436	4.57809
757.293	4.21382
761.15	9.64409
765.007	1.25223
768.864	6.61195
772.721	9.51378
776.577	1.51983
780.434	7.92559
784.291	3.80888
788.148	6.45328
792.005	12.4349
795.862	8.09586
799.719	2.18579
803.576	0.323532
807.433	14.0037
811.29	1.79934
815.147	10.0028
819.004	3.68755
822.861	1.13979
826.718	3.91952
830.575	2.44863
834.432	1.61939
838.288	5.03332
842.145	4.97872
846.002	2.46057
849.859	3.93198
853.716	4.45417
857.573	8.47765
861.43	7.92933
865.287	5.72418
869.144	0.315918
873.001	6.21882
876.858	2.72425
880.715	11.2978
884.572	4.87833
888.428	4.92361
892.285	4.59764
896.142	3.09598
899.999	5.79253
903.856	1.59341
907.713	0.057343
911.57	5.83503
915.427	8.65309
919.284	2.98106
923.141	5.14153
926.998	4.91235
930.855	7.25622
934.712	2.60524
938.569	4.24611
942.426	11.2533
946.283	7.96523
950.139	1.11256
953.996	4.12752
957.853	8.14883
961.71	7.0236
965.567	7.0514
969.424	6.20474
973.281	3.6816
977.138	8.2067
980.995	4.89152
984.852	3.09894
988.709	3.71984
992.566	8.34158
996.423	7.54482
1000.28	8.74733
1004.14	3.58289
1007.99	3.90666
1011.85	5.53925
1015.71	6.12163
1019.56	5.82202
1023.42	8.70248
1027.28	2.28595
1031.13	7.94184
1034.99	6.99249
1038.85	4.13618
1042.71	3.36977
1046.56	5.16013
1050.42	2.08379
1054.28	7.90254
1058.13	3.55434
1061.99	3.78754
1065.85	8.7598
1069.7	4.76581
1073.56	3.77631
1077.42	2.56769
1081.28	4.10655
1085.13	8.56033
1088.99	3.85715
1092.85	8.14276
1096.7	7.677
1100.56	10.0149
1104.42	6.22487
1108.27	4.27672
1112.13	4.68018
1115.99	7.6637
1119.84	4.2993
1123.7	7.9285
1127.56	8.31068
1131.41	4.0201
1135.27	6.77466
1139.13	8.14932
1142.99	4.46495
1146.84	8.86552
1150.7	0.920074
1154.56	3.35994
1158.41	13.0088
1162.27	6.81439
1166.13	10.9149
1169.98	7.99901
1173.84	1.82031
1177.7	7.29742
1181.56	14.8046
1185.41	7.62454
1189.27	6.60199
1193.13	9.13268
1196.98	11.5233
1200.84	6.12904
1204.7	1.54388
1208.55	9.68306
1212.41	9.92268
1216.27	6.24878
1220.12	8.56352
1223.98	3.75088
1227.84	2.83093
1231.7	5.52542
1235.55	0.333191
1239.41	0.260895
1243.27	1.34547
1247.12	7.7514
1250.98	3.36568
1254.84	5.22917
1258.69	0.279724
1262.55	5.12361
1266.41	7.38452
1270.27	9.24153
1274.12	14.8543
1277.98	23.1501
1281.84	24.7675
1285.69	30.0496
1289.55	40.0029
1293.41	58.733
1297.26	66.1283
1301.12	92.9954
1304.98	119.896
1308.83	148.484
1312.69	231.643
1316.55	452.488
1320.4	1384.92
1324.26	3940.71
1328.12	9178.34
1331.98	29740
1335.83	10401.8
1339.69	1740.33
1343.55	587.319
1347.4	269.704
1351.26	163.415
1355.12	93.6678
1358.97	51.9034
1362.83	39.0842
1366.69	23.68
1370.55	17.2698
1374.4	8.80067
1378.26	1.34569
1382.12	9.46329
1385.97	5.3605
1389.83	7.10492
1393.69	4.76627
1397.54	1.55185
1401.4	4.10458
1405.26	2.09258
1409.11	1.30827
1412.97	1.40109
1416.83	7.14957
1420.68	5.67468
1424.54	10.2375
1428.4	11.1735
1432.26	7.2554
1436.11	7.16589
1439.97	6.60525
1443.83	6.51323
1447.68	1.19089
1451.54	13.8211
1455.4	11.464
1459.26	5.92011
1463.11	7.88533
1466.97	8.04329
1470.83	17.3972
1474.68	0.096405
1478.54	11.665
1482.4	20.5904
1486.25	2.99072
1490.11	9.59276
1493.97	5.84581
1497.82	5.33148
