Measurement: Raman, 514 nm, unoriented, Raman Data Processed
Mineral: Diamond
Rruff sample: R050206
Ideal chemistry: C
Locality: Unknown
Source: Eric Van Valkenburg
Description: Single crystal, type IIA
Raman shift (cm-1)	intensity
157.284	0
161.444	15.998
165.602	40.2122
169.759	1.12207
173.913	31.9863
178.065	48.1279
182.215	12.8677
186.363	31.6899
190.509	43.8852
194.653	135.218
198.795	62.3535
202.935	53.0832
207.072	109.201
211.208	47.8943
215.342	11.6094
219.473	35.9529
223.603	72.8945
227.73	15.9153
231.856	4.97388
235.979	59.5732
240.1	46.6709
244.22	18.0718
248.337	30.1582
252.452	12.2773
256.565	14.3589
260.676	29.762
264.785	80.9783
268.892	68.8413
272.997	61.5076
277.1	20.0361
281.201	75.5169
285.3	122.124
289.397	68.6089
293.492	24.0212
297.585	23.3472
301.676	78.7107
305.765	39.0823
309.851	58.4565
313.936	56.8708
318.019	47.4875
322.1	10.6604
326.178	1.80933
330.255	44.1484
334.33	52.4089
338.403	12.8533
342.473	45.1787
346.542	75.1311
350.609	86.4507
354.673	5.44971
358.736	2.40137
362.797	27.2541
366.856	115.908
370.912	9.59595
374.967	37.9605
379.02	14.8091
383.07	26.2881
387.119	64.7271
391.166	103.023
395.211	123.147
399.253	102.585
403.294	109.737
407.333	17.1382
411.37	10.3396
415.405	16.4966
419.437	29.8091
423.468	43.5564
427.497	46.7861
431.524	75.2373
435.549	79.2173
439.572	28.3164
443.593	26.8601
447.612	92.4141
451.629	109.895
455.644	88.3733
459.657	54.877
463.668	15.449
467.678	35.803
471.685	46.356
475.69	46.8872
479.693	95.3018
483.695	103.716
487.694	71.8652
491.692	76.3557
495.687	66.8333
499.681	111.015
503.672	69.4651
507.662	90.6902
511.65	44.6238
515.636	46.8394
519.619	97.6362
523.601	104.393
527.581	45.3186
531.559	4.48682
535.535	71.9429
539.509	53.238
543.482	85.6997
547.452	59.0945
551.42	98.5745
555.386	108.206
559.351	71.728
563.313	82.2764
567.274	78.6492
571.233	96.0073
575.189	95.0452
579.144	63.6108
583.097	28.1653
587.048	0.788086
590.997	88.4082
594.944	70.0254
598.89	32.1956
602.833	74.0642
606.774	45.4651
610.714	100.073
614.651	21.7061
618.587	133.299
622.521	53.9351
626.453	66.5684
630.383	131.968
634.311	142.55
638.237	105.128
642.161	95.7012
646.083	81.2725
650.004	78.8418
653.922	47.406
657.839	99.9817
661.754	55.5532
665.666	6.87744
669.577	70.6758
673.487	9.22632
677.394	1.82642
681.299	50.8994
685.202	37.4468
689.104	46.9226
693.004	95.4202
696.901	18.9678
700.797	55.456
704.691	35.9392
708.583	74.4329
712.473	104.473
716.362	57.085
720.248	42.6274
724.133	11.3342
728.016	22.5332
731.897	82.6594
735.776	34.5361
739.653	67.0403
743.528	52.0764
747.401	53.363
751.273	115.762
755.143	1.78418
759.01	10.5007
762.876	25.96
766.74	53.2144
770.603	124.356
774.463	92.4839
778.322	67.6001
782.178	4.75
786.033	68.2666
789.886	97.3733
793.737	73.4678
797.586	88.5505
801.434	81.6248
805.279	62.6877
809.123	123.745
812.965	114.807
816.805	62.8704
820.643	55.5037
824.48	69.5005
828.314	57.8066
832.147	65.1062
835.978	55.9526
839.807	64.4106
843.634	55.4219
847.459	25.4231
851.283	82.397
855.104	40.4009
858.924	35.3989
862.742	19.6318
866.559	14.8574
870.373	57.0039
874.185	55.854
877.996	51.0205
881.805	38.79
885.612	23.1396
889.418	20.8657
893.221	59.7124
897.023	48.4912
900.823	16.2524
904.621	68.0151
908.417	10.9092
912.211	36.145
916.004	6.66064
919.795	81.3296
923.584	53.9829
927.371	85.6216
931.156	58.208
934.94	6.25293
938.722	102.365
942.502	158.986
946.28	55.5855
950.056	79.396
953.831	48.1323
957.604	45.6699
961.375	108.007
965.144	41.7476
968.911	120.619
972.677	99.5278
976.441	92.3418
980.203	20.1519
983.963	27.8838
987.721	121.151
991.478	93.7769
995.233	137.434
998.986	99.2915
1002.74	125.659
1006.49	47.2495
1010.24	97.6289
1013.98	65.6538
1017.73	71.8144
1021.47	150.804
1025.21	191.227
1028.95	87.4712
1032.68	77.5249
1036.42	110.257
1040.15	94.7705
1043.88	75.9712
1047.62	73.4688
1051.34	209.188
1055.07	130.952
1058.8	90.5727
1062.52	26.6445
1066.24	84.6553
1069.96	136.385
1073.68	149.883
1077.39	143.258
1081.11	84.9873
1084.82	108.524
1088.53	132.799
1092.24	77.0015
1095.95	95.6875
1099.65	28.9595
1103.36	110.32
1107.06	107.068
1110.76	31.127
1114.46	11.1021
1118.15	13.895
1121.85	35.7178
1125.54	25.6704
1129.23	27.9258
1132.92	106.901
1136.61	118.502
1140.3	11.1172
1143.98	8.78955
1147.66	58.916
1151.35	23.8852
1155.03	58.9766
1158.7	65.4814
1162.38	19.1792
1166.05	4.17383
1169.73	11.3926
1173.4	9.12207
1177.07	8.25
1180.73	104.507
1184.4	104.673
1188.06	4.25732
1191.73	134.721
1195.39	65.6323
1199.05	14.5269
1202.7	13.2041
1206.36	108.855
1210.01	49.3052
1213.66	59.8198
1217.31	104.262
1220.96	100.595
1224.61	72.8657
1228.25	28.9536
1231.9	64.0938
1235.54	17.9248
1239.18	22.9976
1242.82	134.783
1246.45	71.0972
1250.09	103.698
1253.72	75.2861
1257.35	113.35
1260.98	35.6221
1264.61	91.4087
1268.24	50.4341
1271.86	39.1728
1275.48	111.856
1279.11	153.647
1282.73	37.1562
1286.34	15.4146
1289.96	52.8599
1293.58	78.0845
1297.19	20.4946
1300.8	5.08887
1304.41	67.3232
1308.02	205.388
1311.62	210.873
1315.23	358.815
1318.83	512.837
1322.43	712.716
1326.03	1520.18
1329.63	7807.8
1333.22	50773.9
1336.82	6131.59
1340.41	1259.66
1344	638.194
1347.59	475.857
1351.18	374.829
1354.77	321.07
1358.35	207.957
1361.93	189.754
1365.52	77.6523
1369.09	75.5991
1372.67	169.755
1376.25	118.332
1379.82	50.269
1383.39	166.431
1386.97	91.936
1390.54	91.8306
1394.1	43.1099
1397.67	96.4561
1401.23	4.79834
1404.8	51.0127
1408.36	102.512
1411.92	93.0781
1415.48	65.6372
1419.03	94.0991
1422.59	142.556
1426.14	83.0762
1429.69	109.634
1433.24	93.1401
1436.79	87.6675
1440.34	105.188
1443.88	73.6685
1447.42	57.1841
1450.97	67.8091
1454.51	77.3818
1458.04	191.178
1461.58	176.588
1465.12	189.881
1468.65	179.829
1472.18	138.92
1475.71	173.041
1479.24	90.6826
1482.77	34.7925
1486.29	1.01221
1489.82	71.2739
1493.34	100.76
1496.86	86.5093
1500.38	149.26
1503.89	119.033
1507.41	89.083
1510.92	66.167
1514.44	98.5942
1517.95	50.002
1521.45	0
