Measurement: Raman, 532 nm, unoriented, Raman Data Processed
Mineral: Diamond
Rruff sample: R150107
Ideal chemistry: C
Locality: Za√Øre
Source: Rock Currier
Description: Tan or grey octahedral or spinel twinned crystals.
Raman shift (cm-1)	intensity
100.328	0
111.899	9.51926
123.47	36.3794
135.041	43.9402
146.611	57.355
158.182	64.2186
169.753	80.4777
181.324	86.1589
192.894	76.7997
204.465	73.0362
216.036	64.7192
227.607	57.7109
239.178	51.0096
250.749	47.5193
262.319	44.5406
273.89	40.4427
285.461	31.2756
297.032	30.2873
308.603	27.3386
320.173	32.4995
331.744	30.5923
343.315	28.8596
354.886	27.2772
366.457	16.6441
378.027	12.5503
389.598	14.1457
401.169	17.843
412.74	10.5107
424.31	6.7464
435.881	3.51776
447.452	0.41803
459.023	1.81525
470.594	0.244385
482.165	2.40362
493.735	10.6945
505.306	7.46997
516.877	3.06262
528.448	5.53137
540.019	6.68176
551.589	3.08276
563.16	15.1088
574.731	6.82355
586.302	1.84808
597.873	2.68292
609.443	3.12353
621.014	3.80579
632.585	0.78241
644.156	0.811035
655.727	4.01349
667.297	1.57105
678.868	9.05621
690.439	5.42786
702.01	5.27081
713.581	1.71503
725.151	1.93347
736.722	8.92792
748.293	3.46942
759.864	1.24774
771.435	14.0771
783.005	7.15674
794.576	6.73798
806.147	6.50244
817.718	4.83386
829.289	16.9554
840.859	10.9345
852.43	7.48309
864.001	18.5109
875.572	12.7256
887.143	12.8247
898.713	1.40362
910.284	1.47943
921.855	9.63348
933.426	9.93872
944.997	2.10095
956.567	0.461609
968.138	4.19476
979.709	3.31647
991.28	2.9552
1002.85	0.735291
1014.42	0.351196
1025.99	5.81348
1037.56	3.81403
1049.13	5.17859
1060.7	2.70563
1072.28	9.56372
1083.85	15.1142
1095.42	2.50348
1106.99	1.54944
1118.56	17.284
1130.13	10.9957
1141.7	9.5672
1153.27	6.83081
1164.84	2.03522
1176.41	8.92175
1187.98	18.5457
1199.55	18.0153
1211.12	19.8412
1222.7	28.0768
1234.27	24.1903
1245.84	31.0991
1257.41	32.9493
1268.98	33.8206
1280.55	43.3472
1292.12	179.982
1303.69	1031.68
1315.26	958.973
1326.83	2723.22
1338.4	6522.66
1349.97	1252.22
1361.55	135.409
1373.12	32.9828
1384.69	18.7756
1396.26	14.7425
1407.83	0.114746
1419.4	1.37512
1430.97	6.31152
1442.54	3.84363
1454.11	6.95081
1465.68	8.95837
1477.25	7.27051
1488.82	7.06226
1500.39	5.85535
1511.97	12.0479
1523.54	9.29504
1535.11	17.7992
1546.68	17.8412
1558.25	12.2247
1569.82	15.7747
1581.39	18.5488
1592.96	0.180786
1604.53	9.16724
1616.1	5.93567
1627.67	5.24548
1639.24	11.1124
1650.82	0.218628
1662.39	3.19788
1673.96	0.741455
1685.53	4.89819
1697.1	7.21375
1708.67	10.6641
1720.24	10.1126
1731.81	4.27856
1743.38	6.67065
1754.95	10.4498
1766.52	16.9611
1778.09	19.0226
1789.66	13.978
1801.24	17.5276
1812.81	11.2903
1824.38	19.3301
1835.95	14.5706
1847.52	12.0741
1859.09	3.21082
1870.66	7.63159
1882.23	13.7754
1893.8	8.85877
1905.37	12.7523
1916.94	27.3094
1928.52	9.35864
1940.09	0.309937
1951.66	8.99085
1963.23	10.8967
1974.8	1.54199
1986.37	7.90161
1997.94	11.7496
2009.51	16.3217
2021.08	18.4368
2032.65	30.1732
2044.22	25.0217
2055.79	25.5474
2067.36	27.8779
2078.93	27.473
2090.51	17.0017
2102.08	18.7513
2113.65	23.9154
2125.22	5.47107
2136.79	7.99341
2148.36	11.022
2159.93	1.53418
2171.5	6.37878
2183.07	12.2856
2194.64	3.28723
2206.21	2.6178
2217.78	6.03931
2229.36	11.6696
2240.93	5.38403
2252.5	2.82922
2264.07	2.05103
2275.64	5.52966
2287.21	0.525269
2298.78	1.52002
2310.35	10.1342
2321.92	7.62524
2333.49	11.9904
2345.06	7.80115
2356.63	1.04382
2368.2	2.5221
2379.78	7.27576
2391.35	7.76489
2402.92	7.75842
2414.49	17.6939
2426.06	38.4331
2437.63	68.5588
2449.2	69.4334
2460.77	63.3499
2472.34	56.8523
2483.91	42.0149
2495.48	45.425
2507.05	35.1677
2518.62	23.5105
2530.2	20.5129
2541.77	18.675
2553.34	17.7976
2564.91	28.4329
2576.48	34.9248
2588.05	41.1902
2599.62	72.3193
2611.19	69.7065
2622.76	75.7883
2634.33	86.801
2645.9	100.592
2657.47	103.082
2669.05	115.478
2680.62	118.436
2692.19	114.837
2703.76	126.794
2715.33	128.838
2726.9	143.12
2738.47	166.305
2750.04	168.003
2761.61	178.434
2773.18	187.965
2784.75	191.308
2796.32	201.933
2807.9	183.039
2819.47	164.736
2831.04	157.352
2842.61	138.327
2854.18	125.539
2865.75	112.924
2877.32	92.1223
2888.89	89.9602
2900.46	61.9143
2912.03	61.7227
2923.6	23.3584
2935.17	21.9209
2946.74	15.3809
2958.32	10.0903
2969.89	7.10889
2981.46	8.68359
2993.03	20.8369
3004.6	16.7056
3016.17	1.03174
3027.74	3.87793
3039.31	41.5557
3050.88	72.0039
3062.45	135.777
3074.02	229.215
3085.59	313.397
3097.17	442.406
3108.74	558.312
3120.31	695.663
3131.88	863.168
3143.45	944.371
3155.02	1007.14
3166.59	1011.09
3178.16	1032.93
3189.73	964.628
3201.3	868.932
3212.87	725.012
3224.44	634.751
3236.01	505.548
3247.59	389.834
3259.16	305.963
3270.73	233.815
3282.3	188.06
3293.87	155.105
3305.44	157.511
3317.01	175.468
3328.58	229.894
3340.15	289.826
3351.72	320.56
3363.29	343.231
3374.86	368.776
3386.44	304.21
3398.01	266.174
3409.58	247.273
3421.15	202.349
3432.72	131.459
3444.29	57.8594
3455.86	46.626
3467.43	25.7988
3479	13.9785
3490.57	12.3447
3502.14	28.1689
3513.71	31.3848
3525.28	114.434
3536.86	165.448
3548.43	253.536
3560	340.296
3571.57	474.595
3583.14	581.269
3594.71	741.279
3606.28	843.015
3617.85	944.375
3629.42	1037.4
3640.99	1113.46
3652.56	1135.82
3664.14	1135.2
3675.71	1131.13
3687.28	1094.31
3698.85	1034.6
3710.42	980
3721.99	910.484
3733.56	844.854
3745.13	746.065
3756.7	661.274
3768.27	617.56
3779.84	483.808
3791.41	434.083
3802.98	362.618
3814.55	293.981
3826.13	212.546
3837.7	90.1611
3849.27	79.6856
3860.84	37.71
3872.41	13.4238
3883.98	1.29883
3895.55	0.806641
3907.12	7.40234
3918.69	13.4004
3930.26	14.6504
3941.83	33.0215
3953.41	51.957
3964.98	106.459
3976.55	109.203
3988.12	127.842
3999.69	144.418
4011.26	148.043
4022.83	227.09
4034.4	187.008
4045.97	182.002
4057.54	224.502
4069.11	228.799
4080.68	185.455
4092.25	145.531
4103.82	177.055
4115.4	186.377
4126.97	168.049
4138.54	197.32
4150.11	238.482
4161.68	212.762
4173.25	202.264
4184.82	220.266
4196.39	178.371
4207.96	90.8984
4219.53	81.1367
4231.1	13.6406
4242.68	0
