Measurement: Raman, 785 nm, unoriented, Raman Data Processed
Mineral: Diamond
Rruff sample: R050204
Ideal chemistry: C
Locality: Unknown
Source: Eric Van Valkenburg
Description: Single crystal, type IIA
Raman shift (cm-1)	intensity
179.965	0
183.34	111.81
186.715	221.722
190.09	49.9736
193.465	15.0957
196.84	221.071
200.214	46.3525
203.589	105.125
206.964	301.037
210.339	547.541
213.714	816.348
217.089	1231.13
220.463	2039.24
223.838	2958.3
227.213	3909.5
230.588	5041.29
233.963	6497.87
237.337	8410.28
240.712	10602
244.087	13004.6
247.462	15537.3
250.837	18236.7
254.212	20903.2
257.586	23295.7
260.961	24813.5
264.336	25514.8
267.711	24960.5
271.086	23599
274.46	21721.3
277.835	19515.9
281.21	17125.7
284.585	14772.5
287.96	12590.1
291.334	10712.3
294.709	8767.55
298.084	7318.5
301.459	6043.56
304.834	4842.98
308.209	4085.87
311.583	3337.23
314.958	2600.42
318.333	1965.46
321.708	1560.75
325.083	1237.53
328.457	931.865
331.832	758.355
335.207	505.688
338.582	337.956
341.957	227.121
345.332	81.291
348.706	38.7236
352.081	22.7793
355.456	83.7852
358.831	16.5332
362.206	115.142
365.58	78.1103
368.955	89.6631
372.33	93.3203
375.705	19.0293
379.08	98.6934
382.454	1.84668
385.829	17.8086
389.204	10.6025
392.579	86.415
395.954	138.632
399.329	215.426
402.703	242.725
406.078	300.112
409.453	280.74
412.828	276.019
416.203	347.345
419.577	428.356
422.952	360.513
426.327	270.19
429.702	293.668
433.077	226.175
436.452	283.103
439.826	236.359
443.201	139.026
446.576	77.3408
449.951	39.5068
453.326	1.30664
456.7	60.9414
460.075	56.5215
463.45	13.1621
466.825	10.0771
470.2	6.9082
473.575	7.58691
476.949	82.4873
480.324	41.4228
483.699	2.23926
487.074	32.3994
490.449	37.5928
493.824	99.9707
497.198	130.352
500.573	104.043
503.948	171.525
507.323	169.06
510.698	255.976
514.072	281.327
517.447	342.004
520.822	379.319
524.197	335.653
527.572	380.075
530.947	422.427
534.321	504.998
537.696	529.082
541.071	510.153
544.446	620.62
547.821	534.983
551.195	600.327
554.57	659.03
557.945	623.79
561.32	781.539
564.695	749.784
568.069	764.131
571.444	807.153
574.819	818.775
578.194	861.576
581.569	939.524
584.943	998.673
588.318	1024.05
591.693	913.986
595.068	925.074
598.443	833.945
601.818	786.642
605.192	629.267
608.567	537.9
611.942	532.175
615.317	375.455
618.692	288.61
622.067	203.335
625.441	158.723
628.816	57.8975
632.191	65.8525
635.566	39.9961
638.941	51.5947
642.315	52.9648
645.69	9.20117
649.065	55.5615
652.44	49.917
655.815	172.929
659.189	190.644
662.564	295.638
665.939	254.114
669.314	376.632
672.689	508.899
676.064	566.27
679.438	631.855
682.813	697.52
686.188	719.87
689.563	711.964
692.938	712.307
696.312	666.894
699.687	667.052
703.062	548.849
706.437	604.373
709.812	506.547
713.187	453.986
716.561	429.247
719.936	378.592
723.311	333.923
726.686	335.539
730.061	303.418
733.436	249.496
736.81	197.761
740.185	220.468
743.56	15.5293
746.935	99.7832
750.31	110.212
753.684	84.2041
757.059	77.2002
760.434	71.0195
763.809	43.4541
767.184	55.8603
770.558	36.2959
773.933	105.764
777.308	142.107
780.683	35.8525
784.058	158.041
787.433	86.8535
790.807	106.106
794.182	138.315
797.557	125.678
800.932	117.3
804.307	62.6709
807.682	104.517
811.056	131.911
814.431	116.083
817.806	117.377
821.181	27.1494
824.556	96.4619
827.93	62.8252
831.305	65.4932
834.68	69.4922
838.055	15.2305
841.43	36.292
844.804	18.2764
848.179	38.915
851.554	25.3203
854.929	0.530273
858.304	13.7832
861.678	43.5967
865.053	74.9629
868.428	16.7383
871.803	14.9092
875.178	15.3604
878.553	8.71484
881.927	7.07812
885.302	40.4756
888.677	16.9238
892.052	41.7012
895.427	11.5752
898.802	46.0273
902.176	18.4092
905.551	29.8496
908.926	1.86621
912.301	70.3184
915.676	15.5527
919.05	23.0527
922.425	10.5547
925.8	12.123
929.175	30.5352
932.55	102.343
935.924	34.9453
939.299	92.5811
942.674	42.2695
946.049	16.4395
949.424	82.9434
952.799	110.285
956.173	119.871
959.548	169.149
962.923	199.753
966.298	238.534
969.673	221.394
973.048	244.332
976.422	254.167
979.797	272.032
983.172	306.643
986.547	309.544
989.922	298.526
993.296	321.583
996.671	326.014
1000.05	377.584
1003.42	359.152
1006.8	332.748
1010.17	366.743
1013.54	315.103
1016.92	316.69
1020.29	283.696
1023.67	289.33
1027.05	296.834
1030.42	261.11
1033.79	247.904
1037.17	153.232
1040.54	210.473
1043.92	125.057
1047.29	151.14
1050.67	116.012
1054.04	111.858
1057.42	111.519
1060.79	68.2686
1064.17	84.0879
1067.54	22.9639
1070.92	7.10547
1074.29	11.7207
1077.67	17.127
1081.04	61.9336
1084.42	36.2285
1087.79	31.0889
1091.17	5.30176
1094.54	29.4248
1097.92	12.7315
1101.29	7.14062
1104.66	9.9043
1108.04	55.169
1111.41	27.3545
1114.79	41.8603
1118.16	111.241
1121.54	94.8535
1124.91	126.168
1128.29	161.717
1131.66	166.185
1135.04	144.227
1138.41	124.356
1141.79	128.956
1145.16	108.477
1148.54	106.972
1151.91	64.0898
1155.29	102.853
1158.66	22.9951
1162.04	17.2812
1165.41	12.8643
1168.79	54.6641
1172.16	15.2812
1175.54	26.1875
1178.91	40.4053
1182.29	40.2666
1185.66	44.042
1189.04	83.8359
1192.41	39.5801
1195.79	101.902
1199.16	129.966
1202.54	111.626
1205.91	108.956
1209.29	98.3506
1212.66	156.347
1216.03	153.23
1219.41	238.333
1222.78	298.782
1226.16	425.19
1229.53	446.683
1232.91	467.527
1236.28	687.481
1239.66	746.326
1243.03	906.985
1246.41	983.171
1249.78	1016.58
1253.16	1114.24
1256.53	1101.5
1259.91	1045.04
1263.28	927.051
1266.66	756.615
1270.03	669.969
1273.41	555.893
1276.78	473.537
1280.16	361.481
1283.53	275.132
1286.91	223.018
1290.28	104.545
1293.65	131.848
1297.03	34.4932
1300.4	12.9414
1303.78	12.165
1307.15	12.6426
1310.53	33.7012
1313.9	72.2529
1317.28	159.384
1320.65	619.177
1324.03	2831.82
1327.4	9924.82
1330.78	32516.4
1334.15	13220.4
1337.53	1427.65
1340.9	422.731
1344.28	254.139
1347.65	144.772
1351.03	165.95
1354.4	126.606
1357.78	273.797
1361.15	197.669
1364.53	268.863
1367.9	336.378
1371.28	405.958
1374.65	398.144
1378.03	444.909
1381.4	511.948
1384.78	518.329
1388.15	644.154
1391.53	645.394
1394.9	720.958
1398.27	677.562
1401.65	735.703
1405.02	671.031
1408.4	659.196
1411.77	684.965
1415.15	703.523
1418.52	687.252
1421.9	695.891
1425.27	707.832
1428.65	629.922
1432.02	547.084
1435.4	493.777
1438.77	367.022
1442.15	338.482
1445.52	189.578
1448.9	173.339
1452.27	71.7227
1455.65	79.2647
1459.02	66.0225
1462.4	15.1816
1465.77	9.1123
1469.15	57.1299
1472.52	16
1475.89	4.63184
1479.27	30.0322
1482.64	61.2178
1486.02	30.9043
1489.39	115.807
1492.77	103.71
1496.14	177.552
