Measurement: Raman, 514 nm, unoriented, Raman Data Processed
Mineral: Diamond
Rruff sample: R050205
Ideal chemistry: C
Locality: Unknown
Source: Eric Van Valkenburg
Description: Single crystal, type IIA
Raman shift (cm-1)	intensity
161.444	0
165.602	61.2213
169.759	20.2627
173.913	16.6174
178.065	23.3673
182.215	17.2102
186.363	13.3219
190.509	49.7147
194.653	93.7042
198.795	51.8939
202.935	59.3608
207.072	54.0612
211.208	79.3859
215.342	48.0753
219.473	37.1947
223.603	9.99231
227.73	3.67603
231.856	14.3165
235.979	32.366
240.1	37.2699
244.22	8.08154
248.337	9.64416
252.452	26.7687
256.565	57.7811
260.676	23.2007
264.785	25.6556
268.892	20.0332
272.997	25.3612
277.1	25.6179
281.201	58.8423
285.3	46.0727
289.397	11.3817
293.492	31.6887
297.585	5.82519
301.676	48.2368
305.765	48.4868
309.851	2.61121
313.936	46.7285
318.019	28.9568
322.1	14.5978
326.178	48.1527
330.255	17.5709
334.33	56.6368
338.403	45.3088
342.473	39.0027
346.542	29.6697
350.609	26.1293
354.673	55.3721
358.736	52.8534
362.797	31.26
366.856	21.6233
370.912	38.8687
374.967	21.088
379.02	30.2477
383.07	51.3352
387.119	66.2913
391.166	83.7728
395.211	101.808
399.253	91.1588
403.294	61.67
407.333	51.7516
411.37	43.1194
415.405	9.11816
419.437	58.0997
423.468	6.89697
427.497	54.4072
431.524	37.3566
435.549	38.3308
439.572	16.4708
443.593	25.4095
447.612	22.6663
451.629	50.2954
455.644	76.1572
459.657	27.6898
463.668	38.7219
467.678	14.5939
471.685	59.2029
475.69	11.0726
479.693	12.6378
483.695	49.2849
487.694	52.0051
491.692	38.4177
495.687	30.9196
499.681	56.7164
503.672	71.4153
507.662	72.0983
511.65	50.3169
515.636	75.9753
519.619	68.5538
523.601	71.1522
527.581	66.7159
531.559	30.4265
535.535	10.1169
539.509	32.704
543.482	33.3806
547.452	10.0112
551.42	36.5608
555.386	58.1079
559.351	60.6482
563.313	47.1519
567.274	0.269531
571.233	25.2039
575.189	15.5837
579.144	33.1709
583.097	1.48682
587.048	0.916992
590.997	15.5828
594.944	24.8765
598.89	37.188
602.833	20.1641
606.774	54.2463
610.714	48.7615
614.651	40.8477
618.587	51.1904
622.521	30.8616
626.453	65.5496
630.383	70.9407
634.311	172.862
638.237	110.918
642.161	119.154
646.083	107.522
650.004	100.827
653.922	58.1514
657.839	60.3684
661.754	23.5894
665.666	45.4705
669.577	86.3428
673.487	47.3792
677.394	33.6455
681.299	51.6821
685.202	39.6694
689.104	71.842
693.004	40.8821
696.901	23.9338
700.797	45.8594
704.691	41.0454
708.583	30.0789
712.473	92.8919
716.362	29.4348
720.248	48.0945
724.133	44.3765
728.016	52.3599
731.897	22.0291
735.776	36.7036
739.653	26.1399
743.528	37.085
747.401	25.5044
751.273	33.0432
755.143	0.342041
759.01	7.55054
762.876	8.84131
766.74	10.7148
770.603	99.5474
774.463	25.8455
778.322	5.99731
782.178	9.27271
786.033	10.4536
789.886	56.5518
793.737	53.6035
797.586	29.6235
801.434	5.62256
805.279	2.79565
809.123	60.6882
812.965	18.6792
816.805	70.5122
820.643	10.4123
824.48	35.1033
828.314	20.0059
832.147	28.8655
835.978	25.5811
839.807	0.366943
843.634	1.13769
847.459	2.37378
851.283	25.0371
855.104	65.4849
858.924	6.95019
862.742	30.1584
866.559	31.8538
870.373	52.2327
874.185	65.6018
877.996	78.8623
881.805	60.2024
885.612	34.4639
889.418	42.6313
893.221	29.8374
897.023	29.9275
900.823	57.9629
904.621	47.0791
908.417	11.9695
912.211	34.7771
916.004	67.6675
919.795	72.8684
923.584	93.833
927.371	62.6304
931.156	17.9978
934.94	22.469
938.722	72.0071
942.502	61.7471
946.28	78.4312
950.056	86.0554
953.831	104.469
957.604	62.1084
961.375	15.9883
965.144	39.4233
968.911	93.3435
972.677	65.9707
976.441	158.211
980.203	13.8403
983.963	41.3872
987.721	116.003
991.478	105.523
995.233	150.175
998.986	133.384
1002.74	118.082
1006.49	55.4465
1010.24	153.165
1013.98	166.259
1017.73	149.234
1021.47	137.205
1025.21	73.3147
1028.95	96.7639
1032.68	112.279
1036.42	128.475
1040.15	116.722
1043.88	83.0652
1047.62	63.613
1051.34	124.137
1055.07	95.2837
1058.8	128.155
1062.52	63.4846
1066.24	162.228
1069.96	101.39
1073.68	101.908
1077.39	96.1345
1081.11	37.9172
1084.82	118.848
1088.53	174.615
1092.24	112.281
1095.95	129.973
1099.65	86.7002
1103.36	118.505
1107.06	15.6965
1110.76	36.928
1114.46	6.21484
1118.15	41.106
1121.85	56.1956
1125.54	47.7439
1129.23	46.6313
1132.92	71.093
1136.61	45.8335
1140.3	5.63574
1143.98	3.7876
1147.66	44.613
1151.35	23.8196
1155.03	18.7908
1158.7	107.753
1162.38	38.8381
1166.05	35.8445
1169.73	17.7705
1173.4	26.384
1177.07	76.2983
1180.73	110.879
1184.4	72.3721
1188.06	76.7849
1191.73	57.1221
1195.39	32.3835
1199.05	43.5757
1202.7	17.3196
1206.36	58.6389
1210.01	69.5493
1213.66	43.3555
1217.31	82.9912
1220.96	86.6709
1224.61	88.2769
1228.25	15.6846
1231.9	111.158
1235.54	104.498
1239.18	71.9309
1242.82	83.2285
1246.45	66.3777
1250.09	68.3848
1253.72	112.531
1257.35	97.5696
1260.98	40.9436
1264.61	101.718
1268.24	15.3721
1271.86	62.4126
1275.48	131.651
1279.11	91.0212
1282.73	2.97217
1286.34	60.6148
1289.96	61.1221
1293.58	52.0356
1297.19	69.4614
1300.8	2.30762
1304.41	78.4116
1308.02	164.076
1311.62	219.954
1315.23	250.684
1318.83	331.79
1322.43	672.401
1326.03	1379.18
1329.63	8060
1333.22	43032.5
1336.82	5574.11
1340.41	1198.71
1344	549.438
1347.59	313.636
1351.18	190.437
1354.77	146.441
1358.35	86.1436
1361.93	139.894
1365.52	90.4228
1369.09	74.7437
1372.67	98.438
1376.25	97.334
1379.82	60.3926
1383.39	123.371
1386.97	74.6777
1390.54	55.4214
1394.1	16.0269
1397.67	44.8042
1401.23	21.2002
1404.8	56.333
1408.36	96.7822
1411.92	37.1011
1415.48	16.0566
1419.03	49.5205
1422.59	31.0532
1426.14	92.6894
1429.69	74.3403
1433.24	56.9898
1436.79	65.7246
1440.34	79.5264
1443.88	86.3677
1447.42	84.2349
1450.97	104.111
1454.51	86.9663
1458.04	136.886
1461.58	139.112
1465.12	153.152
1468.65	94.7329
1472.18	81.9341
1475.71	85.834
1479.24	44.4228
1482.77	81.3447
1486.29	59.4605
1489.82	5.1709
1493.34	129.496
1496.86	88.519
1500.38	131.225
1503.89	81.1162
1507.41	112.15
1510.92	91.0386
1514.44	35.4565
1517.95	42.8911
1521.45	0
