Measurement: Raman, 532 nm, unoriented, Raman Data Processed
Mineral: Diaoyudaoite
Rruff sample: R050182
Ideal chemistry: NaAl_11_O_17_
Locality: Port Elizabeth, Essex County, New Jersey, USA
Source: Marcus Origlieri
Description: Colorless crystal fragments
Measured chemistry: (Na_1.21_Ca_0.06_)(Al_0.99_[box]_0.01_)_11_O_17_
Raman shift (cm-1)	intensity
107.275	0
110.65	1.23082
114.024	13.5018
117.399	35.9503
120.774	48.5303
124.149	56.5977
127.524	55.0807
130.898	68.7876
134.273	83.7434
137.648	74.081
141.023	61.5779
144.398	46.4508
147.772	44.4776
151.147	38.7133
154.522	32.4108
157.897	29.8186
161.272	27.2323
164.647	20.7839
168.021	16.6432
171.396	19.3448
174.771	12.7254
178.146	7.67798
181.521	10.5952
184.895	7.47675
188.27	5.4082
191.645	1.78656
195.02	1.56271
198.395	0.240875
201.769	0.789124
205.144	0.554108
208.519	0.016693
211.894	1.58527
215.269	2.13965
218.644	2.17532
222.018	6.79327
225.393	13.643
228.768	27.4894
232.143	40.6487
235.518	59.3736
238.893	92.1766
242.267	133.606
245.642	181.465
249.017	247.218
252.392	325.329
255.767	416.487
259.141	467.518
262.516	431.387
265.891	332.086
269.266	208.026
272.641	106.307
276.015	47.9271
279.39	17.7587
282.765	2.50644
286.14	1.33319
289.515	3.59277
292.889	8.51538
296.264	11.3226
299.639	13.3136
303.014	20.6698
306.389	26.4505
309.764	34.7803
313.138	41.9166
316.513	44.0146
319.888	46.3065
323.263	51.5463
326.638	47.395
330.012	36.0423
333.387	21.2748
336.762	13.5934
340.137	10.2644
343.512	9.37192
346.887	13.1064
350.261	18.0478
353.636	23.3283
357.011	35.0313
360.386	45.2288
363.761	47.8159
367.135	34.2223
370.51	16.9217
373.885	9.9016
377.26	1.04941
380.635	0.72522
384.01	1.71707
387.384	0.350021
390.759	1.33353
394.134	0.998718
397.509	1.49266
400.884	1.28729
404.259	6.07124
407.633	13.2072
411.008	22.4122
414.383	32.6193
417.758	39.3902
421.132	43.0988
424.507	34.259
427.882	20.7937
431.257	16.1463
434.632	11.1825
438.007	7.20789
441.381	7.2263
444.756	7.95075
448.131	8.28925
451.506	10.3909
454.881	17.2894
458.255	22.4698
461.63	28.8223
465.005	42.7663
468.38	56.964
471.755	52.7755
475.13	37.4479
478.504	26.0005
481.879	18.0366
485.254	10.7205
488.629	6.43297
492.004	6.38748
495.378	4.09102
498.753	1.18819
502.128	1.49217
505.503	1.1539
508.878	1.56789
512.253	2.21313
515.627	1.02567
519.002	0.995956
522.377	2.41544
525.752	0.075333
529.127	1.94156
532.501	2.34847
535.876	3.72333
539.251	8.61674
542.626	12.9625
546.001	17.776
549.375	25.8526
552.75	38.0725
556.125	47.1046
559.5	64.1843
562.875	87.9201
566.25	107.454
569.625	116.469
572.999	116.829
576.374	106.214
579.749	90.0004
583.124	81.7837
586.499	84.4359
589.873	95.5595
593.248	111.383
596.623	144.79
599.998	185.339
603.373	203
606.747	167.923
610.122	115.706
613.497	76.5753
616.872	56.2799
620.247	48.5306
623.621	47.4707
626.996	46.608
630.371	49.0641
633.746	58.1642
637.121	63.942
640.496	68.3064
643.87	67.5764
647.245	63.066
650.62	53.9773
653.995	41.9518
657.37	28.9721
660.745	15.4265
664.119	5.06072
667.494	1.54027
670.869	4.14786
674.244	3.5448
677.619	0.491226
680.993	8.27556
684.368	15.2378
687.743	19.8522
691.118	21.7122
694.493	20.0931
697.867	20.0986
701.242	19.0421
704.617	17.4318
707.992	18.6842
711.367	15.1085
714.741	12.7184
718.116	8.85385
721.491	2.54474
724.866	1.25821
728.241	0.372452
731.616	0.292633
734.99	0.468613
738.365	7.22328
741.74	12.6461
745.115	17.2164
748.49	24.741
751.865	34.467
755.239	50.7321
758.614	69.0695
761.989	94.0387
765.364	116.291
768.739	114.623
772.113	100.072
775.488	88.6984
778.863	82.6069
782.238	80.9274
785.613	80.049
788.987	84.6255
792.362	85.3173
795.737	80.5706
799.112	73.8659
802.487	64.6675
805.862	49.6514
809.236	38.1926
812.611	30.0061
815.986	23.58
819.361	17.4502
822.736	12.7488
826.111	10.6309
829.485	6.79665
832.86	2.84509
836.235	1.50247
839.61	0.341995
842.985	0.730194
846.359	1.15807
849.734	0.612534
853.109	0.836227
856.484	0.657501
859.859	1.15353
863.234	3.36612
866.608	4.26176
869.983	6.99303
873.358	9.0294
876.733	13.2746
880.107	16.5787
883.482	20.5172
886.857	19.4501
890.232	14.2284
893.607	8.27666
896.982	5.50682
900.356	3.97632
903.731	1.69545
907.106	4.63599
910.481	6.03441
913.856	5.36939
917.231	6.76274
920.605	6.0264
923.98	4.56589
927.355	4.34431
930.73	4.30682
934.105	3.4135
937.479	0.685089
940.854	0.252335
944.229	1.73811
947.604	1.39781
950.979	0.510605
954.354	0.727051
957.728	0.555161
961.103	0.089233
964.478	1.04727
967.853	1.71896
971.227	1.58032
974.602	0.112762
977.977	1.89372
981.352	2.77702
984.727	2.06345
988.102	1.62399
991.476	1.90529
994.851	2.61775
998.226	0.728882
1001.6	0.618622
1004.98	1.21103
1008.35	0.85611
1011.73	0.535706
1015.1	0.325928
1018.48	1.07877
1021.85	0.691025
1025.22	0.685959
1028.6	1.58662
1031.97	1.93602
1035.35	0.66951
1038.72	4.67078
1042.1	5.32472
1045.47	4.81332
1048.85	6.9281
1052.22	8.54614
1055.6	9.61418
1058.97	8.97172
1062.35	10.496
1065.72	12.4725
1069.1	12.5407
1072.47	16.2497
1075.85	17.4243
1079.22	19.0011
1082.6	18.1265
1085.97	21.5209
1089.35	22.2323
1092.72	21.8454
1096.1	23.4563
1099.47	25.7512
1102.85	23.6868
1106.22	20.299
1109.6	21.066
1112.97	20.5773
1116.35	18.2714
1119.72	16.1676
1123.09	14.9561
1126.47	12.9535
1129.84	10.3702
1133.22	9.68623
1136.59	8.73973
1139.97	6.02461
1143.34	5.66574
1146.72	6.04457
1150.09	4.10893
1153.47	2.47996
1156.84	2.65015
1160.22	3.51295
1163.59	1.66211
1166.97	1.49153
1170.34	1.51346
1173.72	0.319946
1177.09	0.090118
1180.47	0.370026
1183.84	0.925964
1187.22	0.676849
1190.59	0.855774
1193.96	0.291397
1197.34	0.270966
1200.71	0.468246
1204.09	0.338181
1207.46	1.57875
1210.84	0.375198
1214.21	0.614914
1217.59	0.143311
1220.96	0.545181
1224.34	0.52066
1227.71	0.428055
1231.09	0.761978
1234.46	0.342499
1237.84	0.233902
1241.21	1.71106
1244.59	3.0004
1247.96	3.52814
1251.34	3.5045
1254.71	2.95373
1258.09	3.6836
1261.46	3.25006
1264.84	3.7307
1268.21	2.76805
1271.59	1.00723
1274.96	1.59495
1278.34	2.17151
1281.71	1.68343
1285.09	1.35596
1288.46	0.733292
1291.84	0.205811
