Measurement: Raman, 532 nm, unoriented, Raman Data Processed
Mineral: Diaspore
Rruff sample: R060287
Ideal chemistry: AlO(OH)
Locality: Selcuk, Mugla Province, Turkey
Source: Herb Obodda
Description: Colorless transparent platy fragment
Measured chemistry: (Al_0.99_Fe^3+^_0.01_)_Î£=1_O(OH) ; trace amounts of Ti;  OH estimated by difference ; Fe^3+^ by charge balance
Raman shift (cm-1)	intensity
91.1152	0
94.4901	0.200043
97.8649	3.57899
101.24	8.30241
104.615	15.8248
107.989	10.1218
111.364	4.08087
114.739	1.89731
118.114	0.463257
121.489	1.43599
124.863	30.0525
128.238	31.8063
131.613	52.8415
134.988	118.924
138.363	311.649
141.738	400.259
145.112	532.162
148.487	800.9
151.862	1638.65
155.237	3385.18
158.612	516.092
161.987	198.195
165.361	136.626
168.736	111.301
172.111	98.7562
175.486	89.9452
178.861	85.119
182.235	84.8248
185.61	114.339
188.985	76.1019
192.36	51.0506
195.735	43.1079
199.109	38.5027
202.484	32.4177
205.859	29.9642
209.234	25.7497
212.609	23.247
215.984	22.3594
219.358	17.9692
222.733	14.6581
226.108	14.3579
229.483	9.38051
232.858	8.94331
236.232	6.03142
239.607	2.89731
242.982	4.18231
246.357	4.38899
249.732	2.01485
253.107	0.28952
256.481	0.145981
259.856	1.09766
263.231	0.386627
266.606	1.09044
269.981	0.993439
273.356	0.540192
276.73	3.27234
280.105	2.7809
283.48	6.39397
286.855	15.425
290.23	18.8181
293.604	6.89728
296.979	10.2083
300.354	11.9999
303.729	25.5575
307.104	39.0724
310.479	78.4617
313.853	190.954
317.228	419.842
320.603	628.184
323.978	1022.6
327.353	1993.55
330.728	3949.43
334.102	2447.63
337.477	567.729
340.852	208.77
344.227	98.1007
347.602	51.1522
350.976	25.0127
354.351	11.8032
357.726	2.16711
361.101	3.90848
364.476	4.98968
367.851	4.53964
371.225	0.881744
374.6	1.39593
377.975	7.44235
381.35	22.8365
384.725	37.2739
388.099	5.55133
391.474	3.91827
394.849	9.77393
398.224	11.3071
401.599	12.5664
404.974	15.7466
408.348	23.4973
411.723	31.5623
415.098	41.0139
418.473	59.7905
421.848	92.2872
425.223	140.186
428.597	268.021
431.972	720.292
435.347	1536.37
438.722	2382.18
442.097	4352.65
445.471	9082.19
448.846	15068.8
452.221	3745.11
455.596	1026.61
458.971	473.808
462.346	274.036
465.72	185.215
469.095	127.15
472.47	94.3324
475.845	61.7369
479.22	43.9163
482.594	37.576
485.969	54.764
489.344	66.8227
492.719	95.0084
496.094	180.243
499.469	316.199
502.843	75.2116
506.218	16.2434
509.593	3.0387
512.968	3.99373
516.343	2.6264
519.717	4.5911
523.092	3.24361
526.467	0.597885
529.842	1.11661
533.217	4.82881
536.592	10.1466
539.966	26.1828
543.341	46.8965
546.716	86.2832
550.091	173.508
553.466	295.564
556.841	132.474
560.215	45.029
563.59	22.8171
566.965	13.0191
570.34	8.16327
573.715	3.33585
577.09	0.894989
580.464	0.351685
583.839	0.967224
587.214	2.01334
590.589	5.62604
593.964	10.5345
597.338	24.1867
600.713	45.239
604.088	72.0288
607.463	96.0567
610.838	80.6113
614.212	39.7842
617.587	19.1221
620.962	11.7995
624.337	10.3869
627.712	9.40274
631.087	11.7935
634.461	14.7979
637.836	19.0519
641.211	33.0684
644.586	54.9894
647.961	93.0125
651.336	147.376
654.71	242.578
658.085	383.105
661.46	575.17
664.835	727.104
668.21	638.035
671.585	388.552
674.959	216.849
678.334	121.306
681.709	68.2426
685.084	39.8072
688.459	27.2253
691.833	18.6758
695.208	9.23355
698.583	6.05432
701.958	1.6572
705.333	1.95425
708.707	1.1575
712.082	0.141357
715.457	1.5553
718.832	0.567413
722.207	2.11835
725.582	2.1225
728.956	5.17105
732.331	5.61276
735.706	6.32648
739.081	8.08972
742.456	8.29598
745.831	7.49484
749.205	8.09117
752.58	8.26086
755.955	11.7497
759.33	10.449
762.705	11.2109
766.08	11.0457
769.454	15.9308
772.829	16.6144
776.204	16.5967
779.579	18.9719
782.954	21.6078
786.328	26.0393
789.703	29.3892
793.078	31.3932
796.453	24.9138
799.828	14.7186
803.202	9.02295
806.577	6.16968
809.952	4.50328
813.327	3.58359
816.702	0.645966
820.077	1.75139
823.451	1.98813
826.826	2.73212
830.201	2.45264
833.576	0.062042
836.951	0.490356
840.326	0.270355
843.7	0.180634
847.075	1.00632
850.45	3.35616
853.825	0.617569
857.2	4.19031
860.574	2.02817
863.949	3.0106
867.324	1.31674
870.699	0.111816
874.074	1.94511
877.448	1.79452
880.823	1.60596
884.198	0.57988
887.573	0.532043
890.948	1.12721
894.323	1.08864
897.697	2.45216
901.072	3.29927
904.447	2.17856
907.822	0.896454
911.197	5.03198
914.572	5.92011
917.946	7.05899
921.321	7.5238
924.696	4.40184
928.071	4.82053
931.446	5.5695
934.821	6.58151
938.195	4.45534
941.57	3.31648
944.945	4.02637
948.32	3.17859
951.695	1.71344
955.069	3.29523
958.444	2.56912
961.819	1.60307
965.194	1.23968
968.569	3.01248
971.943	7.37158
975.318	0.76886
978.693	1.17798
982.068	1.43809
985.443	1.88809
988.818	0.325119
992.192	1.616
995.567	0.15686
998.942	0.028564
1002.32	4.71393
1005.69	3.0885
1009.07	2.48135
1012.44	0.956039
1015.82	3.74835
1019.19	3.6658
1022.57	3.10915
1025.94	3.67467
1029.32	9.63255
1032.69	13.3228
1036.07	22.9343
1039.44	34.0994
1042.82	63.157
1046.19	111.336
1049.56	112.412
1052.94	41.1609
1056.31	11.7453
1059.69	8.0739
1063.06	1.07242
1066.44	1.48712
1069.81	2.05023
1073.19	1.43646
1076.56	6.6356
1079.94	5.54698
1083.31	6.52631
1086.69	4.78929
1090.06	3.89772
1093.44	4.57205
1096.81	1.69579
1100.19	4.01955
1103.56	6.19756
1106.94	6.59701
1110.31	4.41496
1113.69	5.16692
1117.06	4.1695
1120.44	4.77141
1123.81	3.91095
1127.18	2.50383
1130.56	4.7245
1133.93	2.62505
1137.31	3.01273
1140.68	2.45445
1144.06	1.60825
1147.43	0.628357
1150.81	1.1335
1154.18	0.501266
1157.56	0.594879
1160.93	1.5417
1164.31	1.67519
1167.68	1.10265
1171.06	1.31519
1174.43	7.41872
1177.81	20.3169
1181.18	48.1278
1184.56	95.1764
1187.93	184.243
1191.31	176.998
1194.68	88.702
1198.06	41.7956
1201.43	18.7364
1204.81	8.51944
1208.18	6.6768
1211.56	0.751053
1214.93	2.28046
1218.31	0.816147
1221.68	0.914093
1225.06	2.00296
1228.43	0.976334
1231.81	2.42439
1235.18	1.72092
1238.55	2.87331
1241.93	1.90732
1245.3	3.99336
1248.68	4.21684
1252.05	5.71457
1255.43	3.6142
1258.8	3.98769
1262.18	3.75705
1265.55	6.06769
1268.93	7.89842
1272.3	5.56949
1275.68	5.46275
1279.05	4.69434
1282.43	3.28529
1285.8	0.339844
1289.18	0.238281
1292.55	4.44463
1295.93	2.07074
1299.3	1.44392
1302.68	0
