Measurement: Raman, 780 nm, unoriented, Raman Data Processed
Mineral: Diaspore
Rruff sample: R060546
Ideal chemistry: AlO(OH)
Locality: Turkey
Source: Gemological Institute of America
Description: Platy transparent pale yellow fragment
Measured chemistry: (Al_0.99_Fe^3+^_0.01_)_Î£=1_O(OH) ; OH estimated by difference; Fe^3+^ by charge balance
Raman shift (cm-1)	intensity
133.045	0
135.938	21.273
138.831	27.6661
141.723	60.3312
144.616	124.055
147.509	219.497
150.401	359.048
153.294	517.168
156.187	149.161
159.08	15.3949
161.972	0.409607
164.865	1.73425
167.758	0.842751
170.65	1.38177
173.543	0.425476
176.436	1.32517
179.328	1.61442
182.221	2.31562
185.114	3.59981
188.007	0.020935
190.899	1.46896
193.792	1.17467
196.685	0.741219
199.577	1.75009
202.47	3.62676
205.363	5.09338
208.256	5.94208
211.148	6.9136
214.041	7.85381
216.934	9.9569
219.826	10.2265
222.719	9.773
225.612	9.60687
228.504	8.44815
231.397	8.23184
234.29	8.59
237.182	7.94733
240.075	7.41236
242.968	6.38822
245.861	7.17461
248.753	6.05008
251.646	3.77679
254.539	2.83589
257.431	2.2643
260.324	2.84744
263.217	2.64597
266.109	2.73917
269.002	3.00886
271.895	3.10597
274.788	2.95121
277.68	3.92293
280.573	4.43664
283.466	4.10153
286.358	5.03291
289.251	2.96542
292.144	3.74171
295.036	2.70309
297.929	3.54875
300.822	6.20396
303.714	10.3037
306.607	14.8839
309.5	30.0622
312.393	70.3875
315.285	122.386
318.178	155.344
321.071	229.81
323.963	348.238
326.856	520.645
329.749	649.435
332.642	389.118
335.534	118.32
338.427	46.5984
341.32	22.3539
344.212	12.2444
347.105	5.4756
349.998	3.18008
352.89	2.99107
355.783	0.248146
358.676	1.82662
361.568	1.1838
364.461	0.056114
367.354	0.29232
370.247	3.28899
373.139	0.108749
376.032	1.66835
378.925	2.54521
381.817	3.00599
384.71	0.473808
387.603	1.26054
390.495	0.270958
393.388	0.125351
396.281	0.698906
399.174	0.407333
402.066	1.29091
404.959	3.03045
407.852	3.21521
410.744	5.67459
413.637	8.02265
416.53	11.5353
419.422	18.633
422.315	29.7899
425.208	50.7178
428.101	107.043
430.993	271.416
433.886	419.703
436.779	563.182
439.671	892.257
442.564	1454.47
445.457	2178.74
448.349	1875.32
451.242	567.919
454.135	189.196
457.027	94.7343
459.92	56.1898
462.813	39.6094
465.706	27.6631
468.598	21.7828
471.491	15.7091
474.384	12.2147
477.276	8.85717
480.169	8.44644
483.062	9.31193
485.954	11.018
488.847	12.6401
491.74	19.0996
494.633	29.5266
497.525	38.3564
500.418	18.506
503.311	5.12967
506.203	1.46544
509.096	0.227028
511.989	0.120811
514.881	0.362053
517.774	0.295715
520.667	0.899315
523.56	0.441856
526.452	0.876244
529.345	0.759949
532.238	0.191887
535.13	1.55714
538.023	4.99656
540.916	6.7724
543.808	9.85262
546.701	17.2541
549.594	26.0745
552.486	29.256
555.379	17.4075
558.272	7.79304
561.165	4.75074
564.057	2.60259
566.95	2.34756
569.843	1.26859
572.735	1.16172
575.628	0.64679
578.521	0.35907
581.413	0.008812
584.306	1.23054
587.199	1.07187
590.092	2.07678
592.984	4.37314
595.877	5.44725
598.77	9.60267
601.662	12.9769
604.555	16.6871
607.448	17.6419
610.341	12.9159
613.233	5.73003
616.126	4.24113
619.019	0.698463
621.911	0.772652
624.804	0.263718
627.697	0.734863
630.589	0.381775
633.482	1.67895
636.375	2.72882
639.268	3.85484
642.16	6.90646
645.053	11.1879
647.946	19.894
650.838	29.9692
653.731	43.2949
656.624	60.2286
659.516	81.6094
662.409	98.0849
665.302	95.6292
668.194	72.4967
671.087	44.3161
673.98	28.2379
676.873	17.3026
679.765	10.299
682.658	6.26025
685.551	6.36455
688.443	2.38583
691.336	3.13641
694.229	1.66424
697.121	1.46812
700.014	0.5196
702.907	1.67738
705.8	0.246437
708.692	0.715462
711.585	0.500336
714.478	0.862419
717.37	0.585197
720.263	0.558487
723.156	0.697479
726.048	0.648262
728.941	0.660271
731.834	1.36246
734.726	1.52259
737.619	0.970268
740.512	1.66034
743.405	1.5244
746.297	0.89724
749.19	1.73466
752.083	0.956772
754.975	2.00015
757.868	0.585968
760.761	1.46727
763.654	1.4233
766.546	1.15598
769.439	1.39629
772.332	0.551819
775.224	1.07278
778.117	1.24873
781.01	2.98641
783.902	2.78532
786.795	2.43274
789.688	1.58917
792.58	2.36195
795.473	2.55265
798.366	1.15371
801.259	1.52782
804.151	1.81402
807.044	1.089
809.937	0.500114
812.829	1.01339
815.722	1.15557
818.615	0.417175
821.507	0.246056
824.4	1.33498
827.293	1.79504
830.186	1.68545
833.078	1.06869
835.971	0.972187
838.864	1.46321
841.756	1.64515
844.649	1.44687
847.542	1.68971
850.434	2.09801
853.327	1.20141
856.22	1.23215
859.112	0.598797
862.005	1.08511
864.898	1.24344
867.791	1.36587
870.683	1.58643
873.576	1.09401
876.469	1.20634
879.361	1.17469
882.254	0.731098
885.147	0.246883
888.039	0.394089
890.932	0.005192
893.825	0.836723
896.718	0.099304
899.61	0.044373
902.503	0.227142
905.396	0.832897
908.288	0.959393
911.181	0.133675
914.074	1.00127
916.966	0.162197
919.859	0.273689
922.752	0.645565
925.645	0.071018
928.537	0.250019
931.43	0.03616
934.323	0.203568
937.215	0.356659
940.108	0.314594
943.001	0.107052
945.894	0.789898
948.786	0.929314
951.679	0.635151
954.572	0.06612
957.464	0.9776
960.357	1.4212
963.25	0.556953
966.142	1.86622
969.035	1.82221
971.928	0.490788
974.82	0.978333
977.713	0.213928
980.606	0.65485
983.499	1.35047
986.391	1.99587
989.284	0.395504
992.177	0.967335
995.069	0.439434
997.962	1.58892
1000.86	1.40142
1003.75	1.76809
1006.64	1.56255
1009.53	1.50038
1012.43	2.10406
1015.32	2.48109
1018.21	1.9472
1021.1	1.79271
1024	1.81869
1026.89	3.25563
1029.78	3.04084
1032.67	3.31943
1035.57	5.93041
1038.46	5.058
1041.35	8.54346
1044.24	13.1494
1047.14	15.2905
1050.03	10.4195
1052.92	3.7252
1055.82	2.24191
1058.71	1.52667
1061.6	1.39827
1064.49	1.23766
1067.39	1.10432
1070.28	0.533237
1073.17	0.690086
1076.07	0.274799
1078.96	0.756672
1081.85	0.026367
1084.74	1.06593
1087.64	0.155998
1090.53	0.121151
1093.42	1.21447
1096.31	0.096115
1099.21	0.065933
1102.1	0.854275
1104.99	0.103584
1107.88	0.196507
1110.78	0.039951
1113.67	0.409439
1116.56	0.024357
1119.45	0.85548
1122.35	1.43505
1125.24	0.619442
1128.13	0.258842
1131.03	0.409512
1133.92	0.333652
1136.81	0.12331
1139.7	0.072052
1142.6	1.26624
1145.49	0.816864
1148.38	0.884647
1151.28	0.409748
1154.17	1.50651
1157.06	0.915375
1159.95	1.06835
1162.85	1.09312
1165.74	0.53632
1168.63	0.539944
1171.52	1.16035
1174.42	2.82215
1177.31	3.04316
1180.2	5.32795
1183.1	7.50034
1185.99	13.3847
1188.88	15.5777
1191.77	10.7404
1194.67	7.1055
1197.56	4.35752
1200.45	2.99956
1203.34	2.2303
1206.24	1.83543
1209.13	0.365303
1212.02	2.16476
1214.91	1.08169
1217.81	0.936378
1220.7	0.588757
1223.59	1.05714
1226.48	1.34685
1229.38	0.668507
1232.27	0.901814
1235.16	0.689651
1238.06	1.49695
1240.95	0.417583
1243.84	0.35112
1246.73	1.13984
1249.63	1.10614
1252.52	0.869316
1255.41	0.400917
1258.31	0.76619
1261.2	1.31345
1264.09	1.29386
1266.98	0.98967
1269.88	0.563137
1272.77	1.51397
1275.66	1.03704
1278.55	0.686665
1281.45	0.218254
1284.34	0.760899
