Measurement: Raman, 780 nm, unoriented, Raman Data Processed
Mineral: Diaspore
Rruff sample: R060287
Ideal chemistry: AlO(OH)
Locality: Selcuk, Mugla Province, Turkey
Source: Herb Obodda
Description: Colorless transparent platy fragment
Measured chemistry: (Al_0.99_Fe^3+^_0.01_)_Î£=1_O(OH) ; trace amounts of Ti;  OH estimated by difference ; Fe^3+^ by charge balance
Raman shift (cm-1)	intensity
92.0654	0
95.4403	6.41103
98.8151	5.17017
102.19	1.74956
105.565	5.80263
108.939	3.31226
112.314	4.79778
115.689	3.0072
119.064	1.99276
122.439	3.07736
125.814	2.10049
129.188	1.43279
132.563	7.3239
135.938	14.6022
139.313	19.9465
142.688	31.6932
146.062	54.2508
149.437	122.689
152.812	517.797
156.187	249.469
159.562	29.149
162.936	10.4399
166.311	9.99065
169.686	5.30289
173.061	6.35809
176.436	8.41392
179.811	12.4942
183.185	28.9475
186.56	53.4889
189.935	8.687
193.31	5.63624
196.685	1.17512
200.06	2.48879
203.434	2.30559
206.809	7.37242
210.184	4.40535
213.559	3.84458
216.934	6.71831
220.308	5.14459
223.683	3.85303
227.058	6.74945
230.433	5.90625
233.808	4.35184
237.182	3.95499
240.557	1.79456
243.932	3.54982
247.307	3.33065
250.682	2.10491
254.056	2.13115
257.431	1.29819
260.806	1.75146
264.181	0.360092
267.556	1.36263
270.931	0.185463
274.305	0.319885
277.68	0.845253
281.055	1.12603
284.43	5.35632
287.805	5.73309
291.18	5.97654
294.554	2.1965
297.929	4.5108
301.304	6.16653
304.679	10.496
308.054	12.4531
311.428	32.6305
314.803	52.8946
318.178	75.9444
321.553	129.574
324.928	245.708
328.302	624.487
331.677	1065.85
335.052	312.017
338.427	91.3093
341.802	38.8079
345.176	17.1334
348.551	9.56918
351.926	3.70051
355.301	0.572838
358.676	0.111397
362.051	2.99985
365.425	0.04203
368.8	0.234299
372.175	0.77536
375.55	1.7619
378.925	7.07248
382.3	31.1708
385.674	16.7226
389.049	1.55834
392.424	0.449814
395.799	1.7792
399.174	0.933533
402.548	4.10249
405.923	2.11494
409.298	2.14495
412.673	4.64586
416.048	7.36652
419.422	11.1101
422.797	20.5298
426.172	40.3622
429.547	113.445
432.922	217.369
436.296	309.83
439.671	538.212
443.046	1192.92
446.421	3392.8
449.796	2930.06
453.171	573.819
456.545	200.33
459.92	98.1142
463.295	59.437
466.67	43.3074
470.045	29.1267
473.42	22.1464
476.794	19.6306
480.169	23.5784
483.544	50.3849
486.919	66.5301
490.293	116.303
493.668	241.23
497.043	684.377
500.418	619.7
503.793	101.788
507.168	31.7553
510.542	14.1528
513.917	2.03561
517.292	0.755768
520.667	3.02685
524.042	1.93437
527.417	0.802368
530.791	0.892838
534.166	3.42261
537.541	10.4322
540.916	16.6739
544.291	28.9528
547.665	66.6963
551.04	177.189
554.415	209.545
557.79	65.7713
561.165	26.5081
564.539	13.104
567.914	6.275
571.289	5.34494
574.664	3.77199
578.039	1.07395
581.413	0.223183
584.788	0.874771
588.163	1.54378
591.538	0.027512
594.913	3.33671
598.288	8.68471
601.662	16.5495
605.037	32.2847
608.412	41.2387
611.787	29.9829
615.162	12.9268
618.537	7.702
621.911	6.92687
625.286	5.86782
628.661	8.29931
632.036	5.97142
635.41	8.20045
638.785	13.818
642.16	22.2282
645.535	36.3852
648.91	60.0062
652.285	99.0471
655.659	157.86
659.034	262.05
662.409	404.256
665.784	484.78
669.159	376.118
672.534	222.271
675.908	128.443
679.283	78.9185
682.658	44.3053
686.033	33.8606
689.408	20.84
692.782	16.9473
696.157	15.0072
699.532	9.75743
702.907	10.8585
706.282	6.6593
709.656	4.39185
713.031	3.31983
716.406	1.19887
719.781	0.865051
723.156	0.746403
726.53	3.46392
729.905	4.50388
733.28	1.39967
736.655	4.04859
740.03	1.85702
743.405	1.25827
746.779	2.27061
750.154	1.44782
753.529	0.619385
756.904	1.88694
760.279	0.087204
763.654	0.632526
767.028	1.99983
770.403	2.45937
773.778	1.6924
777.153	2.67806
780.528	6.25756
783.902	6.86819
787.277	7.27673
790.652	9.45004
794.027	10.6252
797.402	6.018
800.776	4.18731
804.151	1.73238
807.526	1.28954
810.901	2.44294
814.276	3.3671
817.65	3.65247
821.025	0.489765
824.4	0.941689
827.775	1.41248
831.15	3.48309
834.525	3.65396
837.899	2.70995
841.274	3.09031
844.649	3.70493
848.024	2.07813
851.399	3.40662
854.774	4.65509
858.148	5.67191
861.523	5.77093
864.898	3.18091
868.273	6.21503
871.648	4.64925
875.022	3.01069
878.397	2.77081
881.772	1.92476
885.147	3.58084
888.522	0.242947
891.896	3.5708
895.271	0.409908
898.646	1.52527
902.021	2.62549
905.396	5.57598
908.77	2.38582
912.145	3.08908
915.52	0.615242
918.895	3.84348
922.27	3.46718
925.645	0.094746
929.019	2.39151
932.394	1.61401
935.769	1.46802
939.144	1.94797
942.519	1.93211
945.894	1.15773
949.268	0.224209
952.643	2.22685
956.018	1.3725
959.393	2.14702
962.768	1.05909
966.142	0.752392
969.517	0.777832
972.892	1.99251
976.267	1.81335
979.642	2.08345
983.016	0.248444
986.391	2.98631
989.766	0.846188
993.141	2.29313
996.516	3.07062
999.89	4.22654
1003.26	5.9522
1006.64	4.65729
1010.01	6.64841
1013.39	5.2525
1016.76	4.32313
1020.14	7.19634
1023.51	6.08219
1026.89	8.5803
1030.26	8.93372
1033.64	16.1414
1037.01	21.8791
1040.39	35.3389
1043.76	60.7943
1047.14	104.786
1050.51	70.6293
1053.89	25.5075
1057.26	8.70494
1060.64	5.81208
1064.01	2.59877
1067.39	0.625809
1070.76	0.502464
1074.14	2.05394
1077.51	4.40889
1080.89	2.23639
1084.26	0.349014
1087.64	1.54448
1091.01	1.89985
1094.38	4.64934
1097.76	1.6717
1101.13	2.23034
1104.51	1.26171
1107.88	1.97182
1111.26	1.48488
1114.63	0.179028
1118.01	2.82446
1121.38	3.00198
1124.76	2.18131
1128.13	0.702753
1131.51	1.74258
1134.88	0.312096
1138.26	0.343586
1141.63	1.95894
1145.01	2.04576
1148.38	4.74237
1151.76	0.146679
1155.13	4.95089
1158.51	3.29321
1161.88	0.688471
1165.26	4.11378
1168.63	4.96062
1172.01	7.50005
1175.38	8.83806
1178.76	13.8776
1182.13	25.5225
1185.51	43.9892
1188.88	77.9149
1192.26	48.5532
1195.63	23.0698
1199.01	10.4067
1202.38	8.22025
1205.75	2.56656
1209.13	4.80305
1212.5	0.470999
1215.88	1.98089
1219.25	3.42453
1222.63	0.970272
1226	2.2201
1229.38	1.85591
1232.75	1.68356
1236.13	0.826847
1239.5	1.71968
1242.88	0.194971
1246.25	0.010067
1249.63	1.75679
1253	2.44888
1256.38	0.08795
1259.75	1.747
1263.13	2.53596
1266.5	0.676416
1269.88	0.793262
1273.25	2.38686
1276.62	3.25486
1280	3.52452
1283.38	2.71852
