Measurement: Raman, 514 nm, unoriented, Raman Data Processed
Mineral: Diaspore
Rruff sample: R060287
Ideal chemistry: AlO(OH)
Locality: Selcuk, Mugla Province, Turkey
Source: Herb Obodda
Description: Colorless transparent platy fragment
Measured chemistry: (Al_0.99_Fe^3+^_0.01_)_Î£=1_O(OH) ; trace amounts of Ti;  OH estimated by difference ; Fe^3+^ by charge balance
Raman shift (cm-1)	intensity
103.82	0
107.995	45.706
112.168	39.234
116.339	53.041
120.508	178.181
124.675	251.672
128.84	40.375
133.003	48.959
137.164	68.516
141.323	117.154
145.48	119.229
149.635	220.167
153.788	557.476
157.939	766.921
162.088	135.348
166.235	201.126
170.38	235.866
174.523	158.664
178.664	197.701
182.803	298.46
186.94	346.343
191.076	335.927
195.209	311.766
199.34	326.26
203.47	377.02
207.597	368.553
211.722	391.149
215.846	149.872
219.967	152.693
224.087	140.588
228.204	89.523
232.32	55.845
236.434	65.342
240.545	65.199
244.655	47.031
248.763	33.151
252.869	54.665
256.973	0.514
261.075	17.752
265.175	18.771
269.273	3.934
273.369	53.142
277.463	32.065
281.556	27.643
285.646	15.84
289.734	22.186
293.821	13.849
297.905	52.003
301.988	10.246
306.069	11.613
310.147	25.864
314.224	81.171
318.299	168.305
322.372	495.29
326.443	1567.15
330.512	5544.92
334.579	9615.62
338.645	3138.25
342.708	952.748
346.769	497.864
350.829	310.677
354.887	239.596
358.942	246.324
362.996	289.433
367.048	539.559
371.098	728.683
375.146	346.86
379.192	235.113
383.236	233.445
387.279	312.857
391.319	269.353
395.358	312.881
399.394	365.489
403.429	388.257
407.462	426.918
411.493	390.055
415.522	304.56
419.549	383.374
423.575	440.499
427.598	508.932
431.619	667.283
435.639	1113.71
439.657	2204.65
443.673	7503.04
447.687	27990.8
451.699	43487.1
455.709	9759.47
459.717	2916.09
463.724	1430.95
467.728	985.003
471.731	760.697
475.732	550.294
479.731	441.012
483.728	502.855
487.723	833.828
491.716	1974.93
495.708	7420.17
499.697	24605.6
503.685	20390.1
507.671	3541.74
511.655	1176.57
515.637	565.552
519.617	306.704
523.596	211.033
527.572	195.554
531.547	173.295
535.52	157.255
539.491	114.411
543.46	111.841
547.427	122.516
551.393	569.478
555.356	972.712
559.318	524.189
563.278	168.925
567.236	80.875
571.192	24.953
575.147	26.563
579.099	12.099
583.05	27.012
586.999	7.869
590.946	19.519
594.891	19.911
598.834	29.986
602.776	174.157
606.715	455.577
610.653	788.202
614.589	692.005
618.523	440.997
622.456	271.164
626.386	260.525
630.315	267.077
634.242	355.793
638.167	473.669
642.09	589.704
646.012	898.894
649.931	1349.25
653.849	2242.75
657.765	4186.4
661.679	8219.21
665.592	15036.2
669.502	17739.3
673.411	12225.5
677.318	6879.14
681.223	3867.33
685.126	2404.03
689.028	1846.16
692.927	1471.56
696.825	1276.11
700.721	1272.51
704.616	1069.9
708.508	999.78
712.399	836.988
716.288	840.392
720.175	644.355
724.06	639.406
727.944	628.976
731.825	564.725
735.705	640.369
739.584	611.763
743.46	625.011
747.334	543.384
751.207	441.716
755.078	463.691
758.947	397.25
762.815	315.409
766.68	384.594
770.544	501.8
774.406	397.025
778.267	381.264
782.125	374.515
785.982	387.774
789.837	388.038
793.69	365.302
797.542	286.565
801.391	259.239
805.239	149.54
809.085	60.78
812.93	78.179
816.772	13.389
820.613	22.58
824.452	40.751
828.29	58.897
832.125	10.015
835.959	4.913
839.791	7.931
843.621	15.056
847.45	29.286
851.277	15.308
855.102	20.717
858.925	5.069
862.746	40.111
866.566	55.362
870.384	48.167
874.2	0.544
878.015	23.8
881.828	6.973
885.639	16.558
889.448	17.088
893.256	3.952
897.061	16.889
900.865	19.645
904.668	34.298
908.468	61.885
912.267	107.401
916.064	53.85
919.86	55.235
923.653	85.558
927.445	153.818
931.236	106.019
935.024	135.155
938.811	132.228
942.596	88.239
946.379	111.207
950.161	160.108
953.94	113.937
957.719	69.695
961.495	98.401
965.27	78.172
969.043	94.764
972.814	103.396
976.583	187.975
980.351	156.594
984.117	215.749
987.882	131.841
991.644	192.004
995.405	214.569
999.165	233.336
1002.92	225.596
1006.68	367.699
1010.43	400.73
1014.18	364.182
1017.93	321.604
1021.68	388.473
1025.43	339.074
1029.18	219.601
1032.92	307.822
1036.66	282.692
1040.4	318.037
1044.14	520.524
1047.88	875.227
1051.62	1475.34
1055.35	793.576
1059.08	256.329
1062.81	169.612
1066.54	127.282
1070.27	148.944
1073.99	102.72
1077.72	159.943
1081.44	114.771
1085.16	132.371
1088.88	170.432
1092.59	191.782
1096.31	83.405
1100.02	106.759
1103.73	90.772
1107.44	94.593
1111.15	87.408
1114.86	47.225
1118.57	77.349
1122.27	53.094
1125.97	30.851
1129.67	76.387
1133.37	53.203
1137.07	56.861
1140.76	78.087
1144.45	138.455
1148.15	121.714
1151.84	147.687
1155.53	188.423
1159.21	157.436
1162.9	237.109
1166.58	272.82
1170.26	154.804
1173.94	203.76
1177.62	241.878
1181.3	355.89
1184.97	621.848
1188.65	1502.6
1192.32	3610.33
1195.99	2284.09
1199.66	798.645
1203.33	393.15
1206.99	195.588
1210.65	79.15
1214.32	69.271
1217.98	32.508
1221.64	24.671
1225.29	65.756
1228.95	81.768
1232.6	35.71
1236.26	59.574
1239.91	79.346
1243.56	127.018
1247.2	78.633
1250.85	44.175
1254.49	9.595
1258.13	30.84
1261.78	8.178
1265.41	7.304
1269.05	25.374
1272.69	51.837
1276.32	6.877
1279.95	10.313
1283.59	51.294
1287.21	6.198
1290.84	37.994
1294.47	61.686
1298.09	40.256
1301.72	16.306
1305.34	9.983
1308.96	68.229
1312.58	44.343
1316.19	85.348
1319.81	49.243
1323.42	104.032
1327.03	51.729
1330.64	87.336
1334.25	99.866
1337.86	111.325
1341.46	235.713
1345.07	141.033
1348.67	218.42
1352.27	220.486
1355.87	219.63
1359.46	153.695
1363.06	165.961
1366.65	183.355
1370.25	189.247
1373.84	135.223
1377.43	142.953
1381.02	107.438
1384.6	149.507
1388.18	105.766
1391.77	134.485
1395.35	108.333
1398.93	122.73
1402.51	145.285
1406.08	157.215
1409.66	158.817
1413.23	150.503
1416.8	107.459
1420.37	40.646
1423.94	161.244
1427.51	137.606
1431.08	151.579
1434.64	155.732
1438.2	147.135
1441.76	138.373
1445.32	146.437
1448.88	141.321
1452.43	158.005
1455.99	175.465
1459.54	203.749
1463.09	100.732
1466.64	120.042
1470.19	194.819
1473.74	194.107
1477.28	179.844
1480.83	75.752
1484.37	193.745
1487.91	112.843
1491.45	169.139
1494.98	73.784
1498.52	143.973
1502.05	85.747
1505.59	90.08
1509.12	123.135
1512.65	130.208
1516.17	72.608
1519.7	85.324
1523.23	45.885
1526.75	0.114
