Measurement: Raman, 532 nm, unoriented, Raman Data Processed
Mineral: Diaspore
Rruff sample: R060546
Ideal chemistry: AlO(OH)
Locality: Turkey
Source: Gemological Institute of America
Description: Platy transparent pale yellow fragment
Measured chemistry: (Al_0.99_Fe^3+^_0.01_)_Î£=1_O(OH) ; OH estimated by difference; Fe^3+^ by charge balance
Raman shift (cm-1)	intensity
134.988	0
138.363	22.8528
141.738	35.3742
145.112	63.8797
148.487	125.525
151.862	334.338
155.237	466.074
158.612	42.6275
161.987	4.57455
165.361	1.61633
168.736	1.19311
172.111	0.114922
175.486	0.262749
178.861	3.0277
182.235	5.9673
185.61	16.5956
188.985	3.89679
192.36	0.431255
195.735	0.921379
199.109	0.173508
202.484	0.041695
205.859	0.376362
209.234	0.801559
212.609	2.41171
215.984	2.62834
219.358	2.00253
222.733	2.5943
226.108	2.59081
229.483	1.53866
232.858	2.54049
236.232	2.41378
239.607	2.79324
242.982	3.07664
246.357	3.10654
249.732	3.85976
253.107	3.53887
256.481	6.77295
259.856	6.97759
263.231	1.91204
266.606	0.200302
269.981	0.631264
273.356	0.133526
276.73	1.42205
280.105	0.286568
283.48	1.59559
286.855	0.881397
290.23	1.60196
293.604	1.48425
296.979	0.568649
300.354	1.38715
303.729	4.1778
307.104	8.9595
310.479	18.0466
313.853	54.0017
317.228	116.124
320.603	163.087
323.978	254.626
327.353	487.434
330.728	766.272
334.102	364.369
337.477	93.6479
340.852	36.2854
344.227	17.1572
347.602	7.99999
350.976	2.67788
354.351	0.229286
357.726	1.63217
361.101	1.88473
364.476	0.853088
367.851	0.3125
371.225	1.0898
374.6	2.93556
377.975	6.81965
381.35	14.5255
384.725	15.9636
388.099	1.30972
391.474	0.131218
394.849	0.180023
398.224	2.332
401.599	2.92428
404.974	3.31889
408.348	4.22778
411.723	6.28164
415.098	8.09647
418.473	13.4846
421.848	22.6216
425.223	36.3844
428.597	71.2584
431.972	214.102
435.347	441.649
438.722	631.227
442.097	1181.11
445.471	2118.37
448.846	2536.66
452.221	581.08
455.596	181.562
458.971	85.0575
462.346	51.2065
465.72	33.0647
469.095	23.4496
472.47	15.8007
475.845	9.73564
479.22	9.74677
482.594	21.2489
485.969	52.1219
489.344	76.3662
492.719	146.484
496.094	257.297
499.469	334.153
502.843	71.2871
506.218	16.2929
509.593	4.28249
512.968	0.282131
516.343	1.2537
519.717	1.74433
523.092	0.753559
526.467	0.738743
529.842	2.54714
533.217	4.61124
536.592	9.11522
539.966	21.21
543.341	35.2044
546.716	64.3574
550.091	107.175
553.466	138.216
556.841	57.704
560.215	23.3958
563.59	13.5785
566.965	9.22826
570.34	5.01897
573.715	3.13363
577.09	1.15828
580.464	0.169212
583.839	1.53398
587.214	0.793446
590.589	0.584526
593.964	2.66427
597.338	6.30455
600.713	12.1578
604.088	18.8959
607.463	23.2321
610.838	17.5172
614.212	8.89311
617.587	4.6849
620.962	2.25247
624.337	1.77977
627.712	2.97609
631.087	4.99097
634.461	6.53169
637.836	8.85833
641.211	12.7311
644.586	21.4918
647.961	38.2452
651.336	68.2947
654.71	116.941
658.085	182.934
661.46	256.664
664.835	297.923
668.21	240.859
671.585	144.762
674.959	81.3673
678.334	45.1168
681.709	26.3294
685.084	16.7279
688.459	11.4059
691.833	8.77725
695.208	7.68867
698.583	6.55848
701.958	5.79128
705.333	3.48255
708.707	0.86554
712.082	0.025433
715.457	0.149139
718.832	0.378822
722.207	0.145687
725.582	0.054882
728.956	1.79332
732.331	1.49253
735.706	1.53064
739.081	1.71889
742.456	0.973564
745.831	0.586346
749.205	0.605698
752.58	0.046947
755.955	0.157028
759.33	0.198116
762.705	1.48838
766.08	0.736946
769.454	1.69496
772.829	2.18253
776.204	2.79566
779.579	2.17683
782.954	3.61678
786.328	3.64728
789.703	3.43688
793.078	2.31068
796.453	1.54114
799.828	1.10592
803.202	0.443611
806.577	0.202839
809.952	0.238785
813.327	0.229614
816.702	0.327412
820.077	0.421185
823.451	0.231777
826.826	0.684669
830.201	0.789078
833.576	0.896816
836.951	0.541241
840.326	0.536774
843.7	1.27831
847.075	0.984707
850.45	1.6906
853.825	2.06953
857.2	1.6259
860.574	2.14506
863.949	1.85396
867.324	2.07009
870.699	1.72617
874.074	1.64627
877.448	0.919899
880.823	1.48393
884.198	1.0011
887.573	1.36519
890.948	0.492325
894.323	0.798809
897.697	1.00206
901.072	1.19793
904.447	1.51267
907.822	1.25781
911.197	1.15334
914.572	1.35186
917.946	1.18192
921.321	1.1591
924.696	1.35334
928.071	1.38341
931.446	1.1438
934.821	0.88929
938.195	0.002323
941.57	0.287655
944.945	0.633644
948.32	0.192787
951.695	0.497021
955.069	0.643341
958.444	0.03883
961.819	0.357143
965.194	0.40234
968.569	0.703953
971.943	0.407349
975.318	1.56041
978.693	2.23014
982.068	0.887821
985.443	1.37226
988.818	1.91518
992.192	2.24172
995.567	2.3315
998.942	3.91447
1002.32	4.46084
1005.69	5.32175
1009.07	6.09727
1012.44	6.07198
1015.82	6.81538
1019.19	5.84227
1022.57	6.52625
1025.94	8.14471
1029.32	8.46836
1032.69	10.951
1036.07	15.999
1039.44	24.7276
1042.82	38.4371
1046.19	60.8538
1049.56	52.2334
1052.94	19.0651
1056.31	6.61794
1059.69	2.86586
1063.06	1.24711
1066.44	0.811043
1069.81	1.40735
1073.19	0.408386
1076.56	0.139256
1079.94	0.154694
1083.31	0.234234
1086.69	0.502888
1090.06	0.448479
1093.44	0.275898
1096.81	0.083511
1100.19	0.41457
1103.56	0.238094
1106.94	0.037762
1110.31	0.044086
1113.69	0.13129
1117.06	0.226337
1120.44	0.415405
1123.81	0.219746
1127.18	0.284542
1130.56	0.764591
1133.93	1.09473
1137.31	1.842
1140.68	1.78322
1144.06	2.30369
1147.43	2.23299
1150.81	2.26202
1154.18	2.25142
1157.56	2.92014
1160.93	3.06696
1164.31	2.75339
1167.68	3.05654
1171.06	3.55571
1174.43	5.64363
1177.81	10.5772
1181.18	19.2399
1184.56	34.676
1187.93	59.2434
1191.31	46.8828
1194.68	19.279
1198.06	8.74699
1201.43	3.75112
1204.81	2.67845
1208.18	1.60925
1211.56	1.63444
1214.93	0.665361
1218.31	0.931011
1221.68	0.154495
1225.06	0.11998
1228.43	0.116293
1231.81	0.209509
1235.18	0.474833
1238.55	0.258646
1241.93	0.847713
1245.3	0.158039
1248.68	0.317629
1252.05	0.429394
1255.43	0.713142
1258.8	1.19718
1262.18	0.229292
1265.55	0.550398
1268.93	0.613941
1272.3	0.738758
1275.68	0.150188
1279.05	0.299183
1282.43	0.654686
1285.8	0.619205
1289.18	0.513224
1292.55	0.325781
1295.93	0.632498
1299.3	0.314692
1302.68	0
