Measurement: Raman, 532 nm, unoriented, Raman Data Processed
Mineral: Dickthomssenite
Rruff sample: R070165
Ideal chemistry: MgV_2_O_6_7H_2_O
Locality: Fireflyâ€“Pigmay Mine, La Sal Quadrangle, San Juan County, Utah, USA
Source: Michael Scott
Description: Light brown radiating acicular crystals, co-type material. Unit cell is triclinc, twinned around a-axis. The monoclinc cell of Hughes et al (2001) is obtained by doubling our b-axis, and transforming.
Raman shift (cm-1)	intensity
132.343	0
135.718	44.0102
139.093	930.306
142.468	2810.43
145.843	5180.67
149.217	8991.49
152.592	15260.5
155.967	20954.5
159.342	15145.3
162.717	7408.03
166.091	4297.19
169.466	3097.16
172.841	2717.32
176.216	2665.65
179.591	2831.11
182.965	2818.18
186.34	2371.87
189.715	1839.09
193.09	1154.73
196.465	386.886
199.84	47.7134
203.214	179.754
206.589	24.7959
209.964	116.793
213.339	56.7856
216.714	166.867
220.089	316.988
223.463	1234.04
226.838	2469.84
230.213	3915.18
233.588	5403.01
236.963	7166.36
240.337	8781.19
243.712	9920.98
247.087	10858.2
250.462	11398.5
253.837	11146.2
257.211	13225.9
260.586	18494.7
263.961	26117.9
267.336	38089.5
270.711	51139.9
274.086	50400.5
277.46	26080.8
280.835	13035.1
284.21	8176.57
287.585	5610.23
290.959	3606.99
294.334	2168.09
297.709	1195.03
301.084	555.476
304.459	145.055
307.834	89.4717
311.208	113.587
314.583	61.8689
317.958	26.9465
321.333	150.954
324.708	291.743
328.082	473.339
331.457	500.947
334.832	411.619
338.207	284.509
341.582	169.356
344.957	75.134
348.331	13.1777
351.706	33.7698
355.081	27.2903
358.456	51.9873
361.831	124.751
365.205	217.361
368.58	318.843
371.955	372.202
375.33	410.612
378.705	477.428
382.079	647.186
385.454	897.387
388.829	1139.01
392.204	1370.94
395.579	1673.86
398.954	1696.56
402.328	1720.85
405.703	1799.29
409.078	1727.75
412.453	1488.98
415.828	1336.46
419.202	1329
422.577	1735.23
425.952	2514.77
429.327	3751.79
432.702	5490.78
436.077	7477.93
439.451	8883.59
442.826	8742.98
446.201	6564.86
449.576	4267.6
452.951	2716.07
456.325	1784.78
459.7	1274.98
463.075	951.022
466.45	761.446
469.825	573.368
473.2	429.078
476.574	219.244
479.949	84.5176
483.324	22.3652
486.699	103.266
490.074	71.8599
493.448	48.8442
496.823	46.6733
500.198	62.4827
503.573	118.018
506.948	210.878
510.322	281.877
513.697	395.476
517.072	507.182
520.447	689.472
523.822	878.485
527.197	1215.03
530.571	1751.51
533.946	2546.87
537.321	3552.83
540.696	4502.21
544.071	5051.6
547.445	4900.92
550.82	4188.34
554.195	3371.76
557.57	2728.96
560.945	2292.31
564.319	1838.56
567.694	1589.45
571.069	1330.14
574.444	1143.81
577.819	954.194
581.193	800.427
584.568	718.123
587.943	629.378
591.318	566.728
594.693	484.037
598.068	449.719
601.442	359.482
604.817	297.613
608.192	262.27
611.567	198.949
614.942	151.012
618.317	118.808
621.691	63.1829
625.066	41.876
628.441	37.2905
631.816	8.36279
635.191	39.6086
638.565	26.769
641.94	37.2749
645.315	45.1252
648.69	16.9836
652.065	27.541
655.439	24.1902
658.814	18.1838
662.189	5.11108
665.564	14.6047
668.939	33.9766
672.313	125.33
675.688	188.158
679.063	284.047
682.438	437.194
685.813	565.4
689.188	761.162
692.562	1041.23
695.937	1330.81
699.312	1827.93
702.687	2277.17
706.062	3117.23
709.437	4089.5
712.811	5317.51
716.186	6701.05
719.561	8212.36
722.936	9424.82
726.311	10456.4
729.685	11318.7
733.06	12322.8
736.435	13434.9
739.81	14265.2
743.185	14351.1
746.559	12493.6
749.934	9531.97
753.309	6507.11
756.684	4327.2
760.059	2913.22
763.433	1928.47
766.808	1375.88
770.183	938.531
773.558	691.341
776.933	467.726
780.308	297.225
783.682	198.715
787.057	105.465
790.432	98.542
793.807	14.0181
797.182	26.398
800.556	1.53174
803.931	12.0967
807.306	45.396
810.681	8.23779
814.056	3.23731
817.431	66.3643
820.805	7.32568
824.18	47.9424
827.555	2.36621
830.93	47.4692
834.305	133.602
837.679	170.37
841.054	296.563
844.429	392.989
847.804	494.737
851.179	715.258
854.553	839.175
857.928	1110.16
861.303	1568.64
864.678	2173.99
868.053	3023.61
871.428	4107.96
874.802	5021.17
878.177	5618.38
881.552	5279.47
884.927	4329.41
888.302	3055.68
891.676	2006.37
895.051	1269.42
898.426	810.016
901.801	450.908
905.176	229.181
908.551	104.464
911.925	208.309
915.3	269.584
918.675	560.899
922.05	939.924
925.425	1270.15
928.799	1172.53
932.174	880.327
935.549	579.629
938.924	463.878
942.299	486.666
945.673	658.232
949.048	984.27
952.423	1856.13
955.798	3425.24
959.173	7027.12
962.548	12372.7
965.922	17396
969.297	17394.1
972.672	9167.14
976.047	3610.23
979.422	1627.41
982.796	761.869
986.171	382
989.546	209.91
992.921	19.9077
996.296	1.6626
999.67	20.1934
1003.04	26.0061
1006.42	5.48364
1009.79	34.5102
1013.17	26.0947
1016.54	16.8193
1019.92	9.59888
1023.29	72.5635
1026.67	5.5105
1030.04	59.3179
1033.42	91.1096
1036.79	93.9375
1040.17	100.126
1043.54	115.417
1046.92	151.507
1050.29	150.14
1053.67	155.276
1057.04	152.33
1060.42	202.659
1063.79	128.563
1067.17	160.068
1070.54	121.218
1073.92	126.453
1077.29	110.797
1080.67	103.481
1084.04	141.259
1087.42	95.9763
1090.79	88.6565
1094.16	104.686
1097.54	68.8274
1100.91	55.8206
1104.29	59.029
1107.66	73.7039
1111.04	72.9441
1114.41	107.062
1117.79	18.8596
1121.16	69.967
1124.54	78.1081
1127.91	75.05
1131.29	36.9612
1134.66	38.2148
1138.04	6.08154
1141.41	67.5244
1144.79	36.8589
1148.16	52.6553
1151.54	64.9077
1154.91	25.3189
1158.29	0.700439
1161.66	85.0769
1165.04	45.4075
1168.41	80.0481
1171.79	74.2688
1175.16	67.2231
1178.54	22.1133
1181.91	9.75293
1185.29	6.479
1188.66	66.8484
1192.04	15.845
1195.41	74.0217
1198.78	54.773
1202.16	34.5952
1205.53	48.4714
1208.91	11.0962
1212.28	94.6267
1215.66	37.9214
1219.03	50.1819
1222.41	44.3025
1225.78	10.6152
1229.16	10.9336
1232.53	27.9622
1235.91	35.4629
1239.28	79.0102
1242.66	51.7097
1246.03	25.7515
1249.41	31.3892
1252.78	36.2258
1256.16	39.335
1259.53	53.8806
1262.91	16.9116
1266.28	67.3489
1269.66	60.8059
1273.03	10.969
1276.4	42.939
1279.78	31.3274
1283.15	53.5571
1286.53	84.6973
1289.9	18.7669
1293.28	1.0791
