Measurement: Raman, 532 nm, unoriented, Raman Data Processed
Mineral: Dickite
Rruff sample: R090054
Ideal chemistry: Al_2_Si_2_O_5_(OH)_4_
Locality: Schuylkill county, Pennsylvania, USA
Source: Mineralogical Museum, Harvard University
Description: Unconsolidated mass of hexagonal platelets associated with minor quartz crystals.
Raman shift (cm-1)	intensity
156.314	0
159.207	4.19604
162.099	15.1215
164.992	23.8796
167.885	28.9962
170.777	30.8112
173.67	30.4791
176.563	32.0735
179.455	26.0675
182.348	32.4418
185.241	28.0657
188.133	29.8648
191.026	34.0016
193.919	42.8688
196.812	53.9114
199.704	59.3611
202.597	24.2299
205.49	13.5421
208.382	5.71057
211.275	1.51965
214.168	4.72131
217.06	11.6855
219.953	32.2886
222.846	66.1029
225.739	106.603
228.631	150.345
231.524	193.258
234.417	234.314
237.309	262.691
240.202	262.11
243.095	222.603
245.988	150.869
248.88	97.5821
251.773	64.088
254.666	47.3027
257.558	39.7056
260.451	40.1349
263.344	49.7671
266.236	58.4873
269.129	62.4188
272.022	47.4271
274.915	21.4799
277.807	15.3306
280.7	5.65369
283.593	0.878784
286.485	1.63449
289.378	1.33069
292.271	3.16858
295.163	5.31055
298.056	7.23889
300.949	5.18555
303.842	18.3496
306.734	17.4862
309.627	26.5343
312.52	35.1304
315.412	55.1165
318.305	74.408
321.198	98.4042
324.091	130.928
326.983	166.402
329.876	199.092
332.769	221.427
335.661	205.448
338.554	153.364
341.447	102.309
344.339	57.9087
347.232	37.1211
350.125	21.8372
353.018	18.9574
355.91	6.55139
358.803	2.10425
361.696	10.1388
364.588	18.0139
367.481	21.2341
370.374	24.0182
373.267	37.3752
376.159	46.8359
379.052	42.7416
381.945	26.8141
384.837	9.09131
387.73	2.52356
390.623	8.82605
393.515	11.2588
396.408	5.36792
399.301	12.2335
402.194	25.359
405.086	50.0786
407.979	75.7322
410.872	87.8247
413.764	116.881
416.657	138.967
419.55	161.454
422.442	164.137
425.335	166.87
428.228	185.477
431.121	199.916
434.013	180.143
436.906	130.557
439.799	77.5914
442.691	62.1914
445.584	68.8823
448.477	83.8492
451.37	108.777
454.262	148.112
457.155	187.137
460.048	214.658
462.94	222.289
465.833	227.127
468.726	239.526
471.618	238.032
474.511	216.333
477.404	193.289
480.297	157.608
483.189	130.709
486.082	89.8436
488.975	65.1827
491.867	53.3973
494.76	52.291
497.653	56.9622
500.546	64.2649
503.438	72.5243
506.331	51.9098
509.224	39.3942
512.116	22.7885
515.009	21.6525
517.902	16.3386
520.794	6.57092
523.687	6.22046
526.58	8.26794
529.472	1.9043
532.365	2.66321
535.258	2.22742
538.151	6.07118
541.043	7.29993
543.936	2.24463
546.829	4.328
549.721	7.74597
552.614	9.59827
555.507	10.1487
558.399	8.88806
561.292	14.4128
564.185	18.746
567.078	13.8597
569.97	10.4292
572.863	14.7246
575.756	16.5051
578.649	15.6483
581.541	24.9283
584.434	25.897
587.327	20.3291
590.219	28.7633
593.112	28.2355
596.005	26.4833
598.897	24.4169
601.79	23.2312
604.683	30.024
607.576	29.1713
610.468	21.8173
613.361	17.4192
616.254	16.5524
619.146	19.9254
622.039	24.9396
624.932	19.6693
627.824	19.5166
630.717	26.7169
633.61	32.1218
636.503	30.8906
639.395	16.9701
642.288	16.1284
645.181	20.7218
648.073	11.5192
650.966	5.94397
653.859	2.25586
656.751	0.651245
659.644	0.177612
662.537	1.32629
665.43	0.462891
668.322	3.90295
671.215	4.3396
674.108	0.454956
677	3.56433
679.893	3.23303
682.786	2.44202
685.678	0.237305
688.571	2.78125
691.464	6.45337
694.357	14.3014
697.249	25.4617
700.142	39.6457
703.035	46.3929
705.927	50.6444
708.82	58.6566
711.713	51.0667
714.606	44.1537
717.498	45.6382
720.391	46.1998
723.284	38.5021
726.176	42.3453
729.069	47.602
731.962	60.3652
734.855	74.0995
737.747	87.3506
740.64	105.196
743.533	118.472
746.425	128.12
749.318	122.084
752.211	124.009
755.103	114.963
757.996	98.1669
760.889	84.7738
763.782	70.7095
766.674	47.4025
769.567	38.4744
772.46	28.73
775.352	28.7902
778.245	33.564
781.138	42.1671
784.03	57.5903
786.923	73.5714
789.816	97.7314
792.709	108.542
795.601	101.633
798.494	88.0322
801.387	66.4415
804.279	52.26
807.172	40.0815
810.065	27.604
812.957	21.4716
815.85	14.7069
818.743	6.56189
821.636	6.96826
824.528	9.07849
827.421	10.166
830.314	0.524902
833.206	0.409546
836.099	2.79175
838.992	4.51306
841.885	3.18555
844.777	6.8811
847.67	2.03613
850.563	0.495605
853.455	0.989868
856.348	3.30432
859.241	0.249268
862.134	3.40344
865.026	3.28955
867.919	3.4314
870.812	5.8606
873.704	9.16882
876.597	14.0619
879.49	11.6488
882.382	12.5303
885.275	26.3417
888.168	29.5306
891.061	40.723
893.953	52.1417
896.846	68.3346
899.739	87.154
902.631	114.316
905.524	145.804
908.417	169.464
911.309	199.551
914.202	215.836
917.095	174.569
919.987	112.204
922.88	71.6019
925.773	43.8577
928.666	29.5717
931.558	20.8994
934.451	25.9662
937.344	24.3005
940.236	15.9034
943.129	12.3114
946.022	7.96179
948.915	6.58899
951.807	10.9893
954.7	18.2063
957.593	17.1316
960.485	20.6583
963.378	20.5941
966.271	20.5892
969.163	17.3458
972.056	14.1455
974.949	9.14685
977.842	14.4857
980.734	16.6748
983.627	6.09497
986.52	17.7776
989.412	17.1318
992.305	13.8794
995.198	15.3317
998.091	17.8197
1000.98	14.7444
1003.88	4.48657
1006.77	0.257324
1009.66	2.3363
1012.55	4.37183
1015.45	2.93701
1018.34	2.01025
1021.23	8.83911
1024.12	3.07019
1027.02	1.64221
1029.91	8.49646
1032.8	13.4159
1035.7	15.4775
1038.59	9.11352
1041.48	12.5872
1044.37	17.3279
1047.27	16.3491
1050.16	21.0972
1053.05	21.6367
1055.94	21.3097
1058.84	20.9556
1061.73	19.0015
1064.62	21.7413
1067.52	25.9481
1070.41	28.2809
1073.3	22.826
1076.19	31.3663
1079.09	39.7268
1081.98	55.7685
1084.87	77.8144
1087.76	101.739
1090.66	121.304
1093.55	139.892
1096.44	130.734
1099.34	107.571
1102.23	83.1656
1105.12	78.7034
1108.01	70.069
1110.91	83.8992
1113.8	93.4106
1116.69	92.9645
1119.58	99.057
1122.48	94.061
1125.37	78.8715
1128.26	63.9977
1131.15	46.8293
1134.05	34.3995
1136.94	28.0033
1139.83	22.2578
1142.73	23.7328
1145.62	25.3695
1148.51	32.3206
1151.4	22.9979
1154.3	11.2795
1157.19	2.09192
1160.08	6.82715
1162.97	0.110352
1165.87	0.47168
1168.76	3.71753
1171.65	3.54053
1174.55	5.65955
1177.44	3.10901
1180.33	2.21472
1183.22	3.19812
1186.12	2.17859
1189.01	1.5481
1191.9	5.76746
1194.79	2.04199
1197.69	6.60998
1200.58	14.044
1203.47	14.4
1206.37	11.2622
1209.26	18.4104
1212.15	11.2361
1215.04	15.0776
1217.94	15.6448
1220.83	22.5178
1223.72	23.332
1226.61	29.2556
1229.51	20.6206
1232.4	22.9829
1235.29	13.958
1238.18	6.56055
1241.08	12.0637
1243.97	5.05127
1246.86	7.64648
1249.76	3.6228
1252.65	7.80225
1255.54	4.43896
1258.43	11.8184
1261.33	3.38013
1264.22	0.083984
1267.11	5.71704
1270.01	8.8645
1272.9	11.4771
1275.79	7.60278
1278.68	6.96436
1281.58	2.57153
1284.47	2.17578
1287.36	3.87622
1290.25	12.6421
1293.15	16.1121
1296.04	7.70435
1298.93	2.9563
1301.82	0
