Measurement: Raman, 785 nm, unoriented, Raman Data Processed
Mineral: Dickthomssenite
Rruff sample: R070165
Ideal chemistry: MgV_2_O_6_7H_2_O
Locality: Fireflyâ€“Pigmay Mine, La Sal Quadrangle, San Juan County, Utah, USA
Source: Michael Scott
Description: Light brown radiating acicular crystals, co-type material. Unit cell is triclinc, twinned around a-axis. The monoclinc cell of Hughes et al (2001) is obtained by doubling our b-axis, and transforming.
Raman shift (cm-1)	intensity
134.809	0
137.702	15.4764
140.594	268.995
143.487	950.23
146.38	1947.21
149.273	3309.48
152.165	5047.9
155.058	7316.53
157.951	7916.87
160.843	5228.36
163.736	3322.52
166.629	2596.06
169.521	2270.68
172.414	2060.6
175.307	1928.91
178.2	1964.97
181.092	2085.82
183.985	2019.21
186.878	1766.26
189.77	1391.88
192.663	1053.87
195.556	694.603
198.448	307.263
201.341	32.5102
204.234	35.0679
207.126	0.01709
210.019	93.5742
212.912	35.1753
215.805	67.5537
218.697	21.1133
221.59	264.243
224.483	736.627
227.375	1425.85
230.268	2129.21
233.161	3001.09
236.054	3888.42
238.946	4681.24
241.839	5451.74
244.732	6024.87
247.624	6522.56
250.517	6994.88
253.41	6932.87
256.302	7147.7
259.195	9007.21
262.088	11455.1
264.981	14143.9
267.873	18124.9
270.766	24410.2
273.659	28753.7
276.551	20963
279.444	11158
282.337	6713.65
285.229	4831.68
288.122	3694
291.015	2624.1
293.908	1750.1
296.8	1149.32
299.693	610.578
302.586	330.616
305.478	94.7817
308.371	66.4421
311.264	88.3867
314.156	100.921
317.049	28.6138
319.942	9.87817
322.834	67.0261
325.727	102.191
328.62	187.269
331.512	209.832
334.405	183.263
337.298	166.581
340.191	123.393
343.083	68.2275
345.976	23.1924
348.869	8.49683
351.761	4.10205
354.654	59.9198
357.547	63.4359
360.44	53.8055
363.332	125.694
366.225	151.679
369.118	193.494
372.01	250.303
374.903	266.047
377.796	274.779
380.688	327.649
383.581	413.576
386.474	495.769
389.366	610.698
392.259	730.371
395.152	826.571
398.045	899.836
400.937	946.133
403.83	978.835
406.723	986.764
409.615	954.99
412.508	865.682
415.401	757.481
418.293	733.566
421.186	766.295
424.079	959.79
426.972	1299.33
429.864	1709.54
432.757	2257.73
435.65	2873.51
438.542	3549.79
441.435	3959.82
444.328	3621.92
447.221	2782.05
450.113	1860.27
453.006	1241.81
455.899	861.782
458.791	621.782
461.684	523.47
464.577	370.91
467.469	314.488
470.362	272.721
473.255	202.861
476.147	131.671
479.04	77.4769
481.933	18.1957
484.826	8.78699
487.718	66.0327
490.611	51.2383
493.504	31.1755
496.396	24.712
499.289	17.7321
502.182	5.89319
505.075	46.5413
507.967	73.9771
510.86	147.737
513.753	174
516.645	227.972
519.538	293.091
522.431	371.349
525.323	474.5
528.216	625.501
531.109	854.405
534.001	1135.26
536.894	1502.13
539.787	1918.88
542.68	2233.98
545.572	2391.6
548.465	2326.09
551.358	1974.01
554.25	1669.42
557.143	1438.53
560.036	1202.76
562.928	1018.48
565.821	878.548
568.714	731.773
571.607	601.898
574.499	504.587
577.392	433.633
580.285	379.547
583.177	344.225
586.07	288.74
588.963	263.247
591.856	186.321
594.748	193.78
597.641	173.957
600.534	169.726
603.426	156.58
606.319	117.165
609.212	134.804
612.104	98.769
614.997	77.9508
617.89	60.001
620.783	13.3544
623.675	19.3077
626.568	15.2334
629.461	35.7931
632.353	26.8407
635.246	11.0602
638.139	13.0768
641.031	6.91016
643.924	6.20312
646.817	13.3298
649.71	24.3413
652.602	29.0054
655.495	32.7118
658.388	13.4154
661.28	2.63257
664.173	22.973
667.066	24.558
669.958	38.595
672.851	51.6831
675.744	84.7304
678.636	110.918
681.529	117.092
684.422	214.829
687.315	224.748
690.207	308.793
693.1	418.919
695.993	513.1
698.885	689.566
701.778	863.362
704.671	1101.15
707.563	1386.8
710.456	1711.81
713.349	2140.93
716.242	2667.49
719.134	3106.72
722.027	3580.34
724.92	3986.39
727.812	4227.54
730.705	4504.6
733.598	4780.64
736.49	5119.15
739.383	5459.26
742.276	5664.16
745.169	5460.73
748.061	4773.71
750.954	3666.16
753.847	2671.1
756.739	1885.7
759.632	1313.24
762.525	922.051
765.417	674.35
768.31	505.953
771.203	385.355
774.096	277.769
776.988	212.761
779.881	156.61
782.774	115.846
785.666	79.9387
788.559	68.0632
791.452	55.8226
794.344	28.5139
797.237	4.92053
800.13	3.05042
803.023	8.60828
805.915	16.5618
808.808	22.1952
811.701	10.9106
814.593	9.47717
817.486	22.1216
820.379	14.7155
823.271	19.7401
826.164	21.1388
829.057	22.2981
831.949	25.5547
834.842	9.3363
837.735	66.4506
840.628	102.234
843.52	121.956
846.413	164.345
849.306	217.904
852.198	279.2
855.091	316.111
857.984	420.108
860.876	552.987
863.769	676.231
866.662	956.223
869.555	1286.16
872.447	1623.78
875.34	1949.75
878.233	2159.21
881.125	2090.58
884.018	1803.08
886.911	1397.81
889.803	988.868
892.696	657.596
895.589	468.303
898.482	296.424
901.374	178.06
904.267	123.664
907.16	33.318
910.052	73.536
912.945	50.7886
915.838	106.268
918.731	246.291
921.623	379.532
924.516	570.939
927.409	645.505
930.301	567.366
933.194	435.047
936.087	355.438
938.979	301.828
941.872	324.263
944.765	356.483
947.658	482.851
950.55	643.595
953.443	996.221
956.336	1655.8
959.228	2840.98
962.121	4544.69
965.014	6728.44
967.906	8777.62
970.799	7098.05
973.692	3669.74
976.585	1691.5
979.477	911.284
982.37	548.998
985.263	411.651
988.155	247.176
991.048	127.997
993.941	64.6862
996.833	11.9144
999.726	13.5602
1002.62	18.8294
1005.51	0.827576
1008.4	5.90186
1011.3	13.744
1014.19	17.2
1017.08	14.1788
1019.98	22.683
1022.87	9.71796
1025.76	22.6086
1028.65	26.9247
1031.55	48.2102
1034.44	55.6951
1037.33	30.5287
1040.22	51.5895
1043.12	51.9874
1046.01	71.3656
1048.9	52.5499
1051.8	66.5756
1054.69	72.5358
1057.58	57.3232
1060.47	91.6433
1063.37	71.5162
1066.26	91.9082
1069.15	55.7801
1072.04	69.4468
1074.94	41.0436
1077.83	54.3768
1080.72	37.7521
1083.61	70.9939
1086.51	58.0418
1089.4	41.1038
1092.29	38.2372
1095.18	19.8337
1098.08	22.9236
1100.97	16.4435
1103.86	45.4039
1106.76	33.9383
1109.65	48.7307
1112.54	45.5935
1115.43	34.8938
1118.33	48.3296
1121.22	36.3373
1124.11	20.0516
1127.01	43.5397
1129.9	43.4706
1132.79	4.17517
1135.68	33.3879
1138.58	24.6988
1141.47	35.6016
1144.36	28.1186
1147.25	31.6512
1150.15	21.6652
1153.04	32.3501
1155.93	17.176
1158.83	31.2541
1161.72	28.1681
1164.61	11.5888
1167.5	22.5963
1170.39	23.9615
1173.29	22.0173
1176.18	15.4197
1179.07	21.8076
1181.97	11.503
1184.86	7.96252
1187.75	11.7653
1190.64	22.2191
1193.54	6.34992
1196.43	0.957336
1199.32	27.0984
1202.21	11.7294
1205.11	13.7785
1208	6.30182
