Measurement: Raman, 532 nm, unoriented, Raman Data Processed
Mineral: Dickite
Rruff sample: R060298
Ideal chemistry: Al_2_Si_2_O_5_(OH)_4_
Locality: Piast mine, Nowa Ruda, Sudety Mountains, Poland
Source: Herb Obodda
Description: Greenish-blue massive
Measured chemistry: Al_2.00_Si_2.00_O_5_(OH)_4_ ; OH estimated by difference and charge balance
Raman shift (cm-1)	intensity
171.006	0
173.898	10.4956
176.791	11.4655
179.684	7.65576
182.577	17.8018
185.469	29.1373
188.362	25.0566
191.255	38.1671
194.147	35.6522
197.04	61.644
199.933	67.0643
202.825	32.3914
205.718	14.5398
208.611	6.27466
211.504	4.16296
214.396	3.48804
217.289	0.650513
220.182	6.88367
223.074	14.4436
225.967	34.2413
228.86	59.5239
231.752	80.1901
234.645	140.821
237.538	162.768
240.43	174.597
243.323	181.679
246.216	154.296
249.109	119.491
252.001	131.431
254.894	148.633
257.787	170.557
260.679	182.626
263.572	244.259
266.465	328.19
269.358	282.229
272.25	159.26
275.143	76.8997
278.036	41.5792
280.928	33.2437
283.821	14.2786
286.714	0.883301
289.606	4.67029
292.499	1.95947
295.392	2.65015
298.284	1.06091
301.177	1.87256
304.07	0.69104
306.963	5.09509
309.855	7.09705
312.748	23.2167
315.641	39.5667
318.533	73.9463
321.426	104.525
324.319	149.765
327.212	194.367
330.104	296.479
332.997	398.842
335.89	422.512
338.782	307.044
341.675	184.932
344.568	108.595
347.46	64.9102
350.353	76.1432
353.246	33.1973
356.139	36.4871
359.031	36.3221
361.924	27.4476
364.817	38.7032
367.709	24.5287
370.602	5.2019
373.495	10.9842
376.387	6.94617
379.28	1.35535
382.173	5.4812
385.065	4.95288
387.958	2.91235
390.851	1.17908
393.744	4.61231
396.636	11.0896
399.529	6.82971
402.422	23.9445
405.314	41.8451
408.207	51.9864
411.1	74.3639
413.993	88.5834
416.885	105.069
419.778	108.59
422.671	123.627
425.563	140.394
428.456	178.975
431.349	228.179
434.241	250.325
437.134	218.243
440.027	170.872
442.92	137.565
445.812	130.227
448.705	170.071
451.598	198.566
454.49	256.35
457.383	319.152
460.276	380.938
463.168	392.027
466.061	341.242
468.954	278.25
471.846	205.355
474.739	160.349
477.632	132.204
480.525	131.104
483.417	105.202
486.31	94.3396
489.203	74.0217
492.095	49.0999
494.988	38.1304
497.881	25.5347
500.774	23.5877
503.666	29.2053
506.559	28.7449
509.452	16.5701
512.344	10.4136
515.237	1.78784
518.13	6.2063
521.022	7.40356
523.915	2.10815
526.808	9.8584
529.701	12.0754
532.593	0.371094
535.486	13.2339
538.379	8.20654
541.271	15.1099
544.164	5.52734
547.057	0.387207
549.949	0.206055
552.842	8.01074
555.735	7.98218
558.628	8.95288
561.52	1.11182
564.413	8.97241
567.306	1.64941
570.198	11.5559
573.091	6.46509
575.984	1.80957
578.876	10.1108
581.769	1.32959
584.662	4.9541
587.554	20.9026
590.447	6.52002
593.34	11.7983
596.232	8.60229
599.125	11.6946
602.018	6.41772
604.911	14.1768
607.803	16.6733
610.696	21.0481
613.589	20.5249
616.481	9.48438
619.374	9.42261
622.267	14.6492
625.159	11.2297
628.052	16.8379
630.945	21.0337
633.838	9.64746
636.73	19.2273
639.623	12.0933
642.516	6.45483
645.408	3.39038
648.301	23.5967
651.194	15.0735
654.087	9.77197
656.979	11.1751
659.872	1.92822
662.765	7.3396
665.657	3.67236
668.55	6.24927
671.443	1.229
674.335	13.4451
677.228	9.79639
680.121	1.17847
683.014	5.92773
685.906	0.025146
688.799	12.3652
691.692	9.46631
694.584	10.5435
697.477	31.1943
700.37	29.2656
703.263	26.3543
706.155	31.4983
709.048	35.8784
711.941	42.4729
714.833	47.4246
717.726	28.2119
720.619	38.7105
723.511	41.6843
726.404	53.8535
729.297	71.5608
732.189	78.8821
735.082	97.7908
737.975	122.932
740.868	143.458
743.76	164.084
746.653	182.611
749.546	171.697
752.438	151.005
755.331	114.882
758.224	90.1125
761.116	58.021
764.009	46.2715
766.902	33.783
769.795	17.0425
772.687	19.439
775.58	19.303
778.473	28.9439
781.365	31.4748
784.258	53.4536
787.151	81.2029
790.043	98.884
792.936	123.696
795.829	114.463
798.722	88.4099
801.614	74.5879
804.507	38.7918
807.4	22.5398
810.292	19.7798
813.185	8.5979
816.078	4.96655
818.971	14.3306
821.863	2.44531
824.756	6.92627
827.649	6.39258
830.541	8.33911
833.434	0.687256
836.327	6.08521
839.219	0.271729
842.112	0.804932
845.005	1.20728
847.898	5.04907
850.79	4.93896
853.683	11.5505
856.576	0.619873
859.468	2.31592
862.361	9.80884
865.254	10.7876
868.146	7.33789
871.039	1.90991
873.932	8.24585
876.824	10.3225
879.717	0.837402
882.61	20.5134
885.503	8.12891
888.395	12.7517
891.288	12.2043
894.181	24.1931
897.073	32.1721
899.966	37.5901
902.859	48.2647
905.751	63.8713
908.644	76.0139
911.537	91.5156
914.43	105.459
917.322	105.465
920.215	89.1223
923.108	58.3103
926	45.3381
928.893	31.1143
931.786	26.5627
934.678	19.2803
937.571	16.0076
940.464	10.0078
943.357	16.6675
946.249	21.7354
949.142	20.9231
952.035	10.6914
954.927	18.7976
957.82	21.1445
960.713	16.2495
963.606	11.9607
966.498	6.26416
969.391	9.71191
972.284	1.29297
975.176	5.47217
978.069	9.00952
980.962	23.5188
983.854	14.5166
986.747	8.59741
989.64	10.9988
992.533	12.4473
995.425	2.21484
998.318	0.633545
1001.21	19.5471
1004.1	24.1523
1007	17.6445
1009.89	7.3335
1012.78	15.4565
1015.67	13.8962
1018.57	6.92407
1021.46	12.6834
1024.35	14.7039
1027.24	8.9419
1030.14	11.2009
1033.03	19.8484
1035.92	27.613
1038.82	28.1755
1041.71	23.5513
1044.6	20.0798
1047.49	20.241
1050.39	11.4731
1053.28	7.61914
1056.17	8.00171
1059.07	17.0146
1061.96	4.40552
1064.85	13.2698
1067.74	0.849365
1070.63	4.57642
1073.53	9.19482
1076.42	1.24561
1079.31	6.00806
1082.21	6.45776
1085.1	13.6226
1087.99	0.797852
1090.88	11.5891
1093.78	13.7358
1096.67	21.7812
1099.56	16.876
1102.45	25.8748
1105.35	21.9177
1108.24	23.9807
1111.13	22.4627
1114.03	27.5872
1116.92	29.1855
1119.81	25.7581
1122.7	21.811
1125.6	17.1848
1128.49	7.91919
1131.38	24.2761
1134.28	16.5198
1137.17	25.0771
1140.06	27.5439
1142.95	21.042
1145.85	19.0535
1148.74	8.46802
1151.63	21.4912
1154.52	24.4419
1157.42	9.12451
1160.31	6.66724
1163.2	2.57422
1166.09	5.55908
1168.99	14.3806
1171.88	15.6213
1174.77	14.7463
1177.66	0.606689
1180.56	4.46704
1183.45	0.447754
1186.34	9.67798
1189.24	4.68091
1192.13	9.69287
1195.02	6.17505
1197.91	21.4385
1200.81	5.61865
1203.7	6.16504
1206.59	8.56152
1209.48	17.1365
1212.38	15.0501
1215.27	18.7747
1218.16	3.40356
1221.06	16.4021
1223.95	1.03369
1226.84	10.3301
1229.73	14.1404
1232.63	4.13574
1235.52	9.62793
1238.41	9.93896
1241.31	0.95166
1244.2	7.62744
1247.09	11.051
1249.98	7.80786
1252.88	10.989
1255.77	0.795898
