Measurement: Raman, 780 nm, unoriented, Raman Data Processed
Mineral: Dickite
Rruff sample: R060298
Ideal chemistry: Al_2_Si_2_O_5_(OH)_4_
Locality: Piast mine, Nowa Ruda, Sudety Mountains, Poland
Source: Herb Obodda
Description: Greenish-blue massive
Measured chemistry: Al_2.00_Si_2.00_O_5_(OH)_4_ ; OH estimated by difference and charge balance
Raman shift (cm-1)	intensity
105.515	0
108.889	4.23349
112.264	24.6312
115.639	55.9826
119.014	79.3471
122.389	77.306
125.763	66.0561
129.138	87.1661
132.513	84.6852
135.888	42.3854
139.263	3.65033
142.638	6.26059
146.012	0.354645
149.387	1.78149
152.762	7.87723
156.137	6.24377
159.512	17.4353
162.887	11.3503
166.261	9.80823
169.636	13.6673
173.011	9.81143
176.386	16.4507
179.761	13.7751
183.135	12.2562
186.51	18.0634
189.885	23.6741
193.26	24.7911
196.635	28.5479
200.01	18.6197
203.384	5.02872
206.759	2.94919
210.134	2.41892
213.509	4.51932
216.884	8.52475
220.258	11.6022
223.633	21.0005
227.008	30.0742
230.383	45.343
233.758	61.4086
237.132	75.1664
240.507	81.2295
243.882	69.7093
247.257	56.3238
250.632	53.3251
254.006	55.9612
257.381	73.4795
260.756	82.046
264.131	107.452
267.506	99.9949
270.881	60.95
274.255	26.3075
277.63	19.5065
281.005	13.2608
284.38	5.52447
287.755	0.682159
291.13	0.750549
294.504	0.015869
297.879	0.607239
301.254	1.6073
304.629	2.18176
308.004	7.05304
311.378	16.3634
314.753	29.7219
318.128	47.2523
321.503	62.2253
324.878	85.0063
328.252	101.211
331.627	141.933
335.002	143.833
338.377	85.3192
341.752	47.7206
345.127	22.4382
348.501	18.197
351.876	13.8155
355.251	9.41589
358.626	11.1779
362.001	7.38916
365.375	10.3253
368.75	7.78967
372.125	0.799438
375.5	5.32132
378.875	1.76801
382.25	0.239014
385.624	2.24921
388.999	1.82166
392.374	2.20898
395.749	0.72818
399.124	5.98254
402.498	11.8189
405.873	27.842
409.248	27.8375
412.623	40.0439
415.998	38.9884
419.373	54.2128
422.747	57.8361
426.122	66.0998
429.497	86.4576
432.872	91.3717
436.247	76.0992
439.622	65.1189
442.996	60.9002
446.371	68.2915
449.746	82.0648
453.121	99.4305
456.496	128.979
459.87	147.338
463.245	139.906
466.62	111.961
469.995	80.6863
473.37	68.1393
476.745	49.529
480.119	54.9911
483.494	41.7691
486.869	31.4295
490.244	24.5317
493.619	12.5673
496.993	18.8163
500.368	14.5563
503.743	12.1449
507.118	11.1169
510.493	5.72765
513.867	0.048325
517.242	6.26027
520.617	5.86426
523.992	0.147247
527.367	6.91228
530.741	1.96802
534.116	3.2159
537.491	9.12424
540.866	4.09726
544.241	2.66753
547.616	1.04117
550.99	2.95651
554.365	5.42024
557.74	2.80928
561.115	5.30855
564.49	6.79723
567.865	5.5352
571.239	4.77998
574.614	1.13339
577.989	1.9083
581.364	0.857086
584.739	2.34013
588.114	6.34088
591.488	4.43108
594.863	8.40483
598.238	6.25557
601.613	3.25601
604.987	2.70091
608.362	0.121185
611.737	9.47188
615.112	2.31752
618.487	6.29219
621.862	6.41139
625.236	8.29663
628.611	1.36307
631.986	6.70489
635.361	6.90451
638.736	11.6973
642.111	10.4449
645.485	7.52564
648.86	7.25229
652.235	1.55208
655.61	9.50374
658.985	7.3502
662.359	3.04616
665.734	2.88867
669.109	0.284302
672.484	5.17813
675.859	1.39497
679.234	2.30795
682.608	7.50519
685.983	4.08147
689.358	0.292572
692.733	2.80632
696.108	8.32507
699.482	7.18657
702.857	10.1542
706.232	12.3301
709.607	10.3341
712.982	7.45233
716.356	14.6379
719.731	15.9606
723.106	16.2886
726.481	19.0348
729.856	27.2189
733.231	35.8886
736.605	39.7384
739.98	54.48
743.355	57.3007
746.73	57.0105
750.105	50.2004
753.48	37.6523
756.854	26.7512
760.229	20.9965
763.604	10.9519
766.979	9.36392
770.354	4.63168
773.728	4.66772
777.103	9.33484
780.478	14.8483
783.853	21.6715
787.228	23.2607
790.602	28.2716
793.977	26.6173
797.352	26.569
800.727	19.2907
804.102	9.63995
807.477	7.63695
810.851	2.77676
814.226	6.94515
817.601	1.8466
820.976	8.26239
824.351	2.50134
827.726	0.156738
831.1	0.270599
834.475	0.993942
837.85	2.48474
841.225	4.86755
844.6	4.74155
847.974	8.03326
851.349	1.92407
854.724	0.448364
858.099	3.90176
861.474	1.27164
864.848	2.0517
868.223	2.46648
871.598	2.45505
874.973	5.93594
878.348	5.33
881.722	4.49638
885.097	2.47203
888.472	2.40495
891.847	7.40129
895.222	10.4074
898.597	15.9082
901.971	18.4327
905.346	23.4986
908.721	31.7769
912.096	36.8818
915.471	36.017
918.846	20.4672
922.22	15.2046
925.595	12.9513
928.97	6.25261
932.345	7.66379
935.72	10.0975
939.094	8.43198
942.469	5.55287
945.844	5.90684
949.219	3.69588
952.594	7.82536
955.968	7.02298
959.343	3.70975
962.718	2.67226
966.093	2.38707
969.468	0.812347
972.843	6.32269
976.217	4.26491
979.592	1.17241
982.967	0.993317
986.342	1.09811
989.717	0.980026
993.091	3.92955
996.466	6.28148
999.841	5.26564
1003.22	6.41008
1006.59	4.65312
1009.97	1.98799
1013.34	6.20465
1016.72	4.56407
1020.09	5.2691
1023.47	0.706955
1026.84	8.12917
1030.21	6.1299
1033.59	3.57716
1036.96	6.10466
1040.34	5.2377
1043.71	13.1072
1047.09	8.9059
1050.46	13.4373
1053.84	8.42857
1057.21	8.45789
1060.59	2.54721
1063.96	7.56279
1067.34	2.39642
1070.71	4.99326
1074.09	6.51389
1077.46	1.83972
1080.84	2.84973
1084.21	5.56859
1087.59	9.79813
1090.96	0.978363
1094.34	0.890671
1097.71	3.84624
1101.09	6.22679
1104.46	9.72444
1107.84	4.49315
1111.21	3.743
1114.59	3.16685
1117.96	3.56801
1121.34	1.31509
1124.71	4.49492
1128.08	5.86668
1131.46	5.32422
1134.83	6.70357
1138.21	6.02824
1141.58	6.20668
1144.96	8.8784
1148.33	4.37972
1151.71	2.84288
1155.08	1.36078
1158.46	4.66377
1161.83	6.60924
1165.21	6.15976
1168.58	5.25203
1171.96	4.89835
1175.33	3.78661
1178.71	2.81937
1182.08	1.31041
1185.46	3.89899
1188.83	11.5733
1192.21	0.605942
1195.58	0.994064
1198.95	5.96764
1202.33	0.611664
1205.7	5.82336
1209.08	9.55388
1212.45	7.35425
1215.83	8.04524
1219.2	7.77931
1222.58	0.619446
1225.95	1.17715
1229.33	6.75069
1232.7	6.41785
1236.08	8.67767
1239.45	6.8743
1242.83	5.44212
1246.2	8.07631
1249.58	4.15018
1252.95	1.82364
1256.33	5.20618
1259.7	8.4162
1263.08	4.10329
1266.45	3.27862
1269.83	4.27864
1273.2	2.23891
1276.58	5.63428
1279.95	8.12317
1283.33	0.46701
