Measurement: Raman, 532 nm, unoriented, Raman Data Processed
Mineral: Diegogattaite
Rruff sample: R120156
Ideal chemistry: Na_2_CaCu_2_Si_8_O_20_H_2_O
Locality: Wessels mine, Kalahari Manganese Field, Northern Cape Province, South Africa
Source: Marcus Origlieri
Description: Lighter greenish blue massive, associated with darker blue wesselsite and quartz
Measured chemistry: (Na_1.98_Mg_0.01_)_Σ=1.99_(Ca_0.98_Cu_0.02_)_Σ=1.00_Cu_2.00_Si_8_O_20.00_·H_2_O; The mineral is medium gray, associated with wesselsite (white) and quartz (dark gray); Normalized to 8 Si atoms; water assumed from crystal structure solution
Raman shift (cm-1)	intensity
102.8	0
106.175	0.094025
109.55	16.7767
112.925	66.1123
116.3	158.037
119.674	335.642
123.049	292.359
126.424	360.671
129.799	290.317
133.174	142.148
136.548	12.013
139.923	6.39125
143.298	5.47757
146.673	16.7776
150.048	43.7716
153.423	80.1894
156.797	139.143
160.172	176.927
163.547	200.888
166.922	126.2
170.297	38.4627
173.672	24.1966
177.046	44.8412
180.421	81.7997
183.796	78.2501
187.171	131.195
190.546	265.378
193.92	303.448
197.295	264.327
200.67	253.144
204.045	357.581
207.42	459.78
210.794	400.505
214.169	199.245
217.544	105.806
220.919	89.8799
224.294	60.0918
227.669	34.2427
231.043	49.4373
234.418	74.9092
237.793	106.442
241.168	174.981
244.543	299.533
247.917	345.594
251.292	173.141
254.667	41.0434
258.042	1.50214
261.417	1.05458
264.792	21.0517
268.166	7.18502
271.541	4.94784
274.916	0.456703
278.291	0.500481
281.666	9.45198
285.041	48.7309
288.415	103.591
291.79	49.194
295.165	4.3319
298.54	15.3412
301.915	38.9397
305.289	51.563
308.664	61.6549
312.039	103.137
315.414	112.143
318.789	23.7901
322.163	6.61851
325.538	8.0706
328.913	3.11498
332.288	25.7185
335.663	44.2795
339.038	29.9758
342.412	35.7905
345.787	41.9155
349.162	48.0782
352.537	74.9212
355.912	124.933
359.286	166.579
362.661	156.365
366.036	148.165
369.411	181.06
372.786	254.694
376.161	364.039
379.535	418.922
382.91	306.076
386.285	187.256
389.66	168.532
393.035	221.531
396.409	302.646
399.784	409.065
403.159	572.282
406.534	682.561
409.909	523.582
413.284	241.573
416.658	100.953
420.033	39.2152
423.408	8.54256
426.783	7.01314
430.158	12.9161
433.532	8.14165
436.907	4.41338
440.282	25.4622
443.657	62.4276
447.032	119.143
450.406	158.937
453.781	149.293
457.156	124.895
460.531	140.213
463.906	181.49
467.281	212.623
470.655	215.407
474.03	174.8
477.405	116.444
480.78	88.0261
484.155	104.617
487.529	129.212
490.904	123.725
494.279	138.332
497.654	192.087
501.029	227.621
504.404	181.86
507.778	149.501
511.153	168.565
514.528	201.107
517.903	187.187
521.278	173.756
524.653	209.671
528.027	263.274
531.402	350.496
534.777	471.862
538.152	483.254
541.527	300.673
544.901	147.952
548.276	71.5282
551.651	33.4033
555.026	14.3101
558.401	4.86788
561.775	1.40458
565.15	4.14669
568.525	5.92984
571.9	4.12315
575.275	2.66145
578.649	2.20671
582.024	9.70683
585.399	18.5566
588.774	36.938
592.149	70.6395
595.524	142.54
598.898	252.612
602.273	388.155
605.648	607.806
609.023	869.142
612.398	821.352
615.773	450.719
619.147	291.442
622.522	275.36
625.897	293.617
629.272	259.987
632.647	155.975
636.021	79.7996
639.396	41.4282
642.771	23.213
646.146	11.5875
649.521	4.60895
652.895	0.930664
656.27	0.530006
659.645	1.23084
663.02	0.221222
666.395	2.88255
669.77	3.38153
673.144	2.08659
676.519	0.420486
679.894	1.10203
683.269	1.86014
686.644	0.19281
690.019	0.8526
693.393	0.612717
696.768	4.04433
700.143	9.28107
703.518	19.0188
706.893	36.5079
710.267	64.2828
713.642	111.098
717.017	173.28
720.392	262.728
723.767	386.601
727.141	450.303
730.516	298.904
733.891	144.648
737.266	71.9839
740.641	38.3729
744.016	22.6287
747.39	13.5402
750.765	9.0542
754.14	6.52809
757.515	5.3369
760.89	3.7111
764.264	1.41253
767.639	0.837128
771.014	0.228577
774.389	2.64646
777.764	8.16621
781.139	17.6235
784.513	30.384
787.888	48.8725
791.263	67.3307
794.638	59.8574
798.013	41.1813
801.388	33.6895
804.762	33.5464
808.137	25.1059
811.512	11.2222
814.887	4.37359
818.261	1.74871
821.636	0.846962
825.011	0.337807
828.386	0.43058
831.761	0.209702
835.136	0.302567
838.51	0.660225
841.885	0.589836
845.26	1.67832
848.635	1.31219
852.01	3.6921
855.385	3.35835
858.759	4.78838
862.134	5.54665
865.509	4.17109
868.884	3.895
872.259	2.8751
875.633	2.02369
879.008	2.59475
882.383	1.9617
885.758	1.01998
889.133	0.735733
892.508	0.582321
895.882	0.34129
899.257	0.942619
902.632	0.130116
906.007	0.992924
909.382	0.677284
912.756	0.549988
916.131	0.392662
919.506	0.06097
922.881	0.658127
926.256	1.28984
929.63	2.30955
933.005	4.90436
936.38	7.95408
939.755	13.0685
943.13	21.1398
946.505	33.1979
949.879	53.9815
953.254	78.3252
956.629	107.903
960.004	155.902
963.379	227.274
966.754	315.465
970.128	358.876
973.503	259.658
976.878	150.496
980.253	99.5425
983.628	80.1595
987.002	77.3416
990.377	90.7538
993.752	106.216
997.127	86.495
1000.5	55.1766
1003.88	44.4718
1007.25	48.6018
1010.63	52.1302
1014	47.7896
1017.38	47.1725
1020.75	38.4997
1024.12	18.0355
1027.5	6.15341
1030.88	0.274357
1034.25	1.61309
1037.62	1.09325
1041	0.85561
1044.37	0.139866
1047.75	0.005173
1051.12	1.32811
1054.5	5.68204
1057.87	12.2116
1061.25	23.0456
1064.62	40.6291
1068	53.2938
1071.37	65.8715
1074.75	77.888
1078.12	67.8781
1081.5	73.4738
1084.87	121.447
1088.25	207.809
1091.62	332.995
1095	503.087
1098.37	529.81
1101.75	333.591
1105.12	201.569
1108.5	148.847
1111.87	102.391
1115.24	69.5829
1118.62	66.5883
1121.99	88.7929
1125.37	129.31
1128.74	200.131
1132.12	169.198
1135.49	73.2848
1138.87	32.3093
1142.24	18.0694
1145.62	10.9845
1148.99	6.33707
1152.37	3.46882
1155.74	1.89224
1159.12	0.888729
1162.49	0.004772
1165.87	0.585659
1169.24	0.704174
1172.62	1.26627
1175.99	0.221233
1179.37	0.161613
1182.74	0.301102
1186.12	0.647068
1189.49	1.26262
1192.87	0.987278
1196.24	1.01516
1199.62	1.07285
1202.99	1.12048
1206.37	1.24244
1209.74	1.96314
1213.12	1.88901
1216.49	1.74823
1219.87	2.95848
1223.24	2.77586
1226.61	2.03682
1229.99	1.80705
1233.36	1.81259
1236.74	0.991127
1240.11	1.29718
1243.49	1.73427
1246.86	1.84195
1250.24	1.78855
1253.61	1.12237
1256.99	1.79717
1260.36	1.35581
1263.74	0.748978
1267.11	0.759481
1270.49	0.188351
1273.86	0.629791
1277.24	0.725634
1280.61	0.136536
1283.99	0.304287
1287.36	0.006754
1290.74	0.253481
1294.11	0.538874
1297.49	0.060022
1300.86	0.377323
