Measurement: Raman, 785 nm, unoriented, Raman Data Processed
Mineral: Dietrichite
Rruff sample: R070381
Ideal chemistry: ZnAl_2_(SO_4_)_4_22H_2_O
Locality: Baia Sprie mine (Felsöbánya mine), Baia Sprie (Felsöbánya), Maramures County, Romania
Source: Michael Scott
Description: Light brown fibrous in tufted aggregates
Raman shift (cm-1)	intensity
155.732	0
158.625	0.231201
161.517	13.9332
164.41	27.3168
167.303	16.0439
170.195	24.15
173.088	44.882
175.981	21.1179
178.873	44.2363
181.766	12.7863
184.659	16.833
187.552	35.7031
190.444	31.8585
193.337	42.6204
196.23	58.604
199.122	59.6345
202.015	64.3884
204.908	75.1516
207.8	94.1071
210.693	110.055
213.586	91.0973
216.478	110.034
219.371	96.3672
222.264	89.0122
225.157	80.8769
228.049	77.1738
230.942	73.5698
233.835	53.3329
236.727	54.4575
239.62	60.3203
242.513	45.1177
245.405	54.3618
248.298	21.5292
251.191	26.4944
254.084	28.1426
256.976	7.13043
259.869	9.66687
262.762	3.51135
265.654	0.054688
268.547	7.62646
271.44	9.01434
274.332	0.121948
277.225	30.8776
280.118	19.2006
283.011	24.7341
285.903	44.2045
288.796	39.9413
291.689	73.1199
294.581	89.8352
297.474	67.7615
300.367	85.1177
303.26	105.085
306.152	114.723
309.045	107.617
311.938	127.17
314.83	129.492
317.723	110.358
320.616	69.2798
323.508	90.6789
326.401	70.9559
329.294	62.5983
332.187	59.9719
335.079	44.329
337.972	50.8622
340.865	53.9027
343.757	43.6415
346.65	45.1996
349.543	30.8696
352.435	33.185
355.328	26.9408
358.221	26.7148
361.113	10.633
364.006	6.97168
366.899	7.07172
369.792	18.8365
372.684	9.14477
375.577	3.42096
378.47	0.762634
381.362	1.63294
384.255	17.9133
387.148	3.25372
390.041	1.11353
392.933	14.7539
395.826	0.099548
398.719	35.2348
401.611	30.8195
404.504	63.9716
407.397	87.7567
410.289	121.258
413.182	174.166
416.075	204.264
418.967	262.14
421.86	282.584
424.753	274.771
427.646	260.32
430.538	214.524
433.431	203.581
436.324	187.223
439.216	185.945
442.109	172.528
445.002	188.798
447.894	199.987
450.787	247.697
453.68	225.934
456.573	294.135
459.465	294.003
462.358	324.169
465.251	346.408
468.143	326.917
471.036	297.977
473.929	279.413
476.822	241.456
479.714	210.73
482.607	158.603
485.5	133.247
488.392	91.0005
491.285	61.0641
494.178	53.6378
497.07	26.2682
499.963	2.36499
502.856	34.9883
505.748	2.50342
508.641	19.4496
511.534	13.406
514.427	11.7705
517.319	1.11023
520.212	9.55377
523.105	5.77625
525.997	25.2228
528.89	38.5433
531.783	37.2236
534.676	29.54
537.568	9.26502
540.461	3.61737
543.354	12.5588
546.246	8.60938
549.139	17.1021
552.032	1.38391
554.924	1.67297
557.817	1.04144
560.71	4.42505
563.602	8.08179
566.495	10.42
569.388	10.1398
572.281	27.7368
575.173	28.7084
578.066	38.2032
580.959	29.1584
583.851	66.5081
586.744	60.2724
589.637	90.0183
592.529	110.622
595.422	151.859
598.315	164.556
601.208	213.391
604.1	226.101
606.993	235.394
609.886	239.949
612.778	228.942
615.671	239.218
618.564	263.223
621.457	237.793
624.349	236.787
627.242	203.452
630.135	196.116
633.027	170.081
635.92	119.066
638.813	112.354
641.705	91.4583
644.598	75.4666
647.491	68.6027
650.384	63.1735
653.276	48.4741
656.169	32.1982
659.062	26.8449
661.954	20.7153
664.847	20.4811
667.74	22.273
670.632	24.8201
673.525	23.9059
676.418	15.9904
679.311	11.9786
682.203	0.848877
685.096	11.8302
687.989	5.95547
690.881	7.05893
693.774	2.34503
696.667	1.29535
699.559	20.4893
702.452	7.70657
705.345	2.75617
708.237	8.83359
711.13	22.6205
714.023	11.6992
716.916	28.8279
719.808	16.373
722.701	4.41803
725.594	22.9
728.486	10.8841
731.379	30.9039
734.272	32.3365
737.164	11.156
740.057	28.2848
742.95	14.3842
745.843	20.4874
748.735	7.99078
751.628	6.6872
754.521	12.0742
757.413	10.8558
760.306	22.4255
763.199	3.11511
766.091	10.8334
768.984	9.41596
771.877	7.67505
774.77	0.149353
777.662	35.0457
780.555	2.03805
783.448	35.1516
786.34	8.43643
789.233	20.9504
792.126	18.277
795.019	13.385
797.911	8.8158
800.804	22.5181
803.697	5.26355
806.589	25.8639
809.482	25.3013
812.375	13.4614
815.267	17.221
818.16	13.7956
821.053	11.2631
823.946	23.7366
826.838	3.79446
829.731	15.7638
832.624	9.02118
835.516	19.1258
838.409	14.5001
841.302	0.675537
844.194	23.9407
847.087	10.8947
849.98	24.1858
852.872	23.7297
855.765	18.1288
858.658	20.1033
861.551	0.815125
864.443	31.476
867.336	18.5588
870.229	37.1414
873.121	13.7108
876.014	15.9302
878.907	4.55783
881.799	19.2315
884.692	25.9031
887.585	6.54599
890.478	12.3978
893.37	13.4108
896.263	3.52649
899.156	8.04001
902.048	6.81467
904.941	7.23685
907.834	13.9864
910.726	9.19919
913.619	4.18921
916.512	7.35764
919.405	11.9831
922.297	11.5428
925.19	3.64908
928.083	4.25247
930.975	14.7363
933.868	27.4779
936.761	32.3857
939.654	36.0247
942.546	40.4035
945.439	83.855
948.332	79.0942
951.224	118.538
954.117	148.652
957.01	188.506
959.902	219.541
962.795	302.498
965.688	419.637
968.581	565.035
971.473	755.773
974.366	871.184
977.259	804.439
980.151	732.59
983.044	804.003
985.937	1133.59
988.829	1689.01
991.722	2057.6
994.615	2164.81
997.508	1759.03
1000.4	1043.3
1003.29	544.837
1006.19	272.619
1009.08	153.624
1011.97	93.6314
1014.86	59.8178
1017.76	32.9516
1020.65	31.8776
1023.54	20.2821
1026.43	7.27771
1029.33	12.4364
1032.22	7.06003
1035.11	1.70297
1038.01	7.58197
1040.9	8.15134
1043.79	1.49603
1046.68	12.2756
1049.58	17.498
1052.47	14.2607
1055.36	42.2462
1058.25	25.0484
1061.15	40.655
1064.04	41.51
1066.93	49.2424
1069.83	71.6246
1072.72	55.117
1075.61	72.559
1078.5	47.2393
1081.4	56.8113
1084.29	68.777
1087.18	56.6003
1090.07	49.3451
1092.97	49.4283
1095.86	58.3417
1098.75	14.9553
1101.64	46.1342
1104.54	40.9332
1107.43	42.0638
1110.32	39.179
1113.21	46.0192
1116.11	59.848
1119	34.3829
1121.89	43.0926
1124.79	35.6181
1127.68	47.667
1130.57	56.4509
1133.46	72.5571
1136.36	76.0474
1139.25	76.8199
1142.14	75.0318
1145.04	60.0865
1147.93	46.2937
1150.82	42.8455
1153.71	40.1368
1156.61	25.5477
1159.5	26.579
1162.39	15.8487
1165.28	3.11768
1168.18	15.0661
1171.07	15.5874
1173.96	15.9354
1176.86	8.56406
1179.75	8.70508
1182.64	7.52161
1185.53	1.76996
1188.43	3.27383
1191.32	7.06863
1194.21	2.77298
1197.1	4.07672
1200	33.1553
1202.89	10.3972
1205.78	25.5627
1208.67	29.4265
1211.57	14.3067
1214.46	18.2917
1217.35	22.8893
1220.24	10.3449
1223.14	1.922
1226.03	16.7432
1228.92	14.2922
1231.82	6.90091
