Measurement: Raman, 532 nm, unoriented, Raman Data Processed
Mineral: Dietzeite
Rruff sample: R130292
Ideal chemistry: Ca_2_(I^5+^O_3_)_2_Cr^6+^O_4_H_2_O
Locality: Maria Elena mine, Atacama Desert, Tocopilla Province, Antofagasta Region, Chile
Source: Rock Currier
Description: Yellow tabular crystals, associated with colorless nitratine
Measured chemistry: Ca_1.63_(I_0.93_O_3_)_2.00_(Cr_1.21_S_0.03_O_4_)_1.00_Â·H_2_O ; The total is low due to possible dehydration during the probe
Raman shift (cm-1)	intensity
188.678	0
191.57	1.33034
194.463	5.0423
197.356	6.91824
200.249	17.3432
203.141	27.6996
206.034	32.317
208.927	38.4947
211.819	44.4318
214.712	49.4221
217.605	50.2758
220.497	49.8875
223.39	50.4937
226.283	54.293
229.175	71.1388
232.068	89.4492
234.961	115.03
237.854	152.815
240.746	200.168
243.639	261.834
246.532	303.382
249.424	271.517
252.317	183.284
255.21	115.861
258.103	70.7421
260.995	42.7456
263.888	25.1818
266.781	14.0441
269.673	8.726
272.566	2.61481
275.459	0.35643
278.351	3.00484
281.244	5.31845
284.137	6.68896
287.029	5.32109
289.922	6.01335
292.815	3.4664
295.708	3.08176
298.6	3.28635
301.493	8.99063
304.386	22.0402
307.278	38.0557
310.171	58.6199
313.064	88.6241
315.957	131.092
318.849	179.696
321.742	230.647
324.635	288.846
327.527	379.121
330.42	491.932
333.313	645.77
336.205	882.007
339.098	1194.38
341.991	1469.41
344.884	1560.33
347.776	1370.89
350.669	1059.89
353.562	896.394
356.454	852.057
359.347	781.337
362.24	591.785
365.132	386.17
368.025	261.578
370.918	216.728
373.81	229.632
376.703	237.628
379.596	174.446
382.489	127.75
385.381	125.7
388.274	153.479
391.167	175.298
394.059	146.57
396.952	86.4243
399.845	54.5279
402.738	45.5462
405.63	39.4149
408.523	37.2969
411.416	44.5
414.308	65.3365
417.201	88.0737
420.094	107.615
422.986	97.031
425.879	64.4369
428.772	37.9092
431.664	25.3823
434.557	17.9317
437.45	15.9445
440.343	10.6917
443.235	3.46982
446.128	1.18057
449.021	3.17062
451.913	3.57996
454.806	5.90117
457.699	5.13167
460.591	3.31581
463.484	2.33714
466.377	0.854263
469.27	0.08017
472.162	2.4426
475.055	3.36278
477.948	4.66727
480.84	5.65552
483.733	5.4653
486.626	5.3873
489.519	6.45224
492.411	7.67807
495.304	7.50165
498.197	8.29347
501.089	9.14525
503.982	8.13835
506.875	9.3078
509.767	9.60791
512.66	7.15973
515.553	5.99318
518.446	4.09532
521.338	4.24532
524.231	4.14774
527.124	4.74991
530.016	3.69821
532.909	4.41721
535.802	7.39208
538.694	6.8351
541.587	6.74765
544.48	5.69487
547.372	4.68759
550.265	5.22652
553.158	3.26048
556.051	3.25803
558.943	1.47012
561.836	0.675476
564.729	1.38294
567.621	0.191208
570.514	1.06389
573.407	0.820602
576.299	0.93132
579.192	0.414795
582.085	0.266159
584.978	1.06859
587.87	1.23384
590.763	0.827377
593.656	2.62369
596.548	1.64847
599.441	2.27721
602.334	2.77205
605.226	2.24141
608.119	6.12073
611.012	4.00613
613.905	6.34314
616.797	6.21257
619.69	9.52899
622.583	9.20944
625.475	9.97748
628.368	10.6045
631.261	11.12
634.154	11.7659
637.046	13.8413
639.939	12.9282
642.832	12.852
645.724	14.5273
648.617	15.9662
651.51	17.5215
654.402	18.6405
657.295	19.3358
660.188	21.0972
663.081	22.3754
665.973	23.6436
668.866	26.93
671.759	30.403
674.651	35.4233
677.544	36.9844
680.437	40.1187
683.329	37.3738
686.222	35.7126
689.115	32.9895
692.008	30.4825
694.9	27.5385
697.793	23.7235
700.686	20.769
703.578	17.6793
706.471	14.8226
709.364	12.5076
712.256	9.16074
715.149	6.20465
718.042	2.18201
720.934	0.33255
723.827	4.11105
726.72	9.06946
729.613	10.4437
732.505	14.6175
735.398	9.28799
738.291	1.82462
741.183	26.0509
744.076	82.7164
746.969	216.746
749.861	399.988
752.754	625.37
755.647	1048.52
758.54	1678.38
761.432	2007.5
764.325	1062.79
767.218	411.756
770.11	206.24
773.003	171.855
775.896	230.726
778.788	387.527
781.681	539.117
784.574	339.744
787.467	482.202
790.359	548.028
793.252	714.968
796.145	1351.78
799.037	2372.75
801.93	2548.22
804.823	912.204
807.716	404.358
810.608	422.687
813.501	822.065
816.394	1458.9
819.286	1373.17
822.179	864.584
825.072	939.057
827.964	909.567
830.857	547.844
833.75	253.855
836.643	118.534
839.535	79.6298
842.428	95.7475
845.321	100.52
848.213	5.26086
851.106	45.2057
853.999	10.0516
856.891	135.739
859.784	369.357
862.677	644.274
865.569	1158.49
868.462	1954.88
871.355	2171.76
874.248	886.801
877.14	252.553
880.033	114.761
882.926	178.033
885.818	312.515
888.711	575.395
891.604	1073.23
894.496	1433.57
897.389	817.623
900.282	323.932
903.175	179.56
906.067	103.647
908.96	37.4201
911.853	23.644
914.745	63.8108
917.638	137.264
920.531	238.302
923.423	338.179
926.316	357.29
929.209	239.748
932.102	114.466
934.994	47.6476
937.887	15.2739
940.78	0.450012
943.672	6.76648
946.565	6.69177
949.458	7.06662
952.351	6.23245
955.243	4.90964
958.136	1.4024
961.029	3.65048
963.921	8.4567
966.814	11.789
969.707	17.4774
972.599	23.3322
975.492	32.7627
978.385	41.6614
981.278	49.1568
984.17	42.2779
987.063	39.1943
989.956	39.3054
992.848	41.206
995.741	44.6466
998.634	45.3019
1001.53	42.7696
1004.42	40.3785
1007.31	38.0472
1010.21	34.4009
1013.1	29.5891
1015.99	26.914
1018.88	23.1882
1021.77	22.4028
1024.67	20.2412
1027.56	19.1559
1030.45	18.8421
1033.35	17.6728
1036.24	16.5863
1039.13	15.7539
1042.02	15.7197
1044.92	17.7494
1047.81	14.2847
1050.7	11.499
1053.6	11.1684
1056.49	8.72269
1059.38	9.87192
1062.27	9.02426
1065.17	16.9476
1068.06	27.3398
1070.95	7.78686
1073.84	4.45392
1076.74	3.00595
1079.63	4.00153
1082.52	2.12619
1085.41	2.78146
1088.31	4.11728
1091.2	1.42642
1094.09	0.702179
1096.99	1.79581
1099.88	1.30331
1102.77	0.395264
1105.66	1.17389
1108.56	0.169464
1111.45	0.068207
1114.34	1.71948
1117.23	0.460968
1120.13	0.189819
1123.02	0.304871
1125.91	2.03021
1128.81	0.847778
1131.7	0.654236
1134.59	0.203949
1137.48	0.180725
1140.38	0.069
1143.27	0.103149
1146.16	1.92111
1149.05	0.688171
1151.95	0.778717
1154.84	0.351898
1157.73	0.062286
1160.62	0.353668
1163.52	0.617096
1166.41	0.535553
1169.3	1.40689
1172.2	0.100159
1175.09	1.54871
1177.98	1.5603
1180.87	0.776642
1183.77	2.28287
1186.66	0.712402
1189.55	0.481293
1192.44	1.41702
1195.34	2.52383
1198.23	2.74728
1201.12	2.45975
1204.02	2.97696
1206.91	2.32581
1209.8	2.06229
1212.69	3.78278
1215.59	3.36893
1218.48	1.34283
1221.37	2.62863
1224.26	2.77945
1227.16	2.34112
1230.05	1.63068
1232.94	2.80368
1235.84	2.60406
1238.73	2.14563
1241.62	2.35623
1244.51	2.57608
1247.41	1.49087
1250.3	0.069275
1253.19	0.746399
1256.08	0.993469
1258.98	2.6478
1261.87	3.60831
1264.76	2.95001
1267.65	3.14902
1270.55	1.9299
1273.44	2.13165
1276.33	1.60626
1279.23	1.18436
1282.12	2.24335
1285.01	0.62085
1287.9	0.987854
1290.8	1.83545
1293.69	0.301971
1296.58	0.136444
1299.47	0.03241
