Measurement: Raman, 532 nm, unoriented, Raman Data Processed
Mineral: Dietrichite
Rruff sample: R070381
Ideal chemistry: ZnAl_2_(SO_4_)_4_22H_2_O
Locality: Baia Sprie mine (Felsöbánya mine), Baia Sprie (Felsöbánya), Maramures County, Romania
Source: Michael Scott
Description: Light brown fibrous in tufted aggregates
Raman shift (cm-1)	intensity
157.376	0
160.268	1.24133
163.161	33.4644
166.054	21.6567
168.946	37.068
171.839	48.9388
174.732	48.767
177.625	59.4713
180.517	59.8344
183.41	54.7223
186.303	75.175
189.195	72.7387
192.088	88.4522
194.981	79.9747
197.874	89.5686
200.766	100.963
203.659	123.954
206.552	137.104
209.444	136.355
212.337	111.21
215.23	124.03
218.122	134.576
221.015	135.76
223.908	108.143
226.8	100.462
229.693	111.236
232.586	98.7367
235.479	87.1505
238.371	82.8542
241.264	40.6199
244.157	64.1993
247.049	25.2952
249.942	34.2299
252.835	22.3071
255.727	29.2776
258.62	22.1314
261.513	1.42834
264.406	16.9578
267.298	8.43945
270.191	2.08215
273.084	9.59058
275.976	36.1389
278.869	41.5986
281.762	19.9551
284.655	39.6075
287.547	66.6498
290.44	58.8993
293.333	93.0134
296.225	111.127
299.118	110.862
302.011	129.523
304.904	144.7
307.796	148.369
310.689	166.343
313.582	178.756
316.474	122.951
319.367	101.966
322.26	120.295
325.152	90.0448
328.045	84.3118
330.938	62.0515
333.83	41.5273
336.723	66.3309
339.616	66.1489
342.509	50.4088
345.401	65.8739
348.294	52.8212
351.187	34.8218
354.079	38.5897
356.972	38.0029
359.865	12.6134
362.757	46.654
365.65	15.7944
368.543	12.814
371.436	8.06787
374.328	20.0568
377.221	14.0776
380.114	25.0216
383.006	8.79614
385.899	3.33032
388.792	10.9352
391.685	9.26868
394.577	41.77
397.47	51.1145
400.363	77.8065
403.255	65.1212
406.148	120.364
409.041	171.21
411.933	209.336
414.826	279.398
417.719	290.811
420.611	322.405
423.504	319.678
426.397	315.875
429.29	280.339
432.182	290.793
435.075	263.998
437.968	262.03
440.86	295.388
443.753	292.978
446.646	332.081
449.538	367.677
452.431	410.265
455.324	441.399
458.217	465.212
461.109	451.424
464.002	474.905
466.895	464.945
469.787	429.657
472.68	403.486
475.573	341.069
478.466	293.225
481.358	260.906
484.251	158.775
487.144	124.106
490.036	60.8153
492.929	72.6436
495.822	40.4651
498.714	23.9833
501.607	48.8685
504.5	15.5994
507.393	12.7376
510.285	18.323
513.178	37.5904
516.071	32.6733
518.963	20.8477
521.856	37.4303
524.749	36.9652
527.641	39.8154
530.534	35.7214
533.427	21.6925
536.32	0.146484
539.212	11.7291
542.105	12.8492
544.998	6.34778
547.89	12.9603
550.783	21.7766
553.676	26.1148
556.568	18.4055
559.461	16.5226
562.354	10.6869
565.247	6.68518
568.139	24.5621
571.032	16.1769
573.925	11.0335
576.817	57.4512
579.71	61.0461
582.603	86.2838
585.495	121.844
588.388	127.788
591.281	183.539
594.174	227.105
597.066	246.426
599.959	281.836
602.852	313.267
605.744	368.971
608.637	369.666
611.53	409.897
614.423	437.651
617.315	447.288
620.208	407.342
623.101	376.919
625.993	336.074
628.886	291.45
631.779	268.552
634.671	222.425
637.564	196.841
640.457	143.96
643.35	107.682
646.242	130.103
649.135	76.0714
652.028	57.7024
654.92	52.3591
657.813	48.4351
660.706	34.0196
663.598	27.2861
666.491	31.3773
669.384	7.83875
672.277	25.9502
675.169	6.89905
678.062	30.2607
680.955	3.67981
683.847	13.0183
686.74	9.39453
689.633	31.269
692.525	23.8706
695.418	24.4618
698.311	21.4651
701.204	39.7241
704.096	74.5358
706.989	23.2231
709.882	22.3335
712.774	0.149658
715.667	33.5662
718.56	25.8309
721.452	12.2191
724.345	21.9186
727.238	32.4762
730.131	17.8164
733.023	47.1587
735.916	36.1741
738.809	32.7771
741.701	44.8247
744.594	25.8599
747.487	45.584
750.38	0.923096
753.272	30.3569
756.165	50.3418
759.058	21.1367
761.95	14.9221
764.843	28.9568
767.736	29.3071
770.628	59.6218
773.521	41.978
776.414	31.1643
779.307	12.7114
782.199	31.1301
785.092	40.9575
787.985	0.788086
790.877	44.2217
793.77	21.6509
796.663	13.9863
799.555	38.8088
802.448	3.57397
805.341	43.9602
808.234	39.2361
811.126	14.2932
814.019	20.3604
816.912	16.7012
819.804	14.6384
822.697	48.3796
825.59	18.2522
828.482	35.1511
831.375	45.4475
834.268	12.1562
837.16	1.33472
840.053	24.156
842.946	32.2673
845.839	27.29
848.731	34.1397
851.624	18.4263
854.517	28.1314
857.409	51.1228
860.302	4.70654
863.195	39.584
866.087	51.5867
868.98	53.1062
871.873	26.0334
874.766	26.8674
877.658	41.1802
880.551	44.4954
883.444	30.1931
886.337	4.39478
889.229	34.8235
892.122	45.8704
895.015	1.91211
897.907	2.16919
900.8	29.1228
903.693	27.0925
906.585	23.8103
909.478	4.63232
912.371	28.009
915.264	18.2239
918.156	0.204346
921.049	12.6846
923.942	11.0012
926.834	1.18042
929.727	57.3501
932.62	99.3372
935.512	18.9741
938.405	71.7932
941.298	92.2759
944.191	96.3716
947.083	133.113
949.976	160.739
952.869	192.906
955.761	281.745
958.654	394.369
961.547	506.736
964.439	723.52
967.332	961.911
970.225	1126.46
973.117	1194.9
976.01	1091.17
978.903	1044.36
981.796	1305.54
984.688	1906.46
987.581	2599.99
990.474	2941.39
993.366	2782.14
996.259	2015.96
999.152	1127.77
1002.04	550.626
1004.94	328.217
1007.83	191.92
1010.72	71.2764
1013.62	72.5007
1016.51	43.48
1019.4	15.9009
1022.29	22.8745
1025.19	35.9917
1028.08	52.1089
1030.97	11.5774
1033.86	23.5207
1036.76	16.4905
1039.65	4.05542
1042.54	27.2873
1045.43	5.63696
1048.33	79.6411
1051.22	77.2205
1054.11	63.5864
1057.01	87.8831
1059.9	101.151
1062.79	164.148
1065.68	148.157
1068.58	187.284
1071.47	190.26
1074.36	176.29
1077.26	174.247
1080.15	169.662
1083.04	188.106
1085.93	157.67
1088.83	102.052
1091.72	97.6472
1094.61	109.819
1097.5	126.92
1100.4	91.1746
1103.29	129.577
1106.18	121.249
1109.07	132.626
1111.97	135.073
1114.86	124.174
1117.75	126.529
1120.64	117.072
1123.54	133.416
1126.43	163.667
1129.32	131.666
1132.22	165.107
1135.11	131.338
1138	127.839
1140.89	162.633
1143.79	155.147
1146.68	121.131
1149.57	105.654
1152.46	97.2969
1155.36	78.6152
1158.25	46.0203
1161.14	66.2087
1164.04	3.85913
1166.93	20.01
1169.82	25.5195
1172.71	23.8218
1175.61	5.72461
1178.5	7.9646
1181.39	4.75
1184.29	19.2258
1187.18	0.921387
1190.07	14.6172
1192.96	7.32373
1195.86	6.53198
1198.75	7.97998
1201.64	6.93189
1204.53	24.2322
1207.43	16.0974
1210.32	9.28418
1213.21	43.8306
1216.1	24.6973
1219	15.9368
1221.89	48.2358
1224.78	41.5647
1227.67	24.679
1230.57	14.8687
1233.46	20.4045
1236.35	28.1489
1239.25	50.5017
1242.14	21.4866
1245.03	43.0671
1247.92	57.1379
1250.82	9.23608
1253.71	52.554
1256.6	74.9602
1259.49	47.8601
1262.39	35.719
1265.28	18.9399
1268.17	19.425
1271.07	38.8518
1273.96	22.3833
1276.85	56.7275
1279.74	12.2576
1282.64	20.4553
1285.53	74.8479
1288.42	26.5918
1291.32	43.9368
1294.21	7.45654
1297.1	30.0044
1299.99	27.7937
1302.88	22.0476
1305.78	20.2832
