Measurement: Raman, 780 nm, unoriented, Raman Data Processed
Mineral: Dietzeite
Rruff sample: R130292
Ideal chemistry: Ca_2_(I^5+^O_3_)_2_Cr^6+^O_4_H_2_O
Locality: Maria Elena mine, Atacama Desert, Tocopilla Province, Antofagasta Region, Chile
Source: Rock Currier
Description: Yellow tabular crystals, associated with colorless nitratine
Measured chemistry: Ca_1.63_(I_0.93_O_3_)_2.00_(Cr_1.21_S_0.03_O_4_)_1.00_Â·H_2_O ; The total is low due to possible dehydration during the probe
Raman shift (cm-1)	intensity
91.1996	0
94.5744	135.841
97.9492	160.667
101.324	480.381
104.699	784.469
108.074	1037.5
111.448	453.749
114.823	78.0012
118.198	33.3566
121.573	2.61536
124.948	66.2766
128.322	88.3024
131.697	116.708
135.072	202
138.447	258.552
141.822	246.744
145.197	171.965
148.571	129.859
151.946	172.436
155.321	254.439
158.696	413.398
162.071	515.116
165.446	326.767
168.82	174.974
172.195	128.449
175.57	100.487
178.945	54.5826
182.32	48.4397
185.694	76.3708
189.069	124.3
192.444	118.633
195.819	49.5683
199.194	9.25943
202.569	0.645599
205.943	5.33154
209.318	17.3621
212.693	24.8501
216.068	32.3751
219.442	47.2369
222.817	69.7791
226.192	94.7884
229.567	127.225
232.942	160.549
236.317	200.026
239.691	241.385
243.066	277.132
246.441	302.008
249.816	254.043
253.191	164.049
256.565	97.4565
259.94	50.5731
263.315	20.4029
266.69	5.99071
270.065	3.9126
273.44	8.32838
276.814	11.7331
280.189	13.3572
283.564	12.3326
286.939	10.2135
290.314	3.35391
293.688	5.52588
297.063	22.5506
300.438	57.071
303.813	106.271
307.188	160.667
310.562	239.468
313.937	354.665
317.312	525.108
320.687	666.031
324.062	652.158
327.437	692.118
330.811	818.947
334.186	1048.73
337.561	1459.23
340.936	1970.96
344.311	2304.27
347.685	2157.95
351.06	1699.71
354.435	1525.31
357.81	1419.25
361.185	1071.61
364.56	644.447
367.934	404.579
371.309	326.929
374.684	362.747
378.059	339.439
381.434	235.887
384.808	215.913
388.183	254.002
391.558	301.6
394.933	233.101
398.308	153.39
401.683	118.296
405.057	84.0126
408.432	65.6545
411.807	79.3309
415.182	123.402
418.557	174.014
421.931	172.031
425.306	100.529
428.681	52.3912
432.056	41.3011
435.431	46.6416
438.805	48.883
442.18	28.2011
445.555	3.789
448.93	9.17718
452.305	12.2854
455.68	11.4711
459.054	9.36928
462.429	6.99797
465.804	1.63289
469.179	1.68108
472.554	3.86049
475.928	8.48445
479.303	10.4452
482.678	13.9136
486.053	16.9402
489.428	19.9293
492.803	20.7406
496.177	24.32
499.552	24.4406
502.927	27.5211
506.302	27.7799
509.677	26.5283
513.051	30.2836
516.426	18.8664
519.801	15.4126
523.176	12.637
526.551	12.346
529.926	12.0286
533.3	10.486
536.675	10.1297
540.05	11.2913
543.425	10.5228
546.799	8.52164
550.174	8.10077
553.549	7.27853
556.924	5.26604
560.299	3.79001
563.674	2.86864
567.048	1.8506
570.423	1.36995
573.798	0.047592
577.173	0.349396
580.548	0.167435
583.923	0.214844
587.297	0.761505
590.672	0.369644
594.047	0.109741
597.422	0.528183
600.797	0.188171
604.171	1.22658
607.546	3.54619
610.921	3.6628
614.296	4.2552
617.671	4.77087
621.045	6.16763
624.42	7.94807
627.795	9.16449
631.17	9.71863
634.545	11.7079
637.919	12.9345
641.294	12.9768
644.669	12.2709
648.044	12.0961
651.419	14.1381
654.794	15.6511
658.168	16.786
661.543	18.7224
664.918	20.9927
668.293	25.1806
671.668	28.7094
675.043	33.224
678.417	36.2149
681.792	34.0568
685.167	31.3877
688.542	29.0934
691.917	26.8924
695.291	23.7086
698.666	19.8114
702.041	16.641
705.416	13.4619
708.791	11.2005
712.165	7.14601
715.54	4.05826
718.915	0.419815
722.29	2.25957
725.665	5.44687
729.039	10.8666
732.414	9.2054
735.789	5.03096
739.164	13.0824
742.539	55.0649
745.914	165.584
749.288	336.195
752.663	544.007
756.038	984.3
759.413	1758.3
762.788	1513.59
766.163	673.918
769.537	447.641
772.912	492.658
776.287	696.4
779.662	1410.99
783.037	1163.4
786.411	958.01
789.786	821.221
793.161	862.495
796.536	1615.08
799.911	3447.83
803.285	1962.39
806.66	596.745
810.035	436.547
813.41	820.414
816.785	1815.46
820.159	980.477
823.534	398.603
826.909	337.332
830.284	168.94
833.659	36.2452
837.034	0.136536
840.408	45.1478
843.783	149.552
847.158	73.1548
850.533	35.9379
853.908	1.31845
857.283	197.881
860.657	424.595
864.032	818.176
867.407	1665.09
870.782	2384.4
874.157	901.3
877.531	200.668
880.906	71.4147
884.281	98.4535
887.656	221.221
891.031	564.867
894.405	948.006
897.78	459.693
901.155	199.037
904.53	151.484
907.905	65.8983
911.279	26.9876
914.654	62.3945
918.029	140.517
921.404	262.362
924.779	378.413
928.154	316.245
931.528	147.206
934.903	53.9065
938.278	15.6144
941.653	0.92923
945.028	7.39009
948.403	7.89168
951.777	5.79811
955.152	2.31853
958.527	0.401115
961.902	5.21656
965.277	8.59875
968.651	14.2413
972.026	21.0843
975.401	29.5798
978.776	43.9353
982.151	53.9036
985.525	38.0198
988.9	35.6737
992.275	35.9567
995.65	38.2899
999.025	39.6046
1002.4	39.1634
1005.77	35.1931
1009.15	30.771
1012.52	26.3707
1015.9	22.8814
1019.27	20.1104
1022.65	18.6299
1026.02	17.9209
1029.4	16.6493
1032.77	15.4512
1036.15	16.0706
1039.52	15.1749
1042.9	14.5355
1046.27	13.5355
1049.65	12.3919
1053.02	11.5946
1056.4	15.8961
1059.77	10.8936
1063.15	12.8175
1066.52	21.9847
1069.9	13.4375
1073.27	5.55935
1076.64	4.23199
1080.02	4.05334
1083.39	2.90807
1086.77	2.44523
1090.14	2.65442
1093.52	2.58335
1096.89	1.98199
1100.27	0.021194
1103.64	0.075478
1107.02	0.444519
1110.39	0.231354
1113.77	0.180191
1117.14	0.320541
1120.52	0.620888
1123.89	0.376488
1127.27	0.685516
1130.64	0.562622
1134.02	0.460533
1137.39	0.657784
1140.77	0.236389
1144.14	0.636772
1147.52	0.162811
1150.89	0.374039
1154.27	0.630104
1157.64	2.55926
1161.02	0.327133
1164.39	0.283516
1167.77	0.793335
1171.14	0.872406
1174.52	1.02553
1177.89	1.82099
1181.27	2.26932
1184.64	1.98748
1188.01	1.72761
1191.39	1.05157
1194.76	1.13245
1198.14	1.83472
1201.51	2.35574
1204.89	1.84763
1208.26	1.16099
1211.64	2.04816
1215.01	1.37846
1218.39	1.01191
1221.76	1.18773
1225.14	0.992943
1228.51	1.26925
1231.89	0.408325
1235.26	1.01035
1238.64	1.12137
1242.01	0.128021
1245.39	0.73101
1248.76	1.28022
1252.14	1.20663
1255.51	0.670074
1258.88	1.87273
1262.26	1.41425
1265.63	0.874443
1269.01	1.39148
1272.38	0.538643
1275.76	1.59644
1279.13	0.887222
1282.51	0.009811
