Measurement: Raman, 532 nm, unoriented, Raman Data Processed
Mineral: Diopside
Rruff sample: R060061
Ideal chemistry: CaMgSi_2_O_6_
Locality: Oka, near Montreal, Quebec, Canada
Source: University of Arizona Mineral Museum
Description: Pale green prismatic single crystal
Measured chemistry: (Ca_0.99_Mn_0.01_)_Σ=1_(Mg_0.92_Fe^2+^_0.06_Mn_0.02_)_Σ=1_(Si_1.99_Al_0.01_)_Σ=2_O_6_
Raman shift (cm-1)	intensity
124.2	0
127.575	12.6151
130.949	60.5043
134.324	113.839
137.699	214.504
141.074	211.448
144.449	74.4877
147.823	22.881
151.198	11.1881
154.573	6.03004
157.948	0.954567
161.323	1.47757
164.698	0.508339
168.072	0.699028
171.447	0.785271
174.822	2.6191
178.197	3.62788
181.572	4.82241
184.946	0.253769
188.321	2.48567
191.696	0.027153
195.071	1.32971
198.446	0.005707
201.821	1.48921
205.195	2.6079
208.57	4.38859
211.945	6.5042
215.32	6.48382
218.695	6.78545
222.069	8.47942
225.444	9.36172
228.819	11.0514
232.194	11.582
235.569	8.96152
238.944	4.05901
242.318	2.43398
245.693	1.92006
249.068	4.46837
252.443	6.17128
255.818	6.00613
259.192	0.882729
262.567	0.858948
265.942	2.28635
269.317	0.180855
272.692	5.1439
276.067	9.21333
279.441	13.6824
282.816	12.6325
286.191	4.85744
289.566	0.335838
292.941	1.59141
296.315	6.3967
299.69	12.8655
303.065	24.0057
306.44	48.4512
309.815	67.2602
313.19	89.5936
316.564	110.409
319.939	147.023
323.314	159.543
326.689	109.411
330.063	62.5797
333.438	41.1563
336.813	29.9313
340.188	31.2801
343.563	36.3486
346.938	49.0791
350.312	62.4571
353.687	88.253
357.062	104.478
360.437	86.4011
363.812	63.4261
367.187	55.5276
370.561	60.2684
373.936	77.8247
377.311	106.667
380.686	143.737
384.061	200.883
387.435	266.218
390.81	247.568
394.185	133.747
397.56	58.6961
400.935	26.0914
404.309	10.0896
407.684	3.10501
411.059	2.34628
414.434	0.016251
417.809	1.47509
421.183	2.00783
424.558	1.81529
427.933	0.777649
431.308	0.047539
434.683	0.861847
438.058	1.97713
441.432	1.43183
444.807	2.1983
448.182	0.091171
451.557	2.22286
454.932	4.01518
458.307	3.29559
461.681	3.59773
465.056	4.2836
468.431	6.51518
471.806	3.48753
475.181	3.67418
478.555	2.75034
481.93	1.34313
485.305	4.30795
488.68	3.53053
492.055	6.98624
495.43	6.83607
498.804	11.5272
502.179	19.0547
505.554	27.6014
508.929	25.0611
512.303	18.9663
515.678	18.4182
519.053	17.7603
522.428	20.3576
525.803	24.0231
529.178	24.782
532.552	23.7244
535.927	23.9646
539.302	19.742
542.677	17.8598
546.052	18.6253
549.427	16.3036
552.801	16.656
556.176	19.1913
559.551	18.8244
562.926	14.704
566.301	13.6783
569.675	11.4518
573.05	8.71786
576.425	9.05834
579.8	7.97039
583.175	3.68924
586.549	2.94945
589.924	0.281197
593.299	0.115501
596.674	0.225937
600.049	0.576454
603.423	1.37779
606.798	1.14143
610.173	2.92139
613.548	4.31224
616.923	4.38917
620.298	7.1275
623.672	8.82675
627.047	12.1894
630.422	16.6241
633.797	24.2007
637.172	33.8896
640.547	48.024
643.921	70.8856
647.296	109.462
650.671	176.153
654.046	261.587
657.421	381.515
660.795	534.638
664.17	665.683
667.545	599.734
670.92	372.606
674.295	207.819
677.669	122.077
681.044	76.0058
684.419	46.8677
687.794	33.0949
691.169	24.3428
694.544	17.2926
697.918	14.8559
701.293	13.291
704.668	12.5446
708.043	16.4477
711.418	18.6327
714.792	15.2039
718.167	9.09824
721.542	4.23814
724.917	2.33218
728.292	0.029556
731.667	0.890762
735.041	1.01971
738.416	0.977539
741.791	4.59241
745.166	7.06679
748.541	13.3595
751.915	21.4866
755.29	28.1393
758.665	32.2605
762.04	36.5181
765.415	38.7248
768.789	38.4184
772.164	34.7841
775.539	25.7451
778.914	20.193
782.289	13.2816
785.664	11.109
789.038	8.09909
792.413	5.67509
795.788	4.00847
799.163	0.194565
802.538	1.80011
805.913	1.40605
809.287	0.613159
812.662	0.260132
816.037	1.55429
819.412	1.26576
822.787	3.07056
826.161	0.880493
829.536	2.88017
832.911	1.95879
836.286	4.34892
839.661	14.4374
843.035	28.126
846.41	46.4249
849.785	73.0806
853.16	95.8895
856.535	80.1745
859.909	51.095
863.284	30.2071
866.659	19.3022
870.034	11.6204
873.409	8.42262
876.784	5.80043
880.158	4.69757
883.533	2.83342
886.908	2.4194
890.283	0.450333
893.658	1.23315
897.033	0.833252
900.407	0.569977
903.782	1.16618
907.157	2.23149
910.532	0.259003
913.907	3.31342
917.281	2.94699
920.656	4.90051
924.031	6.6185
927.406	4.43242
930.781	5.50539
934.155	2.53804
937.53	4.05437
940.905	0.601654
944.28	0.318085
947.655	0.872223
951.029	0.725952
954.404	0.46933
957.779	0.018295
961.154	0.654907
964.529	0.948959
967.904	0.864182
971.278	0.565308
974.653	0.155762
978.028	3.27858
981.403	4.48288
984.778	11.8044
988.153	17.1905
991.527	32.2236
994.902	62.352
998.277	113.501
1001.65	195.343
1005.03	308.166
1008.4	460.742
1011.78	598.679
1015.15	465.916
1018.53	220.922
1021.9	106.877
1025.28	65.768
1028.65	49.2392
1032.03	48.0632
1035.4	58.0211
1038.78	73.5706
1042.15	95.7831
1045.52	107.877
1048.9	82.1683
1052.27	47.5667
1055.65	22.692
1059.02	10.6268
1062.4	5.25995
1065.77	1.15567
1069.15	2.16199
1072.52	0.84848
1075.9	7.12418
1079.27	13.3628
1082.65	34.9542
1086.02	90.4723
1089.4	40.864
1092.77	1.9776
1096.15	0.868927
1099.52	0.079803
1102.9	3.48142
1106.27	1.20962
1109.65	3.04453
1113.02	3.50772
1116.39	3.16467
1119.77	2.71274
1123.14	4.26682
1126.52	2.94464
1129.89	2.81323
1133.27	4.18445
1136.64	0.781769
1140.02	1.526
1143.39	1.28146
1146.77	1.31815
1150.14	2.14478
1153.52	1.36002
1156.89	0.876495
1160.27	1.72296
1163.64	0.389099
1167.02	0.572327
1170.39	0.897583
1173.77	1.68835
1177.14	0.684113
1180.52	3.45926
1183.89	2.38165
1187.27	2.97354
1190.64	5.65579
1194.02	6.32233
1197.39	2.55981
1200.77	5.30676
1204.14	4.71317
1207.52	4.71973
1210.89	5.99081
1214.27	6.36667
1217.64	4.56229
1221.02	2.91919
1224.39	4.61493
1227.76	3.565
1231.14	2.08813
1234.51	2.92328
1237.89	4.27429
1241.26	3.3107
1244.64	5.18173
1248.01	4.1604
1251.39	0.778687
1254.76	5.00104
1258.14	4.69013
1261.51	3.49719
1264.89	4.19171
1268.26	1.16104
1271.64	4.10223
1275.01	2.36761
1278.39	3.11807
1281.76	4.85178
1285.14	3.33194
