Measurement: Raman, 532 nm, unoriented, Raman Data Processed
Mineral: Diopside
Rruff sample: R060276
Ideal chemistry: CaMgSi_2_O_6_
Locality: Inagli, Yakutia, Siberia, Russia
Source: Herb Obodda
Description: Transparent green cleavage fragment
Measured chemistry: (Ca_0.97_Na_0.03_)_Σ=1_(Mg_0.96_Fe_0.03_Cr_0.01_)_Σ=1_(Si_1.98_Al_0.02_)_Σ=2_O_6_
Raman shift (cm-1)	intensity
90.4922	0
93.867	10.9268
97.2418	14.0357
100.617	12.9548
103.992	14.2358
107.366	18.8759
110.741	11.0487
114.116	12.0478
117.491	8.49667
120.865	2.13449
124.24	6.52267
127.615	0.119049
130.99	18.8246
134.365	31.806
137.74	70.9149
141.114	160.645
144.489	146.566
147.864	92.041
151.239	91.2354
154.614	90.7191
157.988	88.0661
161.363	101.883
164.738	115.143
168.113	115.348
171.488	65.6166
174.863	49.2294
178.237	54.5551
181.612	60.0363
184.987	49.7212
188.362	38.8546
191.737	49.6351
195.112	97.0886
198.486	73.1019
201.861	11.2138
205.236	2.46173
208.611	4.62283
211.986	6.02591
215.36	20.9442
218.735	46.9138
222.11	69.6823
225.485	118.566
228.86	200.705
232.234	205.24
235.609	96.2626
238.984	39.1736
242.359	31.1191
245.734	32.4714
249.109	37.4165
252.483	62.1731
255.858	81.1138
259.233	39.9102
262.608	9.634
265.983	2.39392
269.358	0.541107
272.732	4.3587
276.107	7.49188
279.482	6.0033
282.857	5.90167
286.232	5.82117
289.606	14.3696
292.981	30.8367
296.356	54.8129
299.731	100.072
303.106	145.803
306.481	149.094
309.855	165.781
313.23	228.21
316.605	333.835
319.98	530.719
323.355	788.408
326.729	771.343
330.104	449.218
333.479	238.953
336.854	144.393
340.229	119.938
343.603	124.551
346.978	159.477
350.353	225.969
353.728	350.219
357.103	493.07
360.478	475.581
363.852	370.933
367.227	301.949
370.602	256.974
373.977	218.351
377.352	267.685
380.726	365.033
384.101	553.405
387.476	853.823
390.851	1197.49
394.226	1019.85
397.601	537.002
400.975	248.237
404.35	118.377
407.725	59.2516
411.1	31.4527
414.475	11.2104
417.849	8.75143
421.224	0.583588
424.599	5.11087
427.974	2.39423
431.349	1.20309
434.724	4.40729
438.098	5.34265
441.473	5.85403
444.848	1.21213
448.223	2.74649
451.598	8.13437
454.972	14.4211
458.347	25.1582
461.722	36.341
465.097	46.4533
468.472	41.0831
471.846	26.7088
475.221	10.752
478.596	8.8255
481.971	5.09784
485.346	6.75708
488.721	5.54752
492.095	10.4962
495.47	8.00702
498.845	13.5386
502.22	23.3859
505.595	45.6666
508.969	78.5005
512.344	57.7373
515.719	41.5244
519.094	32.9146
522.469	18.8277
525.844	24.8747
529.218	32.6054
532.593	25.4835
535.968	29.0668
539.343	29.8347
542.718	32.9355
546.092	41.9505
549.467	54.2701
552.842	82.029
556.217	124.724
559.592	178.063
562.967	130.829
566.341	63.8663
569.716	34.8556
573.091	25.956
576.466	20.0449
579.841	13.0633
583.216	5.33856
586.59	1.31769
589.965	5.56088
593.34	2.79407
596.715	0.984436
600.09	1.28955
603.464	2.14981
606.839	1.74637
610.214	0.410461
613.589	6.43906
616.964	3.99658
620.338	12.4457
623.713	15.5052
627.088	26.6907
630.463	32.0156
633.838	46.5324
637.212	56.3246
640.587	75.1549
643.962	106.723
647.337	159.203
650.712	253.446
654.087	427.813
657.461	684.676
660.836	1084.64
664.211	1645.13
667.586	1978.99
670.961	1417.97
674.335	737.421
677.71	394.903
681.085	230.169
684.46	144.792
687.835	93.8284
691.21	69.396
694.584	49.7482
697.959	40.4801
701.334	33.3099
704.709	31.689
708.084	23.0843
711.458	21.2681
714.833	14.0531
718.208	8.49298
721.583	4.67651
724.958	1.69891
728.332	3.56317
731.707	3.04691
735.082	4.4527
738.457	1.88986
741.832	1.72256
745.207	0.520752
748.581	7.18024
751.956	3.54034
755.331	3.35358
758.706	3.62204
762.081	4.24606
765.456	8.99646
768.83	7.04532
772.205	6.66843
775.58	9.92984
778.955	10.6034
782.33	6.13058
785.704	10.302
789.079	7.37415
792.454	7.90829
795.829	2.82437
799.204	2.13254
802.578	3.02991
805.953	0.966888
809.328	3.07004
812.703	1.50156
816.078	2.3389
819.453	5.54715
822.827	0.75824
826.202	2.64328
829.577	2.39572
832.952	3.17627
836.327	7.68936
839.702	12.7473
843.076	38.7475
846.451	65.6157
849.826	119.498
853.201	187.632
856.576	220.228
859.95	148.846
863.325	91.3088
866.7	61.8769
870.075	38.1706
873.45	33.7162
876.824	34.1808
880.199	30.2919
883.574	23.0496
886.949	22.0624
890.324	30.6252
893.698	22.3517
897.073	24.5341
900.448	24.8325
903.823	25.7713
907.198	20.0587
910.573	17.6292
913.947	15.2494
917.322	16.1618
920.697	15.9279
924.072	13.1077
927.447	7.42294
930.822	5.31351
934.196	0.996338
937.571	2.57944
940.946	1.30853
944.321	0.864471
947.696	5.49561
951.07	5.54282
954.445	8.98084
957.82	11.1284
961.195	13.1795
964.57	14.2724
967.944	21.8739
971.319	19.4387
974.694	30.6923
978.069	33.9515
981.444	43.7048
984.819	51.4154
988.193	71.3322
991.568	97.8852
994.943	139.72
998.318	233.706
1001.69	425.859
1005.07	737.606
1008.44	1240.57
1011.82	1971.5
1015.19	1942.08
1018.57	963.752
1021.94	427.286
1025.32	229.37
1028.69	145.3
1032.07	118.635
1035.44	104.785
1038.82	115.542
1042.19	136.107
1045.57	171.987
1048.94	176.804
1052.32	120.192
1055.69	65.8045
1059.07	31.2787
1062.44	20.7331
1065.81	18.2954
1069.19	8.82413
1072.56	4.04709
1075.94	0.119507
1079.31	5.50424
1082.69	0.570374
1086.06	2.03342
1089.44	1.26099
1092.81	2.66553
1096.19	4.18753
1099.56	4.48245
1102.94	2.24744
1106.31	1.67804
1109.69	6.59464
1113.06	4.76184
1116.44	9.17981
1119.81	10.295
1123.19	9.03677
1126.56	9.50702
1129.94	11.3299
1133.31	8.14365
1136.68	12.5876
1140.06	10.9673
1143.43	10.9012
1146.81	8.35532
1150.18	10.146
1153.56	10.6301
1156.93	1.55164
1160.31	2.60968
1163.68	0.654724
1167.06	2.3576
1170.43	0.577728
1173.81	2.13065
1177.18	1.90512
1180.56	0.269989
1183.93	5.07721
1187.31	4.11807
1190.68	1.54788
1194.06	9.96609
1197.43	4.94208
1200.81	4.06482
1204.18	3.90219
1207.56	4.51016
1210.93	2.26978
1214.31	12.527
1217.68	6.47888
1221.06	2.12149
1224.43	6.72412
1227.81	2.1532
1231.18	2.66086
1234.56	7.91971
1237.93	3.53418
1241.31	8.47141
1244.68	8.14838
1248.05	7.82153
1251.43	7.85257
1254.8	6.32861
1258.18	7.50326
1261.55	9.37146
1264.93	3.80008
1268.3	8.13672
1271.68	4.13413
1275.05	3.97916
1278.43	7.10553
1281.8	0.562622
1285.18	3.17535
1288.55	6.55627
1291.93	2.18133
1295.3	0.127686
1298.68	6.26068
1302.05	3.797
