Measurement: Raman, 514 nm, unoriented, Raman Data Processed
Mineral: Dioptase
Rruff sample: R040028
Ideal chemistry: CuSiO_3_H_2_O
Locality: Tantara mine, Democratic Republic of the Congo
Source: University of Arizona Mineral Museum
Description: Bluish green coarsely crystallized fragment
Measured chemistry: Cu_1.00_Si_1.00_O_3_Â·H_2_O; H_2_O estimated by difference
Raman shift (cm-1)	intensity
104.516	0
108.691	175.208
112.864	498.849
117.034	858.078
121.203	1043.22
125.369	2827.09
129.534	4802.57
133.696	5545.45
137.857	3612.86
142.016	928.736
146.172	89.3
150.327	76.606
154.48	759.631
158.63	1457.14
162.779	1388.88
166.926	607.118
171.07	786.269
175.213	1566.04
179.354	1951.77
183.493	1320.58
187.63	738.472
191.765	685.154
195.898	777.005
200.029	726.904
204.158	849.841
208.285	1521.59
212.41	2375.36
216.533	4710.32
220.654	7675.47
224.773	8374.35
228.891	5817.71
233.006	2847.31
237.119	1403.11
241.231	704.028
245.34	260.951
249.448	19.858
253.553	225.744
257.657	1382.61
261.758	3372.29
265.858	3982.87
269.956	2238.03
274.052	1217.17
278.146	1121.35
282.237	1466.3
286.327	2199.58
290.416	2841.3
294.502	2052.36
298.586	769.563
302.668	115.949
306.749	121.69
310.827	190.55
314.903	169.611
318.978	156.193
323.051	546.765
327.121	557.096
331.19	229.201
335.257	48.083
339.322	58.708
343.385	277.923
347.446	1144.9
351.505	4261.76
355.563	6868.48
359.618	5140.08
363.672	1969.55
367.723	943.876
371.773	658.21
375.821	626.925
379.866	832.441
383.91	1173.9
387.952	2167.16
391.992	4511.37
396.031	7280.54
400.067	7094.68
404.101	4094.78
408.134	2067.68
412.165	1492.51
416.193	1553.11
420.22	1635.04
424.245	1759.91
428.268	1815.5
432.289	1899.32
436.309	1948.67
440.326	1814.26
444.342	1543.77
448.355	1470.53
452.367	1466.64
456.377	1181.29
460.385	842.706
464.391	569.947
468.395	402.901
472.398	265.221
476.398	198.35
480.397	229.061
484.394	275.168
488.389	329.145
492.382	267.73
496.373	264.6
500.362	290.294
504.349	399.035
508.335	538.393
512.319	695.635
516.3	848.763
520.28	899.778
524.259	816.829
528.235	762.507
532.209	662.229
536.182	558.874
540.152	410.455
544.121	319.976
548.088	331.44
552.053	440.844
556.017	734.678
559.978	1044.48
563.938	1278.73
567.895	903.938
571.851	725.11
575.805	495.275
579.758	251.362
583.708	121.363
587.657	27.265
591.603	2.962
595.548	52.377
599.491	45.148
603.432	49.29
607.372	40.812
611.309	42.724
615.245	44.01
619.179	3.926
623.111	33.596
627.041	74.69
630.97	150.626
634.896	290.834
638.821	412.325
642.744	649.75
646.665	1151.1
650.584	2273.37
654.502	4783.6
658.418	6851.85
662.331	5461.06
666.244	3034.26
670.154	1660.46
674.062	965.586
677.969	676.813
681.874	456.35
685.777	317.943
689.678	237.35
693.577	182.967
697.475	148.594
701.371	165.135
705.265	129.036
709.157	170.523
713.047	175.303
716.936	254.278
720.823	337.243
724.708	509.627
728.591	832.26
732.472	1315.22
736.352	2025.11
740.23	2675.79
744.106	2350.39
747.98	1614.63
751.853	974.458
755.723	649.339
759.592	455.345
763.459	302.678
767.325	183.796
771.188	165.221
775.05	127.582
778.91	139.992
782.768	114.355
786.625	122.489
790.479	104.753
794.332	111.982
798.183	136.176
802.033	114.335
805.88	86.461
809.726	78.555
813.57	64.617
817.413	27.651
821.253	22.654
825.092	33.626
828.929	13.568
832.764	4.522
836.598	1.673
840.429	0.884
844.259	0.138
848.088	6.439
851.914	15.794
855.739	7.216
859.562	4.905
863.383	5.236
867.203	7.836
871.02	14.524
874.836	10.302
878.65	10.146
882.463	2.977
886.274	25.091
890.083	52.2
893.89	78.307
897.695	147.421
901.499	210.562
905.301	341.779
909.102	582.144
912.9	770.654
916.697	743.318
920.492	488.143
924.285	322.118
928.077	253.196
931.867	251.316
935.655	250.458
939.442	230.615
943.226	232.781
947.009	269.957
950.791	363.148
954.57	471.36
958.348	586.606
962.124	488.899
965.899	372.326
969.671	323.571
973.442	370.088
977.211	392.423
980.979	459.747
984.745	562.571
988.509	718.576
992.271	982.4
996.032	1527.38
999.791	2682.77
1003.55	4340.92
1007.3	4328.08
1011.06	3463.5
1014.81	3232.15
1018.56	3105.37
1022.31	2699.13
1026.06	2303.45
1029.8	1777.43
1033.55	1279.01
1037.29	885.974
1041.03	632.837
1044.77	492.009
1048.5	385.078
1052.24	300.181
1055.97	247.316
1059.7	226.482
1063.43	165.676
1067.16	142.897
1070.89	125.142
1074.61	102.408
1078.34	69.695
1082.06	60.004
1085.78	23.334
1089.5	51.684
1093.21	25.053
1096.93	14.458
1100.64	19.53
1104.35	4.484
1108.06	9.553
1111.77	1.322
1115.48	0.685
1119.18	32.71
1122.89	247.223
1126.59	119.83
1130.29	37.524
1133.99	45.382
1137.68	54.236
1141.38	63.873
1145.07	62.022
1148.76	34.914
1152.45	59.703
1156.14	73.404
1159.83	81.473
1163.51	77.995
1167.19	67.69
1170.88	64.051
1174.56	64.401
1178.23	68.64
1181.91	55.082
1185.59	46.848
1189.26	52.602
1192.93	41.386
1196.6	29.166
1200.27	22.905
1203.94	21.596
1207.6	41.764
1211.27	41.993
1214.93	48.625
1218.59	62.245
1222.25	35.862
1225.9	34.701
1229.56	30.48
1233.21	29.246
1236.86	32.803
1240.51	28.6
1244.16	10.693
1247.81	3.658
1251.45	9.127
1255.1	16.314
1258.74	9.779
1262.38	6.432
1266.02	4.098
1269.66	10.094
1273.29	10.898
1276.93	4.796
1280.56	1.373
1284.19	15.545
1287.82	0.912
1291.45	10.681
1295.07	13.227
1298.7	25.709
1302.32	31.174
1305.94	28.577
1309.56	4.04
1313.18	36.259
1316.8	35.472
1320.41	21.62
1324.02	40.692
1327.63	53.696
1331.24	43.639
1334.85	39.526
1338.46	29.025
1342.06	37.133
1345.67	45.854
1349.27	27.578
1352.87	44.204
1356.47	41.791
1360.07	36.29
1363.66	36.348
1367.25	27.296
1370.85	21.645
1374.44	14.932
1378.03	36.158
1381.61	15.304
1385.2	4.399
1388.78	22.735
1392.37	39.915
1395.95	28.587
1399.53	34.835
1403.1	1.3
1406.68	20.2
1410.26	28.515
1413.83	19.411
1417.4	8.536
1420.97	7.341
1424.54	34.201
1428.1	19.077
1431.67	16.036
1435.23	48.761
1438.8	55.497
1442.36	31.076
1445.91	19.666
1449.47	35.633
1453.03	37.107
1456.58	19.556
1460.13	21.795
1463.68	29.988
1467.23	18.44
1470.78	34.361
1474.33	30.7
1477.87	32.017
1481.42	27.697
1484.96	25.226
1488.5	0.468
1492.04	2.61
1495.57	0.058
1499.11	10.499
1502.64	11.191
1506.17	13.929
1509.71	15.28
1513.23	8.652
1516.76	6.539
1520.29	25.467
1523.81	15.728
1527.34	0
