Measurement: Raman, 780 nm, unoriented, Raman Data Processed
Mineral: Diopside
Rruff sample: R120003
Ideal chemistry: CaMgSi_2_O_6_
Locality: Chifeng, Inner Mongolia
Source: Jack Lowell
Description: Massive aggregate of pale yellow-green prismatic crystals overlain by dark green andradite R120004
Raman shift (cm-1)	intensity
152.832	0
155.725	0.230865
158.618	0.268677
161.51	2.84532
164.403	7.12625
167.296	2.37832
170.189	1.23656
173.081	4.0442
175.974	5.97909
178.867	11.8233
181.759	17.4605
184.652	6.68437
187.545	3.20203
190.437	3.28148
193.33	7.09147
196.223	6.22356
199.115	1.19553
202.008	0.2332
204.901	0.043457
207.794	0.866699
210.686	1.50775
213.579	4.67242
216.472	7.82104
219.364	12.234
222.257	15.7883
225.15	20.6509
228.042	27.911
230.935	32.136
233.828	29.9212
236.721	22.0045
239.613	13.3158
242.506	9.83126
245.399	9.54199
248.291	11.3626
251.184	14.8502
254.077	16.1543
256.969	11.1207
259.862	4.15894
262.755	1.92599
265.648	0.753723
268.54	0.710228
271.433	0.46534
274.326	1.84739
277.218	0.565926
280.111	0.134804
283.004	0.26828
285.897	0.610153
288.789	2.85287
291.682	6.02842
294.575	9.30448
297.467	15.0055
300.36	23.5232
303.253	34.1074
306.145	44.8652
309.038	57.5585
311.931	74.3837
314.824	98.9095
317.716	136.43
320.609	196.335
323.502	223.522
326.394	152.695
329.287	75.1316
332.18	38.8075
335.072	26.2792
337.965	21.9745
340.858	20.6471
343.75	21.8989
346.643	27.5528
349.536	39.3524
352.429	54.0751
355.321	65.1345
358.214	63.0141
361.107	54.673
364	52.3651
366.892	60.2431
369.785	65.188
372.678	61.2635
375.57	62.0527
378.463	69.1101
381.356	89.004
384.248	128.01
387.141	177.708
390.034	188.158
392.926	116.957
395.819	54.0432
398.712	24.8202
401.605	13.311
404.497	6.47458
407.39	4.01263
410.283	1.7764
413.175	0.748734
416.068	0.434273
418.961	0.915871
421.853	0.085007
424.746	0.413567
427.639	0.426826
430.532	0.093292
433.424	0.775646
436.317	0.390186
439.21	0.941845
442.102	0.185116
444.995	0.060913
447.888	0.69833
450.781	1.28459
453.673	2.65509
456.566	1.73319
459.459	2.73221
462.351	3.55178
465.244	3.02251
468.137	2.55124
471.029	1.40862
473.922	1.07159
476.815	1.96899
479.707	1.453
482.6	1.3628
485.493	2.10088
488.386	3.10778
491.278	3.53652
494.171	4.25322
497.064	5.40796
499.956	5.93853
502.849	9.47185
505.742	14.2545
508.635	16.8887
511.527	16.5702
514.42	18.0039
517.313	16.8602
520.205	11.7707
523.098	11.1981
525.991	12.3984
528.883	14.0753
531.776	11.1688
534.669	7.21608
537.562	5.04513
540.454	3.84103
543.347	4.10212
546.24	3.56178
549.132	4.17086
552.025	4.42613
554.918	5.96205
557.81	6.5724
560.703	6.53487
563.596	2.27959
566.489	1.54147
569.381	1.13899
572.274	0.83963
575.167	0.442085
578.059	0.459499
580.952	0.232037
583.845	0.888359
586.737	0.056835
589.63	0.292614
592.523	0.103809
595.415	0.247505
598.308	0.68602
601.201	0.45982
604.094	0.40556
606.986	0.884212
609.879	0.334579
612.772	0.670319
615.664	1.52904
618.557	1.39953
621.45	1.62974
624.342	3.27368
627.235	3.67522
630.128	5.0716
633.021	6.32157
635.913	9.17464
638.806	11.4391
641.699	15.5399
644.591	22.3006
647.484	35.0309
650.377	55.1094
653.269	82.1387
656.162	115.897
659.055	167.482
661.948	238.064
664.84	293.069
667.733	259.212
670.626	160.226
673.518	90.2021
676.411	52.072
679.304	33.0909
682.197	21.878
685.089	16.0716
687.982	11.9559
690.875	8.09912
693.767	6.27088
696.66	5.75789
699.553	5.6118
702.445	5.99097
705.338	7.4256
708.231	7.28445
711.124	3.65164
714.016	2.36079
716.909	0.766666
719.802	1.02632
722.694	0.48814
725.587	0.516926
728.48	0.155075
731.372	0.323635
734.265	0.339462
737.158	0.479576
740.051	0.091106
742.943	3.98294
745.836	0.319794
748.729	0.263275
751.621	0.121799
754.514	0.114475
757.407	0.247738
760.299	0.544159
763.192	0.026306
766.085	0.571663
768.977	0.360268
771.87	0.691288
774.763	0.24358
777.656	0.631805
780.548	0.58363
783.441	0.450909
786.334	0.505802
789.226	0.724636
792.119	1.53836
795.012	0.985451
797.904	1.04001
800.797	1.4772
803.69	1.90159
806.583	2.63129
809.475	3.50143
812.368	4.31433
815.261	4.97783
818.153	4.40765
821.046	2.68448
823.939	1.69997
826.832	1.58658
829.724	1.85234
832.617	2.35337
835.51	3.25917
838.402	5.19016
841.295	8.47311
844.188	11.1808
847.08	14.1564
849.973	20.7709
852.866	30.3473
855.759	26.3359
858.651	14.895
861.544	9.45919
864.437	8.72578
867.329	10.1408
870.222	11.3858
873.115	14.0381
876.007	12.6334
878.9	7.54557
881.793	3.89938
884.686	2.16271
887.578	1.27164
890.471	1.81102
893.364	0.666458
896.256	0.793461
899.149	0.716454
902.042	1.39217
904.934	1.42753
907.827	1.9236
910.72	2.5392
913.612	3.3255
916.505	2.32829
919.398	2.30995
922.291	0.532646
925.183	0.491467
928.076	1.09866
930.969	0.306091
933.861	0.28791
936.754	0.037281
939.647	0.303059
942.539	0.291145
945.432	0.567375
948.325	0.014915
951.218	0.410168
954.11	0.493931
957.003	0.945133
959.896	0.645634
962.788	0.96273
965.681	1.4879
968.574	2.09905
971.466	1.98777
974.359	1.98642
977.252	2.60782
980.145	2.74929
983.037	4.47854
985.93	4.54249
988.823	6.10797
991.715	9.06072
994.608	14.1856
997.501	22.8441
1000.39	41.365
1003.29	69.0349
1006.18	108.455
1009.07	182.083
1011.96	282.177
1014.86	251.88
1017.75	127.949
1020.64	57.9123
1023.53	29.8943
1026.43	20.4613
1029.32	13.9174
1032.21	11.8841
1035.11	10.7883
1038	11.2608
1040.89	11.628
1043.78	12.8539
1046.68	14.1495
1049.57	11.4675
1052.46	6.63475
1055.36	4.07986
1058.25	2.54446
1061.14	2.26473
1064.03	0.937542
1066.93	0.540051
1069.82	0.951744
1072.71	0.544743
1075.6	0.46244
1078.5	0.110477
1081.39	0.029499
1084.28	0.141186
1087.17	0.1483
1090.07	0.259224
1092.96	0.356888
1095.85	0.554901
1098.74	0.153881
1101.64	0.48938
1104.53	0.435562
1107.42	0.393127
1110.32	0.015392
1113.21	0.388145
1116.1	0.389633
1118.99	0.064312
1121.89	0.644566
1124.78	0.307568
1127.67	0.396679
1130.57	0.31126
1133.46	0.186409
1136.35	0.817135
1139.24	0.77734
1142.14	0.529045
1145.03	0.417923
1147.92	0.621162
1150.81	0.282467
1153.71	0.690178
1156.6	0.23682
1159.49	0.268894
1162.38	0.39978
1165.28	0.020237
1168.17	0.157471
1171.06	0.560688
1173.96	0.32428
1176.85	0.367809
1179.74	0.137043
1182.63	0.757866
1185.53	0.115646
1188.42	0.283165
1191.31	0.542984
1194.2	0.723221
1197.1	0.696339
1199.99	0.922623
1202.88	0.550938
1205.78	0.581902
1208.67	0.017941
1211.56	2.29101
1214.45	0.871799
1217.35	0.005108
1220.24	1.28318
1223.13	0.39727
1226.02	0.992931
1228.92	0.77581
1231.81	0.07856
1234.7	0.762299
1237.6	0.624767
1240.49	0.125881
1243.38	0.71199
1246.27	0.239552
1249.17	0.619389
1252.06	0.263641
1254.95	0.641148
1257.84	0.32251
1260.74	0.907291
1263.63	0.461487
1266.52	1.13796
1269.41	1.13441
1272.31	0.526619
1275.2	0.684097
1278.09	0.478664
1280.98	0.774643
1283.88	0.336639
