Measurement: Raman, 780 nm, unoriented, Raman Data Processed
Mineral: Dioptase
Rruff sample: R040028
Ideal chemistry: CuSiO_3_H_2_O
Locality: Tantara mine, Democratic Republic of the Congo
Source: University of Arizona Mineral Museum
Description: Bluish green coarsely crystallized fragment
Measured chemistry: Cu_1.00_Si_1.00_O_3_Â·H_2_O; H_2_O estimated by difference
Raman shift (cm-1)	intensity
111.384	0
114.759	1.80426
118.134	2.40109
121.509	5.05802
124.883	6.12091
128.258	5.91571
131.633	4.96178
135.008	4.02613
138.383	3.67503
141.757	1.19281
145.132	1.8315
148.507	0.271257
151.882	0.951223
155.257	0.342577
158.632	0.356916
162.006	0.621719
165.381	0.197392
168.756	0.116125
172.131	0.204248
175.506	0.060406
178.881	0.749123
182.255	0.324711
185.63	1.75248
189.005	1.35138
192.38	1.93116
195.755	2.41277
199.129	2.1705
202.504	3.95978
205.879	4.32741
209.254	4.51347
212.629	4.55558
216.003	4.53343
219.378	3.07991
222.753	2.94022
226.128	2.94874
229.503	3.05383
232.877	2.2812
236.252	2.40333
239.627	2.3915
243.002	1.4944
246.377	1.86401
249.752	1.38878
253.126	1.80557
256.501	2.50205
259.876	2.80455
263.251	1.65484
266.626	2.24735
270	1.78027
273.375	2.77553
276.75	2.7325
280.125	2.30209
283.5	2.2356
286.875	2.54336
290.249	1.75413
293.624	0.732838
296.999	0.742476
300.374	0.823225
303.749	1.19593
307.123	0.014112
310.498	0.194654
313.873	0.021757
317.248	0.285
320.623	0.69869
323.998	0.202177
327.372	0.579075
330.747	0.14357
334.122	0.399868
337.497	1.49387
340.872	1.63525
344.247	2.33507
347.621	1.12028
350.996	2.94409
354.371	1.95398
357.746	2.20178
361.12	1.26097
364.495	1.5375
367.87	1.43859
371.245	1.89676
374.62	1.49398
377.995	2.78716
381.369	3.33416
384.744	2.82862
388.119	2.9927
391.494	2.76468
394.869	2.49802
398.243	1.73476
401.618	2.3017
404.993	1.70894
408.368	1.14059
411.743	1.65828
415.118	0.954973
418.492	0.542431
421.867	1.25347
425.242	0.467974
428.617	0.52216
431.992	0.466276
435.366	0.569328
438.741	0.323046
442.116	0.30142
445.491	0.466736
448.866	0.497
452.241	0.462709
455.615	0.471875
458.99	0.357494
462.365	0.680592
465.74	1.05477
469.115	0.881466
472.49	0.917612
475.864	1.39217
479.239	0.773855
482.614	1.08333
485.989	1.3534
489.364	0.356649
492.738	0.652689
496.113	0.961825
499.488	1.38147
502.863	1.01171
506.238	1.51876
509.613	1.39679
512.987	1.90112
516.362	1.55494
519.737	2.13701
523.112	1.1021
526.486	1.23086
529.861	1.00883
533.236	1.5617
536.611	0.992803
539.986	0.177939
543.361	1.26735
546.735	0.764979
550.11	1.16636
553.485	1.19358
556.86	1.01601
560.235	0.768028
563.61	0.783669
566.984	0.53808
570.359	0.278893
573.734	0.279632
577.109	0.531136
580.484	1.10134
583.858	0.72476
587.233	0.073752
590.608	0.27311
593.983	0.318304
597.358	0.043413
600.732	0.244656
604.107	0.523165
607.482	0.00666
610.857	0.06673
614.232	0.159252
617.607	0.328008
620.981	1.1708
624.356	0.97086
627.731	0.638797
631.106	1.82788
634.481	2.14871
637.856	3.04954
641.23	3.41288
644.605	4.9058
647.98	4.95212
651.355	6.4288
654.73	5.13623
658.104	3.92211
661.479	3.6793
664.854	2.57985
668.229	1.70041
671.604	0.984573
674.979	0.899872
678.353	1.38605
681.728	0.518034
685.103	0.248556
688.478	1.01576
691.852	0.248259
695.227	0.391024
698.602	0.247925
701.977	0.36009
705.352	0.3398
708.727	0.034506
712.101	0.246367
715.476	0.738317
718.851	0.468748
722.226	1.13021
725.601	1.40328
728.976	1.12916
732.35	1.76398
735.725	2.25224
739.1	0.865705
742.475	1.13278
745.85	0.675295
749.224	0.825483
752.599	0.784039
755.974	0.269722
759.349	0.844908
762.724	0.404751
766.098	0.606361
769.473	1.32949
772.848	0.348801
776.223	0.415386
779.598	0.743219
782.972	0.915716
786.347	0.409397
789.722	1.69602
793.097	1.16621
796.472	0.672873
799.847	1.58538
803.221	0.923922
806.596	1.5891
809.971	1.98342
813.346	1.50671
816.721	2.06251
820.096	1.84174
823.47	1.77862
826.845	1.95212
830.22	1.13948
833.595	2.52985
836.97	2.45256
840.344	2.98657
843.719	2.0075
847.094	2.45788
850.469	2.78572
853.844	2.83119
857.218	2.19313
860.593	2.03191
863.968	2.81176
867.343	2.78874
870.718	3.56693
874.093	1.56372
877.467	2.14684
880.842	2.08019
884.217	2.27144
887.592	1.49448
890.967	1.16657
894.341	0.344976
897.716	1.07015
901.091	0.662046
904.466	0.635323
907.841	0.697035
911.216	0.622475
914.59	0.066657
917.965	0.27
921.34	0.488935
924.715	0.807238
928.09	0.272613
931.465	0.423973
934.839	0.292107
938.214	0.408091
941.589	0.493356
944.964	1.39141
948.339	0.272815
951.713	0.92797
955.088	0.352475
958.463	0.107092
961.838	0.474186
965.213	0.260469
968.587	0.183555
971.962	1.04694
975.337	1.02148
978.712	1.24768
982.087	1.42776
985.462	1.43992
988.836	2.24451
992.211	2.92367
995.586	2.43606
998.961	3.88013
1002.34	3.22687
1005.71	2.25304
1009.09	2.63313
1012.46	1.66877
1015.84	1.4144
1019.21	1.33939
1022.58	1.24511
1025.96	0.869613
1029.33	0.89705
1032.71	0.871875
1036.08	0.38881
1039.46	0.5129
1042.83	1.08192
1046.21	0.864646
1049.58	1.48724
1052.96	0.701831
1056.33	0.647371
1059.71	0.058744
1063.08	0.331628
1066.46	0.699801
1069.83	1.07227
1073.21	1.28791
1076.58	0.493964
1079.96	0.234303
1083.33	0.46506
1086.71	0.766156
1090.08	0.842817
1093.46	0.537174
1096.83	0.650698
1100.2	1.05141
1103.58	0.432684
1106.95	1.19892
1110.33	0.550307
1113.7	1.07809
1117.08	0.445645
1120.45	0.338597
1123.83	0.000703
1127.2	0.429458
1130.58	0.230869
1133.95	1.23789
1137.33	0.072559
1140.7	0.790422
1144.08	1.05689
1147.45	0.695773
1150.83	0.347979
1154.2	0.825113
1157.58	0.819399
1160.95	0.98668
1164.33	1.43151
1167.7	1.1463
1171.08	0.627051
1174.45	1.00898
1177.83	1.11295
1181.2	0.75532
1184.58	0.652543
1187.95	0.443642
1191.33	0.587812
1194.7	1.19674
1198.08	0.648638
1201.45	1.13441
1204.83	0.504059
1208.2	0.431413
1211.57	1.39684
1214.95	0.07056
1218.32	0.241722
1221.7	0.832333
1225.07	0.630088
1228.45	0.17161
1231.82	0.989038
1235.2	0.581224
1238.57	1.14244
1241.95	0.413558
1245.32	0.730061
1248.7	1.08163
1252.07	0.923481
1255.45	0.571233
1258.82	1.0696
1262.2	0.272747
1265.57	0.916983
1268.95	0.167263
1272.32	0.754162
