Measurement: Raman, 780 nm, unoriented, Raman Data Processed
Mineral: Diopside
Rruff sample: R050666
Ideal chemistry: CaMgSi_2_O_6_
Locality: Franklin, Sussex County, New Jersey, USA
Source: University of Arizona Mineral Museum
Description: Brown cleavage fragment with white hardystonite
Measured chemistry: Ca(Mg_0.66_Mn_0.33_Fe_0.01_)Si_2_O_6_
Raman shift (cm-1)	intensity
140.719	0
143.612	0.510109
146.505	0.738575
149.397	0.547918
152.29	1.38979
155.183	2.12045
158.075	3.69784
160.968	1.99231
163.861	0.653593
166.753	0.652025
169.646	2.0321
172.539	2.54939
175.431	4.45896
178.324	2.94356
181.217	2.00773
184.11	1.95172
187.002	1.24097
189.895	0.934471
192.788	0.797426
195.68	0.246252
198.573	0.016361
201.466	0.225227
204.358	0.039797
207.251	0.265793
210.144	0.285297
213.037	0.842216
215.929	0.545374
218.822	0.981485
221.715	1.70932
224.607	2.16961
227.5	2.4351
230.393	3.0126
233.286	4.59293
236.178	3.79334
239.071	3.0185
241.964	2.45544
244.856	2.74452
247.749	2.78973
250.642	1.88644
253.534	1.81906
256.427	1.79296
259.32	1.06304
262.212	0.785959
265.105	0.301918
267.998	0.743374
270.891	0.220438
273.783	0.812147
276.676	0.64138
279.569	0.450247
282.461	0.192839
285.354	1.60148
288.247	2.79189
291.139	5.22494
294.032	8.07023
296.925	12.6192
299.817	17.756
302.71	23.2523
305.603	29.1846
308.496	35.6118
311.388	42.5856
314.281	48.0719
317.174	48.2733
320.066	38.2082
322.959	26.7659
325.852	20.3649
328.745	18.3123
331.637	17.6878
334.53	20.3458
337.423	23.5529
340.315	29.5467
343.208	35.1873
346.101	42.7931
348.993	48.2977
351.886	43.1392
354.779	34.3364
357.671	25.6807
360.564	22.4322
363.457	20.8857
366.35	24.0721
369.242	29.0277
372.135	35.8971
375.028	43.9252
377.92	56.3051
380.813	70.8066
383.706	77.118
386.599	58.182
389.491	33.1203
392.384	17.0855
395.277	9.9174
398.169	5.52968
401.062	3.59891
403.955	2.0284
406.847	1.77974
409.74	0.499609
412.633	0.740196
415.526	0.336061
418.418	0.401573
421.311	0.256371
424.204	0.654255
427.096	1.06485
429.989	0.442277
432.882	0.584607
435.774	0.102161
438.667	0.686049
441.56	1.08265
444.452	1.42057
447.345	2.09589
450.238	2.95461
453.13	3.34451
456.023	2.90282
458.916	2.26044
461.809	2.36554
464.701	1.24605
467.594	1.0123
470.487	1.24279
473.379	0.652322
476.272	0.884846
479.165	0.838741
482.058	0.460487
484.95	0.49783
487.843	0.240872
490.736	0.016703
493.628	1.01985
496.521	1.54192
499.414	1.0603
502.306	2.45564
505.199	2.07368
508.092	2.26629
510.985	1.61423
513.877	2.03862
516.77	2.08007
519.663	1.62679
522.555	1.91465
525.448	2.26721
528.341	2.42875
531.233	2.45593
534.126	2.46032
537.019	2.87138
539.912	4.51022
542.804	6.00096
545.697	8.50933
548.59	11.0565
551.482	16.1283
554.375	20.9506
557.268	19.6536
560.16	11.8705
563.053	5.8215
565.946	4.05111
568.838	3.10629
571.731	2.05186
574.624	1.36585
577.516	0.894561
580.409	0.813517
583.302	0.063435
586.195	0.268419
589.087	0.184838
591.98	0.004641
594.873	0.00731
597.765	0.388803
600.658	0.108913
603.551	0.068929
606.443	0.354644
609.336	0.048184
612.229	0.978686
615.122	0.867057
618.014	1.12487
620.907	2.34425
623.8	2.97994
626.692	3.82616
629.585	3.95891
632.478	5.08569
635.37	6.99747
638.263	10.4118
641.156	14.0347
644.049	22.1528
646.941	32.6128
649.834	44.8584
652.727	61.4516
655.619	83.6895
658.512	105.426
661.405	114.432
664.298	92.8493
667.19	59.0396
670.083	35.6025
672.976	21.5722
675.868	14.3763
678.761	9.57086
681.654	7.03955
684.546	5.3435
687.439	3.82519
690.332	2.79976
693.225	2.48956
696.117	2.15151
699.01	1.61494
701.903	1.4581
704.795	1.27144
707.688	0.257191
710.581	0.936053
713.473	0.160122
716.366	0.063035
719.259	0.361727
722.151	0.284389
725.044	0.028736
727.937	0.188895
730.83	0.086751
733.722	0.181409
736.615	0.745748
739.508	0.056478
742.4	0.351966
745.293	0.076008
748.186	0.374056
751.078	0.200144
753.971	0.798582
756.864	0.248565
759.756	0.563064
762.649	0.884308
765.542	0.527613
768.435	0.602295
771.327	0.98195
774.22	0.884624
777.113	0.878379
780.005	0.439341
782.898	0.324394
785.791	0.743111
788.683	0.504745
791.576	0.321839
794.469	0.379577
797.362	0.238386
800.254	0.129405
803.147	0.939951
806.04	0.261519
808.932	0.56325
811.825	0.56272
814.718	0.047287
817.611	0.783753
820.503	0.774425
823.396	0.662521
826.289	0.608436
829.181	1.11779
832.074	1.63778
834.967	2.68658
837.859	3.57408
840.752	4.66195
843.645	6.57842
846.538	9.0657
849.43	10.8146
852.323	8.45797
855.216	5.87717
858.108	4.43559
861.001	4.06623
863.894	3.53593
866.786	3.08622
869.679	2.8246
872.572	2.22867
875.464	2.54989
878.357	1.96936
881.25	2.13014
884.143	2.34862
887.035	2.54981
889.928	2.31337
892.821	2.11999
895.713	1.88973
898.606	2.63032
901.499	2.85988
904.391	1.88459
907.284	2.30135
910.177	1.84191
913.069	1.87827
915.962	1.59897
918.855	0.808189
921.748	1.40071
924.64	0.596637
927.533	0.233836
930.426	0.520624
933.318	0.261523
936.211	0.150784
939.104	0.054126
941.996	0.305017
944.889	0.154626
947.782	0.242341
950.675	0.081086
953.567	0.247394
956.46	0.460115
959.353	0.26018
962.245	0.696215
965.138	0.356322
968.031	1.06117
970.923	0.44745
973.816	0.970251
976.709	1.18959
979.602	1.05103
982.494	1.8568
985.387	3.03567
988.28	4.15015
991.172	6.0748
994.065	10.885
996.958	18.7122
999.851	34.2561
1002.74	55.9588
1005.64	81.8384
1008.53	119.798
1011.42	167.379
1014.31	172.622
1017.21	106.389
1020.1	47.6196
1022.99	25.4566
1025.88	17.443
1028.78	14.9671
1031.67	15.0627
1034.56	15.7078
1037.46	19.8444
1040.35	21.3671
1043.24	18.491
1046.13	10.6141
1049.03	5.09068
1051.92	1.78293
1054.81	0.488867
1057.7	0.614193
1060.6	0.687803
1063.49	0.404329
1066.38	0.521994
1069.28	0.073486
1072.17	1.43476
1075.06	2.15956
1077.95	3.36547
1080.85	4.89007
1083.74	6.50765
1086.63	8.68647
1089.52	10.5549
1092.42	11.6553
1095.31	13.5832
1098.2	13.9953
1101.1	15.3545
1103.99	15.873
1106.88	15.8255
1109.77	16.9991
1112.67	15.7496
1115.56	15.1192
1118.45	15.4934
1121.34	14.5898
1124.24	14.0529
1127.13	13.0987
1130.02	13.0229
1132.91	10.2343
1135.81	8.08593
1138.7	7.07292
1141.59	5.6474
1144.48	5.00695
1147.38	3.9786
1150.27	2.30541
1153.16	1.64068
1156.06	1.04164
1158.95	1.92148
1161.84	2.15395
1164.73	1.84378
1167.63	1.55464
1170.52	1.88945
1173.41	0.956207
1176.31	1.43369
1179.2	1.03491
1182.09	0.890949
1184.98	0.992289
1187.88	0.900988
1190.77	0.716259
1193.66	0.809399
1196.55	0.116798
1199.45	0.191435
1202.34	0.394424
1205.23	0.45685
1208.12	0.000847
1211.02	0.06328
1213.91	0.120569
1216.8	0.246098
1219.7	0.527832
1222.59	0.367292
1225.48	0.11644
1228.37	0.495773
1231.27	0.356863
1234.16	0.320856
1237.05	1.10892
1239.94	1.30699
1242.84	1.57658
1245.73	1.58634
1248.62	2.42114
1251.52	2.54726
1254.41	0.751976
1257.3	1.21464
1260.19	0.37373
1263.09	1.25774
1265.98	1.06818
1268.87	0.650328
1271.76	0.769953
1274.66	0.854385
1277.55	0.216827
1280.44	0.134314
1283.34	0.213848
1286.23	0
