Measurement: Raman, 780 nm, unoriented, Raman Data Processed
Mineral: Diopside
Rruff sample: R060061
Ideal chemistry: CaMgSi_2_O_6_
Locality: Oka, near Montreal, Quebec, Canada
Source: University of Arizona Mineral Museum
Description: Pale green prismatic single crystal
Measured chemistry: (Ca_0.99_Mn_0.01_)_Σ=1_(Mg_0.92_Fe^2+^_0.06_Mn_0.02_)_Σ=1_(Si_1.99_Al_0.01_)_Σ=2_O_6_
Raman shift (cm-1)	intensity
107.117	0
110.492	0.186554
113.867	3.67188
117.242	12.6303
120.616	20.3772
123.991	26.8373
127.366	38.3973
130.741	53.4993
134.116	78.1705
137.49	112.197
140.865	74.8639
144.24	25.5724
147.615	11.5758
150.99	7.18451
154.364	7.76291
157.739	4.9967
161.114	6.03305
164.489	5.20544
167.864	6.02264
171.238	10.3557
174.613	16.4849
177.988	23.0488
181.363	18.3359
184.738	8.07346
188.113	6.09191
191.487	4.17347
194.862	2.71137
198.237	0.639244
201.612	0.523521
204.987	2.15362
208.362	0.209465
211.736	2.21213
215.111	5.19327
218.486	5.50765
221.861	10.3834
225.236	15.173
228.61	24.5717
231.985	33.4774
235.36	19.7462
238.735	11.5949
242.11	10.9149
245.484	12.8814
248.859	15.2272
252.234	17.7266
255.609	9.63624
258.984	3.9332
262.358	0.263489
265.733	2.7638
269.108	2.09693
272.483	1.22182
275.858	6.2205
279.233	8.68252
282.607	7.30608
285.982	4.56549
289.357	3.88531
292.732	8.06216
296.107	14.8957
299.481	26.3342
302.856	46.3804
306.231	62.2658
309.606	80.9021
312.981	100.595
316.356	124.403
319.73	149.581
323.105	134.779
326.48	86.0884
329.855	49.7283
333.23	35.649
336.604	28.8811
339.979	29.4876
343.354	31.9555
346.729	38.2371
350.104	46.1036
353.478	50.4472
356.853	49.5084
360.228	37.5156
363.603	26.9357
366.978	23.1186
370.353	26.9074
373.727	30.3946
377.102	37.8124
380.477	46.4482
383.852	58.8295
387.227	70.0565
390.601	52.3148
393.976	27.0435
397.351	11.0649
400.726	3.53579
404.101	1.20073
407.476	0.437302
410.85	1.26403
414.225	0.167015
417.6	0.487579
420.975	0.009499
424.35	1.87411
427.724	0.052277
431.099	0.963432
434.474	0.63308
437.849	0.877518
441.224	0.176353
444.599	0.419975
447.973	1.16441
451.348	1.61483
454.723	2.932
458.098	3.39857
461.473	3.56963
464.847	3.6131
468.222	3.699
471.597	2.99277
474.972	2.62114
478.347	2.42401
481.721	2.38069
485.096	5.19751
488.471	9.2757
491.846	12.4177
495.221	16.7822
498.596	24.6381
501.97	33.5001
505.345	43.5103
508.72	30.3775
512.095	16.9304
515.47	12.7297
518.844	10.9139
522.219	10.1557
525.594	11.7406
528.969	12.2572
532.344	11.8982
535.718	11.267
539.093	9.80838
542.468	10.8808
545.843	11.831
549.218	13.0716
552.592	12.7273
555.967	13.0051
559.342	11.183
562.717	9.37706
566.092	7.55802
569.467	7.54237
572.841	5.16312
576.216	3.0438
579.591	2.30314
582.966	1.45415
586.341	0.778816
589.716	0.299294
593.09	0.439125
596.465	0.597313
599.84	0.873894
603.215	0.618561
606.59	0.6884
609.964	2.02596
613.339	3.08597
616.714	4.91592
620.089	6.81693
623.464	11.2108
626.838	12.9375
630.213	16.4859
633.588	22.6464
636.963	31.4396
640.338	43.6548
643.712	66.9229
647.087	104.722
650.462	152.885
653.837	201.374
657.212	268.074
660.587	347.43
663.961	385.943
667.336	299.671
670.711	178.042
674.086	100.623
677.461	60.2821
680.836	38.4825
684.21	26.0089
687.585	18.7627
690.96	14.3656
694.335	11.5683
697.71	9.82989
701.084	6.91019
704.459	5.98068
707.834	5.57829
711.209	6.89345
714.584	5.86485
717.958	1.26294
721.333	0.490562
724.708	0.549362
728.083	0.132088
731.458	0.420906
734.832	0.00988
738.207	0.991623
741.582	0.278404
744.957	0.002487
748.332	1.21246
751.707	1.36034
755.081	3.42214
758.456	2.07226
761.831	1.63413
765.206	2.65197
768.581	2.88572
771.956	1.90488
775.33	3.53344
778.705	3.26807
782.08	1.62209
785.455	2.58849
788.83	1.57378
792.204	0.598534
795.579	0.964607
798.954	0.096169
802.329	0.114388
805.704	0.325867
809.078	0.108337
812.453	0.271225
815.828	0.930328
819.203	2.10255
822.578	1.79085
825.952	3.37402
829.327	1.67399
832.702	3.89171
836.077	4.52663
839.452	7.12866
842.827	10.7343
846.201	16.2701
849.576	24.1871
852.951	26.8994
856.326	20.7598
859.701	12.8813
863.076	10.8262
866.45	9.12992
869.825	6.97616
873.2	6.98886
876.575	5.93755
879.949	5.6881
883.324	4.44806
886.699	3.18005
890.074	4.05878
893.449	2.63106
896.824	3.04282
900.198	3.75448
903.573	3.32607
906.948	1.27898
910.323	2.25072
913.698	1.44325
917.072	2.74676
920.447	1.58047
923.822	1.74049
927.197	1.38598
930.572	1.64637
933.947	0.00399
937.321	0.506317
940.696	0.358276
944.071	0.296455
947.446	0.372696
950.821	0.310806
954.196	0.201988
957.57	0.005409
960.945	0.243301
964.32	0.996887
967.695	2.20356
971.069	2.86262
974.444	2.7542
977.819	5.62574
981.194	8.63003
984.569	14.0392
987.944	21.0797
991.318	34.8194
994.693	62.2861
998.068	106.377
1001.44	156.277
1004.82	215.819
1008.19	287.767
1011.57	319.148
1014.94	201.174
1018.32	93.0018
1021.69	50.4577
1025.07	34.2556
1028.44	28.0047
1031.82	28.0137
1035.19	31.3761
1038.57	35.1845
1041.94	41.7259
1045.32	40.2732
1048.69	26.4549
1052.07	13.5245
1055.44	7.28167
1058.82	3.2524
1062.19	0.989616
1065.56	0.225662
1068.94	1.28412
1072.31	0.558113
1075.69	0.838951
1079.06	3.45701
1082.44	12.2911
1085.81	41.4338
1089.19	15.82
1092.56	5.74435
1095.94	7.10466
1099.31	8.52646
1102.69	11.926
1106.06	14.2655
1109.44	16.5515
1112.81	19.3098
1116.19	17.2539
1119.56	15.0353
1122.94	13.1186
1126.31	10.6495
1129.69	9.17271
1133.06	5.92165
1136.43	4.20195
1139.81	3.01208
1143.18	2.47975
1146.56	2.53804
1149.93	1.22226
1153.31	0.546959
1156.68	0.026093
1160.06	0.918129
1163.43	0.599716
1166.81	0.257164
1170.18	0.313492
1173.56	0.291901
1176.93	0.115791
1180.31	0.211617
1183.68	0.266502
1187.06	0.620949
1190.43	0.622826
1193.81	0.630814
1197.18	1.78715
1200.56	1.2033
1203.93	0.091057
1207.31	0.459709
1210.68	0.374222
1214.06	0.260529
1217.43	2.21864
1220.81	1.92813
1224.18	3.30114
1227.56	1.93315
1230.93	3.24261
1234.31	2.95219
1237.68	4.28214
1241.06	2.45292
1244.43	2.03925
1247.8	2.16039
1251.18	1.83104
1254.55	0.482582
1257.93	0.010643
1261.3	0.871857
1264.68	0.499771
1268.05	0.952202
