Measurement: Raman, 780 nm, unoriented, Raman Data Processed
Mineral: Diopside
Rruff sample: R040097
Ideal chemistry: CaMgSi_2_O_6_
Locality: Fassathal, Tyrol
Source: University of Arizona Mineral Museum
Description: Green prismatic crystals
Measured chemistry: Ca_1.00_(Mg_0.83_Al_0.10_Fe_0.09_Ca_0.02_Ti_0.02_)(Si_0.88_Al_0.12_)_2_O_6_
Raman shift (cm-1)	intensity
118.559	0
121.452	292.516
124.345	113.113
127.237	360.977
130.13	593.738
133.023	580.191
135.915	1232.65
138.808	1641.16
141.701	2103.46
144.594	1965.47
147.486	1230.23
150.379	774.668
153.272	327.75
156.164	95.4141
159.057	201.777
161.95	19.332
164.842	133.543
167.735	338.113
170.628	72.6992
173.52	197.438
176.413	143.363
179.306	457.457
182.199	775.102
185.091	948.848
187.984	649.324
190.877	1025.29
193.769	620.09
196.662	597.66
199.555	322.047
202.447	63.6211
205.34	233.961
208.233	275.074
211.126	237.621
214.018	337.977
216.911	594.352
219.804	520.473
222.696	798.106
225.589	1024.73
228.482	1168.71
231.375	1509.56
234.267	1003.2
237.16	633.731
240.053	595.496
242.945	446.539
245.838	692.031
248.731	963.137
251.623	1192.76
254.516	1571.91
257.409	1028.21
260.301	560.398
263.194	258.402
266.087	29.0039
268.98	146.277
271.872	13.8906
274.765	14.6367
277.658	170.707
280.55	1.10547
283.443	59.3203
286.336	12.543
289.228	13.6953
292.121	96.3164
295.014	72.5703
297.907	325.328
300.799	436.711
303.692	835.07
306.585	827.184
309.477	1033.96
312.37	1681.62
315.263	2599.77
318.156	3184.02
321.048	3963.87
323.941	4396.77
326.834	4323.99
329.726	2937.37
332.619	2090.63
335.512	1264.22
338.404	1118.01
341.297	769.457
344.19	597.344
347.082	608.602
349.975	997.223
352.868	1325.73
355.761	1482
358.653	1547.79
361.546	1437.15
364.439	1446.96
367.331	1589.52
370.224	1375.81
373.117	1325.65
376.01	1648.71
378.902	1929.57
381.795	2522.73
384.688	3639.05
387.58	4114.83
390.473	4770.48
393.366	4570.37
396.258	3548.97
399.151	2176.77
402.044	1271.27
404.937	635.035
407.829	499.352
410.722	388.148
413.615	129.617
416.507	75.1641
419.4	68.8438
422.293	9.41016
425.185	121.996
428.078	71.4648
430.971	123.418
433.863	140.977
436.756	122.516
439.649	42.9336
442.542	138.539
445.434	79.3086
448.327	96.1484
451.22	100.008
454.112	184.633
457.005	34.6602
459.898	54.5625
462.791	6.75781
465.683	42.7656
468.576	207.125
471.469	161.543
474.361	148.555
477.254	25.0664
480.147	113
483.039	49.9609
485.932	86.3164
488.825	108.484
491.717	154.672
494.61	7.01953
497.503	215.121
500.396	238.031
503.288	144.352
506.181	337.695
509.074	400.648
511.966	530.914
514.859	444.106
517.752	530.062
520.644	416.953
523.537	557.445
526.43	668.793
529.323	700.394
532.215	354.731
535.108	397.981
538.001	252.773
540.893	532.016
543.786	202.379
546.679	276.769
549.572	265.488
552.464	351.551
555.357	194.797
558.25	183.012
561.142	208.074
564.035	266.266
566.928	218.348
569.82	117.402
572.713	237.344
575.606	81.6055
578.499	183.625
581.391	108.891
584.284	35.9414
587.177	79.5312
590.069	72.9531
592.962	64.1719
595.855	180.09
598.747	158.578
601.64	187.668
604.533	134.117
607.426	177.352
610.318	130.031
613.211	124.043
616.104	253.023
618.996	388.508
621.889	211.777
624.782	260.121
627.674	390.246
630.567	261.344
633.46	282.586
636.352	467.102
639.245	326.422
642.138	547.254
645.031	605.285
647.923	804.453
650.816	1141.17
653.709	1418.94
656.601	2048.85
659.494	3022.63
662.387	3697.57
665.279	4553.34
668.172	4357.4
671.065	3277.14
673.958	2345.38
676.85	1593.32
679.743	1064.94
682.636	716.5
685.528	604.359
688.421	654.828
691.314	534.176
694.207	524.477
697.099	472.266
699.992	362.07
702.885	378.852
705.777	423.312
708.67	401.543
711.563	280.039
714.455	310.289
717.348	313.25
720.241	26.8086
723.134	86.6797
726.026	68.2305
728.919	46.3359
731.812	52.8711
734.704	47.4648
737.597	27.8164
740.49	2.02344
743.382	53.8086
746.275	177.797
749.168	64.7031
752.061	101.59
754.953	8.51562
757.846	63.9258
760.739	110.641
763.631	19.6875
766.524	87.6016
769.417	58.8086
772.309	75.5391
775.202	91.4609
778.095	42.6133
780.987	41.5352
783.88	174.691
786.773	187.934
789.666	90.6562
792.558	54.7617
795.451	226.394
798.344	31.1133
801.236	41.1641
804.129	67.7227
807.022	152.75
809.914	158.356
812.807	214.469
815.7	203.465
818.593	331.953
821.485	148.945
824.378	294.449
827.271	239.137
830.163	210.16
833.056	279.184
835.949	189.648
838.841	100.547
841.734	222.379
844.627	194.984
847.519	292.812
850.412	212.059
853.305	376.844
856.198	229.773
859.09	217.769
861.983	120.664
864.876	164.656
867.768	43.5195
870.661	194.406
873.554	228.367
876.447	209.098
879.339	45.8789
882.232	168.418
885.125	114.668
888.017	147.691
890.91	135.07
893.803	52.4414
896.695	99.7344
899.588	181.453
902.481	232.383
905.374	203.285
908.266	45.5391
911.159	56.4805
914.052	248.023
916.944	153.246
919.837	60.7461
922.73	125.926
925.622	5.19922
928.515	38.7539
931.408	103.223
934.301	118.676
937.193	328.535
940.086	52.5859
942.979	204.746
945.871	40.3828
948.764	84.7656
951.657	40.668
954.549	58.1367
957.442	17.2188
960.335	79.1445
963.227	172.223
966.12	119.285
969.013	128.922
971.906	62.0859
974.798	79.9102
977.691	14.6484
980.584	9.45703
983.476	26.6797
986.369	147.051
989.262	477.117
992.154	414.094
995.047	771.184
997.94	1316.39
1000.83	1976.84
1003.73	3175.69
1006.62	4340.57
1009.51	5124.62
1012.4	4597.85
1015.3	3093.54
1018.19	1598.28
1021.08	725.832
1023.97	392.529
1026.87	264.18
1029.76	214.32
1032.65	38.5938
1035.55	382.394
1038.44	110.184
1041.33	172.676
1044.22	147.531
1047.12	173.953
1050.01	145.746
1052.9	10.7148
1055.79	45.1934
1058.69	59.0957
1061.58	85.3164
1064.47	37.5117
1067.37	5.53125
1070.26	77.7754
1073.15	169.688
1076.04	211.547
1078.94	414.121
1081.83	198.67
1084.72	166.82
1087.61	275.484
1090.51	244.701
1093.4	93.7578
1096.29	59.7891
1099.18	262.551
1102.08	379.969
1104.97	346.068
1107.86	617.391
1110.76	818.535
1113.65	719.336
1116.54	793.113
1119.43	724.465
1122.33	784.559
1125.22	565.217
1128.11	606.744
1131	595.793
1133.9	674.047
1136.79	652.93
1139.68	603.369
1142.58	703.799
1145.47	820.42
1148.36	914.992
1151.25	934.098
1154.15	1159.93
1157.04	1208.01
1159.93	1262.57
1162.82	1264.24
1165.72	1394.33
1168.61	1413.57
1171.5	1539.55
1174.39	1492.63
1177.29	1433.48
1180.18	1367.97
1183.07	1111.32
1185.96	1038.18
1188.86	823.359
1191.75	708.875
1194.64	576.486
1197.54	324.603
1200.43	332.482
1203.32	154.963
1206.21	122.965
1209.11	182.566
1212	3.5625
1214.89	19.7988
1217.79	2.63672
1220.68	52.7852
1223.57	71.4981
1226.46	26.9668
1229.36	107.117
1232.25	47.3926
1235.14	53.2773
