Measurement: Raman, 532 nm, unoriented, Raman Data Processed
Mineral: Dioptase
Rruff sample: R040028
Ideal chemistry: CuSiO_3_H_2_O
Locality: Tantara mine, Democratic Republic of the Congo
Source: University of Arizona Mineral Museum
Description: Bluish green coarsely crystallized fragment
Measured chemistry: Cu_1.00_Si_1.00_O_3_Â·H_2_O; H_2_O estimated by difference
Raman shift (cm-1)	intensity
121.851	0
125.226	40.3698
128.601	196.976
131.976	320.052
135.35	361.949
138.725	184.461
142.1	15.0112
145.475	8.67062
148.85	1.75708
152.225	15.413
155.599	58.5775
158.974	144.96
162.349	100.813
165.724	25.0866
169.099	8.34111
172.473	19.4065
175.848	60.1593
179.223	71.3034
182.598	30.3911
185.973	7.35313
189.347	0.388947
192.722	12.8024
196.097	33.7842
199.472	27.9677
202.847	48.9527
206.221	85.9293
209.596	130.263
212.971	181.587
216.346	261.486
219.721	382.79
223.096	451.823
226.47	350.498
229.845	176.631
233.22	73.1595
236.595	26.3842
239.97	16.7468
243.345	10.7393
246.719	2.93118
250.094	11.8248
253.469	34.9441
256.844	66.8179
260.219	136.492
263.593	244.609
266.968	202.366
270.343	107.329
273.718	89.9926
277.093	101.198
280.467	121.953
283.842	147.245
287.217	180.696
290.592	207.055
293.967	155.445
297.342	57.6301
300.716	6.05588
304.091	8.57931
307.466	8.71079
310.841	6.48395
314.216	0.962845
317.591	12.1481
320.965	35.999
324.34	55.9382
327.715	34.0854
331.09	9.332
334.464	9.45879
337.839	34.7614
341.214	63.5315
344.589	92.1125
347.964	139.54
351.339	238.02
354.713	399.057
358.088	332.06
361.463	123.644
364.838	44.29
368.213	14.2525
371.587	6.73835
374.962	18.4424
378.337	45.3155
381.712	84.1876
385.087	125.922
388.462	181.03
391.836	269.11
395.211	379.444
398.586	395.79
401.961	237.742
405.336	111.494
408.711	61.4906
412.085	53.4656
415.46	66.0834
418.835	78.1601
422.21	86.8063
425.585	91.6443
428.959	95.0804
432.334	95.3059
435.709	90.4367
439.084	80.6052
442.459	70.4767
445.833	61.2903
449.208	60.3567
452.583	58.2793
455.958	41.939
459.333	18.8862
462.707	5.16173
466.082	1.13011
469.457	4.51686
472.832	4.89967
476.207	3.5065
479.582	0.766804
482.956	3.76796
486.331	6.22789
489.706	8.86791
493.081	9.29825
496.456	13.3965
499.83	18.291
503.205	27.7303
506.58	37.7777
509.955	48.4077
513.33	57.2418
516.705	62.3732
520.079	60.6599
523.454	59.6456
526.829	53.5444
530.204	43.4781
533.579	35.7409
536.953	27.7072
540.328	23.236
543.703	22.5721
547.078	25.1226
550.453	31.6846
553.828	41.6418
557.202	52.0037
560.577	60.4886
563.952	55.2097
567.327	47.4627
570.702	39.0607
574.077	28.3478
577.451	17.4347
580.826	9.07703
584.201	4.47363
587.576	2.04475
590.951	0.850931
594.325	0.781683
597.7	0.752731
601.075	0.026289
604.45	0.70038
607.825	0.09333
611.199	0.897181
614.574	2.69576
617.949	3.59769
621.324	6.20152
624.699	8.98196
628.073	12.5061
631.448	18.4382
634.823	27.2245
638.198	41.0785
641.573	69.1575
644.948	105.358
648.322	151.802
651.697	216.255
655.072	297.175
658.447	328.061
661.822	240.339
665.197	136.077
668.571	76.5382
671.946	46.3599
675.321	28.5759
678.696	19.4019
682.071	11.8958
685.445	7.46552
688.82	3.47202
692.195	1.13548
695.57	0.075199
698.945	0.47847
702.319	0.604252
705.694	0.029346
709.069	1.45626
712.444	4.45641
715.819	10.4572
719.193	18.8343
722.568	33.4697
725.943	54.9746
729.318	81.6303
732.693	114.728
736.068	147.408
739.442	163.16
742.817	139.858
746.192	96.7501
749.567	60.7671
752.942	36.6344
756.317	22.0494
759.691	13.0106
763.066	7.83117
766.441	5.09584
769.816	2.8805
773.191	2.01744
776.565	1.59514
779.94	1.4344
783.315	1.25232
786.69	1.28203
790.065	1.63938
793.439	3.22209
796.814	2.04602
800.189	2.3701
803.564	2.48793
806.939	2.17839
810.313	1.73198
813.688	2.02716
817.063	2.17313
820.438	1.26183
823.813	0.242445
827.188	0.21002
830.562	0.763554
833.937	0.839075
837.312	0.889902
840.687	0.430244
844.062	0.917639
847.437	0.226509
850.811	0.713387
854.186	0.077789
857.561	0.080715
860.936	0.334368
864.311	0.377382
867.685	0.243893
871.06	0.348173
874.435	0.515644
877.81	0.228954
881.185	0.332062
884.559	0.628828
887.934	1.37091
891.309	3.22464
894.684	4.55934
898.059	9.32527
901.434	14.3105
904.808	20.8345
908.183	27.651
911.558	34.1473
914.933	30.8078
918.308	20.1512
921.683	10.8814
925.057	5.33064
928.432	2.21841
931.807	0.99301
935.182	0.111649
938.557	0.594273
941.931	0.829353
945.306	1.71553
948.681	4.70671
952.056	8.09304
955.431	10.48
958.806	10.0826
962.18	4.85316
965.555	1.60545
968.93	1.37924
972.305	1.12448
975.68	2.9972
979.054	6.83311
982.429	12.2937
985.804	21.2597
989.179	39.3933
992.554	65.1913
995.928	99.4301
999.303	148.347
1002.68	207.296
1006.05	203.666
1009.43	156.284
1012.8	135.057
1016.18	126.659
1019.55	113.535
1022.93	98.6965
1026.3	82.1369
1029.68	63.224
1033.05	43.8849
1036.43	28.239
1039.8	19.9855
1043.18	12.2845
1046.55	8.85086
1049.93	5.64203
1053.3	4.45417
1056.67	3.49085
1060.05	2.00047
1063.42	1.67419
1066.8	0.639204
1070.17	0.241758
1073.55	0.18667
1076.92	0.594772
1080.3	0.010807
1083.67	0.196012
1087.05	0.293196
1090.42	0.356924
1093.8	0.062634
1097.17	0.532124
1100.55	0.357071
1103.92	0.367172
1107.3	0.717494
1110.67	1.03618
1114.05	1.31922
1117.42	1.9907
1120.8	2.65607
1124.17	3.12446
1127.55	3.55943
1130.92	3.27566
1134.3	3.79265
1137.67	4.09281
1141.05	4.0214
1144.42	4.06682
1147.8	4.1089
1151.17	4.6143
1154.55	4.66724
1157.92	4.62446
1161.29	4.31902
1164.67	4.64399
1168.04	4.21922
1171.42	3.56907
1174.79	3.41521
1178.17	3.77479
1181.54	3.081
1184.92	2.46073
1188.29	2.66132
1191.67	2.66267
1195.04	2.28619
1198.42	1.86843
1201.79	1.60771
1205.17	1.91677
1208.54	1.88753
1211.92	1.95734
1215.29	2.16841
1218.67	1.09076
1222.04	1.36018
1225.42	0.675245
1228.79	0.965122
1232.17	0.443109
1235.54	0.020867
1238.91	0.283141
1242.29	0.093191
1245.66	2.03298
1249.04	0.107763
1252.41	0.041106
1255.79	0.433627
1259.16	0.056447
1262.54	0.617367
1265.91	0.262712
1269.29	0.291118
1272.66	0.31778
1276.04	0.625736
1279.41	0.54687
1282.79	0.462907
1286.16	0.405971
