Measurement: Raman, 532 nm, unoriented, Raman Data Processed
Mineral: Diopside
Rruff sample: R050406
Ideal chemistry: CaMgSi_2_O_6_
Locality: unknown
Source: University of Arizona Mineral Museum
Description: Brownish gray massive
Measured chemistry: (Ca_0.95_Na_0.05_)(Mg_0.75_Fe^2+^_0.18_Fe^3+^_0.05_Al_0.01_Ti_0.01_Mn^2+^_0.01_)(Si_0.98_Al_0.02_)_2_O_6_
Raman shift (cm-1)	intensity
125.62	0
128.512	0.216553
131.405	26.529
134.298	72.9895
137.19	103.296
140.083	119.434
142.976	92.9305
145.869	71.2477
148.761	56.7357
151.654	48.7322
154.547	55.4427
157.439	51.5696
160.332	56.1788
163.225	64.9252
166.117	57.7728
169.01	61.9443
171.903	74.1494
174.796	83.2112
177.688	109.846
180.581	121.278
183.474	108.889
186.366	106.893
189.259	109.98
192.152	113.579
195.044	99.3887
197.937	59.4379
200.83	35.6108
203.722	16.0056
206.615	6.46314
209.508	7.33179
212.401	10.7736
215.293	14.8864
218.186	23.9811
221.079	20.7449
223.971	23.5911
226.864	36.298
229.757	44.1655
232.649	46.6171
235.542	29.3751
238.435	18.293
241.328	13.0116
244.22	12.9139
247.113	15.4738
250.006	11.8342
252.898	18.0708
255.791	15.1261
258.684	14.5499
261.577	0.614136
264.469	6.01636
267.362	13.6826
270.255	7.08435
273.147	10.9956
276.04	4.08887
278.933	0.167603
281.825	0.612549
284.718	8.38147
287.611	12.9913
290.503	24.0095
293.396	40.8079
296.289	59.6935
299.182	92.6367
302.074	147.267
304.967	215.13
307.86	283.563
310.752	354.125
313.645	436.255
316.538	531.515
319.43	640.94
322.323	682.268
325.216	623.582
328.109	472.583
331.001	337.349
333.894	233.651
336.787	175.628
339.679	138.892
342.572	115.495
345.465	109.65
348.358	100.426
351.25	114.203
354.143	127.247
357.036	125.823
359.928	129.991
362.821	142.61
365.714	176.134
368.606	232
371.499	314.366
374.392	411.248
377.284	522.121
380.177	649.041
383.07	791.444
385.963	931.925
388.855	982.553
391.748	835.911
394.641	560.129
397.533	332.884
400.426	196.901
403.319	109.263
406.212	69.5657
409.104	44.3087
411.997	29.2379
414.89	18.4569
417.782	11.478
420.675	3.51416
423.568	3.73267
426.46	4.32642
429.353	5.02686
432.246	5.37793
435.139	2.58496
438.031	10.2577
440.924	2.39099
443.817	1.66113
446.709	6.9834
449.602	7.4375
452.495	23.9349
455.387	34.116
458.28	39.4429
461.173	39.1765
464.065	41.6442
466.958	18.4337
469.851	14.3317
472.744	8.44568
475.636	6.80969
478.529	7.7594
481.422	4.16894
484.314	10.778
487.207	9.59546
490.1	11.0978
492.993	14.4016
495.885	21.3252
498.778	32.5171
501.671	46.0693
504.563	58.2668
507.456	77.6526
510.349	77.3029
513.241	80.8408
516.134	86.2888
519.027	85.6693
521.919	80.3505
524.812	85.9303
527.705	88.0085
530.598	84.875
533.49	69.9213
536.383	55.6033
539.276	50.4089
542.168	57.7655
545.061	72.4925
547.954	79.8954
550.846	98.4536
553.739	119.251
556.632	138.996
559.525	132.965
562.417	92.2388
565.31	56.141
568.203	37.1328
571.095	30.8901
573.988	18.1237
576.881	14.6237
579.774	11.8296
582.666	11.7006
585.559	5.56958
588.452	5.95789
591.344	1.82434
594.237	2.31274
597.13	0.135986
600.022	7.14221
602.915	0.762817
605.808	2.46179
608.701	0.365601
611.593	4.87488
614.486	4.24622
617.379	8.07165
620.271	6.13147
623.164	10.7798
626.057	17.1958
628.949	24.3055
631.842	29.6471
634.735	38.936
637.628	48.746
640.52	61.1802
643.413	84.8392
646.306	121.697
649.198	179.518
652.091	263.773
654.984	369.007
657.876	491.247
660.769	643.89
663.662	794.244
666.554	822.577
669.447	657.796
672.34	431.264
675.233	273.582
678.125	175.535
681.018	117.54
683.911	82.8256
686.803	59.0792
689.696	46.0024
692.589	37.2946
695.481	24.536
698.374	28.8461
701.267	27.4544
704.16	25.3613
707.052	22.4376
709.945	20.3549
712.838	15.5143
715.73	8.77429
718.623	8.10523
721.516	6.59521
724.409	5.55847
727.301	3.22766
730.194	1.82715
733.087	1.9696
735.979	2.58557
738.872	0.946411
741.765	4.07495
744.657	0.177124
747.55	3.76025
750.443	1.38965
753.336	2.89038
756.228	0.596191
759.121	1.45471
762.014	4.74915
764.906	4.65356
767.799	5.04907
770.692	2.45813
773.584	2.91089
776.477	5.06055
779.37	6.12158
782.263	4.82043
785.155	9.21265
788.048	11.252
790.941	7.75537
793.833	9.44202
796.726	9.12024
799.619	2.17188
802.511	2.24658
805.404	4.41211
808.297	5.10327
811.189	1.59155
814.082	1.86353
816.975	3.86902
819.868	4.01685
822.76	7.63354
825.653	10.9321
828.546	0.880737
831.438	3.25122
834.331	0.603271
837.224	6.03894
840.116	4.4176
843.009	3.19617
845.902	3.32764
848.795	11.4224
851.687	9.58191
854.58	15.3805
857.473	17.5415
860.365	14.078
863.258	16.4746
866.151	20.2967
869.043	20.5846
871.936	23.0341
874.829	19.1337
877.722	23.53
880.614	27.3694
883.507	30.9517
886.4	34.8654
889.292	38.6715
892.185	39.6235
895.078	35.2124
897.971	32.1768
900.863	35.8029
903.756	33.9034
906.649	32.413
909.541	30.8943
912.434	29.0148
915.327	24.7331
918.219	22.7389
921.112	19.9094
924.005	17.7838
926.898	16.3162
929.79	11.6422
932.683	4.83533
935.576	4.18982
938.468	3.27685
941.361	4.28796
944.254	5.72913
947.146	6.99744
950.039	1.98364
952.932	8.7959
955.824	18.9976
958.717	19.3274
961.61	23.6285
964.503	26.0794
967.395	36.5491
970.288	42.2853
973.181	49.5703
976.073	57.9447
978.966	68.7175
981.859	85.2515
984.751	100.915
987.644	124.117
990.537	156.887
993.43	218.579
996.322	323.571
999.215	483.255
1002.11	721.629
1005	985.706
1007.89	1309.16
1010.79	1657.94
1013.68	1797.8
1016.57	1357.59
1019.46	774.267
1022.36	443.908
1025.25	289.885
1028.14	204.088
1031.04	157.77
1033.93	140.295
1036.82	136.301
1039.71	129.113
1042.61	124.406
1045.5	111.889
1048.39	98.2925
1051.28	74.9193
1054.18	56.8351
1057.07	43.6078
1059.96	38.4176
1062.85	23.301
1065.75	15.3079
1068.64	10.4486
1071.53	7.11414
1074.42	0.149902
1077.32	1.32617
1080.21	0.433228
1083.1	2.33203
1086	3.26636
1088.89	2.65198
1091.78	6.88403
1094.67	1.29651
1097.57	1.69299
1100.46	1.07654
1103.35	8.01502
1106.24	4.71814
1109.14	0.520874
1112.03	9.2904
1114.92	9.80359
1117.82	8.11853
1120.71	11.5102
1123.6	11.4458
1126.49	11.6439
1129.39	17.4973
1132.28	19.1024
1135.17	15.9778
1138.07	16.7642
1140.96	15.3352
1143.85	10.8722
1146.74	15.6107
1149.63	5.6925
1152.53	4.94885
1155.42	2.93884
1158.31	2.02551
1161.21	1.43518
1164.1	6.15369
1166.99	11.4556
1169.88	6.84936
1172.78	5.9325
1175.67	9.03345
1178.56	8.36255
1181.45	3.04382
1184.35	3.72144
1187.24	6.50915
1190.13	10.3948
1193.03	13.9479
1195.92	7.85742
1198.81	7.93079
1201.7	8.50342
1204.6	7.3075
1207.49	10.1902
1210.38	8.80615
1213.28	6.4187
1216.17	12.0688
1219.06	8.77429
1221.95	7.23523
1224.85	5.49915
1227.74	7.92346
1230.63	8.03479
1233.52	11.1617
1236.42	8.15442
1239.31	5.10181
1242.2	14.3441
1245.09	0.88208
1247.99	8.30469
1250.88	11.8951
1253.77	5.62537
1256.66	1.57996
1259.56	1.2959
1262.45	7.30945
1265.34	0.419067
1268.24	0.691895
1271.13	2.61133
