Measurement: Raman, 780 nm, unoriented, Raman Data Processed
Mineral: Diopside
Rruff sample: R110128
Ideal chemistry: CaMgSi_2_O_6_
Locality: Alchori, Pakistan
Source: Jack Lowell
Description: Dark green prismatic crystals associated with pale brown epidote, R110127
Raman shift (cm-1)	intensity
112.817	0
116.192	9.59341
119.566	25.0987
122.941	46.5835
126.316	84.7713
129.691	140.315
133.066	233.361
136.44	382.859
139.815	229.481
143.19	62.4834
146.565	18.928
149.94	4.04864
153.315	1.20474
156.689	1.78018
160.064	1.31136
163.439	0.946335
166.814	3.31
170.189	6.81751
173.563	10.7841
176.938	13.5512
180.313	11.968
183.688	12.2131
187.063	11.1899
190.437	13.0012
193.812	12.2925
197.187	10.1172
200.562	7.23177
203.937	5.31786
207.311	3.9914
210.686	2.77999
214.061	1.89832
217.436	1.68684
220.811	1.25759
224.186	1.61098
227.56	2.94281
230.935	6.02339
234.31	7.50217
237.685	5.26358
241.06	1.70981
244.435	1.75269
247.809	2.45414
251.184	2.83945
254.559	2.61264
257.934	0.937401
261.309	0.585754
264.683	1.70737
268.058	0.038605
271.433	0.463066
274.808	2.10403
278.183	0.570396
281.558	0.611046
284.932	0.23333
288.307	2.26944
291.682	4.33286
295.057	8.23902
298.432	14.7007
301.806	24.2428
305.181	37.3356
308.556	50.669
311.931	63.7108
315.306	79.9914
318.68	97.4934
322.055	95.6873
325.43	72.1333
328.805	51.4667
332.18	40.7998
335.555	39.4939
338.929	40.8727
342.304	47.0274
345.679	59.3453
349.054	72.7171
352.429	83.216
355.803	80.7598
359.178	64.5063
362.553	51.3211
365.928	49.1618
369.303	56.886
372.678	71.5753
376.052	91.3525
379.427	125.089
382.802	169.374
386.177	205.401
389.552	172.223
392.926	91.8453
396.301	45.3119
399.676	21.8599
403.051	12.6249
406.426	7.38983
409.8	4.05612
413.175	2.19089
416.55	0.526276
419.925	0.693535
423.3	0.797485
426.675	0.894585
430.049	0.979614
433.424	0.515541
436.799	1.06817
440.174	0.330566
443.549	0.613228
446.923	0.762672
450.298	1.02785
453.673	1.62835
457.048	2.77904
460.423	1.93881
463.798	2.04918
467.172	2.8988
470.547	2.05175
473.922	2.75909
477.297	1.54954
480.672	0.84201
484.046	1.81624
487.421	1.87304
490.796	2.58335
494.171	2.45438
497.546	5.14909
500.921	7.09392
504.295	10.4337
507.67	9.0056
511.045	6.39898
514.42	7.05788
517.795	8.81821
521.169	9.35928
524.544	11.0969
527.919	12.2508
531.294	12.098
534.669	10.2868
538.044	10.0229
541.418	9.42703
544.793	10.2723
548.168	9.46069
551.543	9.20747
554.918	9.28524
558.293	9.71429
561.667	10.0478
565.042	9.41064
568.417	8.26197
571.792	5.73106
575.167	4.40985
578.541	2.98525
581.916	1.37258
585.291	0.402679
588.666	1.00833
592.041	0.161362
595.415	0.10751
598.79	0.422115
602.165	0.752342
605.54	0.508686
608.915	0.151348
612.29	1.42809
615.664	2.24142
619.039	4.79697
622.414	6.13916
625.789	9.6737
629.164	12.9084
632.538	17.5703
635.913	22.6665
639.288	31.2766
642.663	43.6698
646.038	67.691
649.413	106.048
652.787	157.176
656.162	229.89
659.537	337.809
662.912	456.257
666.287	456.274
669.661	296.12
673.036	157.931
676.411	86.9342
679.786	54.3364
683.161	34.6416
686.535	23.6016
689.91	16.3461
693.285	12.3465
696.66	8.82649
700.035	7.36351
703.41	4.32206
706.784	4.47184
710.159	2.83746
713.534	2.05686
716.909	0.110508
720.284	1.18671
723.659	0.677864
727.033	0.063595
730.408	0.154995
733.783	0.495098
737.158	0.41872
740.533	1.2883
743.907	0.064133
747.282	0.169807
750.657	0.125732
754.032	0.446575
757.407	0.542538
760.782	0.366558
764.156	0.049313
767.531	1.15239
770.906	0.189999
774.281	0.6371
777.656	0.692425
781.03	0.132622
784.405	0.877964
787.78	0.079304
791.155	0.650574
794.53	0.976372
797.904	0.526558
801.279	1.13259
804.654	0.677856
808.029	0.795975
811.404	0.27655
814.779	0.742596
818.153	0.881313
821.528	0.576073
824.903	1.21714
828.278	1.78778
831.653	1.85933
835.028	4.86126
838.402	8.88348
841.777	16.0286
845.152	25.659
848.527	42.6596
851.902	68.0649
855.276	75.305
858.651	48.8782
862.026	24.2504
865.401	13.9199
868.776	7.90099
872.15	5.30888
875.525	1.6958
878.9	2.16982
882.275	0.540585
885.65	1.00944
889.024	0.90572
892.399	0.830574
895.774	0.410927
899.149	2.577
902.524	1.89133
905.899	2.18478
909.273	2.13428
912.648	2.74802
916.023	2.54921
919.398	2.62411
922.773	3.03803
926.148	2.54622
929.522	1.96698
932.897	3.25675
936.272	1.73157
939.647	0.879791
943.022	0.74535
946.396	1.14973
949.771	1.27
953.146	0.252003
956.521	0.0425
959.896	0.478603
963.27	1.18389
966.645	2.25685
970.02	2.49185
973.395	3.72784
976.77	3.5352
980.145	6.28344
983.519	7.59406
986.894	10.2929
990.269	15.3443
993.644	24.8565
997.019	42.6243
1000.39	77.6887
1003.77	127.407
1007.14	204.228
1010.52	328.442
1013.89	406.863
1017.27	253.496
1020.64	112.611
1024.02	61.3883
1027.39	44.6009
1030.77	42.1583
1034.14	44.3915
1037.52	53.5286
1040.89	64.6969
1044.27	71.0793
1047.64	56.7401
1051.02	35.2098
1054.39	21.6851
1057.77	13.85
1061.14	9.09885
1064.52	5.88041
1067.89	3.00421
1071.27	2.09145
1074.64	1.33598
1078.01	1.09423
1081.39	0.568069
1084.76	1.20477
1088.14	0.411797
1091.51	0.588123
1094.89	0.022842
1098.26	0.210785
1101.64	0.546223
1105.01	0.269203
1108.39	0.32605
1111.76	0.059975
1115.14	0.392784
1118.51	0.999241
1121.89	0.476917
1125.26	1.50402
1128.64	1.76227
1132.01	1.25262
1135.39	1.23043
1138.76	1.15913
1142.14	0.674072
1145.51	1.19836
1148.88	1.35766
1152.26	0.500668
1155.63	0.043076
1159.01	0.068882
1162.38	0.027054
1165.76	0.426418
1169.13	0.245304
1172.51	0.745861
1175.88	0.158733
1179.26	1.30603
1182.63	1.1712
1186.01	1.73153
1189.38	1.29513
1192.76	1.63442
1196.13	2.00841
1199.51	1.9135
1202.88	1.91722
1206.26	1.95822
1209.63	1.58079
1213.01	1.4743
1216.38	1.91811
1219.76	3.02554
1223.13	1.53331
1226.51	1.92168
1229.88	0.869946
1233.26	0.421677
1236.63	0.767872
1240.01	1.0333
1243.38	1.58211
1246.76	0.047367
1250.13	0.700409
1253.51	1.81772
1256.88	1.76504
1260.25	1.10115
1263.63	0.953804
1267	1.05729
1270.38	0.118599
1273.75	0.180725
1277.13	0.472507
1280.5	0.032379
1283.88	0.204094
