Measurement: Raman, 532 nm, unoriented, Raman Data Processed
Mineral: Diopside
Rruff sample: R090046
Ideal chemistry: CaMgSi_2_O_6_
Locality: Merelani, Tanzania
Source: Wendell Wilson
Description: Green crystals associated with graphite, R090047
Raman shift (cm-1)	intensity
133.654	0
137.029	1283.69
140.404	3641.74
143.779	1569.37
147.154	411.764
150.528	772.051
153.903	932.615
157.278	841.441
160.653	533.249
164.028	508.617
167.402	439.544
170.777	565.41
174.152	695.599
177.527	730.072
180.902	800.413
184.277	473.575
187.651	170.761
191.026	244.102
194.401	480.971
197.776	390.056
201.151	50.0378
204.525	138.571
207.9	163.081
211.275	91.7149
214.65	56.3784
218.025	151.853
221.4	266.33
224.774	520.431
228.149	1009.82
231.524	1144.62
234.899	554.31
238.274	362.934
241.649	328.43
245.023	337.677
248.398	452.802
251.773	671.663
255.148	961.607
258.523	521.694
261.897	197.505
265.272	35.1289
268.647	19.3718
272.022	37.8628
275.397	23.5894
278.772	52.7715
282.146	73.3832
285.521	32.0391
288.896	5.32648
292.271	17.7442
295.646	141.369
299.02	428.29
302.395	754.543
305.77	1104.47
309.145	1538.23
312.52	2180.16
315.895	2879.6
319.269	3903.16
322.644	5237.93
326.019	4887.66
329.394	2751.86
332.769	1335.15
336.144	642.53
339.518	403.828
342.893	353.712
346.268	493.517
349.643	903.176
353.018	1472.16
356.392	2196.4
359.767	2207.41
363.142	1800.08
366.517	1413.05
369.892	1156.42
373.267	1058.22
376.641	1396.16
380.016	2062.68
383.391	2945.19
386.766	4441.78
390.141	5911.93
393.515	4737.02
396.89	2396.16
400.265	971.466
403.64	390.159
407.015	181.815
410.39	15.8955
413.764	10.589
417.139	7.26329
420.514	37.3854
423.889	13.6283
427.264	14.1858
430.639	0.447954
434.013	31.05
437.388	37.5708
440.763	21.2072
444.138	21.5503
447.513	54.6446
450.887	94.0569
454.262	178.555
457.637	256.58
461.012	340.019
464.387	378.866
467.762	238.475
471.136	143.517
474.511	79.9575
477.886	32.9582
481.261	72.7926
484.636	33.1444
488.01	11.3587
491.385	34.3712
494.76	78.1954
498.135	267.511
501.51	397.617
504.885	578.962
508.259	820.302
511.634	537.688
515.009	418.735
518.384	287.628
521.759	98.4193
525.134	42.308
528.508	119.492
531.883	145.27
535.258	68.1342
538.633	52.1418
542.008	8.28888
545.382	165.569
548.757	268.707
552.132	389.15
555.507	582.218
558.882	907.383
562.256	660.634
565.631	301.992
569.006	207.964
572.381	161.542
575.756	188.085
579.131	203.234
582.505	239.256
585.88	130.199
589.255	112.865
592.63	95.6884
596.005	87.8309
599.38	108.121
602.754	16.6788
606.129	11.1878
609.504	31.5044
612.879	58.3857
616.254	58.2972
619.629	22.284
623.003	27.7049
626.378	134.452
629.753	116.251
633.128	307.12
636.503	342.629
639.877	389.9
643.252	734.416
646.627	1382.62
650.002	2401.05
653.377	4362.35
656.751	6686.18
660.126	10078.7
663.501	13834.5
666.876	14729.7
670.251	9843.67
673.626	5075.69
677	2563.27
680.375	1364.95
683.75	720.942
687.125	384.489
690.5	188.391
693.875	55.2998
697.249	171.814
700.624	169.708
703.999	139.319
707.374	66.9478
710.749	2.16131
714.124	93.4002
717.498	103.567
720.873	32.5447
724.248	2.64545
727.623	40.0892
730.998	13.0348
734.372	36.35
737.747	115.54
741.122	143.573
744.497	174.585
747.872	53.6486
751.246	19.6723
754.621	18.0772
757.996	141.53
761.371	210.334
764.746	285.366
768.121	91.0306
771.495	146.297
774.87	283.445
778.245	116.948
781.62	160.953
784.995	327.701
788.37	160.278
791.744	72.405
795.119	128.987
798.494	5.15416
801.869	77.68
805.244	139.341
808.619	276.367
811.993	6.0607
815.368	20.3099
818.743	33.1597
822.118	52.9563
825.493	144.456
828.867	223.492
832.242	318.506
835.617	263.647
838.992	365.967
842.367	686.097
845.741	837.703
849.116	1076.98
852.491	1685.62
855.866	1706.21
859.241	854.675
862.616	369.231
865.99	198.586
869.365	256.1
872.74	125.143
876.115	0.104668
879.49	36.861
882.865	43.4248
886.239	91.9716
889.614	197.319
892.989	92.1386
896.364	159.36
899.739	403.935
903.113	546.017
906.488	509.384
909.863	581.327
913.238	737.426
916.613	673.215
919.987	671.897
923.362	493.476
926.737	309.325
930.112	89.4026
933.487	190.855
936.862	182.983
940.236	6.00708
943.611	62.6956
946.986	78.4762
950.361	35.5607
953.736	70.543
957.111	26.1923
960.485	123.565
963.86	65.2983
967.235	22.0343
970.61	135.159
973.985	395.897
977.36	626.034
980.734	533.483
984.109	510.284
987.484	594.029
990.859	604.112
994.234	1123.71
997.608	2388.31
1000.98	4757.72
1004.36	7323.85
1007.73	11373.2
1011.11	16053.6
1014.48	13871.5
1017.86	5899.09
1021.23	2588.92
1024.61	1171.3
1027.98	922.671
1031.36	741.485
1034.73	822.569
1038.11	920.653
1041.48	1430.23
1044.86	2317.97
1048.23	2816.18
1051.61	1485.13
1054.98	665.793
1058.36	311.388
1061.73	47.5793
1065.11	8.4256
1068.48	166.692
1071.85	423.731
1075.23	111.742
1078.6	34.0847
1081.98	125.806
1085.35	69.675
1088.73	234.364
1092.1	267.47
1095.48	203.483
1098.85	255.957
1102.23	303.17
1105.6	229.187
1108.98	54.7491
1112.35	516.214
1115.73	393.069
1119.1	224.866
1122.48	298.089
1125.85	165.137
1129.23	543
1132.6	703.846
1135.98	535.342
1139.35	363.324
1142.73	265.221
1146.1	606.711
1149.47	777.388
1152.85	281.9
1156.22	76.8602
1159.6	1.24615
1162.97	131.986
1166.35	412.695
1169.72	21.2544
1173.1	396.525
1176.47	656.293
1179.85	0.164597
1183.22	78.1956
1186.6	53.9508
1189.97	295.699
1193.35	616.27
1196.72	654.671
1200.1	804.173
1203.47	904.933
1206.85	606.336
1210.22	198.034
1213.6	475.716
1216.97	616.891
1220.35	652.457
1223.72	703.499
1227.1	577.438
1230.47	752.418
1233.85	827.332
1237.22	703.301
1240.6	25.0534
1243.97	305.57
1247.35	459.945
1250.72	584.977
1254.1	270.222
1257.47	474.82
1260.84	148.363
1264.22	365.228
1267.59	1124.82
1270.97	1124.75
1274.34	971.442
1277.72	304.36
1281.09	49.407
1284.47	4.48171
1287.84	179.515
1291.22	335.387
1294.59	694.072
1297.97	219.289
1301.34	9.3915
