Measurement: Raman, 532 nm, unoriented, Raman Data Processed
Mineral: Diopside
Rruff sample: R060861
Ideal chemistry: CaMgSi_2_O_6_
Locality: Red Mountain Volcano, NW of Flagstaff, Arizona, USA
Source: Jennifer Sano
Description: Worn brown fragment
Measured chemistry: (Ca_0.72_Fe^2+^_0.23_Na_0.05_)_Σ=1_(Mg_0.80_Al_0.15_Ti_0.03_Fe^3+^_0.02_)_Σ=1_(Si_1.82_Al_0.18_)_Σ=2_O_6_
Raman shift (cm-1)	intensity
127.308	0
130.683	99.6077
134.058	83.6472
137.433	179.19
140.808	308.416
144.183	255.64
147.557	157.563
150.932	68.6604
154.307	21.4227
157.682	8.56067
161.057	22.8468
164.431	51.5526
167.806	5.09241
171.181	31.6652
174.556	7.99439
177.931	21.1461
181.305	102.288
184.68	93.3023
188.055	71.1573
191.43	98.4023
194.805	71.8889
198.179	63.65
201.554	77.4257
204.929	20.6151
208.304	70.6609
211.679	26.1694
215.054	1.17114
218.428	36.8203
221.803	36.4191
225.178	28.8451
228.553	42.6
231.928	45.0338
235.303	39.7338
238.677	20.6764
242.052	25.1555
245.427	29.8119
248.802	65.6858
252.177	68.8785
255.551	61.0338
258.926	39.5072
262.301	23.7689
265.676	23.4028
269.051	4.51111
272.425	9.04993
275.8	9.68201
279.175	16.8957
282.55	16.9406
285.925	9.76172
289.3	60.0433
292.674	59.1274
296.049	110.52
299.424	171.947
302.799	241.768
306.174	337.225
309.548	429.599
312.923	567.476
316.298	671.29
319.673	824.611
323.048	941.934
326.422	1024.05
329.797	1165.87
333.172	1188.75
336.547	1159.46
339.922	1078.64
343.296	982.156
346.671	935.252
350.046	916.81
353.421	822.599
356.796	808.295
360.171	742.251
363.545	722.937
366.92	671.355
370.295	635.977
373.67	629.948
377.045	637.678
380.419	630.652
383.794	703.31
387.169	790.198
390.544	912.07
393.919	903.615
397.293	848.207
400.668	728.463
404.043	501.209
407.418	376.603
410.793	236.568
414.168	135.147
417.542	85.8374
420.917	18.6693
424.292	32.3773
427.667	10.1266
431.042	1.13049
434.416	23.4691
437.791	8.01318
441.166	33.6201
444.541	24.8777
447.916	11.1902
451.291	22.8008
454.665	5.20019
458.04	12.2169
461.415	4.71668
464.79	29.7959
468.165	36.8525
471.539	56.4751
474.914	81.4488
478.289	76.4506
481.664	74.8186
485.039	70.0564
488.413	122.415
491.788	133.064
495.163	130.497
498.538	137.638
501.913	194.517
505.288	252.188
508.662	303.664
512.037	300.663
515.412	308.46
518.787	313.298
522.162	332.882
525.536	374.111
528.911	372.639
532.286	413.757
535.661	444.618
539.036	428.596
542.41	442.436
545.785	443.74
549.16	406.603
552.535	392.239
555.91	337.09
559.284	380.253
562.659	310.274
566.034	314.126
569.409	300.457
572.784	275.172
576.159	249.166
579.533	230.827
582.908	157.787
586.283	134.452
589.658	67.6965
593.033	38.1143
596.408	37.8541
599.782	17.5945
603.157	28.661
606.532	16.0913
609.907	1.81165
613.282	33.6769
616.656	19.2692
620.031	32.4213
623.406	87.8534
626.781	142.01
630.156	211.206
633.53	291.948
636.905	369.392
640.28	502.906
643.655	687.808
647.03	952.894
650.404	1359.77
653.779	1933.46
657.154	2499.94
660.529	3196.84
663.904	3831.02
667.279	4087.91
670.653	3703.76
674.028	2832.04
677.403	2006.26
680.778	1430.62
684.153	1113.2
687.528	728.262
690.902	563.571
694.277	398.546
697.652	355.613
701.027	295.768
704.402	222.2
707.776	188.248
711.151	140.717
714.526	140.321
717.901	130.746
721.276	72.1195
724.65	44.3938
728.025	49.4752
731.4	25.3855
734.775	7.67859
738.15	18.8048
741.524	6.51147
744.899	19.663
748.274	8.57043
751.649	3.08801
755.024	33.8337
758.399	41.3818
761.773	49.1498
765.148	39.5326
768.523	11.3798
771.898	68.3066
775.273	95.6228
778.648	69.9359
782.022	49.7753
785.397	64.9359
788.772	69.9119
792.147	80.4545
795.521	88.9689
798.896	74.1403
802.271	74.0785
805.646	144.256
809.021	84.4764
812.396	68.6378
815.77	141.645
819.145	112.679
822.52	57.1958
825.895	89.5897
829.27	82.7992
832.644	74.9344
836.019	14.2506
839.394	15.7033
842.769	27.7255
846.144	20.6633
849.519	16.2129
852.893	55.121
856.268	83.7698
859.643	90.2609
863.018	167.538
866.393	168.95
869.767	155.564
873.142	181.64
876.517	164.57
879.892	124.436
883.267	107.724
886.641	106.964
890.016	66.8859
893.391	58.2012
896.766	65.8789
900.141	7.33533
903.516	8.4176
906.89	16.1659
910.265	21.5093
913.64	15.345
917.015	0.925293
920.39	6.13
923.764	20.8734
927.139	66.3309
930.514	36.5072
933.889	23.6561
937.264	0.953491
940.639	0.839722
944.013	22.0195
947.388	34.4359
950.763	36.5603
954.138	87.6779
957.513	100.005
960.887	118.008
964.262	154.792
967.637	201.577
971.012	246.307
974.387	326.411
977.761	418.234
981.136	545.391
984.511	687.208
987.886	864.237
991.261	1130.7
994.635	1466.56
998.01	1729.92
1001.38	2090.71
1004.76	2306.2
1008.13	2285.5
1011.51	2062.06
1014.88	1662.56
1018.26	1282.73
1021.63	909.119
1025.01	729.513
1028.38	547.729
1031.76	420.079
1035.13	375.852
1038.51	301.19
1041.88	296.05
1045.26	208.169
1048.63	213.266
1052.01	136.564
1055.38	83.4781
1058.76	39.9779
1062.13	30.3223
1065.51	9.77966
1068.88	1.26746
1072.26	19.1647
1075.63	13.974
1079.01	17.787
1082.38	3.0509
1085.76	7.60913
1089.13	19.229
1092.51	71.1711
1095.88	55.831
1099.26	89.7749
1102.63	92.1157
1106	99.2433
1109.38	98.7148
1112.75	71.2761
1116.13	83.2625
1119.5	92.4668
1122.88	74.326
1126.25	67.7556
1129.63	81.5125
1133	33.354
1136.38	27.9138
1139.75	15.974
1143.13	0.690308
1146.5	1.23498
1149.88	0.411621
1153.25	7.04382
1156.63	0.935181
1160	14.6046
1163.38	44.1899
1166.75	51.4921
1170.13	23.5186
1173.5	19.7199
1176.88	34.4949
1180.25	42.4651
1183.62	44.5874
1187	60.1019
1190.38	30.394
1193.75	30.3697
1197.12	87.7256
1200.5	59.4695
1203.87	36.6523
1207.25	59.8665
1210.62	97.7794
1214	43.2542
1217.37	30.9701
1220.75	46.0221
1224.12	45.228
1227.5	32.0488
1230.87	24.1387
1234.25	29.538
1237.62	48.1227
1241	42.5505
1244.37	70.0356
1247.75	56.7965
1251.12	46.923
1254.5	66.6007
1257.87	54.9281
1261.25	60.2024
1264.62	27.4067
1267.99	27.0133
1271.37	43.5012
1274.74	47.7499
1278.12	21.9229
1281.49	44.4863
1284.87	67.3396
1288.24	10.5565
1291.62	31.058
1294.99	17.3648
1298.37	11.401
