Measurement: Raman, 532 nm, unoriented, Raman Data Processed
Mineral: Diopside
Rruff sample: R040097
Ideal chemistry: CaMgSi_2_O_6_
Locality: Fassathal, Tyrol
Source: University of Arizona Mineral Museum
Description: Green prismatic crystals
Measured chemistry: Ca_1.00_(Mg_0.83_Al_0.10_Fe_0.09_Ca_0.02_Ti_0.02_)(Si_0.88_Al_0.12_)_2_O_6_
Raman shift (cm-1)	intensity
148.572	0
151.465	99.3359
154.358	379.309
157.25	1140.34
160.143	467.332
163.036	127.223
165.928	19.2227
168.821	182.527
171.714	32.5234
174.607	236.594
177.499	471.09
180.392	720.527
183.285	1203.69
186.177	1059.95
189.07	1408.46
191.963	1733.4
194.855	855.543
197.748	550.258
200.641	117.785
203.534	40.4102
206.426	250.25
209.319	493.352
212.212	195.777
215.104	10.2852
217.997	17.9531
220.89	444.019
223.782	773.891
226.675	1178.85
229.568	1336.09
232.46	1341.07
235.353	601.625
238.246	902.734
241.138	822.449
244.031	762.902
246.924	1315.83
249.817	1449.6
252.709	2701.3
255.602	2568.2
258.495	988.152
261.387	460.852
264.28	527.996
267.173	899.008
270.066	566.449
272.958	792.269
275.851	244.703
278.744	137.414
281.636	26.8125
284.529	126.875
287.422	19.4766
290.314	205.273
293.207	333.688
296.1	156.727
298.993	208.25
301.885	561.719
304.778	810.961
307.671	1374.36
310.563	1590.16
313.456	2123.21
316.349	2584.13
319.241	3598.52
322.134	4683.09
325.027	4810.22
327.92	4281.16
330.812	3285.02
333.705	2614.93
336.598	1747.56
339.49	1443.67
342.383	981.883
345.276	587.164
348.168	762.695
351.061	1002.3
353.954	1757.11
356.846	1126.66
359.739	1126.1
362.632	979.062
365.525	1088.29
368.417	1240.22
371.31	1392.78
374.203	1446.02
377.095	1548.52
379.988	2190.44
382.881	3257.33
385.774	4435
388.666	5493.03
391.559	6275.37
394.452	5327.33
397.344	3388.96
400.237	2081.56
403.13	1120.19
406.022	716.523
408.915	387.898
411.808	236.258
414.7	374.656
417.593	267.023
420.486	408.539
423.379	19.2344
426.271	199.734
429.164	82.7266
432.057	218.219
434.949	390.812
437.842	71.5703
440.735	121.273
443.627	296.18
446.52	635.812
449.413	486.883
452.306	656.109
455.198	154.867
458.091	305.914
460.984	101.469
463.876	279.008
466.769	129.922
469.662	194.906
472.555	324.5
475.447	451.375
478.34	64.7266
481.233	72.1641
484.125	375.281
487.018	333.906
489.911	166.32
492.803	234.633
495.696	9.00781
498.589	123.516
501.481	333.078
504.374	473.273
507.267	236.359
510.16	532.461
513.052	428.883
515.945	570.273
518.838	527.039
521.73	335.016
524.623	301.555
527.516	302.703
530.408	514.961
533.301	598.172
536.194	571.82
539.087	405.289
541.979	515.703
544.872	613.578
547.765	190.969
550.657	368.789
553.55	218.133
556.443	193.93
559.335	205.281
562.228	552.32
565.121	482.5
568.014	138.164
570.906	42.1875
573.799	79.4062
576.692	131.945
579.584	149.938
582.477	237.352
585.37	34.1797
588.263	95.2578
591.155	347.172
594.048	345.414
596.941	616.219
599.833	235.25
602.726	26.2891
605.619	229.047
608.511	122.047
611.404	27.6094
614.297	120.688
617.189	262
620.082	230.273
622.975	328.242
625.868	189.391
628.76	390.07
631.653	112.602
634.546	207.016
637.438	206.234
640.331	908.828
643.224	356.656
646.116	831.203
649.009	1094.44
651.902	1677.21
654.795	2360.98
657.687	3081.48
660.58	4214.25
663.473	5184.56
666.365	5782.14
669.258	5219.56
672.151	3512.68
675.043	1902.34
677.936	1502.09
680.829	1477.72
683.721	1420.06
686.614	987.586
689.507	543.602
692.4	546.516
695.292	465.586
698.185	325.008
701.078	721.422
703.97	792.914
706.863	850.805
709.756	726.742
712.649	679.445
715.541	709.805
718.434	587.938
721.327	485.992
724.219	453.445
727.112	483.609
730.005	474.133
732.897	16.3125
735.79	11.4453
738.683	181.781
741.576	94.5625
744.468	296.094
747.361	456.93
750.254	360.688
753.146	270.836
756.039	418.148
758.932	579.789
761.824	367.148
764.717	427.477
767.61	646.906
770.503	860.289
773.395	1026.53
776.288	606.773
779.181	452.242
782.073	606.781
784.966	494.414
787.859	551.867
790.751	525.391
793.644	508.875
796.537	766.383
799.429	725.492
802.322	723.234
805.215	700.125
808.108	400.102
811	469.055
813.893	531.453
816.786	509.531
819.678	486.406
822.571	570.312
825.464	564.922
828.356	460.188
831.249	404.125
834.142	180.086
837.034	182.773
839.927	243.906
842.82	809.773
845.713	495.828
848.605	873.797
851.498	712.805
854.391	782.18
857.283	863.367
860.176	1088.91
863.069	742.312
865.962	556.664
868.854	273.766
871.747	107.93
874.64	32.9141
877.532	328.555
880.425	518.641
883.318	590.719
886.21	697.203
889.103	146.211
891.996	134.75
894.889	113.539
897.781	509.531
900.674	228.492
903.567	118.602
906.459	27.25
909.352	278.211
912.245	70.3281
915.138	106.703
918.03	383.828
920.923	227.758
923.816	485.422
926.708	234.492
929.601	35.3203
932.494	31.3516
935.386	105.906
938.279	256.453
941.172	188.68
944.064	340.781
946.957	382.797
949.85	450.703
952.743	385.695
955.635	426.727
958.528	212.461
961.421	210.609
964.313	244.836
967.206	526.203
970.099	302.578
972.991	480.93
975.884	145.969
978.777	35.8281
981.67	332.984
984.562	704.406
987.455	978.305
990.348	994.859
993.24	1248.17
996.133	1954.08
999.026	3574.42
1001.92	5441.05
1004.81	6740.67
1007.7	8399.07
1010.6	9202.43
1013.49	8039.41
1016.38	4773
1019.27	2601.9
1022.17	1290.97
1025.06	920.766
1027.95	895.516
1030.85	645.43
1033.74	978.766
1036.63	743.43
1039.52	726.461
1042.42	983.328
1045.31	479.102
1048.2	405.484
1051.09	173.086
1053.99	110.289
1056.88	10.6094
1059.77	164.039
1062.66	280.781
1065.56	96.3047
1068.45	21.5859
1071.34	68.0781
1074.24	68.7969
1077.13	302.922
1080.02	840.938
1082.91	455.453
1085.81	60.4844
1088.7	36.0625
1091.59	211.281
1094.48	140.461
1097.38	207.57
1100.27	382.227
1103.16	569.93
1106.06	470.984
1108.95	773.242
1111.84	862.477
1114.73	907.797
1117.63	736.211
1120.52	481
1123.41	223.938
1126.3	688.32
1129.2	757.297
1132.09	1053.08
1134.98	839.992
1137.88	591.938
1140.77	284.555
1143.66	351.211
1146.55	467.562
1149.45	618.172
1152.34	579.219
1155.23	423.258
1158.12	433.398
1161.02	403.227
1163.91	259.578
1166.8	100.93
1169.69	261.391
1172.59	416.883
1175.48	326.336
1178.37	161.766
1181.27	234.672
1184.16	207.148
1187.05	804.727
1189.94	929.141
1192.84	743.062
1195.73	384.617
1198.62	424
1201.52	622.781
1204.41	367.062
1207.3	539.68
1210.19	409.445
1213.09	446.078
1215.98	461.086
1218.87	526.414
1221.76	498.812
1224.66	471.406
1227.55	435.125
1230.44	2.51562
1233.33	56.375
1236.23	429.062
1239.12	523.234
1242.01	412.672
1244.9	320.234
1247.8	301.672
1250.69	620.766
1253.58	623.016
1256.48	749.859
1259.37	548.844
1262.26	330.172
1265.15	211.094
1268.05	209.688
1270.94	216.969
1273.83	552.391
1276.72	537.578
1279.62	260.969
1282.51	453.141
1285.4	10.125
1288.3	494.266
1291.19	590.094
1294.08	614.469
1296.97	107.625
