Measurement: Raman, 780 nm, unoriented, Raman Data Processed
Mineral: Diopside
Rruff sample: R060171
Ideal chemistry: CaMgSi_2_O_6_
Locality: Jeffrey mine, Asbestos, Quebec, Canada
Source: Guy Ouellet
Description: Yellowish-brown tabular crystals associated with vesuvianite, R060170
Measured chemistry: Ca_1.00_(Mg_0.98_Mn_0.02_)_Î£=1_Si_2.00_O_6_
Raman shift (cm-1)	intensity
135.416	0
138.309	42.4534
141.201	72.978
144.094	17.1587
146.987	1.58398
149.879	0.939209
152.772	3.43457
155.665	8.08154
158.557	15.7378
161.45	23.4993
164.343	44.7278
167.236	32.4971
170.128	32.5591
173.021	21.3191
175.914	32.5039
178.806	58.6626
181.699	81.8584
184.592	43.7998
187.484	49.2205
190.377	73.812
193.27	115.415
196.162	124.37
199.055	46.4163
201.948	23.1377
204.841	25.0779
207.733	18.3779
210.626	16.4206
213.519	22.6589
216.411	21.8464
219.304	24.8186
222.197	38.1963
225.089	58.0315
227.982	81.8413
230.875	119.136
233.768	163.942
236.66	120.184
239.553	53.5938
242.446	34.1838
245.338	41.2495
248.231	59.064
251.124	74.2695
254.017	100.487
256.909	76.9961
259.802	33.5193
262.695	20.1394
265.587	13.5613
268.48	2.12744
271.373	6.33911
274.265	4.15039
277.158	2.40918
280.051	6.41455
282.943	9.16919
285.836	1.19605
288.729	2.36499
291.622	5.70923
294.514	9.5459
297.407	21.7981
300.3	46.5017
303.192	75.6443
306.085	100.538
308.978	167.828
311.87	221.248
314.763	222.462
317.656	287.959
320.548	465.612
323.441	642.754
326.334	457.574
329.227	191.067
332.119	78.9634
335.012	33.4089
337.905	14.363
340.797	12.8218
343.69	11.814
346.583	22.2273
349.476	46.4414
352.368	81.8164
355.261	138.907
358.154	120.944
361.046	39.1812
363.939	16.5676
366.832	0.087646
369.724	13.0762
372.617	21.0234
375.51	26.5764
378.402	51.0444
381.295	87.1482
384.188	152.042
387.081	273.837
389.973	399.06
392.866	363.24
395.759	232.878
398.651	108.404
401.544	52.7835
404.437	22.9202
407.329	11.0308
410.222	2.34815
413.115	0.9375
416.008	0.73999
418.9	6.39844
421.793	3.63721
424.686	1.24194
427.578	0.489502
430.471	1.48096
433.364	1.35107
436.257	1.70093
439.149	1.10449
442.042	2.04346
444.935	6.83301
447.827	11.8362
450.72	14.7873
453.613	22.3003
456.505	28.1914
459.398	45.1836
462.291	61.3206
465.183	58.2034
468.076	34.561
470.969	20.8066
473.861	17.8213
476.754	16.844
479.647	2.91455
482.54	7.45361
485.432	3.56128
488.325	6.13086
491.218	4.1936
494.11	11.2056
497.003	16.124
499.896	24.2092
502.788	31.4414
505.681	67.624
508.574	98.9705
511.467	57.7556
514.359	38.1204
517.252	22.1387
520.145	13.6262
523.037	8.58765
525.93	12.2974
528.823	18.5889
531.716	16.166
534.608	5.25684
537.501	2.40356
540.394	1.45801
543.286	9.50488
546.179	11.1824
549.072	19.812
551.964	41.5996
554.857	85.7913
557.75	149.079
560.643	146.691
563.535	60.9598
566.428	25.1931
569.321	19.1781
572.213	10.5252
575.106	1.03967
577.999	0.579468
580.891	2.63074
583.784	2.28186
586.677	5.96729
589.569	0.947998
592.462	9.71374
595.355	1.3667
598.248	4.37756
601.14	0.805786
604.033	1.30054
606.926	6.71033
609.818	3.00867
612.711	4.39038
615.604	6.90405
618.496	11.2488
621.389	14.9364
624.282	16.1539
627.174	24.3511
630.067	26.1622
632.96	31.1129
635.853	44.067
638.745	48.6387
641.638	67.8809
644.531	78.9435
647.423	122.041
650.316	182.595
653.209	268.81
656.101	415.629
658.994	660.137
661.887	1055.71
664.78	1460.77
667.672	1401.9
670.565	873.268
673.458	468.798
676.35	263.074
679.243	161.556
682.136	98.4305
685.029	70.7864
687.921	45.2432
690.814	27.4513
693.707	21.3438
696.599	14.7218
699.492	8.44568
702.385	6.15808
705.277	3.96167
708.17	6.55371
711.063	3.91833
713.955	0.769409
716.848	0.618774
719.741	4.3136
722.634	2.47632
725.526	1.75745
728.419	1.81763
731.312	0.162964
734.204	0.3396
737.097	1.63257
739.99	1.27515
742.882	2.58191
745.775	0.911865
748.668	1.67761
751.561	1.69812
754.453	0.484131
757.346	2.42651
760.239	0.910767
763.131	2.34363
766.024	5.81104
768.917	3.45667
771.809	0.489868
774.702	5.89123
777.595	3.90027
780.487	3.3197
783.38	4.95154
786.273	5.07312
789.166	5.42664
792.058	6.51904
794.951	5.94702
797.844	5.14624
800.736	6.32519
803.629	1.5227
806.522	5.87683
809.414	7.38855
812.307	2.92383
815.2	3.48523
818.093	6.64819
820.985	7.61084
823.878	7.33374
826.771	3.92969
829.663	5.10754
832.556	8.18054
835.449	5.41235
838.341	9.24548
841.234	7.68115
844.127	6.24756
847.02	8.93262
849.912	18.4097
852.805	29.3131
855.698	25.8872
858.59	16.2502
861.483	12.7045
864.376	7.24475
867.269	3.35547
870.161	6.31531
873.054	6.42664
875.947	3.85303
878.839	3.14587
881.732	3.57068
884.625	5.82593
887.517	4.42346
890.41	4.27869
893.303	5.70471
896.195	5.67188
899.088	6.40723
901.981	1.21643
904.874	0.046143
907.766	4.99463
910.659	3.84961
913.552	14.4421
916.444	4.26294
919.337	5.18127
922.23	6.45703
925.122	2.64856
928.015	1.77917
930.908	3.63745
933.801	1.15784
936.693	2.82288
939.586	0.37085
942.479	4.57861
945.371	0.426025
948.264	1.19104
951.157	1.37048
954.049	1.21985
956.942	3.35474
959.835	1.38769
962.727	1.89246
965.62	1.1853
968.513	8.16724
971.406	2.03931
974.298	4.1189
977.191	9.62415
980.084	9.51855
982.976	15.9604
985.869	16.755
988.762	29.0548
991.654	36.0546
994.547	61.944
997.44	98.9677
1000.33	180.019
1003.23	315.835
1006.12	568.027
1009.01	1108.86
1011.9	1920.59
1014.8	1951.27
1017.69	977.165
1020.58	405.438
1023.47	198.8
1026.37	121.48
1029.26	89.4121
1032.15	67.8447
1035.05	60.2469
1037.94	72.4124
1040.83	91.5983
1043.72	143.258
1046.62	227.621
1049.51	209.724
1052.4	112.658
1055.29	54.1001
1058.19	27.7789
1061.08	18.0787
1063.97	10.1733
1066.87	5.45227
1069.76	3.92163
1072.65	5.39514
1075.54	5.0846
1078.43	1.87683
1081.33	2.62305
1084.22	3.58484
1087.11	2.85998
1090.01	4.44617
1092.9	0.864624
1095.79	6.81946
1098.68	5.32825
1101.58	0.77417
1104.47	3.06909
1107.36	5.46887
1110.26	3.01404
1113.15	1.36157
1116.04	1.30066
1118.93	1.06653
1121.83	5.54309
1124.72	11.7376
1127.61	2.30103
1130.5	4.84631
1133.4	5.57422
1136.29	5.56226
1139.18	8.4873
1142.08	9.53357
1144.97	7.30786
1147.86	8.18323
1150.75	5.71521
1153.65	7.72241
1156.54	15.5262
1159.43	7.50903
1162.32	15.0906
1165.22	11.2272
1168.11	10.3036
1171	6.87122
1173.89	12.1174
1176.79	5.05298
1179.68	7.776
1182.57	6.87366
1185.46	5.92481
1188.36	7.7583
1191.25	7.70105
1194.14	4.99805
1197.04	6.32654
1199.93	5.37756
1202.82	7.40564
1205.71	7.52832
1208.61	4.37378
1211.5	10.5348
1214.39	8.21509
1217.29	2.74414
1220.18	0.763672
1223.07	0.981323
1225.96	4.92798
1228.86	10.5077
1231.75	0.259888
1234.64	1.06775
1237.53	0.067383
1240.43	0.418457
1243.32	2.19897
1246.21	3.50574
1249.11	1.70386
1252	4.63806
1254.89	0.190308
1257.78	3.18176
1260.67	1.00134
1263.57	5.3385
1266.46	6.39429
1269.35	5.84741
1272.25	4.49475
1275.14	5.495
1278.03	8.00879
1280.92	4.9762
1283.82	5.72253
