Measurement: Raman, 532 nm, unoriented, Raman Data Processed
Mineral: Diopside
Rruff sample: R040009
Ideal chemistry: CaMgSi_2_O_6_
Locality: Otter Lake, Quebec, Canada
Source: University of Arizona Mineral Museum
Description: Green square prismatic crystal associated with pale orange calcite
Measured chemistry: (Ca_0.97_Fe_0.02_Na_0.01_)_Σ=1_(Mg_0.97_Fe_0.02_Al_0.01_)_Σ=1_Si_2.00_O_6_; trace amounts of Mn and Ti
Raman shift (cm-1)	intensity
123.297	0
126.672	88.0629
130.047	232.042
133.422	460.73
136.797	905.415
140.172	1203.18
143.546	416.634
146.921	104.865
150.296	21.9908
153.671	3.06299
157.046	13.3632
160.421	1.10724
163.795	73.4537
167.17	81.9825
170.545	3.89813
173.92	5.19708
177.294	46.5753
180.669	147.436
184.044	78.931
187.419	14.3945
190.794	33.3587
194.169	113.649
197.543	67.2748
200.918	5.09473
204.293	1.39356
207.668	15.5267
211.043	40.1046
214.417	75.6397
217.792	112.225
221.167	176.177
224.542	278.202
227.917	468.647
231.292	509.469
234.666	238.127
238.041	123.388
241.416	78.9084
244.791	80.1879
248.166	84.6884
251.541	128.103
254.915	166.412
258.29	65.5174
261.665	21.5026
265.04	5.67114
268.415	7.5968
271.789	13.8706
275.164	18.9076
278.539	7.46729
281.914	2.69958
285.289	20.8456
288.663	40.4476
292.038	93.9406
295.413	128.665
298.788	240.156
302.163	417.499
305.538	434.517
308.912	521.463
312.287	705.455
315.662	981.99
319.037	1521.99
322.412	2300.83
325.786	2178.43
329.161	1100.74
332.536	524.538
335.911	308.585
339.286	243.718
342.661	245.556
346.035	298.556
349.41	419.874
352.785	645.266
356.16	948.682
359.535	858.495
362.909	627.634
366.284	585.47
369.659	563.679
373.034	504.938
376.409	595.649
379.784	808.149
383.158	1212.05
386.533	1922.32
389.908	2637.61
393.283	1902.09
396.658	844.839
400.032	368.046
403.407	179.805
406.782	77.3317
410.157	33.7916
413.532	12.2349
416.906	1.60779
420.281	9.24854
423.656	6.91772
427.031	1.73303
430.406	3.67554
433.781	8.33606
437.155	8.54114
440.53	5.51917
443.905	5.26489
447.28	8.05603
450.655	10.4898
454.029	21.9996
457.404	38.0681
460.779	48.1694
464.154	64.2302
467.529	59.5061
470.904	29.3904
474.278	21.1665
477.653	16.2854
481.028	22.9091
484.403	16.5223
487.778	17.6715
491.152	14.5655
494.527	26.4674
497.902	17.292
501.277	28.6787
504.652	44.0374
508.026	64.3447
511.401	84.7776
514.776	114.314
518.151	104.939
521.526	104.421
524.901	136.109
528.275	170.539
531.65	157.562
535.025	102.539
538.4	64.6039
541.775	58.4713
545.149	69.3699
548.524	72.948
551.899	124.874
555.274	192.59
558.649	269.07
562.024	184.058
565.398	80.4972
568.773	42.2562
572.148	28.7496
575.523	16.2994
578.898	16.649
582.273	5.45252
585.647	12.103
589.022	4.44983
592.397	4.66443
595.772	2.03015
599.146	2.3739
602.521	5.68848
605.896	2.57983
609.271	1.54077
612.646	5.46765
616.021	8.65185
619.395	8.87109
622.77	19.3646
626.145	21.1482
629.52	44.6506
632.895	55.2423
636.269	74.8099
639.644	121.278
643.019	175.917
646.394	281.479
649.769	486.619
653.144	746.971
656.518	1131.96
659.893	1739.84
663.268	2620.24
666.643	2927.73
670.018	1951.12
673.393	992.78
676.767	519.135
680.142	303.267
683.517	191.146
686.892	118.484
690.266	86.2213
693.641	73.452
697.016	57.3444
700.391	57.3126
703.766	67.6233
707.141	63.8049
710.515	46.7559
713.89	29.6658
717.265	10.6577
720.64	8.86548
724.015	13.6477
727.389	9.38379
730.764	5.44043
734.139	1.31323
737.514	10.5808
740.889	4.19434
744.264	10.0354
747.638	8.91455
751.013	0.488525
754.388	8.36401
757.763	10.4231
761.138	5.92896
764.513	15.188
767.887	17.9658
771.262	23.9993
774.637	18.5479
778.012	20.075
781.387	33.7559
784.761	29.386
788.136	18.334
791.511	4.91016
794.886	11.0559
798.261	11.053
801.635	10.0764
805.01	7.55469
808.385	9.91773
811.76	4.16699
815.135	2.03638
818.51	3.29297
821.884	8.62817
825.259	5.70459
828.634	6.47217
832.009	15.113
835.384	20.3377
838.758	33.0681
842.133	72.2163
845.508	113.515
848.883	178.161
852.258	283.016
855.633	341.688
859.007	212.39
862.382	119.888
865.757	61.2891
869.132	50.8186
872.507	25.9585
875.881	26.9033
879.256	24.3091
882.631	9.01587
886.006	13.8279
889.381	20.687
892.755	33.4424
896.13	22.3608
899.505	41.7302
902.88	41.8596
906.255	34.8735
909.63	39.5078
913.004	48.6082
916.379	37.9143
919.754	36.6765
923.129	43.0015
926.504	12.1724
929.879	13.2957
933.253	3.96045
936.628	7.17505
940.003	0.051025
943.378	0.779541
946.753	8.38354
950.127	3.37671
953.502	16.0637
956.877	18.343
960.252	21.9827
963.627	33.6265
967.001	40.3384
970.376	53.5303
973.751	47.4009
977.126	67.6143
980.501	94.8066
983.875	111.339
987.25	139.335
990.625	184.449
994	309.536
997.375	541.169
1000.75	929.48
1004.12	1512.04
1007.5	2449.5
1010.87	3901.05
1014.25	3936.54
1017.62	1871.83
1021	794.652
1024.37	406.762
1027.75	255.262
1031.12	208.228
1034.5	139.919
1037.87	155.428
1041.25	172.739
1044.62	191.14
1048	207.047
1051.37	140.709
1054.75	57.4741
1058.12	23.9185
1061.5	0.676758
1064.87	8.28027
1068.25	14.5664
1071.62	5.53467
1075	5.73389
1078.37	17.1133
1081.74	8.55029
1085.12	1.87793
1088.49	12.3091
1091.87	29.3071
1095.24	18.3936
1098.62	8.27051
1101.99	2.88525
1105.37	6.47363
1108.74	19.6836
1112.12	15.9346
1115.49	22.2935
1118.87	8.98047
1122.24	42.5493
1125.62	43.7461
1128.99	19.9282
1132.37	17.1636
1135.74	8.57227
1139.12	17.1948
1142.49	8.21875
1145.87	38.8877
1149.24	44.2417
1152.62	10.8267
1155.99	29.6377
1159.37	4.17383
1162.74	29.627
1166.12	35.1309
1169.49	25.4468
1172.87	20.1143
1176.24	24.0986
1179.62	31.4595
1182.99	46.5312
1186.37	19.4854
1189.74	37.981
1193.11	29.6099
1196.49	44.1934
1199.86	43.7373
1203.24	37.2969
1206.61	32.8369
1209.99	26.9253
1213.36	11.4912
1216.74	68.6924
1220.11	58.3691
1223.49	45.1655
1226.86	40.8897
1230.24	37.5874
1233.61	36.8706
1236.99	33.8901
1240.36	4.70459
1243.74	36.7964
1247.11	40.1821
1250.49	44.2505
1253.86	32.4106
1257.24	25.4531
1260.61	41.6792
1263.98	38.252
1267.36	16.9605
1270.73	6.88281
1274.11	29.7031
1277.48	16.0298
1280.86	12.041
