Measurement: Raman, 785 nm, unoriented, Raman Data Processed
Mineral: Diopside
Rruff sample: R060861
Ideal chemistry: CaMgSi_2_O_6_
Locality: Red Mountain Volcano, NW of Flagstaff, Arizona, USA
Source: Jennifer Sano
Description: Worn brown fragment
Measured chemistry: (Ca_0.72_Fe^2+^_0.23_Na_0.05_)_Σ=1_(Mg_0.80_Al_0.15_Ti_0.03_Fe^3+^_0.02_)_Σ=1_(Si_1.82_Al_0.18_)_Σ=2_O_6_
Raman shift (cm-1)	intensity
165.183	0
168.075	34.3125
170.968	52.5312
173.861	109.157
176.753	38.3023
179.646	45.5308
182.539	68.8481
185.431	125.787
188.324	210.956
191.217	284.534
194.11	338.992
197.002	291.68
199.895	291.136
202.788	210.845
205.68	189.617
208.573	105.952
211.466	16.8237
214.358	36.0278
217.251	20.3472
220.144	125.54
223.037	155.898
225.929	105.618
228.822	175.52
231.715	149.931
234.607	88.5586
237.5	141.645
240.393	134.997
243.286	156.227
246.178	282.906
249.071	254.375
251.964	297.679
254.856	279.397
257.749	238.461
260.642	207.685
263.534	98.9287
266.427	49.9902
269.32	24.6953
272.212	36.9585
275.105	38.6968
277.998	41.3794
280.891	9.29102
283.783	46.0278
286.676	46.3569
289.569	172.334
292.461	241.461
295.354	290.829
298.247	431.978
301.139	499.033
304.032	656.561
306.925	809.788
309.818	1017.27
312.71	1154.33
315.603	1372.48
318.496	1634.42
321.388	1872.57
324.281	2034.04
327.174	2272.17
330.067	2389.97
332.959	2428.83
335.852	2400.44
338.745	2195.36
341.637	2061.39
344.53	1865.5
347.423	1720.98
350.315	1678.18
353.208	1501.27
356.101	1548.94
358.993	1359.86
361.886	1210.04
364.779	1073.68
367.672	974.222
370.564	870.589
373.457	818.444
376.35	779.345
379.242	780.932
382.135	806.673
385.028	824.575
387.921	794.033
390.813	839.476
393.706	842.796
396.599	794.313
399.491	734.777
402.384	526.589
405.277	410.37
408.169	219.586
411.062	124.256
413.955	78.2519
416.848	51.2905
419.74	32.7812
422.633	1.70361
425.526	4.479
428.418	8.2251
431.311	14.7119
434.204	22.8496
437.096	46.1704
439.989	3.75732
442.882	40.1103
445.774	19.8984
448.667	27.9546
451.56	40.5938
454.452	6.74561
457.345	64.3232
460.238	60.751
463.131	72.3003
466.023	99.1138
468.916	99.1836
471.809	102.674
474.701	114.521
477.594	141.677
480.487	101.525
483.38	93.3154
486.272	109.27
489.165	58.919
492.058	77.5806
494.95	117.467
497.843	140.047
500.736	96.083
503.628	247.011
506.521	298.849
509.414	302.821
512.307	414.93
515.199	364.698
518.092	275.059
520.985	269.896
523.877	253.671
526.77	257.882
529.663	268.39
532.555	284.188
535.448	331.862
538.341	314.201
541.234	396.757
544.126	329.375
547.019	448.094
549.912	461.854
552.804	422.809
555.697	510.822
558.59	532.508
561.482	505.924
564.375	431.473
567.268	349.563
570.16	237.952
573.053	189.295
575.946	173.945
578.839	127.329
581.731	84.625
584.624	96.3984
587.517	72.1538
590.409	35.7398
593.302	19.5151
596.195	16.4214
599.087	36.2466
601.98	82.9614
604.873	21.5347
607.766	14.3018
610.658	36.6895
613.551	92.0161
616.444	76.5727
619.336	193.621
622.229	237.232
625.122	313.834
628.014	445.738
630.907	591.222
633.8	781.246
636.693	922.203
639.585	1182.67
642.478	1521.79
645.371	1974.48
648.263	2583.24
651.156	3364.97
654.049	4452.47
656.942	5741.2
659.834	6991.75
662.727	8331.95
665.62	9112.56
668.512	9010.7
671.405	7793.43
674.298	6139.26
677.19	4576.56
680.083	3429.09
682.976	2513.46
685.869	1833.46
688.761	1361.56
691.654	1093.71
694.547	832.155
697.439	668.524
700.332	574.352
703.225	485.494
706.117	417.524
709.01	353.609
711.903	258.618
714.795	183.909
717.688	164.894
720.581	142.106
723.474	72.1934
726.366	127.334
729.259	27.3447
732.152	12.293
735.044	11.4395
737.937	32.8516
740.83	40.3818
743.722	31.9028
746.615	30.852
749.508	67.3144
752.401	0.92041
755.293	54.5698
758.186	58.2056
761.079	32.6602
763.971	88.0195
766.864	55.7583
769.757	139.72
772.649	125.974
775.542	130.106
778.435	132.347
781.328	177.59
784.22	165.071
787.113	278.277
790.006	257.183
792.898	301.529
795.791	294.648
798.684	318.346
801.576	302.816
804.469	399.936
807.362	390.422
810.255	445.714
813.147	432.113
816.04	450.563
818.933	403.596
821.825	375.521
824.718	360.004
827.611	304.31
830.503	294.513
833.396	183.405
836.289	163.285
839.182	152.341
842.074	13.3027
844.967	54.5547
847.86	12.8911
850.752	33.79
853.645	10.3901
856.538	45.5938
859.43	16.7192
862.323	45.0239
865.216	66.2031
868.109	63.6074
871.001	67.5244
873.894	84.2217
876.787	76.9976
879.679	44.0928
882.572	3.90283
885.465	123.459
888.357	10.0347
891.25	45.6113
894.143	10.605
897.035	5.44141
899.928	27.6401
902.821	61.2202
905.714	1.479
908.606	31.4048
911.499	8.73438
914.392	36.9995
917.284	6.63477
920.177	41.5327
923.07	27.7324
925.962	30.9819
928.855	93.4409
931.748	88.2178
934.641	54.9292
937.533	80.0107
940.426	134.592
943.319	102.991
946.211	203.921
949.104	164.482
951.997	307.898
954.889	330.565
957.782	345.502
960.675	442.799
963.568	510.608
966.46	551.34
969.353	745.07
972.246	826.616
975.138	974.699
978.031	1244.21
980.924	1496.71
983.817	1861.4
986.709	2313.89
989.602	2776.51
992.495	3299.68
995.387	4114.91
998.28	4786.44
1001.17	5469.17
1004.07	5955.47
1006.96	6132.67
1009.85	5700.31
1012.74	5023.71
1015.64	4011.02
1018.53	3051.99
1021.42	2294.64
1024.31	1680.24
1027.21	1297.64
1030.1	979.757
1032.99	774.016
1035.88	641.73
1038.78	500.288
1041.67	412.809
1044.56	341.545
1047.46	333.251
1050.35	250.773
1053.24	140.278
1056.13	106.356
1059.03	109.242
1061.92	34.5889
1064.81	61.3696
1067.7	3.65576
1070.6	1.82666
1073.49	37.5879
1076.38	13.291
1079.28	5.23682
1082.17	3.46826
1085.06	11.3906
1087.95	61.4917
1090.85	19.0488
1093.74	35.1636
1096.63	74.2817
1099.52	121.082
1102.42	138.373
1105.31	129.343
1108.2	122.143
1111.1	174.289
1113.99	137.84
1116.88	154.417
1119.77	118.846
1122.67	140.695
1125.56	167.051
1128.45	181.767
1131.34	178.977
1134.24	57.5376
1137.13	63.3154
1140.02	5.94629
1142.91	56.9228
1145.81	16.272
1148.7	31.2168
1151.59	4.44189
1154.49	38.2295
1157.38	86.9751
1160.27	26.602
1163.16	20.0747
1166.06	76.6865
1168.95	52.3716
1171.84	9.9917
1174.73	44.0332
1177.63	76.2969
1180.52	64.5981
1183.41	60.2544
1186.31	33.852
1189.2	86.9233
1192.09	53.1304
1194.98	89.5049
1197.88	56.6445
1200.77	108.643
1203.66	58.3745
1206.55	96.8301
1209.45	125.548
1212.34	46.6465
1215.23	116.128
1218.12	68.7446
1221.02	109.816
1223.91	42.1118
1226.8	59.2822
1229.7	56.6582
1232.59	32.606
1235.48	12.7236
