Measurement: Raman, 780 nm, unoriented, Raman Data Processed
Mineral: Diopside
Rruff sample: R040009
Ideal chemistry: CaMgSi_2_O_6_
Locality: Otter Lake, Quebec, Canada
Source: University of Arizona Mineral Museum
Description: Green square prismatic crystal associated with pale orange calcite
Measured chemistry: (Ca_0.97_Fe_0.02_Na_0.01_)_Σ=1_(Mg_0.97_Fe_0.02_Al_0.01_)_Σ=1_Si_2.00_O_6_; trace amounts of Mn and Ti
Raman shift (cm-1)	intensity
113.313	0
116.205	0.746582
119.098	10.6863
121.991	19.4558
124.883	45.9187
127.776	78.3716
130.669	125.316
133.561	215.862
136.454	366.739
139.347	542.692
142.24	285.224
145.132	79.4058
148.025	23.3108
150.918	5.85986
153.81	6.53711
156.703	1.58643
159.596	2.59888
162.488	24.9773
165.381	45.8606
168.274	32.2585
171.167	9.97559
174.059	23.0427
176.952	46.9539
179.845	100.232
182.737	126.484
185.63	36.1516
188.523	37.0449
191.416	55.4128
194.308	97.8682
197.201	72.6023
200.094	26.8584
202.986	2.52173
205.879	5.70728
208.772	13.6291
211.664	41.5999
214.557	36.6331
217.45	50.2844
220.343	78.511
223.235	110.604
226.128	179.916
229.021	270.665
231.913	234.842
234.806	140.28
237.699	69.8945
240.591	51.3787
243.484	48.5215
246.377	49.2302
249.269	56.1802
252.162	84.8157
255.055	98.5745
257.948	43.5994
260.84	16.0149
263.733	1.20337
266.626	1.9646
269.518	8.1936
272.411	4.04126
275.304	7.052
278.197	10.1999
281.089	1.47046
283.982	11.8227
286.875	18.4241
289.767	31.2231
292.66	46.5437
295.553	91.3621
298.445	144.417
301.338	240.139
304.231	315.854
307.123	348.473
310.016	412.722
312.909	517.474
315.802	643.85
318.694	861.992
321.587	1219.74
324.48	1386.2
327.372	953.09
330.265	506.641
333.158	297.966
336.05	207.842
338.943	170.554
341.836	179.028
344.729	185.097
347.621	239.757
350.514	311.32
353.407	405.079
356.299	497.636
359.192	438.724
362.085	334.462
364.978	313.143
367.87	348.185
370.763	338.962
373.656	324.031
376.548	344.986
379.441	416.065
382.334	534.502
385.226	749.907
388.119	1062.32
391.012	1203.73
393.904	794.928
396.797	391.148
399.69	189.58
402.583	87.3772
405.475	41.2554
408.368	23.5034
411.261	8.87354
414.153	1.61475
417.046	1.81811
419.939	4.44434
422.832	10.3718
425.724	1.97632
428.617	1.7666
431.51	7.32886
434.402	5.55591
437.295	7.40186
440.188	7.02734
443.08	3.22095
445.973	8.33496
448.866	3.49194
451.759	10.0276
454.651	13.8884
457.544	17.3611
460.437	26.0061
463.329	44.4099
466.222	45.4512
469.115	28.5452
472.007	17.4797
474.9	4.22021
477.793	8.6831
480.685	1.43262
483.578	0.559814
486.471	9.61816
489.364	2.67334
492.256	1.68066
495.149	2.94019
498.042	7.97559
500.934	11.2898
503.827	10.4907
506.72	23.6182
509.613	41.7349
512.505	59.6658
515.398	79.2615
518.291	75.5754
521.183	62.529
524.076	71.4451
526.969	97.071
529.861	117.071
532.754	93.3979
535.647	61.5803
538.539	43.1462
541.432	48.7495
544.325	47.2883
547.218	56.9893
550.11	58.0789
553.003	77.7515
555.896	115.393
558.788	134.972
561.681	109.034
564.574	65.2686
567.466	34.3623
570.359	19.4145
573.252	17.4106
576.145	11.7134
579.037	1.99707
581.93	2.16675
584.823	5.72021
587.715	1.66846
590.608	2.98926
593.501	5.28296
596.393	0.012939
599.286	2.77808
602.179	3.26465
605.072	0.597412
607.964	0.239502
610.857	0.8125
613.75	0.773682
616.642	4.71777
619.535	5.67896
622.428	9.55493
625.32	13.7112
628.213	26.2756
631.106	26.5078
633.999	35.2944
636.891	47.2944
639.784	61.4346
642.677	76.667
645.569	112.977
648.462	178.879
651.355	253.186
654.247	346.567
657.14	457.49
660.033	631.661
662.926	879.888
665.818	1055.53
668.711	881.017
671.604	537.254
674.496	293.834
677.389	182.73
680.282	113.571
683.174	81.7217
686.067	53.0354
688.96	40.0449
691.852	41.1753
694.745	36.7583
697.638	33.3833
700.531	28.2507
703.423	43.8203
706.316	36.1926
709.209	27.9163
712.101	22.1848
714.994	18.6619
717.887	8.4956
720.779	9.1604
723.672	19.6719
726.565	11.8965
729.458	1.646
732.35	2.14331
735.243	10.5325
738.136	4.66919
741.028	0.41748
743.921	3.07007
746.814	3.7655
749.707	1.6792
752.599	7.49817
755.492	0.848999
758.385	0.029785
761.277	3.55493
764.17	3.07605
767.063	4.4353
769.955	1.93652
772.848	13.3592
775.741	6.78638
778.634	3.37537
781.526	8.65124
784.419	8.17114
787.312	7.22119
790.204	0.824829
793.097	7.64844
795.99	16.3655
798.882	13.8906
801.775	2.36816
804.668	11.0431
807.561	4.87207
810.453	2.34778
813.346	12.0245
816.239	4.87891
819.131	8.42102
822.024	9.02307
824.917	12.486
827.809	13.042
830.702	3.19055
833.595	7.49841
836.487	10.4367
839.38	17.3801
842.273	24.2565
845.166	43.7357
848.058	37.9235
850.951	58.8989
853.844	69.0455
856.736	68.8922
859.629	46.9296
862.522	41.0739
865.415	33.3517
868.307	40.9393
871.2	26.9436
874.093	26.8676
876.985	22.1107
879.878	25.3811
882.771	17.7587
885.663	12.9032
888.556	30.0265
891.449	25.7295
894.342	17.2686
897.234	17.9136
900.127	15.9337
903.02	23.0297
905.912	18.0736
908.805	17.4221
911.698	30.141
914.591	27.4592
917.483	16.7206
920.376	18.5355
923.269	20.4984
926.161	8.03345
929.054	3.37244
931.947	3.6167
934.839	2.83008
937.732	5.99255
940.625	4.96643
943.517	2.51843
946.41	3.02002
949.303	6.04883
952.196	2.42395
955.088	3.72144
957.981	10.0516
960.874	8.78284
963.766	17.8369
966.659	26.8079
969.552	35.2821
972.444	39.3433
975.337	40.6237
978.23	47.3282
981.122	45.1461
984.015	53.0005
986.908	71.0169
989.801	87.9279
992.693	138.899
995.586	217.079
998.479	378.197
1001.37	542.939
1004.26	726.591
1007.16	1042.81
1010.05	1500.89
1012.94	1861.61
1015.84	1283.96
1018.73	588.697
1021.62	289.975
1024.51	164.642
1027.41	103.497
1030.3	78.9196
1033.19	72.1987
1036.08	51.321
1038.98	54.1207
1041.87	59.4447
1044.76	59.3828
1047.65	68.2703
1050.55	43.865
1053.44	18.3213
1056.33	6.07678
1059.22	15.9788
1062.12	7.4126
1065.01	0.436401
1067.9	10.0397
1070.8	0.061768
1073.69	0.739868
1076.58	1.23755
1079.47	3.05554
1082.37	6.92578
1085.26	21.967
1088.15	27.0553
1091.05	42.6883
1093.94	61.522
1096.83	113.177
1099.72	121.986
1102.62	147.226
1105.51	201.46
1108.4	219.872
1111.29	250.628
1114.19	244.179
1117.08	226.549
1119.97	207.307
1122.87	171.21
1125.76	150.152
1128.65	117.769
1131.54	93.4452
1134.44	63.9966
1137.33	49.1412
1140.22	36.1349
1143.11	41.5712
1146.01	25.7301
1148.9	12.7444
1151.79	10.9011
1154.68	9.46875
1157.58	14.6888
1160.47	11.6549
1163.36	20.1586
1166.26	26.2438
1169.15	23.1604
1172.04	31.0689
1174.93	31.8709
1177.83	43.6533
1180.72	32.791
1183.61	32.1074
1186.5	13.5452
1189.4	22.6746
1192.29	16.7937
1195.18	16.583
1198.08	3.7804
1200.97	5.82752
1203.86	1.54102
1206.75	6.66614
1209.65	4.94495
1212.54	1.797
1215.43	6.27368
1218.32	10.2068
1221.22	0.963867
1224.11	0.947021
1227	8.92236
1229.89	30.3394
1232.79	10.2384
1235.68	8.09546
1238.57	6.27026
1241.46	5.24524
1244.36	3.04333
1247.25	12.1012
1250.14	3.77026
1253.04	5.84473
