Measurement: Raman, 785 nm, unoriented, Raman Data Processed
Mineral: Diopside
Rruff sample: R070123
Ideal chemistry: CaMgSi_2_O_6_
Locality: Yates mine, Otter Lake, Huddersfield Township, Pontiac County, Québec, Canada
Source: Michael Scott
Description: Black prismatic crystals associated with orange calcite
Measured chemistry: (Ca_0.95_Na_0.04_Mn_0.01_)_Σ=1_(Mg_0.63_Fe_0.33_Al_0.04_)_Σ=1_Si_2.00_O_6_
Raman shift (cm-1)	intensity
164.701	0
167.593	24.8023
170.486	98.6534
173.379	141.72
176.271	202.381
179.164	158.583
182.057	222.201
184.949	212.044
187.842	236.589
190.735	237.614
193.627	258.958
196.52	253.694
199.413	211.408
202.306	172.252
205.198	141.573
208.091	154.484
210.984	125.271
213.876	82.2849
216.769	97.7213
219.662	80.2997
222.554	115.727
225.447	140.388
228.34	164.478
231.233	171.8
234.125	134.77
237.018	123.806
239.911	137.217
242.803	125.873
245.696	96.0763
248.589	87.3937
251.482	62.5394
254.374	75.5072
257.267	62.0392
260.16	34.0352
263.052	15.2565
265.945	10.8217
268.838	27.7991
271.73	26.9486
274.623	7.29382
277.516	56.5333
280.409	22.8833
283.301	2.5083
286.194	25.5276
289.087	30.1176
291.979	22.7977
294.872	81.4683
297.765	121.791
300.657	135.031
303.55	182.902
306.443	232.5
309.336	319.39
312.228	392.419
315.121	514.687
318.014	618.437
320.906	644.194
323.799	614.794
326.692	539.226
329.584	424.61
332.477	337.724
335.37	309.89
338.262	279.107
341.155	281.871
344.048	377.034
346.941	383.237
349.833	488.506
352.726	532.231
355.619	529.194
358.511	433.198
361.404	373.444
364.297	370.389
367.19	374.103
370.082	418.071
372.975	525.803
375.868	639.366
378.76	787.585
381.653	936.648
384.546	1093.76
387.438	1088.69
390.331	946.941
393.224	611.08
396.116	336.336
399.009	187.653
401.902	93.2549
404.795	50.3402
407.687	36.5889
410.58	14.2394
413.473	12.481
416.365	23.2614
419.258	14.3604
422.151	15.2978
425.043	31.2788
427.936	27.7913
430.829	6.06036
433.722	1.33734
436.614	9.9444
439.507	16.4512
442.4	54.5203
445.292	38.9686
448.185	29.0546
451.078	48.0305
453.971	80.7222
456.863	85.236
459.756	82.3227
462.649	83.0662
465.541	67.2849
468.434	63.6698
471.327	60.4271
474.219	72.579
477.112	44.167
480.005	6.86175
482.897	1.61591
485.79	19.6839
488.683	16.8908
491.576	21.8152
494.468	36.6748
497.361	61.1046
500.254	40.1522
503.146	119.124
506.039	122.407
508.932	174.199
511.824	207.611
514.717	216.278
517.61	291.818
520.503	294.995
523.395	307.716
526.288	364.577
529.181	355.053
532.073	373.911
534.966	343.543
537.859	381.276
540.751	365.832
543.644	387.665
546.537	378.101
549.43	424.754
552.322	414.691
555.215	439.305
558.108	454.052
561	463.058
563.893	385.337
566.786	334.435
569.678	312.649
572.571	273.537
575.464	187.408
578.356	172.061
581.249	139.981
584.142	86.406
587.035	66.5674
589.927	70.9406
592.82	18.2026
595.713	23.6519
598.605	31.0545
601.498	9.09204
604.391	7.94348
607.284	20.1328
610.176	8.46289
613.069	25.8523
615.962	21.6913
618.854	15.4331
621.747	14.4346
624.64	1.0575
627.532	54.3629
630.425	64.6585
633.318	78.8195
636.211	102.101
639.103	111.678
641.996	137.723
644.889	215.37
647.781	285.563
650.674	412.267
653.567	577.206
656.459	818.666
659.352	1073.16
662.245	1405.73
665.138	1562.44
668.03	1341.22
670.923	939.282
673.816	581.776
676.708	422.925
679.601	286.455
682.494	198.177
685.386	150.324
688.279	116.629
691.172	92.9859
694.064	90.5779
696.957	80.5303
699.85	83.6877
702.743	82.2867
705.635	41.3141
708.528	40.363
711.421	26.9865
714.313	35.8744
717.206	18.5612
720.099	14.6007
722.991	24.7578
725.884	14.2719
728.777	23.8047
731.67	0.984802
734.562	28.6042
737.455	1.50635
740.348	23.9836
743.24	2.06317
746.133	17.6996
749.026	10.3643
751.918	4.54663
754.811	4.85974
757.704	17.0764
760.597	33.8646
763.489	28.8477
766.382	50.1409
769.275	39.5186
772.167	2.42432
775.06	18.4524
777.953	18.1852
780.846	18.9086
783.738	13.8414
786.631	16.87
789.524	20.1984
792.416	39.493
795.309	13.6365
798.202	19.0521
801.094	33.6505
803.987	28.6225
806.88	6.18439
809.773	10.0453
812.665	1.56879
815.558	30.1536
818.451	20.4993
821.343	34.0334
824.236	13.8685
827.129	12.6161
830.021	24.679
832.914	56.9935
835.807	33.8406
838.699	14.335
841.592	35.3532
844.485	37.0519
847.378	63.777
850.27	87.885
853.163	138.24
856.056	193.507
858.948	120.849
861.841	63.9852
864.734	69.6791
867.626	7.17731
870.519	41.8799
873.412	2.79974
876.305	43.3889
879.197	31.4731
882.09	0.182068
884.983	27.0578
887.875	12.6195
890.768	38.1306
893.661	22.4855
896.553	54.8518
899.446	69.1445
902.339	78.0182
905.232	92.0624
908.124	51.3644
911.017	64.6179
913.91	83.7974
916.802	141.545
919.695	73.8565
922.588	77.4618
925.481	86.0368
928.373	67.5318
931.266	82.1628
934.159	30.4205
937.051	37.3243
939.944	8.56256
942.837	53.7027
945.729	14.1265
948.622	15.0383
951.515	18.7794
954.407	0.27655
957.3	32.0594
960.193	7.28967
963.086	53.5085
965.978	11.3478
968.871	11.0391
971.764	32.743
974.656	66.7968
977.549	23.7953
980.442	41.0501
983.334	38.5853
986.227	63.6948
989.12	54.3596
992.013	106.452
994.905	120.555
997.798	295.709
1000.69	425.68
1003.58	656.867
1006.48	975.283
1009.37	1360.15
1012.26	1648.28
1015.15	1530.74
1018.05	969.234
1020.94	545.4
1023.83	324.187
1026.72	230.463
1029.62	155.143
1032.51	150.994
1035.4	221.424
1038.3	169.831
1041.19	159.178
1044.08	178.291
1046.97	207.541
1049.87	141.438
1052.76	123.394
1055.65	105.503
1058.55	87.1766
1061.44	58.5483
1064.33	25.7405
1067.22	28.8839
1070.12	21.9251
1073.01	29.1756
1075.9	34.6129
1078.79	57.1681
1081.69	23.8588
1084.58	50.8561
1087.47	28.7961
1090.36	41.1741
1093.26	21.5511
1096.15	19.9977
1099.04	12.0783
1101.93	44.4159
1104.83	21.6757
1107.72	6.73621
1110.61	21.8766
1113.51	17.5731
1116.4	21.3756
1119.29	16.6218
1122.18	16.307
1125.08	23.3215
1127.97	26.043
1130.86	2.30402
1133.76	9.04675
1136.65	13.5352
1139.54	0.399353
1142.43	3.21857
1145.33	11.1819
1148.22	3.0827
1151.11	20.7499
1154	23.2834
1156.9	2.42358
1159.79	13.0605
1162.68	9.07001
1165.57	31.5327
1168.47	42.4932
1171.36	46.9322
1174.25	26.3998
1177.14	14.2189
1180.04	19.058
1182.93	45.5724
1185.82	6.71551
1188.72	57.0926
1191.61	9.7359
1194.5	8.10675
1197.39	6.65387
1200.29	30.0307
1203.18	54.4011
1206.07	60.9257
1208.96	27.9604
1211.86	39.2077
1214.75	57.7876
1217.64	13.6684
1220.54	48.1089
1223.43	34.6945
1226.32	8.5506
1229.21	11.9314
