Measurement: Raman, 532 nm, unoriented, Raman Data Processed
Mineral: Diopside
Rruff sample: R070123
Ideal chemistry: CaMgSi_2_O_6_
Locality: Yates mine, Otter Lake, Huddersfield Township, Pontiac County, Québec, Canada
Source: Michael Scott
Description: Black prismatic crystals associated with orange calcite
Measured chemistry: (Ca_0.95_Na_0.04_Mn_0.01_)_Σ=1_(Mg_0.63_Fe_0.33_Al_0.04_)_Σ=1_Si_2.00_O_6_
Raman shift (cm-1)	intensity
139.093	0
142.468	15.2016
145.843	2.26556
149.217	0.870605
152.592	11.4168
155.967	31.0328
159.342	80.3151
162.717	88.8281
166.091	127.863
169.466	128.821
172.841	190.981
176.216	269.547
179.591	258.214
182.966	262.705
186.34	262.221
189.715	300.7
193.09	250.353
196.465	232.2
199.84	186.173
203.214	167.487
206.589	157.78
209.964	114.198
213.339	106.91
216.714	124.421
220.089	152.743
223.463	185.323
226.838	214.467
230.213	249.806
233.588	245.17
236.963	165.574
240.338	132.769
243.712	128.317
247.087	131.769
250.462	114.208
253.837	89.728
257.212	90.8576
260.587	12.6054
263.961	7.62769
267.336	7.77661
270.711	31.2675
274.086	20.147
277.461	26.8475
280.835	3.40271
284.21	30.5135
287.585	69.6708
290.96	143.678
294.335	200.651
297.709	312.235
301.084	468.21
304.459	716.595
307.834	1048.76
311.209	1504.82
314.584	2035.13
317.958	2537.06
321.333	2589.59
324.708	2020.02
328.083	1469.05
331.458	1081.14
334.832	880.677
338.207	796.274
341.582	812.475
344.957	952.711
348.332	1094.54
351.707	1226.43
355.081	1148.14
358.456	943.868
361.831	796.533
365.206	796.908
368.581	885.657
371.955	1108.79
375.33	1531.65
378.705	2037.89
382.08	2620.78
385.455	2948.17
388.83	2565.79
392.204	1617.23
395.579	857.226
398.954	450.863
402.329	192.859
405.704	121.064
409.079	72.9574
412.453	30.3896
415.828	14.6594
419.203	11.7405
422.578	5.77332
425.952	9.20569
429.327	12.4147
432.702	34.7808
436.077	19.3538
439.452	3.20044
442.827	21.1202
446.202	57.6691
449.576	95.7296
452.951	117.393
456.326	129.658
459.701	131.785
463.076	90.2614
466.45	37.5664
469.825	54.7835
473.2	28.0566
476.575	54.027
479.95	16.0156
483.325	30.7492
486.699	32.049
490.074	65.7422
493.449	122.504
496.824	187.352
500.199	330.404
503.573	432.616
506.948	432.209
510.323	397.324
513.698	354.723
517.073	295.178
520.447	298.177
523.822	308.512
527.197	309.498
530.572	303.675
533.947	259.307
537.322	281.18
540.696	281.618
544.071	309.029
547.446	404.454
550.821	506.157
554.196	604.059
557.571	653.165
560.945	451.437
564.32	336.079
567.695	244.179
571.07	150.936
574.445	124.084
577.819	104.284
581.194	35.6382
584.569	33.0065
587.944	10.8276
591.319	3.06982
594.693	15.5854
598.068	19.984
601.443	12.0086
604.818	15.7104
608.193	23.8385
611.568	15.922
614.942	50.1544
618.317	68.5148
621.692	103.875
625.067	152.201
628.442	193.286
631.817	259.388
635.191	322.748
638.566	421.58
641.941	569.709
645.316	836.982
648.691	1350
652.065	2228.46
655.44	3601.66
658.815	5124.06
662.19	6516.79
665.565	6535.09
668.939	4667.06
672.314	2710.69
675.689	1552.62
679.064	967.001
682.439	625.47
685.814	439.848
689.188	343.591
692.563	265.159
695.938	221.008
699.313	210.721
702.688	177.178
706.062	185.761
709.437	115.295
712.812	127.769
716.187	88.6518
719.562	52.8519
722.937	47.1907
726.311	27.4383
729.686	8.50348
733.061	12.4506
736.436	5.65793
739.811	24.3759
743.186	0.847382
746.56	7.59171
749.935	17.0275
753.31	8.01834
756.685	22.9622
760.06	30.4936
763.434	49.8634
766.809	64.107
770.184	35.2582
773.559	34.583
776.934	36.0227
780.308	50.919
783.683	40.0587
787.058	23.8245
790.433	26.6741
793.808	40.5681
797.183	2.76013
800.557	5.99762
803.932	6.24451
807.307	6.45608
810.682	5.69803
814.057	4.07221
817.432	26.1129
820.806	38.8463
824.181	32.3862
827.556	0.787964
830.931	3.0105
834.306	23.7881
837.68	23.9748
841.055	33.8271
844.43	135.554
847.805	232.847
851.18	330.146
854.554	425.964
857.929	357.994
861.304	266.704
864.679	198.328
868.054	171.88
871.429	155.354
874.803	156.31
878.178	173.669
881.553	209.005
884.928	219.207
888.303	262.139
891.678	256.421
895.052	246.314
898.427	225.598
901.802	217.644
905.177	214.343
908.552	178.645
911.927	151.507
915.301	155.886
918.676	113.484
922.051	106.561
925.426	92.3829
928.801	52.0147
932.175	16.9513
935.55	6.68408
938.925	10.0214
942.3	10.2659
945.675	6.76392
949.049	4.79956
952.424	24.2274
955.799	53.7288
959.174	126.821
962.549	124.97
965.923	148.925
969.298	167.317
972.673	188.507
976.048	231.806
979.423	271.73
982.798	291.698
986.172	402.224
989.547	516.19
992.922	748.359
996.297	1192.83
999.672	2014.97
1003.05	3559.02
1006.42	5908.46
1009.8	8054.85
1013.17	8355.2
1016.55	5791.61
1019.92	2894.52
1023.29	1597.17
1026.67	1030.23
1030.05	763.956
1033.42	653.14
1036.8	609.508
1040.17	599.81
1043.54	546.47
1046.92	430.051
1050.29	307.375
1053.67	201.809
1057.04	155.405
1060.42	100.861
1063.79	37.068
1067.17	26.6789
1070.54	10.9162
1073.92	0.054626
1077.29	6.78375
1080.67	5.078
1084.04	0.829712
1087.42	6.12787
1090.79	11.8245
1094.17	9.8327
1097.54	7.83374
1100.92	0.898376
1104.29	24.5096
1107.67	1.15704
1111.04	7.5675
1114.42	39.5878
1117.79	34.4955
1121.16	38.5014
1124.54	48.7354
1127.91	39.177
1131.29	61.8286
1134.66	58.2573
1138.04	52.2054
1141.41	45.4071
1144.79	19.1823
1148.16	16.663
1151.54	6.52188
1154.91	13.6196
1158.29	8.85812
1161.66	15.8402
1165.04	7.86935
1168.41	4.82639
1171.79	24.2996
1175.16	30.0909
1178.54	26.876
1181.91	19.0403
1185.29	27.2252
1188.66	14.8298
1192.04	36.1122
1195.41	28.1986
1198.79	46.0373
1202.16	42.2646
1205.54	53.2113
1208.91	28.4869
1212.29	27.8209
1215.66	42.7117
1219.04	26.331
1222.41	46.4773
1225.79	38.2465
1229.16	21.0099
1232.53	37.3512
1235.91	37.8099
1239.28	25.0975
1242.66	13.1234
1246.03	14.4591
1249.41	32.8279
1252.78	43.6641
1256.16	25.8423
1259.53	23.976
1262.91	45.6617
1266.28	18.4511
1269.66	36.6265
1273.03	28.4876
1276.41	36.1748
1279.78	20.5129
1283.16	28.9257
1286.53	12.6578
1289.91	32.136
1293.28	22.8799
1296.66	0.07489
1300.03	13.9322
