Measurement: Raman, 514 nm, unoriented, Raman Data Processed
Mineral: Diopside
Rruff sample: R040009
Ideal chemistry: CaMgSi_2_O_6_
Locality: Otter Lake, Quebec, Canada
Source: University of Arizona Mineral Museum
Description: Green square prismatic crystal associated with pale orange calcite
Measured chemistry: (Ca_0.97_Fe_0.02_Na_0.01_)_Σ=1_(Mg_0.97_Fe_0.02_Al_0.01_)_Σ=1_Si_2.00_O_6_; trace amounts of Mn and Ti
Raman shift (cm-1)	intensity
115.644	0
119.813	22.049
123.981	41.702
128.146	608.23
132.309	2238.47
136.47	4973.43
140.63	6542.53
144.787	3004.46
148.942	1063.31
153.096	351.213
157.247	162.223
161.396	220.318
165.544	436.724
169.689	128.736
173.833	130.63
177.974	213.625
182.114	177.666
186.251	87.648
190.387	90.751
194.52	225.205
198.652	51.707
202.782	2.518
206.909	23.812
211.035	28.885
215.159	33.873
219.281	181.109
223.4	642.533
227.518	1607.15
231.634	1604.93
235.748	636.625
239.86	172.2
243.97	229.592
248.079	261.464
252.185	224.884
256.289	248.226
260.391	17.486
264.492	46.336
268.59	53.221
272.687	49.037
276.781	9.419
280.874	85.285
284.964	176.033
289.053	216.291
293.14	518.313
297.225	640.444
301.308	1309.14
305.389	1032.16
309.468	906.948
313.545	1598.59
317.62	3451.52
321.693	6625.82
325.765	6673.68
329.834	3162.07
333.902	1824.4
337.967	1034.22
342.031	844.87
346.093	1213.8
350.153	1863.08
354.21	3725.04
358.267	4604.98
362.321	3325.7
366.373	2963.79
370.423	2213.36
374.471	1615.32
378.518	1866.92
382.563	3687.23
386.605	7790.4
390.646	10719.6
394.685	6178.54
398.722	2598.42
402.757	1124.2
406.79	708.906
410.821	361.979
414.851	276.711
418.878	198.128
422.904	256.254
426.927	203.089
430.949	24.294
434.969	181.596
438.987	80.432
443.003	111.063
447.018	118.832
451.03	102.462
455.041	331.968
459.049	62.446
463.056	250.406
467.061	246.273
471.064	101.964
475.065	46.494
479.064	10.741
483.062	67.813
487.057	161.751
491.051	145.644
495.043	118.384
499.032	4.919
503.02	77.567
507.007	286.972
510.991	342.233
514.973	324.353
518.954	455.321
522.933	465.138
526.91	601.797
530.885	525.338
534.858	392.391
538.829	331.761
542.799	222.055
546.766	271.162
550.732	330.083
554.696	935.173
558.658	1357.42
562.618	763.88
566.576	239.414
570.533	158.813
574.488	64.146
578.44	79.938
582.391	139.595
586.341	47.571
590.288	224.76
594.233	142.808
598.177	148.393
602.119	107.451
606.059	121.508
609.997	110.82
613.933	268.822
617.868	220.846
621.801	274.23
625.731	389.379
629.66	556.076
633.588	803.32
637.513	684.217
641.437	831.496
645.358	995.66
649.278	1445.74
653.196	2363.42
657.113	4332.95
661.027	9227.01
664.94	15720.7
668.851	13468.9
672.76	6604.67
676.667	3275.68
680.572	1909.05
684.476	1289.93
688.378	726.869
692.278	785.266
696.176	708.389
700.072	487.23
703.967	461.801
707.86	663.002
711.751	482.031
715.64	255.773
719.527	41.25
723.413	285.396
727.297	96.713
731.179	250.648
735.059	243.982
738.937	197.844
742.814	52.693
746.689	233.213
750.562	21.652
754.433	60.092
758.303	33.59
762.17	51.123
766.036	76.408
769.901	18.008
773.763	35.32
777.624	205.311
781.482	81.617
785.339	5.51
789.195	24.309
793.048	41.492
796.9	38.215
800.75	184.723
804.598	54.137
808.445	283.852
812.289	25.646
816.132	231.791
819.973	44.598
823.813	103.211
827.65	9.537
831.486	297.639
835.32	27.527
839.152	210.186
842.983	610.676
846.812	913.979
850.639	1387.5
854.464	2641.44
858.288	2353.26
862.11	1010.01
865.93	849.225
869.748	639.844
873.564	402.064
877.379	360.754
881.192	273.557
885.004	313.582
888.813	344.094
892.621	209.16
896.427	247.988
900.232	514.98
904.034	425.395
907.835	307.174
911.634	300.051
915.432	408.479
919.227	242.506
923.021	271.85
926.813	347.406
930.604	293.375
934.393	232.867
938.18	64.801
941.965	177.83
945.749	394.791
949.53	249.463
953.311	154.016
957.089	258.389
960.866	161.494
964.641	402.453
968.414	364.443
972.185	479.09
975.955	291.824
979.723	352.375
983.49	653.131
987.254	1102.61
991.017	1275.47
994.779	1446.39
998.538	2000.38
1002.3	3429.1
1006.05	6163.92
1009.81	14493.3
1013.56	22424.8
1017.31	10878.6
1021.06	4414.91
1024.81	2338.89
1028.55	1640.12
1032.3	1332.03
1036.04	1399.48
1039.78	1250.53
1043.52	1233.5
1047.26	1538.96
1050.99	1582.28
1054.73	896.547
1058.46	685.521
1062.19	718.455
1065.92	1288.28
1069.65	566.154
1073.37	496.621
1077.1	415.268
1080.82	562.158
1084.54	253.955
1088.26	588.66
1091.97	254.166
1095.69	197.422
1099.4	120.971
1103.12	353.805
1106.83	316.908
1110.54	46.754
1114.24	109.627
1117.95	138.035
1121.65	70.797
1125.35	5.039
1129.06	151.371
1132.75	246.113
1136.45	29.652
1140.15	495.084
1143.84	166.383
1147.53	152.842
1151.22	180.174
1154.91	274.883
1158.6	56.861
1162.28	224.096
1165.97	203.088
1169.65	308.758
1173.33	125.131
1177.01	316.605
1180.69	235.07
1184.36	490.318
1188.04	161.598
1191.71	309.969
1195.38	235.262
1199.05	427.26
1202.71	379.299
1206.38	580.566
1210.04	55.445
1213.71	363.393
1217.37	416.998
1221.03	300.383
1224.68	366.037
1228.34	426.117
1231.99	564.729
1235.65	426.893
1239.3	497.16
1242.95	616.199
1246.59	303.977
1250.24	219.734
1253.88	128.922
1257.53	279.559
1261.17	316.762
1264.81	297.555
1268.45	368.48
1272.08	8.105
1275.72	269.906
1279.35	152.836
1282.98	180.777
1286.61	96.168
1290.24	239.27
1293.87	65.094
1297.49	207.465
1301.11	75.602
1304.73	185.047
1308.36	289.613
1311.97	289.551
1315.59	31.961
1319.2	53.809
1322.82	27.969
1326.43	216.539
1330.04	190.344
1333.65	202.805
1337.26	228.473
1340.86	192.273
1344.47	187.16
1348.07	290.246
1351.67	205.383
1355.27	364.605
1358.87	301.781
1362.46	343.305
1366.06	431.664
1369.65	232.535
1373.24	350.055
1376.83	327.199
1380.42	146.594
1384	314.559
1387.59	266.496
1391.17	364.504
1394.75	175.07
1398.33	247.484
1401.91	235.938
1405.49	449.641
1409.06	201.977
1412.64	312.559
1416.21	514.609
1419.78	491.914
1423.35	567.555
1426.91	394.863
1430.48	280.793
1434.05	264.148
1437.61	694.395
1441.17	408.332
1444.73	298.82
1448.29	582.758
1451.84	171.031
1455.4	561.941
1458.95	546.141
1462.5	786.812
1466.05	1000.12
1469.6	395.25
1473.15	493.707
1476.69	550.129
1480.24	669.938
1483.78	337.305
1487.32	267.176
1490.86	321.039
1494.39	679.023
1497.93	707.309
1501.46	35.785
1505	89.488
1508.53	86.961
1512.06	154.234
1515.59	632.137
1519.11	228.699
1522.64	265.621
