Measurement: Raman, 532 nm, unoriented, Raman Data Processed
Mineral: Diopside
Rruff sample: R060171
Ideal chemistry: CaMgSi_2_O_6_
Locality: Jeffrey mine, Asbestos, Quebec, Canada
Source: Guy Ouellet
Description: Yellowish-brown tabular crystals associated with vesuvianite, R060170
Measured chemistry: Ca_1.00_(Mg_0.98_Mn_0.02_)_Î£=1_Si_2.00_O_6_
Raman shift (cm-1)	intensity
135.583	0
138.958	13.7411
142.332	1.16471
145.707	2.41522
149.082	11.9452
152.457	26.0098
155.832	32.6752
159.207	37.175
162.581	53.2242
165.956	45.6699
169.331	45.96
172.706	56.5781
176.081	81.1835
179.455	111.009
182.83	80.3862
186.205	63.8548
189.58	77.5879
192.955	94.2606
196.329	56.3222
199.704	20.3934
203.079	10.2069
206.454	9.42328
209.829	7.78432
213.204	13.6378
216.578	25.1639
219.953	36.459
223.328	48.1869
226.703	66.6993
230.078	84.2356
233.452	87.2925
236.827	46.4903
240.202	32.4829
243.577	32.9414
246.952	36.6707
250.327	45.0605
253.701	45.0471
257.076	22.5029
260.451	7.20798
263.826	0.425247
267.201	2.89296
270.576	3.4484
273.95	4.04835
277.325	3.42448
280.7	1.2769
284.075	4.05612
287.45	11.7349
290.825	22.1606
294.199	38.4109
297.574	66.0754
300.949	107.436
304.324	180.089
307.699	300.338
311.073	404.863
314.448	509.235
317.823	671.96
321.198	817.783
324.573	622.967
327.947	242.115
331.322	106.131
334.697	59.7697
338.072	52.9524
341.447	60.2075
344.822	69.6851
348.196	92.8495
351.571	125.139
354.946	143.332
358.321	80.5652
361.696	48.6491
365.071	58.1478
368.445	95.7532
371.82	199.791
375.195	335.727
378.57	478.981
381.945	652.425
385.32	872.418
388.694	976.923
392.069	619.424
395.444	279.646
398.819	120.764
402.194	57.7555
405.568	31.8644
408.943	15.3545
412.318	13.4218
415.693	3.43736
419.068	0.638626
422.442	1.52319
425.817	1.66463
429.192	2.31152
432.567	2.78102
435.942	2.38985
439.317	0.467789
442.691	4.52757
446.066	9.75331
449.441	20.6551
452.816	29.8725
456.191	40.6944
459.566	53.7557
462.94	51.8343
466.315	29.1809
469.69	12.0307
473.065	5.90649
476.44	2.70042
479.815	2.44713
483.189	2.66927
486.564	1.69284
489.939	4.04155
493.314	4.57806
496.689	12.7169
500.063	18.4141
503.438	31.2249
506.813	45.7426
510.188	49.1793
513.563	49.9412
516.938	48.6197
520.312	55.2211
523.687	69.202
527.062	80.5113
530.437	63.6033
533.812	33.9146
537.187	20.1191
540.561	26.0348
543.936	48.2797
547.311	70.7231
550.686	101.73
554.061	144.064
557.435	169.467
560.81	102.53
564.185	36.1268
567.56	14.9567
570.935	8.32182
574.309	4.57222
577.684	1.40732
581.059	0.168747
584.434	0.379578
587.809	0.205566
591.184	1.39246
594.558	0.352112
597.933	0.452133
601.308	0.598801
604.683	0.263123
608.058	0.469803
611.433	1.71372
614.807	1.735
618.182	5.18446
621.557	7.40234
624.932	9.84244
628.307	13.7628
631.682	19.2841
635.056	26.4642
638.431	34.6178
641.806	53.0647
645.181	85.2893
648.556	148.882
651.93	252.052
655.305	376.423
658.68	527.343
662.055	677.364
665.43	672.728
668.804	421.736
672.179	211.007
675.554	113.944
678.929	66.8979
682.304	42.7402
685.679	29.0343
689.053	20.3958
692.428	15.4379
695.803	10.2625
699.178	8.58806
702.553	7.44498
705.928	9.43776
709.302	4.08633
712.677	0.974701
716.052	1.11562
719.427	1.21139
722.802	0.329529
726.177	0.193848
729.551	1.24258
732.926	0.419785
736.301	0.532898
739.676	0.586182
743.051	1.13866
746.425	0.830856
749.8	0.61525
753.175	0.079697
756.55	0.995132
759.925	0.054428
763.299	1.52445
766.674	1.45476
770.049	2.49025
773.424	1.60324
776.799	2.18474
780.174	1.64078
783.548	1.549
786.923	1.8911
790.298	0.030533
793.673	0.717422
797.048	0.677521
800.423	1.7952
803.797	2.10078
807.172	0.215393
810.547	1.36711
813.922	2.00578
817.297	0.402588
820.671	0.533173
824.046	0.947952
827.421	1.38968
830.796	2.05826
834.171	2.50796
837.545	3.97769
840.92	4.97996
844.295	9.3428
847.67	11.2985
851.045	16.3878
854.42	14.9665
857.794	8.28439
861.169	4.91368
864.544	2.51544
867.919	1.16048
871.294	1.28018
874.669	0.375687
878.043	0.815079
881.418	0.925568
884.793	1.55443
888.168	1.11731
891.543	0.316666
894.918	0.256561
898.292	1.37766
901.667	1.78313
905.042	3.30676
908.417	3.91074
911.792	3.80721
915.166	3.54932
918.541	2.45017
921.916	1.59163
925.291	1.43202
928.666	0.903244
932.04	1.43858
935.415	0.202744
938.79	0.93483
942.165	1.11246
945.54	0.251526
948.915	0.377457
952.289	0.546097
955.664	3.42946
959.039	5.11302
962.414	8.7
965.789	11.0284
969.164	11.3251
972.538	11.8957
975.913	15.0576
979.288	21.3134
982.663	28.8568
986.038	38.7863
989.413	58.1101
992.787	96.3317
996.162	178.392
999.537	394.56
1002.91	781.683
1006.29	1248.62
1009.66	1823.66
1013.04	1845.27
1016.41	876.322
1019.79	338.561
1023.16	168.378
1026.54	108.104
1029.91	80.1912
1033.29	71.6743
1036.66	79.0987
1040.04	93.9302
1043.41	115.655
1046.78	121.736
1050.16	71.0961
1053.53	27.7305
1056.91	14.2111
1060.28	6.51675
1063.66	5.06339
1067.03	4.08249
1070.41	3.12296
1073.78	1.56778
1077.16	0.33374
1080.53	0.735596
1083.91	1.02777
1087.28	0.820526
1090.66	0.164551
1094.03	0.616425
1097.41	0.211334
1100.78	0.148071
1104.16	1.08975
1107.53	0.347839
1110.91	1.36905
1114.28	1.65122
1117.66	1.96655
1121.03	2.26953
1124.4	1.69144
1127.78	1.54388
1131.15	3.93521
1134.53	3.61938
1137.9	3.00671
1141.28	3.1239
1144.65	2.32095
1148.03	2.88425
1151.4	1.4906
1154.78	0.983795
1158.15	0.774384
1161.53	0.432343
1164.9	1.8057
1168.28	0.771393
1171.65	2.00211
1175.03	0.683746
1178.4	6.07452
1181.78	0.06897
1185.15	1.04205
1188.53	0.893738
1191.9	2.03934
1195.28	1.36899
1198.65	3.83817
1202.03	0.032196
1205.4	7.08304
1208.78	0.997101
1212.15	0.079224
1215.53	0.136383
1218.9	1.70563
1222.28	1.9241
1225.65	3.74258
1229.03	1.97296
1232.4	2.07419
1235.77	1.849
1239.15	1.00571
1242.52	0.28418
1245.9	0.565094
1249.27	0.516449
1252.65	0.705353
1256.02	1.22974
1259.4	1.2717
1262.77	0.605103
1266.15	2.4881
1269.52	3.15002
1272.9	2.32117
1276.27	2.23209
1279.65	2.1189
1283.02	1.31625
1286.4	1.24136
1289.77	2.70694
1293.15	3.13507
1296.52	0.79187
1299.9	0.055756
