Measurement: Raman, 532 nm, unoriented, Raman Data Processed
Mineral: Diopside
Rruff sample: R120003
Ideal chemistry: CaMgSi_2_O_6_
Locality: Chifeng, Inner Mongolia
Source: Jack Lowell
Description: Massive aggregate of pale yellow-green prismatic crystals overlain by dark green andradite R120004
Raman shift (cm-1)	intensity
90.4922	0
93.867	0.150036
97.2418	1.39452
100.617	2.45023
103.992	5.85149
107.366	8.40082
110.741	11.0762
114.116	12.8735
117.491	14.9332
120.865	20.2172
124.24	27.4624
127.615	24.6492
130.99	21.0783
134.365	16.9408
137.74	13.0569
141.114	9.20689
144.489	4.2726
147.864	0.72014
151.239	1.49553
154.614	2.54689
157.988	0.900198
161.363	5.55175
164.738	17.066
168.113	30.5184
171.488	40.0978
174.863	47.9074
178.237	62.3221
181.612	79.4071
184.987	76.4946
188.362	76.3295
191.737	81.1119
195.112	88.0046
198.486	79.443
201.861	76.7997
205.236	74.1135
208.611	73.9291
211.986	69.7077
215.36	69.8836
218.735	74.0455
222.11	80.6842
225.485	91.2414
228.86	104.277
232.234	108.263
235.609	91.9839
238.984	61.3336
242.359	46.6081
245.734	41.7653
249.109	38.9667
252.483	40.5613
255.858	35.0212
259.233	21.0271
262.608	14.1758
265.983	7.92152
269.358	4.14323
272.732	1.55017
276.107	1.28325
279.482	1.96286
282.857	1.95389
286.232	2.94269
289.606	0.199432
292.981	4.27306
296.356	13.9851
299.731	27.6329
303.106	47.1932
306.481	61.8178
309.855	98.5347
313.23	140.215
316.605	199.085
319.98	307.06
323.355	401.58
326.729	270.583
330.104	107.19
333.479	47.1378
336.854	29.5992
340.229	25.3023
343.603	31.4843
346.978	44.4982
350.353	71.8992
353.728	109.418
357.103	122.285
360.478	95.8516
363.852	93.4729
367.227	116.688
370.602	121.536
373.977	113.081
377.352	124.494
380.726	163.613
384.101	244.051
387.476	365.162
390.851	381.421
394.226	189.844
397.601	70.6678
400.975	29.8519
404.35	12.7664
407.725	5.41249
411.1	1.62189
414.475	0.305344
417.849	1.54997
421.224	0.931259
424.599	0.88797
427.974	1.11914
431.349	1.53084
434.724	0.744293
438.098	0.092911
441.473	0.908737
444.848	3.06911
448.223	3.64435
451.598	6.66644
454.972	5.33841
458.347	7.63628
461.722	10.7048
465.097	9.86206
468.472	6.12079
471.846	5.97432
475.221	4.7202
478.596	5.19301
481.971	6.87251
485.346	7.64087
488.721	6.10234
492.095	9.45851
495.47	9.68486
498.845	11.6318
502.22	15.2578
505.595	23.8914
508.969	31.3256
512.344	36.5269
515.719	43.5519
519.094	35.9425
522.469	29.0944
525.844	32.9829
529.218	35.7643
532.593	25.6663
535.968	13.9697
539.343	8.64385
542.718	5.0975
546.092	7.04544
549.467	8.29578
552.842	11.3449
556.217	15.1919
559.592	16.5087
562.967	9.3528
566.341	3.37027
569.716	2.5873
573.091	1.52609
576.466	0.535751
579.841	0.011475
583.216	0.357559
586.59	1.20818
589.965	0.79808
593.34	0.73822
596.715	0.136963
600.09	1.26259
603.464	1.42538
606.839	0.065811
610.214	0.14061
613.589	1.68903
616.964	1.72658
620.338	1.15707
623.713	3.14047
627.088	4.11182
630.463	6.83727
633.838	8.66939
637.212	12.4382
640.587	16.2152
643.962	26.3975
647.337	40.422
650.712	67.045
654.087	120.366
657.461	187.335
660.836	285.079
664.211	380.301
667.586	368.547
670.961	228.779
674.335	116.581
677.71	63.4177
681.085	38.4191
684.46	26.0985
687.835	18.7999
691.21	14.1903
694.584	12.9078
697.959	12.2457
701.334	14.7793
704.709	16.3817
708.084	18.1128
711.458	11.266
714.833	4.00552
718.208	1.96428
721.583	0.319992
724.958	1.23514
728.332	0.028687
731.707	1.02901
735.082	0.748596
738.457	0.260651
741.832	0.691833
745.207	0.532257
748.581	0.275589
751.956	0.47644
755.331	2.23453
758.706	0.535492
762.081	0.999847
765.456	1.93451
768.83	0.37793
772.205	2.54471
775.58	1.08746
778.955	0.118286
782.33	1.14932
785.704	0.997772
789.079	1.16171
792.454	0.029266
795.829	1.05298
799.204	1.51907
802.578	1.06534
805.953	2.30454
809.328	5.98135
812.703	9.61606
816.078	11.9934
819.453	8.51544
822.827	7.65161
826.202	2.4588
829.577	4.19
832.952	6.98526
836.327	9.40826
839.702	11.8516
843.076	18.2685
846.451	20.8312
849.826	27.8094
853.201	38.6574
856.576	33.3968
859.95	20.3637
863.325	15.6781
866.7	20.7249
870.075	27.3281
873.45	35.5872
876.824	33.4332
880.199	17.2261
883.574	10.576
886.949	4.94379
890.324	2.80414
893.698	0.138031
897.073	0.630798
900.448	1.10507
903.823	2.04745
907.198	4.26303
910.573	7.26871
913.947	8.70114
917.322	6.93527
920.697	4.50626
924.072	3.88129
927.447	1.94714
930.822	0.237976
934.196	0.091949
937.571	0.939606
940.946	0.490265
944.321	0.046234
947.696	0.067902
951.07	0.065674
954.445	0.72171
957.82	0.813202
961.195	1.13638
964.57	1.93308
967.944	6.70416
971.319	5.07111
974.694	3.53601
978.069	5.64151
981.444	7.75851
984.819	8.69653
988.193	12.6186
991.568	22.4004
994.943	34.171
998.318	59.5081
1001.69	120.555
1005.07	233.084
1008.44	408.759
1011.82	677.636
1015.19	667.514
1018.57	298.604
1021.94	120.771
1025.32	60.787
1028.69	38.1818
1032.07	30.5228
1035.44	28.844
1038.82	23.9538
1042.19	25.5413
1045.57	29.1959
1048.94	26.5921
1052.32	17.7809
1055.69	11.1415
1059.07	7.36069
1062.44	4.26672
1065.81	2.92191
1069.19	2.48569
1072.56	0.799042
1075.94	0.95639
1079.31	3.1e-05
1082.69	2.04169
1086.06	0.036377
1089.44	1.03015
1092.81	1.26544
1096.19	0.758026
1099.56	3.64349
1102.94	0.144409
1106.31	2.7666
1109.69	0.700623
1113.06	3.01022
1116.44	0.022247
1119.81	3.57507
1123.19	2.81909
1126.56	1.44336
1129.94	0.699005
1133.31	0.977844
1136.68	3.9812
1140.06	3.55957
1143.43	1.73303
1146.81	4.14047
1150.18	3.23447
1153.56	3.01926
1156.93	0.038574
1160.31	0.560272
1163.68	2.57358
1167.06	1.2027
1170.43	2.87961
1173.81	2.30158
1177.18	3.28397
1180.56	1.73224
1183.93	3.29217
1187.31	2.82596
1190.68	1.66635
1194.06	2.76691
1197.43	2.62582
1200.81	2.62909
1204.18	1.88046
1207.56	2.55542
1210.93	4.53955
1214.31	6.83167
1217.68	5.47528
1221.06	3.46283
1224.43	3.58362
1227.81	1.55408
1231.18	2.02466
1234.56	1.5318
1237.93	0.963196
1241.31	2.43335
1244.68	3.09863
1248.05	1.8656
1251.43	3.14081
1254.8	1.45636
1258.18	2.53467
1261.55	2.81567
1264.93	3.55267
1268.3	4.33356
1271.68	2.83667
1275.05	2.32422
1278.43	1.81146
1281.8	0.9375
1285.18	0.843079
1288.55	1.92914
1291.93	4.77093
1295.3	2.36285
1298.68	1.8194
1302.05	1.30859
