Measurement: Raman, 532 nm, unoriented, Raman Data Processed
Mineral: Diopside
Rruff sample: R050666
Ideal chemistry: CaMgSi_2_O_6_
Locality: Franklin, Sussex County, New Jersey, USA
Source: University of Arizona Mineral Museum
Description: Brown cleavage fragment with white hardystonite
Measured chemistry: Ca(Mg_0.66_Mn_0.33_Fe_0.01_)Si_2_O_6_
Raman shift (cm-1)	intensity
140.404	0
143.779	0.871464
147.154	4.05321
150.528	14.1922
153.903	23.0206
157.278	27.891
160.653	19.7951
164.028	13.6784
167.402	15.7105
170.777	22.9144
174.152	42.1348
177.527	26.9769
180.902	11.6378
184.277	7.69251
187.651	5.38988
191.026	2.26769
194.401	0.986076
197.776	0.099197
201.151	0.204857
204.525	0.271385
207.9	1.58153
211.275	2.80875
214.65	5.87498
218.025	8.78786
221.4	13.8913
224.774	13.012
228.149	17.2454
231.524	24.2153
234.899	26.3584
238.274	14.2092
241.649	9.33784
245.023	7.53501
248.398	7.93918
251.773	7.2242
255.148	5.90131
258.523	4.10435
261.897	2.01073
265.272	0.861328
268.647	3.29856
272.022	4.28005
275.397	2.97361
278.772	0.250465
282.146	3.76858
285.521	11.5466
288.896	22.8374
292.271	37.5931
295.646	61.2667
299.02	95.3748
302.395	134.768
305.77	175.991
309.145	225.086
312.52	284.6
315.895	312.325
319.269	262.788
322.644	183.436
326.019	135.992
329.394	116.209
332.769	118.606
336.144	129.173
339.518	145.187
342.893	167.491
346.268	194.832
349.643	197.282
353.018	153.505
356.392	108.124
359.767	90.1423
363.142	99.5847
366.517	139.736
369.892	195.438
373.267	258.69
376.641	346.755
380.016	462.012
383.391	507.173
386.766	350.374
390.141	167.683
393.515	79.5395
396.89	39.7619
400.265	18.9304
403.64	10.1899
407.015	5.39855
410.39	2.89024
413.764	0.66861
417.139	1.38204
420.514	1.26296
423.889	2.26818
427.264	3.54501
430.639	1.85055
434.013	0.481506
437.388	2.80441
440.763	6.08574
444.138	9.57424
447.513	13.0512
450.887	16.107
454.262	15.5722
457.637	10.9773
461.012	6.86663
464.387	4.0135
467.762	3.17188
471.136	2.08874
474.511	2.86367
477.886	2.5874
481.261	1.62
484.636	0.730965
488.01	1.51958
491.385	1.96476
494.76	4.45734
498.135	6.83295
501.51	9.97317
504.885	11.348
508.259	13.1839
511.634	16.1001
515.009	20.7045
518.384	27.3723
521.759	37.2307
525.134	45.8801
528.508	39.0414
531.883	24.866
535.258	20.9753
538.633	28.6962
542.008	43.9142
545.382	58.8599
548.757	77.7599
552.132	106.618
555.507	121.263
558.882	75.4402
562.256	32.7553
565.631	16.8947
569.006	9.5103
572.381	6.05945
575.756	2.37063
579.131	1.13326
582.505	0.057285
585.88	1.13275
589.255	0.598827
592.63	0.577309
596.005	0.053753
599.38	0.680759
602.754	0.421581
606.129	1.57213
609.504	1.70303
612.879	3.65741
616.254	5.02945
619.629	7.7737
623.003	10.8611
626.378	15.1824
629.753	19.4166
633.128	24.9884
636.503	34.0153
639.877	51.1602
643.252	84.0758
646.627	135.086
650.002	201.827
653.377	281.94
656.751	372.926
660.126	424.786
663.501	355.549
666.876	216.963
670.251	122.038
673.626	72.3551
677	44.2608
680.375	29.8313
683.75	21.575
687.125	14.9886
690.5	12.8832
693.875	9.00745
697.249	7.08987
700.624	5.47379
703.999	3.88994
707.374	2.60488
710.749	0.669441
714.124	1.22582
717.498	0.868378
720.873	0.379395
724.248	0.181694
727.623	0.480206
730.998	0.429752
734.372	0.323265
737.747	0.595901
741.122	0.039654
744.497	1.20921
747.872	0.701824
751.246	1.25354
754.621	1.53047
757.996	2.98771
761.371	2.57976
764.746	2.70334
768.121	1.50849
771.495	1.73914
774.87	1.66254
778.245	1.42779
781.62	0.701927
784.995	0.424484
788.37	0.352707
791.744	0.15921
795.119	1.01162
798.494	0.109329
801.869	0.070881
805.244	0.255409
808.619	0.106888
811.993	0.559429
815.368	0.023712
818.743	0.321053
822.118	1.12084
825.493	0.77457
828.867	1.62438
832.242	3.22426
835.617	7.40302
838.992	12.822
842.367	18.9694
845.741	27.2609
849.116	29.9524
852.491	20.316
855.866	12.9563
859.241	8.64675
862.616	6.55472
865.99	5.93928
869.365	5.7468
872.74	6.54787
876.115	6.41411
879.49	7.17612
882.865	8.54633
886.239	8.15447
889.614	9.66003
892.989	9.36582
896.364	9.12764
899.739	9.56103
903.113	10.2325
906.488	10.0622
909.863	10.3387
913.238	8.47677
916.613	6.52943
919.987	5.04682
923.362	3.8142
926.737	1.82206
930.112	0.154625
933.487	1.14807
936.862	1.21547
940.236	1.94221
943.611	0.193359
946.986	0.371071
950.361	1.99946
953.736	2.90931
957.111	5.54533
960.485	6.07432
963.86	7.09267
967.235	8.42583
970.61	10.5578
973.985	13.2806
977.36	15.5882
980.734	22.1823
984.109	25.1399
987.484	33.6318
990.859	50.4736
994.234	83.5678
997.608	155.103
1000.98	302.755
1004.36	499.111
1007.73	755.059
1011.11	1078.62
1014.48	1044.83
1017.86	504.592
1021.23	219.832
1024.61	134.744
1027.98	111.539
1031.36	111.729
1034.73	123.565
1038.11	139.693
1041.48	135.058
1044.86	86.4604
1048.23	44.7784
1051.61	24.2415
1054.98	15.8209
1058.36	9.12255
1061.73	6.39137
1065.11	2.89036
1068.48	1.13078
1071.85	0.244896
1075.23	0.071941
1078.6	0.156471
1081.98	0.367451
1085.35	0.252445
1088.73	0.466244
1092.1	0.43755
1095.48	0.228176
1098.85	0.319283
1102.23	1.24143
1105.6	1.50645
1108.98	4.15698
1112.35	2.90107
1115.73	2.8629
1119.1	4.05946
1122.48	4.15447
1125.85	4.42673
1129.23	4.5984
1132.6	4.74593
1135.98	4.00776
1139.35	3.88481
1142.73	3.37035
1146.1	1.81611
1149.47	1.87347
1152.85	1.17222
1156.22	0.342552
1159.6	0.042267
1162.97	0.331413
1166.35	0.750244
1169.72	0.171581
1173.1	0.638
1176.47	0.2099
1179.85	0.588192
1183.22	0.809341
1186.6	0.720444
1189.97	1.73331
1193.35	1.8921
1196.72	1.61375
1200.1	1.94302
1203.47	2.63022
1206.85	1.93673
1210.22	2.06694
1213.6	2.33993
1216.97	1.60083
1220.35	1.97222
1223.72	1.55389
1227.1	1.76262
1230.47	1.0648
1233.85	1.3919
1237.22	1.10681
1240.6	1.12845
1243.97	0.897331
1247.35	2.26388
1250.72	1.36087
1254.1	1.43792
1257.47	1.32217
1260.84	0.56229
1264.22	1.03164
1267.59	0.514526
1270.97	0.599297
1274.34	0.128693
1277.72	1.0798
1281.09	0.311249
1284.47	0.521439
1287.84	0.288059
1291.22	0.68222
1294.59	0.311123
1297.97	0.665218
1301.34	0.046341
