Measurement: Raman, 532 nm, unoriented, Raman Data Processed
Mineral: Diopside
Rruff sample: R110128
Ideal chemistry: CaMgSi_2_O_6_
Locality: Alchori, Pakistan
Source: Jack Lowell
Description: Dark green prismatic crystals associated with pale brown epidote, R110127
Raman shift (cm-1)	intensity
147.864	0
150.757	0.226554
153.649	0.114287
156.542	0.861765
159.435	1.3156
162.328	2.4685
165.22	3.06679
168.113	3.22075
171.006	5.15612
173.898	5.42467
176.791	6.32555
179.684	6.02325
182.577	5.59855
185.469	5.79363
188.362	5.40555
191.255	5.08886
194.147	4.99207
197.04	4.39723
199.933	4.37266
202.825	3.77653
205.718	3.65135
208.611	3.59736
211.504	3.28275
214.396	3.40671
217.289	3.48368
220.182	3.72253
223.074	3.91099
225.967	3.20889
228.86	3.80122
231.752	3.70491
234.645	3.5401
237.538	2.80243
240.43	2.43148
243.323	2.10883
246.216	2.26068
249.109	2.35301
252.001	1.9282
254.894	1.70028
257.787	1.4673
260.679	0.954405
263.572	0.390689
266.465	0.218524
269.358	0.069551
272.25	0.552376
275.143	0.606029
278.036	0.560275
280.928	0.61097
283.821	0.314493
286.714	0.187141
289.606	0.59217
292.499	1.50874
295.392	3.22615
298.284	6.13863
301.177	10.3853
304.07	15.4529
306.963	22.6288
309.855	27.7579
312.748	34.6912
315.641	40.5789
318.533	45.3199
321.426	43.3265
324.319	34.7485
327.212	26.2341
330.104	20.9723
332.997	21.2155
335.89	21.7263
338.782	25.3714
341.675	29.8577
344.568	34.9618
347.46	40.002
350.353	45.9965
353.246	46.699
356.139	41.3807
359.031	33.0975
361.924	27.0334
364.817	25.3393
367.709	27.8969
370.602	36.5031
373.495	47.1507
376.387	59.3438
379.28	73.3923
382.173	91.6037
385.065	104.543
387.958	95.9901
390.851	64.0148
393.744	35.4045
396.636	18.4555
399.529	11.3593
402.422	6.59725
405.314	4.34862
408.207	2.25468
411.1	1.40853
413.993	0.569659
416.885	0.431427
419.778	0.086658
422.671	0.152205
425.563	0.355887
428.456	0.258757
431.349	0.202361
434.241	0.395829
437.134	0.382936
440.027	0.276187
442.92	0.079071
445.812	0.3418
448.705	0.291928
451.598	0.342821
454.49	0.406281
457.383	0.348958
460.276	0.286102
463.168	0.432071
466.061	0.636933
468.954	0.46893
471.846	0.75613
474.739	1.11504
477.632	0.513876
480.525	0.955009
483.417	1.32254
486.31	0.859199
489.203	1.23073
492.095	1.56354
494.988	2.09611
497.881	2.09854
500.774	2.08241
503.666	3.03306
506.559	2.36359
509.452	1.211
512.344	0.535471
515.237	0.437759
518.13	1.12751
521.022	0.692233
523.915	0.877336
526.808	1.16678
529.701	1.15431
532.593	1.34878
535.486	0.909595
538.379	0.966762
541.271	0.54194
544.164	0.914641
547.057	0.614243
549.949	0.495601
552.842	0.624932
555.735	1.03218
558.628	0.758102
561.52	0.924459
564.413	0.566617
567.306	0.39227
570.198	0.401585
573.091	0.162416
575.984	0.157161
578.876	0.253728
581.769	0.061652
584.662	0.324764
587.554	0.198197
590.447	0.178311
593.34	0.172941
596.232	0.399646
599.125	0.183447
602.018	0.675293
604.911	0.510991
607.803	1.03464
610.696	1.60726
613.589	2.05851
616.481	2.34903
619.374	3.6619
622.267	4.37371
625.159	5.42575
628.052	7.01819
630.945	9.20633
633.838	11.4749
636.73	15.064
639.623	20.2223
642.516	27.0552
645.408	39.4484
648.301	62.6435
651.194	95.3759
654.087	134.453
656.979	178.201
659.872	226.939
662.765	264.962
665.657	250.802
668.55	176.003
671.443	104.725
674.335	60.9923
677.228	38.0783
680.121	25.2821
683.014	17.1932
685.906	12.0852
688.799	9.12391
691.692	6.69249
694.584	5.40575
697.477	4.21432
700.37	3.44383
703.263	2.02417
706.155	1.5066
709.048	1.05997
711.941	1.02956
714.833	0.468246
717.726	0.468741
720.619	0.29474
723.511	0.223661
726.404	0.024234
729.297	0.125508
732.189	0.337751
735.082	0.127728
737.975	0.176829
740.868	0.001184
743.76	0.195189
746.653	0.141246
749.546	0.191677
752.438	0.073724
755.331	0.19906
758.224	0.029484
761.116	0.357081
764.009	0.263313
766.902	0.345019
769.795	0.17132
772.687	0.01807
775.58	0.452209
778.473	0.263069
781.365	0.329722
784.258	0.149235
787.151	0.431889
790.043	0.197144
792.936	0.124125
795.829	0.144564
798.722	0.013236
801.614	0.064212
804.507	0.112779
807.4	0.069983
810.292	0.032424
813.185	0.342837
816.078	0.327894
818.971	0.09701
821.863	0.394787
824.756	0.593074
827.649	1.04667
830.541	1.65814
833.434	2.83946
836.327	4.44977
839.219	8.47087
842.112	15.4428
845.005	23.9827
847.898	32.8998
850.79	44.3472
853.683	51.1698
856.576	40.4949
859.468	24.1941
862.361	13.8886
865.254	8.86087
868.146	5.53405
871.039	3.79437
873.932	2.73846
876.824	2.40943
879.717	2.19374
882.61	1.89684
885.503	1.37095
888.395	0.826199
891.288	1.12694
894.181	0.968468
897.073	0.912457
899.966	0.624668
902.859	0.253464
905.751	0.786773
908.644	0.764364
911.537	0.437419
914.43	0.36853
917.322	0.429938
920.215	0.27072
923.108	0.232392
926	0.065902
928.893	0.206234
931.786	0.020165
934.678	0.222779
937.571	0.317153
940.464	0.160986
943.357	0.301681
946.249	0.011218
949.142	0.044565
952.035	0.546973
954.927	0.18446
957.82	0.80134
960.713	0.718661
963.606	1.04961
966.498	1.36109
969.391	1.90394
972.284	2.16042
975.176	2.57592
978.069	3.26529
980.962	4.22271
983.854	5.5503
986.747	7.62166
989.64	10.9452
992.533	16.2214
995.425	24.8551
998.318	41.5543
1001.21	74.1506
1004.1	116.513
1007	165.289
1009.89	222.792
1012.78	253.728
1015.67	190.399
1018.57	101.608
1021.46	54.2451
1024.35	34.6003
1027.24	26.6061
1030.14	24.4827
1033.03	26.0931
1035.92	29.4704
1038.82	33.4546
1041.71	35.7916
1044.6	34.2246
1047.49	26.1518
1050.39	17.1246
1053.28	10.7555
1056.17	7.53357
1059.07	4.54474
1061.96	3.14308
1064.85	2.26972
1067.74	1.26636
1070.63	0.665528
1073.53	0.434365
1076.42	0.546765
1079.31	0.011115
1082.21	0.15973
1085.1	0.190543
1087.99	0.053641
1090.88	0.135614
1093.78	0.063467
1096.67	0.187186
1099.56	0.021684
1102.45	0.24811
1105.35	0.120732
1108.24	0.111028
1111.13	0.490466
1114.03	0.189432
1116.92	0.366501
1119.81	0.5194
1122.7	0.497879
1125.6	0.807066
1128.49	0.705919
1131.38	0.982896
1134.28	0.725271
1137.17	0.869131
1140.06	0.844141
1142.95	0.918473
1145.85	0.500635
1148.74	0.36988
1151.63	0.299351
1154.52	0.18447
1157.42	0.030201
1160.31	0.115266
1163.2	0.063552
1166.09	0.060457
1168.99	0.027586
1171.88	0.093881
1174.77	0.192489
1177.66	0.211797
1180.56	0.132132
1183.45	0.107238
1186.34	0.345011
1189.24	0.422695
1192.13	0.418091
1195.02	0.316248
1197.91	0.364212
1200.81	0.219357
1203.7	0.279627
1206.59	0.649219
1209.48	0.407099
1212.38	0.377401
1215.27	0.192521
1218.16	0.306854
1221.06	0.35572
1223.95	0.54521
1226.84	0.384962
1229.73	0.311994
1232.63	0.464087
1235.52	0.453539
1238.41	0.325888
1241.31	0.214917
1244.2	0.33684
1247.09	0.359394
1249.98	0.679636
1252.88	0.343874
1255.77	0.413995
1258.66	0.707745
1261.55	0.474599
1264.45	0.723133
1267.34	0.331981
1270.23	0.65276
1273.12	0.419157
1276.02	0.208462
1278.91	0.347337
1281.8	0.049161
1284.69	0.295144
1287.59	0.205057
1290.48	0.14685
1293.37	0.024
1296.27	0.247584
1299.16	0.209992
1302.05	0.034187
