Measurement: Raman, 532 nm, unoriented, Raman Data Processed
Mineral: Diopside
Rruff sample: R050496
Ideal chemistry: CaMgSi_2_O_6_
Locality: New City Quarry, Riverside, Riverside County, Calfornia, USA
Source: California Institute of Technology
Description: Aggregate of light green irregular grains
Measured chemistry: Ca(Mg_0.66_Fe_0.33_Mn_0.01_)(Si_0.95_Al_0.05_)_2_O_6_
Raman shift (cm-1)	intensity
138.656	0
142.03	0.08252
145.405	4.16797
148.78	117.156
152.155	230.611
155.53	281.024
158.905	265.9
162.279	319.842
165.654	359.063
169.029	393.242
172.404	401.605
175.779	409.939
179.153	467.755
182.528	454.989
185.903	440.797
189.278	417.713
192.653	388.994
196.028	305.369
199.402	236.492
202.777	177.296
206.152	129.399
209.527	112.487
212.902	101.728
216.276	120.257
219.651	109.36
223.026	100.704
226.401	90.7119
229.776	104.718
233.15	131.143
236.525	102.996
239.9	81.7676
243.275	76.8438
246.65	48.4893
250.025	44.4946
253.399	51.5952
256.774	74.042
260.149	22.5122
263.524	2.33447
266.899	4.32422
270.273	28.8945
273.648	42.7124
277.023	8.1792
280.398	19.9346
283.773	34.312
287.147	52.8565
290.522	89.603
293.897	118.297
297.272	192.082
300.647	292.591
304.022	411.682
307.396	598.45
310.771	821.2
314.146	1057.03
317.521	1325.07
320.896	1454.42
324.271	1346.63
327.645	1072.65
331.02	798.181
334.395	606.663
337.77	539.885
341.145	512.046
344.519	496.44
347.894	511.464
351.269	559.117
354.644	515.775
358.019	429.984
361.394	364.408
364.768	336.908
368.143	368.987
371.518	458.963
374.893	598.083
378.267	772.943
381.642	927.713
385.017	1037.53
388.392	1012.69
391.767	747.316
395.142	421.01
398.516	208.913
401.891	73.9551
405.266	37.0532
408.641	13.4746
412.016	4.28662
415.39	4.25537
418.765	13.4302
422.14	11.6016
425.515	14.501
428.89	3.771
432.265	4.40186
435.639	9.92529
439.014	5.86426
442.389	16.564
445.764	18.7803
449.139	72.876
452.514	68.7236
455.888	75.5596
459.263	53.1899
462.638	30.4141
466.013	23.5561
469.388	9.22656
472.762	17.5166
476.137	19.5405
479.512	25.6333
482.887	27.8794
486.262	30.7178
489.637	60.2563
493.011	90.1553
496.386	162.175
499.761	234.885
503.136	305.529
506.511	313.948
509.885	280.873
513.26	255.697
516.635	212.914
520.01	194.417
523.385	211.19
526.76	230.146
530.134	199.882
533.509	183.137
536.884	197.872
540.259	206.612
543.634	211.534
547.008	224.23
550.383	294.585
553.758	351.607
557.133	341.265
560.508	260.479
563.882	187.832
567.257	145.525
570.632	129.964
574.007	80.6494
577.382	39.1069
580.756	21.1953
584.131	1.71826
587.506	6.28174
590.881	4.12451
594.256	4.90869
597.631	9.0498
601.005	6.79541
604.38	9.20654
607.755	7.61035
611.13	21.8672
614.505	39.7266
617.88	64.769
621.254	100.402
624.629	104.94
628.004	147.504
631.379	189.236
634.754	241.901
638.128	325.728
641.503	427.016
644.878	609.554
648.253	877.737
651.628	1294.59
655.002	1877.84
658.377	2593.55
661.752	3289.6
665.127	3359.6
668.502	2502.48
671.876	1541.37
675.251	943.928
678.626	601.944
682.001	430.14
685.376	304.698
688.751	238.791
692.125	195.157
695.5	155.597
698.875	139.689
702.25	116.337
705.625	106.494
709	86.8584
712.374	41.9819
715.749	36.3472
719.124	37.8159
722.499	20.7153
725.874	2.93457
729.248	3.86328
732.623	3.83447
735.998	16.6016
739.373	3.44971
742.748	0.455078
746.122	12.0693
749.497	3.146
752.872	5.01562
756.247	33.9273
759.622	27.1831
762.997	30.0371
766.371	44.0142
769.746	49.3257
773.121	66.8872
776.496	40.522
779.871	33.3765
783.245	33.1982
786.62	42.3227
789.995	36.375
793.37	28.8023
796.745	32.044
800.12	13.2124
803.494	12.8672
806.869	42.3823
810.244	69.0674
813.619	79.0229
816.994	98.0864
820.368	97.9146
823.743	98.7095
827.118	87.2266
830.493	56.793
833.868	1.40674
837.242	4.52246
840.617	22.6885
843.992	58.5493
847.367	51.8828
850.742	103.297
854.117	176.178
857.491	163.752
860.866	93.3379
864.241	58.3501
867.616	34.0161
870.991	29.6719
874.365	4.06104
877.74	4.30469
881.115	7.32422
884.49	15.0767
887.865	3.99414
891.24	27.979
894.614	35.2793
897.989	13.1299
901.364	36.2593
904.739	34.4644
908.114	21.9775
911.489	5.53271
914.863	28.9785
918.238	58.731
921.613	44.4136
924.988	18.4282
928.362	9.28516
931.737	1.31445
935.112	1.40576
938.487	0.109375
941.862	9.74854
945.237	3.84668
948.611	11.9888
951.986	11.2202
955.361	14.2158
958.736	58.7524
962.111	72.4058
965.486	95.519
968.86	85.061
972.235	74.0215
975.61	105.639
978.985	157.097
982.36	185.067
985.734	253.331
989.109	379.618
992.484	558.462
995.859	900.993
999.234	1455.47
1002.61	2224.38
1005.98	3110.66
1009.36	4011.94
1012.73	4049.47
1016.11	2589.1
1019.48	1336.44
1022.86	777.509
1026.23	521.931
1029.61	426.02
1032.98	365.67
1036.36	373.143
1039.73	369.519
1043.11	345.721
1046.48	283.768
1049.86	187.832
1053.23	117.178
1056.61	83.1763
1059.98	39.6304
1063.36	33.0664
1066.73	13.2578
1070.11	20.5283
1073.48	0.144043
1076.85	2.20264
1080.23	6.09814
1083.6	14.1445
1086.98	3.99463
1090.35	15.6396
1093.73	12.4077
1097.1	0.984375
1100.48	15.4609
1103.85	12.7529
1107.23	45.4121
1110.6	25.7295
1113.98	20.231
1117.35	15.3477
1120.73	32.8008
1124.1	26.0254
1127.48	37.9834
1130.85	30.6108
1134.23	24.3164
1137.6	26.0947
1140.98	2.53027
1144.35	5.78271
1147.73	5.2749
1151.1	6.36377
1154.47	9.77441
1157.85	2.44971
1161.22	2.40527
1164.6	15.2051
1167.97	9.23682
1171.35	0.77832
1174.72	0.930176
1178.1	0.265137
1181.47	22.9326
1184.85	21.3594
1188.22	14.5264
1191.6	18.1577
1194.97	23.502
1198.35	35.8335
1201.72	26.9067
1205.1	18.9692
1208.47	5.75391
1211.85	24.5054
1215.22	46.1641
1218.6	25.3794
1221.97	33.3032
1225.35	27.2715
1228.72	20.6089
1232.1	11.3789
1235.47	14.1431
1238.85	12.501
1242.22	16.4273
1245.6	35.1299
1248.97	32.1011
1252.35	17.3052
1255.72	8.13965
1259.09	10.0986
1262.47	19.7944
1265.84	10.5059
1269.22	45.1333
1272.59	37.1431
1275.97	21.9922
1279.34	19.4121
1282.72	28.8379
1286.09	28.3125
1289.47	22.6758
1292.84	7.56934
1296.22	21.1123
1299.59	48.9023
1302.97	0.168945
