Measurement: Raman, 532 nm, unoriented, Raman Data Processed
Mineral: Dixenite
Rruff sample: R100044
Ideal chemistry: Cu^1+^Mn^2+^_14_Fe^3+^(As^3+^O_3_)_5_(SiO_4_)_2_(As^5+^O_4_)(OH)_6_
Locality: Moss mine, Nordmark, Varmland, Sweden
Source: William W Pinch
Description: Thin tabular reddish-brown hexagonal plates, associated with synadelphite and colorless or grey allactite
Raman shift (cm-1)	intensity
165.763	0
168.656	6.90798
171.549	9.28114
174.441	8.90616
177.334	5.11369
180.227	5.63356
183.119	2.2542
186.012	5.23013
188.905	3.93589
191.798	4.39454
194.69	5.13089
197.583	12.547
200.476	13.192
203.369	14.5108
206.261	11.2095
209.154	5.63982
212.047	2.42059
214.939	0.794991
217.832	1.43279
220.725	1.82825
223.617	0.518631
226.51	1.97459
229.403	2.57207
232.296	5.37507
235.188	5.39645
238.081	9.36372
240.974	11.8203
243.866	13.4077
246.759	23.73
249.652	28.9714
252.544	33.8428
255.437	40.3127
258.33	44.8944
261.223	38.652
264.115	35.2043
267.008	26.631
269.901	20.9781
272.793	16.2414
275.686	12.0451
278.579	6.91359
281.471	4.92098
284.364	1.71935
287.257	3.13293
290.15	0.235855
293.042	0.688728
295.935	1.30868
298.828	0.695122
301.72	1.35278
304.613	0.186493
307.506	0.292946
310.399	0.243896
313.291	0.011627
316.184	1.88284
319.077	0.314308
321.969	1.66636
324.862	1.79401
327.755	1.93103
330.647	1.79405
333.54	1.00647
336.433	1.71584
339.325	0.320084
342.218	2.07917
345.111	5.67882
348.004	0.864052
350.896	8.14596
353.789	9.7469
356.682	10.3728
359.574	13.2294
362.467	13.0036
365.36	17.4317
368.253	16.9086
371.145	18.8037
374.038	18.3408
376.931	20.8395
379.823	19.7429
382.716	20.6016
385.609	20.748
388.502	19.4993
391.394	23.0995
394.287	22.1654
397.18	21.1837
400.072	19.4917
402.965	17.4565
405.858	14.0914
408.75	7.74246
411.643	4.77356
414.536	2.06044
417.428	0.217667
420.321	2.06062
423.214	2.65219
426.107	5.81389
428.999	10.7331
431.892	13.0223
434.785	16.2464
437.677	17.9267
440.57	19.4835
443.463	14.9355
446.356	10.2252
449.248	5.97321
452.141	1.30187
455.034	2.33009
457.926	1.52599
460.819	0.374741
463.712	3.01022
466.604	2.37082
469.497	5.97217
472.39	6.4698
475.283	8.21024
478.175	8.3513
481.068	13.2152
483.961	15.4343
486.853	21.09
489.746	28.6743
492.639	43.3214
495.531	59.0684
498.424	82.9267
501.317	113.09
504.21	161.691
507.102	212.685
509.995	269.735
512.888	301.123
515.78	302.706
518.673	276.601
521.566	234.709
524.458	204.998
527.351	175.817
530.244	148.572
533.137	116.577
536.029	93.5332
538.922	72.7727
541.815	56.8148
544.707	42.1115
547.6	29.9864
550.493	23.3959
553.386	17.9614
556.278	12.6026
559.171	8.12266
562.064	7.10262
564.956	2.72836
567.849	0.374496
570.742	2.2752
573.635	0.809952
576.527	1.75579
579.42	1.17219
582.313	0.956703
585.205	1.82681
588.098	1.48467
590.991	3.00005
593.883	0.979866
596.776	2.20174
599.669	2.95194
602.562	1.61788
605.454	0.515953
608.347	3.19349
611.24	5.87561
614.132	9.82527
617.025	8.93982
619.918	9.74171
622.81	7.15147
625.703	8.15392
628.596	5.09595
631.489	5.07482
634.381	6.15527
637.274	5.25786
640.167	4.1465
643.059	1.57143
645.952	0.165901
648.845	0.783867
651.737	1.20827
654.63	2.08598
657.523	0.068192
660.416	0.894318
663.308	1.6075
666.201	0.872322
669.094	0.682449
671.986	0.793503
674.879	0.969429
677.772	1.12014
680.664	2.39371
683.557	0.295471
686.45	2.49139
689.343	1.92741
692.235	2.89665
695.128	0.179916
698.021	3.98291
700.913	2.42094
703.806	0.941467
706.699	0.191299
709.592	3.5816
712.484	3.67201
715.377	5.6956
718.27	7.17766
721.162	8.853
724.055	11.9678
726.948	9.93433
729.841	15.0573
732.733	13.103
735.626	11.9871
738.519	11.6789
741.411	6.28544
744.304	4.57953
747.197	1.73637
750.089	1.55962
752.982	1.60639
755.875	1.37761
758.768	8.08279
761.66	10.9583
764.553	22.9081
767.446	37.3936
770.338	58.4254
773.231	81.8536
776.124	90.7353
779.016	79.0964
781.909	59.2146
784.802	45.784
787.694	37.0616
790.587	29.7833
793.48	26.1604
796.373	23.0772
799.265	23.7162
802.158	24.5291
805.051	32.1343
807.943	37.9401
810.836	46.3277
813.729	50.0265
816.621	52.1317
819.514	52.1628
822.407	52.1682
825.3	53.8393
828.192	53.8246
831.085	47.4516
833.978	33.5275
836.87	23.9481
839.763	14.3988
842.656	7.91609
845.549	7.48814
848.441	2.33905
851.334	2.43529
854.227	0.121384
857.119	1.11079
860.012	0.737457
862.905	1.39949
865.798	0.228836
868.69	0.928627
871.583	0.495621
874.476	0.256973
877.368	0.312424
880.261	1.24286
883.154	0.117035
886.046	1.49151
888.939	0.702728
891.832	0.405731
894.725	0.522072
897.617	1.98431
900.51	1.87486
903.403	1.62626
906.295	1.63288
909.188	0.90593
912.081	1.61104
914.973	3.04258
917.866	0.83503
920.759	0.819939
923.652	1.86963
926.544	3.70138
929.437	1.64037
932.33	4.13438
935.222	4.30468
938.115	0.764408
941.008	3.04123
943.9	0.599682
946.793	1.37307
949.686	2.0318
952.579	0.553749
955.471	3.30913
958.364	2.38971
961.257	2.91053
964.149	2.33366
967.042	1.44311
969.935	2.04889
972.827	4.25741
975.72	3.51846
978.613	2.53415
981.506	0.692425
984.398	4.18185
987.291	2.35968
990.184	0.658897
993.077	0.694836
995.969	0.258381
998.862	2.60969
1001.75	2.95766
1004.65	2.63681
1007.54	3.64184
1010.43	4.58558
1013.33	4.8354
1016.22	6.70989
1019.11	8.06898
1022	8.813
1024.9	6.91509
1027.79	8.86083
1030.68	8.35409
1033.57	7.62056
1036.47	9.00797
1039.36	8.98945
1042.25	7.21398
1045.14	4.79447
1048.04	4.45496
1050.93	4.93319
1053.82	3.14859
1056.72	4.29953
1059.61	2.36642
1062.5	3.03921
1065.39	0.869415
1068.29	1.92168
1071.18	1.67685
1074.07	2.09787
1076.96	0.762161
1079.86	1.5233
1082.75	3.83561
1085.64	0.426495
1088.54	1.18504
1091.43	0.252064
1094.32	3.50166
1097.21	1.63453
1100.11	0.818054
1103	2.16404
1105.89	0.067425
1108.79	1.2204
1111.68	0.988132
1114.57	1.07089
1117.46	2.72708
1120.36	1.86624
1123.25	1.16324
1126.14	2.64496
1129.03	1.76623
1131.93	1.08863
1134.82	0.844891
1137.71	0.821438
1140.6	1.43592
1143.5	1.99716
1146.39	0.049744
1149.28	2.25796
1152.17	1.30695
1155.07	0.771019
1157.96	0.765976
1160.85	1.72529
1163.75	4.02314
1166.64	2.18298
1169.53	3.18913
1172.42	2.35363
1175.32	3.16501
1178.21	2.03989
1181.1	2.02945
1183.99	3.24091
1186.89	2.28358
1189.78	0.318207
1192.67	1.71348
1195.57	2.81931
1198.46	1.39225
1201.35	0.330173
1204.24	0.339928
1207.14	0.522633
1210.03	1.3184
1212.92	1.73925
1215.82	1.98871
1218.71	0.095928
1221.6	3.09471
1224.49	3.40762
1227.38	1.44342
1230.28	2.53017
1233.17	1.93831
1236.06	1.89936
1238.96	1.7839
1241.85	2.03418
1244.74	2.16786
1247.63	0.57732
1250.53	0.255489
1253.42	3.52606
1256.31	2.34779
1259.2	2.91776
1262.1	2.4995
1264.99	2.74603
1267.88	2.06145
1270.78	0.292877
1273.67	2.92161
1276.56	2.80575
1279.45	2.71917
1282.35	2.27774
1285.24	1.57523
1288.13	1.46087
1291.03	0.667767
1293.92	0.265823
1296.81	1.7628
1299.7	1.30743
1302.6	0
