Measurement: Raman, 780 nm, unoriented, Raman Data Processed
Mineral: Dixenite
Rruff sample: R100044
Ideal chemistry: Cu^1+^Mn^2+^_14_Fe^3+^(As^3+^O_3_)_5_(SiO_4_)_2_(As^5+^O_4_)(OH)_6_
Locality: Moss mine, Nordmark, Varmland, Sweden
Source: William W Pinch
Description: Thin tabular reddish-brown hexagonal plates, associated with synadelphite and colorless or grey allactite
Raman shift (cm-1)	intensity
169.19	0
172.083	0.473236
174.976	1.70545
177.869	3.83009
180.761	10.0824
183.654	13.7561
186.547	10.9158
189.439	5.92841
192.332	8.35413
195.225	13.2682
198.117	20.1321
201.01	25.0463
203.903	26.8933
206.796	21.0983
209.688	13.6051
212.581	4.33193
215.474	1.56502
218.366	3.41112
221.259	5.09252
224.152	7.40568
227.044	10.3783
229.937	10.5057
232.83	10.3553
235.722	9.4557
238.615	11.9703
241.508	11.5645
244.401	14.1143
247.293	18.0151
250.186	22.3048
253.079	23.6411
255.971	27.6314
258.864	30.7626
261.757	30.9864
264.649	28.7474
267.542	24.5726
270.435	21.2594
273.328	18.5113
276.22	13.5645
279.113	9.73523
282.006	6.56024
284.898	3.73754
287.791	2.50845
290.684	0.582977
293.576	0.334
296.469	1.71879
299.362	1.59362
302.255	0.958748
305.147	1.46764
308.04	0.455414
310.933	1.37871
313.825	2.25105
316.718	2.0053
319.611	0.393433
322.503	2.71039
325.396	2.81586
328.289	3.67267
331.182	4.42113
334.074	7.24301
336.967	8.68041
339.86	9.66624
342.752	14.357
345.645	20.9544
348.538	19.1298
351.43	25.9998
354.323	26.6854
357.216	29.3244
360.108	29.885
363.001	28.5656
365.894	28.6024
368.787	29.4608
371.679	30.2235
374.572	29.2837
377.465	35.4221
380.357	38.1994
383.25	44.8217
386.143	49.1947
389.036	49.9754
391.928	49.8128
394.821	46.2799
397.714	44.1709
400.606	34.6798
403.499	28.8329
406.392	22.0753
409.284	16.4875
412.177	12.0198
415.07	8.74355
417.962	5.21268
420.855	5.78639
423.748	8.55606
426.641	8.8757
429.533	8.10953
432.426	10.6763
435.319	9.38899
438.211	8.54671
441.104	2.70688
443.997	1.84531
446.889	1.41803
449.782	1.4287
452.675	1.85609
455.567	3.68855
458.46	1.61989
461.353	2.79181
464.246	8.08554
467.138	12.5127
470.031	18.619
472.924	26.144
475.816	32.9243
478.709	46.1033
481.602	56.3764
484.495	74.1745
487.387	92.3587
490.28	115.125
493.173	138.658
496.065	165.948
498.958	189.909
501.851	216.754
504.743	237.522
507.636	264.684
510.529	283.51
513.422	290.485
516.314	286.906
519.207	271.092
522.1	257.906
524.992	242.802
527.885	224.746
530.778	198.545
533.67	170.184
536.563	140.195
539.456	109.957
542.348	84.3898
545.241	64.1437
548.134	49.1206
551.027	36.7506
553.919	24.8678
556.812	17.601
559.705	10.0788
562.597	6.64192
565.49	3.62613
568.383	1.87558
571.275	0.814835
574.168	1.27585
577.061	1.22659
579.954	0.877106
582.846	0.0093
585.739	0.960335
588.632	2.83208
591.524	1.68995
594.417	4.48571
597.31	7.10765
600.202	8.54808
603.095	11.0006
605.988	13.7355
608.881	17.9853
611.773	22.9439
614.666	25.8525
617.559	28.7796
620.451	28.6191
623.344	26.6286
626.237	22.8456
629.129	20.5989
632.022	16.948
634.915	14.2371
637.808	11.4805
640.7	8.70266
643.593	5.85223
646.486	3.02165
649.378	2.72152
652.271	2.22965
655.164	1.44347
658.056	0.439476
660.949	0.554329
663.842	0.063637
666.735	0.419075
669.627	1.27594
672.52	1.21146
675.413	0.010666
678.305	0.157539
681.198	1.12962
684.091	0.307404
686.983	0.671234
689.876	2.45292
692.769	0.795891
695.662	0.067482
698.554	0.862701
701.447	0.96183
704.34	1.95269
707.232	3.12785
710.125	7.18119
713.018	9.79006
715.91	17.2887
718.803	23.5872
721.696	32.8097
724.588	43.7881
727.481	53.9566
730.374	61.4913
733.266	63.9545
736.159	59.8026
739.052	51.0443
741.945	40.0153
744.837	27.5128
747.73	17.9726
750.623	10.5694
753.515	10.3136
756.408	11.6516
759.301	17.9002
762.193	33.6591
765.086	61.4915
767.979	102.797
770.872	159.154
773.764	216.95
776.657	258.872
779.55	258.977
782.442	218.357
785.335	168.306
788.228	125.692
791.12	99.2517
794.013	82.6903
796.906	77.2787
799.799	80.9196
802.691	90.6389
805.584	113.902
808.477	145.314
811.369	183.905
814.262	212.866
817.155	207.263
820.048	167.907
822.94	130.798
825.833	92.1677
828.726	63.3303
831.618	44.4333
834.511	27.4422
837.404	17.1005
840.296	9.32683
843.189	7.13247
846.082	2.61082
848.975	2.07133
851.867	1.31484
854.76	1.83474
857.653	2.09792
860.545	2.54968
863.438	0.792427
866.331	1.81061
869.223	1.08946
872.116	1.90786
875.009	1.36016
877.901	1.75552
880.794	0.806812
883.687	1.38866
886.58	0.50256
889.472	0.493294
892.365	0.216366
895.258	1.41241
898.15	2.00385
901.043	0.841858
903.936	1.82549
906.828	2.94044
909.721	3.47923
912.614	3.41232
915.506	4.73704
918.399	4.81033
921.292	4.61805
924.185	6.77009
927.077	5.32195
929.97	4.88326
932.863	6.18799
935.755	7.40159
938.648	5.04613
941.541	4.32841
944.433	2.59019
947.326	3.67641
950.219	3.18347
953.112	4.62964
956.004	3.46874
958.897	2.80419
961.79	1.96595
964.682	1.73986
967.575	3.17611
970.468	3.18982
973.361	2.68796
976.253	4.46178
979.146	5.51531
982.039	2.58533
984.931	2.6031
987.824	1.37183
990.717	2.2355
993.609	2.50188
996.502	2.64834
999.395	3.68548
1002.29	4.30822
1005.18	3.73556
1008.07	4.08854
1010.97	3.81745
1013.86	2.72581
1016.75	3.23764
1019.64	4.2715
1022.54	2.97456
1025.43	4.72447
1028.32	4.5074
1031.21	5.03224
1034.11	2.9984
1037	3.5154
1039.89	3.54174
1042.79	3.86308
1045.68	2.83618
1048.57	1.92281
1051.46	1.20242
1054.36	1.41725
1057.25	0.76981
1060.14	1.38784
1063.03	2.01513
1065.93	4.82386
1068.82	0.670691
1071.71	0.768623
1074.61	0.645437
1077.5	0.218945
1080.39	0.683569
1083.28	0.170717
1086.18	1.24081
1089.07	0.253672
1091.96	0.986652
1094.85	0.667496
1097.75	1.35099
1100.64	0.744139
1103.53	1.60331
1106.42	1.96308
1109.32	1.58251
1112.21	3.23666
1115.1	3.28474
1117.99	2.71171
1120.89	1.2933
1123.78	0.99905
1126.67	1.43601
1129.57	1.38857
1132.46	0.171579
1135.35	1.43967
1138.24	0.776098
1141.14	0.393997
1144.03	0.565466
1146.92	1.48277
1149.82	2.27062
1152.71	1.52048
1155.6	3.00136
1158.49	4.70114
1161.39	3.7581
1164.28	1.25907
1167.17	1.69212
1170.06	1.89926
1172.96	1.0377
1175.85	1.53538
1178.74	1.42993
1181.63	1.18841
1184.53	1.03149
1187.42	0.455645
1190.31	0.932653
1193.21	1.42668
1196.1	0.89883
1198.99	2.21944
1201.88	0.099075
1204.78	2.29341
1207.67	1.57866
1210.56	1.13281
1213.45	0.315859
1216.35	1.12641
1219.24	1.33892
1222.13	1.89803
1225.03	1.81966
1227.92	0.480986
1230.81	1.16875
1233.7	0.285688
1236.6	2.96942
1239.49	1.94081
1242.38	2.51756
1245.27	2.70031
1248.17	2.95714
1251.06	1.3941
1253.95	1.15639
1256.85	1.65125
1259.74	0.949642
1262.63	1.66545
1265.52	1.90567
1268.42	6.04068
1271.31	1.51744
1274.2	1.12278
1277.09	0.29418
1279.99	0.604715
1282.88	0.801264
