Measurement: Raman, 532 nm, unoriented, Raman Data Processed
Mineral: Dmisteinbergite
Rruff sample: R130087
Ideal chemistry: CaAl_2_Si_2_O_8_
Locality: Katashina Village, Gunma Prefecture, Japan
Source: Michael Scott
Description: Colorless platelets with pearly luster. Associated with prehnite and wairakite, R061075
Raman shift (cm-1)	intensity
138.921	0
142.296	59.1182
145.671	121.256
149.045	167.773
152.42	272.494
155.795	97.7969
159.17	308.816
162.545	275.796
165.919	370.212
169.294	395.9
172.669	314.728
176.044	325.036
179.419	342.292
182.794	334.34
186.168	201.375
189.543	155.964
192.918	120.065
196.293	97.8613
199.668	68.4023
203.042	12.9922
206.417	26.1113
209.792	24.6152
213.167	111.935
216.542	102.853
219.917	193.043
223.291	145.392
226.666	154.243
230.041	38.124
233.416	69.0557
236.791	45.5693
240.165	145.747
243.54	155.235
246.915	146.478
250.29	98.2734
253.665	134.664
257.039	81.9394
260.414	14.2891
263.789	28.2939
267.164	6.52637
270.539	46.6758
273.913	155.626
277.288	97.04
280.663	43.8418
284.038	11.8809
287.413	108.731
290.788	171.561
294.162	265.94
297.537	322.054
300.912	240.875
304.287	285.563
307.662	320.414
311.036	487.884
314.411	815.03
317.786	1631.12
321.161	2591.08
324.536	3588.11
327.911	4999.74
331.285	2294.63
334.66	607.705
338.035	189.192
341.41	26.3936
344.785	6.98731
348.159	62.0049
351.534	3.05176
354.909	0.255859
358.284	37.1025
361.659	126.583
365.034	128.13
368.408	27.8418
371.783	9.32324
375.158	51.2578
378.533	23.2002
381.908	145.337
385.282	135.462
388.657	265.606
392.032	180.22
395.407	191.847
398.782	258.725
402.156	281.554
405.531	335.88
408.906	498.571
412.281	645.357
415.656	913.973
419.031	1458.52
422.405	2270.78
425.78	3485.09
429.155	4967.97
432.53	6685.87
435.905	8478.37
439.279	9538.26
442.654	8835.31
446.029	6625.29
449.404	4328.59
452.779	2926.69
456.154	1980.4
459.528	1174.85
462.903	771.756
466.278	509.766
469.653	247.882
473.028	167.742
476.402	203.315
479.777	236.255
483.152	451.432
486.527	638.461
489.902	685.114
493.276	365.375
496.651	362.983
500.026	525
503.401	664.447
506.776	681.747
510.151	43.2568
513.525	16.0127
516.9	38.75
520.275	98.1172
523.65	58.6826
527.025	24.6543
530.399	7.12891
533.774	74.7627
537.149	161.081
540.524	8.11816
543.899	31.9502
547.274	84.8496
550.648	186.547
554.023	90.7715
557.398	127.98
560.773	174.961
564.148	190.733
567.522	210.001
570.897	140.66
574.272	217.395
577.647	287.399
581.022	318.317
584.396	324.617
587.771	315.61
591.146	303.614
594.521	350.474
597.896	202.591
601.271	180.251
604.645	224.401
608.02	274.353
611.395	278.99
614.77	253.445
618.145	267.609
621.519	329.226
624.894	411.296
628.269	363.074
631.644	263.149
635.019	11.4531
638.394	63.0967
641.768	67.0684
645.143	91.7959
648.518	146.783
651.893	154.188
655.268	176.275
658.642	186.541
662.017	269.141
665.392	398.798
668.767	362.348
672.142	359.586
675.516	360.747
678.891	488.726
682.266	431.839
685.641	425.824
689.016	354.351
692.391	371.388
695.765	345.577
699.14	238.578
702.515	214.964
705.89	179.015
709.265	92.3594
712.639	75.5518
716.014	230.579
719.389	132.343
722.764	137.231
726.139	73.293
729.514	116.573
732.888	62.0713
736.263	99.0566
739.638	62.2139
743.013	73.9766
746.388	109.524
749.762	48.7559
753.137	215.691
756.512	110.241
759.887	88.1738
763.262	192.289
766.636	245.823
770.011	169.145
773.386	142.169
776.761	122.663
780.136	88.6943
783.51	67.5176
786.885	272.692
790.26	307.64
793.635	457.19
797.01	876.602
800.385	1004.18
803.759	538.842
807.134	74.3438
810.509	88.1816
813.884	56.0391
817.259	25.6387
820.634	239.016
824.008	373.103
827.383	309.799
830.758	342.301
834.133	394.152
837.508	401.33
840.882	320.852
844.257	312.963
847.632	452.547
851.007	342.291
854.382	335.51
857.756	319.762
861.131	326.93
864.506	351.9
867.881	361.287
871.256	325.992
874.63	536.664
878.005	719.916
881.38	1025.05
884.755	1680.23
888.13	2398.31
891.505	3514.75
894.879	4152.62
898.254	2919.34
901.629	2847.13
905.004	4245.69
908.379	6599.09
911.754	8981.36
915.128	5380.52
918.503	1896.13
921.878	1020.29
925.253	653.225
928.628	577.744
932.002	388.982
935.377	295.424
938.752	240.668
942.127	187.518
945.502	346.572
948.876	265.094
952.251	216.518
955.626	107.397
959.001	77.584
962.376	109.232
965.75	112.678
969.125	64.2402
972.5	39.1895
975.875	0.384766
979.25	48.7422
982.625	95.3555
985.999	84.0312
989.374	199.004
992.749	125.135
996.124	95.084
999.499	105.045
1002.87	185.963
1006.25	381.795
1009.62	492.684
1013	416.158
1016.37	436.648
1019.75	462.809
1023.12	493.856
1026.5	535.949
1029.87	490.512
1033.25	481.435
1036.62	421.791
1040	368.647
1043.37	348.019
1046.75	324.75
1050.12	332.147
1053.5	268.441
1056.87	173.486
1060.24	221.529
1063.62	203.781
1066.99	202.416
1070.37	287.043
1073.74	211.16
1077.12	268.709
1080.49	226.309
1083.87	185.508
1087.24	129.244
1090.62	50.5684
1093.99	78.9219
1097.37	20.2305
1100.74	10.9141
1104.12	40.0547
1107.49	18.502
1110.87	34.291
1114.24	106.914
1117.62	117.766
1120.99	143.275
1124.37	165.082
1127.74	179.881
1131.12	21.6934
1134.49	32.3555
1137.87	130.285
1141.24	154.441
1144.62	79.8613
1147.99	93.4082
1151.37	102.717
1154.74	209.566
1158.12	140.902
1161.49	167.207
1164.87	211.578
1168.24	198.633
1171.61	53.7148
1174.99	22.8105
1178.36	161.379
1181.74	231.83
1185.11	93.1543
1188.49	219.666
1191.86	86.6309
1195.24	26.293
1198.61	115.404
1201.99	140.406
1205.36	244.641
1208.74	146.582
1212.11	75.1465
1215.49	175.508
1218.86	147.91
1222.24	109.551
1225.61	230.928
1228.99	260.16
1232.36	57.4199
1235.74	17.8496
1239.11	14.625
1242.48	29.7188
1245.86	15.125
1249.23	3.05078
1252.61	36.3535
1255.98	10.1953
1259.36	35.8711
1262.73	81.2148
1266.11	105.098
1269.48	185.236
1272.86	155.594
1276.23	257.44
1279.61	99.0137
1282.98	101.147
1286.36	43.0605
1289.73	44.4688
1293.11	86.7695
1296.48	121.326
