Measurement: Raman, 532 nm, unoriented, Raman Data Processed
Mineral: Dmisteinbergite
Rruff sample: R130085
Ideal chemistry: CaAl_2_Si_2_O_8_
Locality: CV3 type carbonaceous chondrite NWA 2086 at University of Szeged, Hungary
Source: Krisztian Fintor
Description: Refractory mineral among clinopyroxene-grossular and spinel-gehlenite assemblage. Sample studied in Fintor et al (2013)
Raman shift (cm-1)	intensity
49.9128	0
52.8055	1.15121
55.6982	0.766508
58.5909	0.878501
61.4836	0.769
64.3763	0.881045
67.269	0.038042
70.1617	1.55736
73.0544	1.69289
75.9471	1.2501
78.8398	0.700606
81.7325	1.56717
84.6252	0.674035
87.5179	0.89243
90.4106	1.07781
93.3033	0.546647
96.196	1.52134
99.0887	2.3332
101.981	1.99976
104.874	1.98132
107.767	3.76076
110.659	5.5878
113.552	18.9967
116.445	31.6225
119.338	12.4858
122.23	3.06492
125.123	2.10022
128.016	0.33889
130.908	0.979663
133.801	0.050113
136.694	1.15926
139.587	0.389539
142.479	0.379168
145.372	0.289094
148.265	0.11401
151.157	0.890298
154.05	0.826426
156.943	0.86995
159.835	0.784759
162.728	0.120133
165.621	0.366618
168.513	0.593583
171.406	1.5664
174.299	0.950185
177.192	1.43063
180.084	1.09452
182.977	2.98662
185.87	1.3283
188.762	1.32998
191.655	0.905255
194.548	1.06825
197.44	0.443741
200.333	0.562756
203.226	0.781459
206.119	1.27528
209.011	0.951
211.904	1.841
214.797	2.32534
217.689	4.99601
220.582	5.83791
223.475	3.75428
226.368	1.70262
229.26	1.3665
232.153	0.947834
235.046	0.945499
237.938	0.891807
240.831	0.256331
243.724	0.807775
246.616	0.820394
249.509	0.640975
252.402	1.19337
255.294	0.703732
258.187	0.94229
261.08	0.90027
263.973	0.046634
266.865	0.068613
269.758	0.389142
272.651	0.702522
275.543	0.470118
278.436	0.048586
281.329	0.632423
284.221	0.465277
287.114	0.762526
290.007	0.64787
292.9	0.5321
295.792	0.476105
298.685	0.880592
301.578	0.851288
304.47	0.833545
307.363	1.60645
310.256	1.99255
313.149	1.90956
316.041	2.91338
318.934	3.96699
321.827	7.37094
324.719	12.2346
327.612	14.504
330.505	8.63396
333.397	3.55525
336.29	1.72339
339.183	1.08827
342.075	0.093176
344.968	0.833608
347.861	0.063779
350.754	0.189568
353.646	0.213221
356.539	0.70442
359.432	0.150421
362.324	0.711357
365.217	0.992726
368.11	0.522144
371.002	0.297335
373.895	0.162741
376.788	0.09582
379.681	0.063344
382.573	0.219718
385.466	0.890025
388.359	1.33013
391.251	2.97917
394.144	1.75551
397.037	1.43295
399.93	2.02168
402.822	2.20844
405.715	3.58419
408.608	3.58266
411.5	4.76103
414.393	5.75855
417.286	7.2378
420.178	8.65312
423.071	12.2493
425.964	15.701
428.856	20.2589
431.749	26.0176
434.642	29.9521
437.534	35.2
440.427	38.9412
443.32	36.9432
446.213	35.1832
449.105	29.2897
451.998	23.9477
454.891	18.1912
457.783	13.4312
460.676	9.35168
463.569	6.84974
466.462	4.99322
469.354	3.69567
472.247	2.91641
475.14	2.44667
478.032	1.5394
480.925	1.30377
483.818	1.3486
486.71	1.75395
489.603	0.872806
492.496	1.28482
495.389	0.998376
498.281	2.06106
501.174	3.14594
504.067	5.23025
506.959	3.58267
509.852	1.14766
512.745	0.60204
515.638	0.268057
518.53	0.032349
521.423	0.017839
524.316	0.623397
527.208	0.225851
530.101	0.315286
532.994	0.588925
535.886	0.564716
538.779	0.179008
541.672	0.298442
544.564	0.035689
547.457	0.709395
550.35	0.186617
553.243	0.20464
556.135	0.294464
559.028	1.20938
561.921	0.865217
564.813	0.680507
567.706	1.13163
570.599	0.602706
573.491	1.13227
576.384	0.520557
579.277	0.607754
582.17	0.65317
585.062	0.640786
587.955	0.518759
590.848	0.901866
593.74	0.300548
596.633	0.227924
599.526	0.258666
602.418	0.935059
605.311	0.087753
608.204	0.942782
611.097	0.344732
613.989	0.684738
616.882	0.351818
619.775	0.681079
622.667	0.391443
625.56	0.262951
628.453	0.408408
631.345	0.692964
634.238	0.59658
637.131	0.194244
640.024	0.549164
642.916	0.80964
645.809	0.557775
648.702	0.215014
651.594	1.07616
654.487	0.737232
657.38	1.02045
660.272	0.776701
663.165	0.672953
666.058	0.146639
668.951	0.311083
671.843	0.508095
674.736	0.835112
677.629	0.73155
680.521	0.721231
683.414	0.753236
686.307	0.946596
689.199	0.77118
692.092	0.597991
694.985	0.715835
697.878	0.999397
700.77	0.375175
703.663	1.04919
706.556	0.29754
709.448	1.03736
712.341	0.846302
715.234	0.924727
718.126	0.850797
721.019	0.735713
723.912	0.627598
726.804	0.499199
729.697	0.45868
732.59	0.679985
735.483	0.45177
738.375	0.508176
741.268	1.14795
744.161	0.943793
747.053	1.16662
749.946	0.566468
752.839	0.234038
755.731	0.035857
758.624	0.312998
761.517	0.131983
764.41	0.014922
767.302	0.278885
770.195	0.221966
773.088	0.946931
775.98	0.146223
778.873	0.299678
781.766	1.0096
784.659	0.076085
787.551	0.390632
790.444	0.766998
793.337	2.12757
796.229	3.94876
799.122	5.91313
802.015	6.56212
804.907	5.50443
807.8	4.01489
810.693	3.12121
813.586	1.62293
816.478	2.35364
819.371	2.09452
822.264	2.08605
825.156	1.41865
828.049	1.24821
830.942	1.06467
833.834	1.06758
836.727	1.38098
839.62	1.06105
842.513	0.736933
845.405	0.396346
848.298	0.721974
851.191	0.040864
854.083	0.49768
856.976	0.193705
859.869	0.498145
862.761	0.020888
865.654	0.021728
868.547	0.104689
871.439	0.008446
874.332	0.857912
877.225	1.37053
880.118	1.52523
883.01	2.9756
885.903	5.2987
888.796	6.70954
891.688	9.83146
894.581	9.75354
897.474	7.38351
900.366	6.38346
903.259	7.56135
906.152	13.627
909.045	28.1319
911.937	40.4759
914.83	25.9
917.723	13.6539
920.615	7.67551
923.508	5.5963
926.401	3.53299
929.293	2.31097
932.186	2.31259
935.079	1.53054
937.972	1.54219
940.864	1.41404
943.757	1.25819
946.65	1.14862
949.542	0.63782
952.435	0.228334
955.328	0.077695
958.221	0.463781
961.113	0.175209
964.006	0.025589
966.899	0.675011
969.791	0.160212
972.684	0.048179
975.577	0.334085
978.469	0.686893
981.362	0.661294
984.255	0.520519
987.148	0.369555
990.04	0.784898
992.933	1.23257
995.826	0.793965
998.718	1.29143
1001.61	1.4324
1004.5	1.15979
1007.4	0.649234
1010.29	1.24352
1013.18	0.608149
1016.07	0.988364
1018.97	0.648404
1021.86	0.031053
1024.75	0.875858
1027.64	0.102484
1030.54	0.716371
1033.43	0.010006
1036.32	0.248306
1039.22	0.914156
1042.11	0.730997
1045	0.375201
1047.89	0.015767
1050.79	0.063224
1053.68	0.287924
1056.57	0.344248
1059.46	0.608413
1062.36	0.139231
1065.25	0.332187
1068.14	0.817303
1071.04	-0.059317
1073.93	0.716391
1076.82	0.733917
1079.71	0.736049
1082.61	0.22352
1085.5	0.430728
1088.39	-0.108
1091.29	0.427569
1094.18	0.712296
1097.07	0.257615
1099.96	0.300456
1102.86	0.621243
1105.75	-0.0973673
1108.64	-0.0654806
1111.53	-0.0239625
1114.43	-0.101404
1117.32	0.314965
1120.21	-0.0312661
1123.1	0.00113019
1126	0.14414
1128.89	0.570602
1131.78	0.688462
1134.67	-0.10989
1137.57	0.573671
1140.46	-0.208776
1143.35	0.633125
1146.25	0.326729
1149.14	0.654205
1152.03	0.144088
1154.92	0.0614612
1157.82	0.671178
1160.71	-0.0031455
1163.6	0.66238
1166.49	0.194607
1169.39	-0.00621631
1172.28	-0.0790741
1175.17	0.428271
1178.07	-0.0064337
1180.96	-0.0980166
1183.85	-0.0528561
1186.74	-0.25056
1189.64	0.128416
1192.53	0.268239
1195.42	-0.192267
1198.32	0.24945
