Measurement: Raman, 785 nm, unoriented, Raman Data Processed
Mineral: Dmisteinbergite
Rruff sample: R130087
Ideal chemistry: CaAl_2_Si_2_O_8_
Locality: Katashina Village, Gunma Prefecture, Japan
Source: Michael Scott
Description: Colorless platelets with pearly luster. Associated with prehnite and wairakite, R061075
Raman shift (cm-1)	intensity
122.112	0
125.004	2455.05
127.897	8800.6
130.79	19327
133.682	11605.6
136.575	1923.94
139.468	2239.02
142.36	5711.65
145.253	11719.4
148.146	11726.5
151.038	5586.03
153.931	2838.7
156.824	2511.05
159.717	2167.4
162.609	1743.46
165.502	1341.31
168.395	981.446
171.287	687.945
174.18	397.904
177.073	230.31
179.965	35.6934
182.858	94.9038
185.751	227.83
188.644	120.619
191.536	331.974
194.429	86.8628
197.322	77.9165
200.214	7.4458
203.107	24.6226
206	46.5078
208.893	36.6782
211.785	65.0449
214.678	134.461
217.571	239.253
220.463	272.067
223.356	320.584
226.249	303.237
229.141	339.387
232.034	448.416
234.927	508.457
237.82	528.958
240.712	570.37
243.605	623.71
246.498	638.238
249.39	616.161
252.283	628.366
255.176	665.517
258.068	639.474
260.961	591.723
263.854	558.42
266.746	514.059
269.639	439.367
272.532	387.163
275.425	423.918
278.317	439.727
281.21	387.467
284.103	420.392
286.995	270.562
289.888	274.872
292.781	341.173
295.673	361.074
298.566	318.918
301.459	385.044
304.351	378.556
307.244	457.915
310.137	458.364
313.03	537.82
315.922	682.318
318.815	1145.6
321.708	1787.85
324.6	2881.7
327.493	3595.69
330.386	2601.14
333.279	1008.06
336.171	391.881
339.064	236.13
341.957	128.712
344.849	116.817
347.742	16.1724
350.635	41.229
353.527	21.6719
356.42	35.5918
359.313	79.4898
362.205	43.7153
365.098	4.13428
367.991	28.9258
370.884	10.8525
373.776	19.6133
376.669	60.4605
379.562	67.7349
382.454	27.2446
385.347	85.3813
388.24	113.709
391.132	139.382
394.025	144.309
396.918	157.548
399.811	158.268
402.703	246.086
405.596	185.968
408.489	278.968
411.381	424.551
414.274	603.214
417.167	722.273
420.06	993.669
422.952	1444.83
425.845	2019.32
428.738	2812.46
431.63	3821.67
434.523	5145.12
437.416	6335.19
440.308	6916.97
443.201	6226.35
446.094	4758.19
448.986	3466.46
451.879	2498.13
454.772	1863.21
457.665	1452.52
460.557	986.706
463.45	715.831
466.343	607.726
469.235	486.164
472.128	379.007
475.021	398.621
477.913	333.378
480.806	330.362
483.699	499.774
486.592	586.716
489.484	652.422
492.377	378.836
495.27	253.135
498.162	288.698
501.055	431.571
503.948	524.811
506.841	470.427
509.733	160.024
512.626	94.0786
515.519	37.231
518.411	20.5957
521.304	98.0332
524.197	16.7739
527.089	13.4492
529.982	12.9683
532.875	5.16309
535.768	69.7197
538.66	48.5586
541.553	9.79053
544.446	9.12207
547.338	5.08643
550.231	15.2671
553.124	15.1543
556.016	62.5449
558.909	39.856
561.802	62.8066
564.694	44.0547
567.587	37.9238
570.48	18.9277
573.373	82.6689
576.265	105.135
579.158	95.4985
582.051	58.668
584.943	104.609
587.836	83.4189
590.729	38.2891
593.621	78.7861
596.514	67.9009
599.407	3.62891
602.299	38.0884
605.192	80.3648
608.085	64.7256
610.978	31.7075
613.87	83.5112
616.763	24.7002
619.656	80.5664
622.548	98.2959
625.441	8.35791
628.334	86.9961
631.226	46.9277
634.119	69.1274
637.012	81.9995
639.905	30.8511
642.797	53.4346
645.69	80.0293
648.583	43.4365
651.475	96.7988
654.368	74.7158
657.261	97.6436
660.154	13.7676
663.046	92.0625
665.939	74.2197
668.832	123.115
671.724	125.172
674.617	119.828
677.51	177.727
680.402	178.62
683.295	210.77
686.188	156.776
689.081	115.887
691.973	73.644
694.866	146.129
697.759	135.302
700.651	96.4595
703.544	130.889
706.437	131.75
709.329	132.07
712.222	72.0063
715.115	36.5698
718.008	109.534
720.9	85.667
723.793	91.9312
726.686	110.49
729.578	68.21
732.471	3.50098
735.364	43.7588
738.256	42.4365
741.149	23.2515
744.042	20.9966
746.934	10.3184
749.827	14.0894
752.72	60.5293
755.612	73.1894
758.505	80.5361
761.398	67.5459
764.291	66.7715
767.183	68.7031
770.076	74.1021
772.969	75.8372
775.861	49.8945
778.754	66.0024
781.647	95.9597
784.54	127.706
787.432	143.287
790.325	162.995
793.218	286.339
796.11	466.405
799.003	729.107
801.896	700.245
804.788	342.553
807.681	238.26
810.574	127.203
813.467	127.727
816.359	59.8318
819.252	20.4351
822.145	0.237549
825.037	16.7979
827.93	79.3054
830.823	11.4446
833.716	18.207
836.608	1.75537
839.501	32.188
842.394	39.9973
845.286	12.5542
848.179	59.8379
851.072	11.2358
853.964	5.82495
856.857	68.7856
859.75	37.9319
862.643	58.1025
865.535	59.4448
868.428	112.588
871.321	134.08
874.213	144.847
877.106	143.595
879.999	324.868
882.891	357.572
885.784	547.626
888.677	1006.16
891.569	1515.31
894.462	1879.91
897.355	1374.8
900.247	982.795
903.14	1200.88
906.033	2210.4
908.926	4177.64
911.818	6279.23
914.711	4029.84
917.604	1589.85
920.496	731.199
923.389	537.612
926.282	308.717
929.174	243.342
932.067	188.69
934.96	186.015
937.853	159.047
940.745	120.636
943.638	70.1655
946.531	105.266
949.423	98.1033
952.316	31.7688
955.209	42.9551
958.101	36.2676
960.994	94.9539
963.887	83.97
966.78	57.9937
969.672	37.8687
972.565	40.311
975.458	87.1614
978.35	137.477
981.243	81.9336
984.136	72.3013
987.029	40.1912
989.921	0.48291
992.814	14.5601
995.707	65.8674
998.599	61.7964
1001.49	46.0759
1004.38	87.0203
1007.28	89.8037
1010.17	53.9993
1013.06	30.3362
1015.96	75.4575
1018.85	28.6733
1021.74	71.053
1024.63	12.0361
1027.53	38.658
1030.42	80.5378
1033.31	75.279
1036.2	76.5044
1039.1	100.771
1041.99	103.661
1044.88	94.4817
1047.78	93.2041
1050.67	48.0137
1053.56	130.614
1056.45	85.7344
1059.35	86.5508
1062.24	107.207
1065.13	76.7996
1068.02	29.165
1070.92	108.195
1073.81	49.7437
1076.7	158.415
1079.6	79.636
1082.49	70.1143
1085.38	99.167
1088.27	70.5903
1091.17	88.3755
1094.06	3.04492
1096.95	32.5681
1099.84	40.2217
1102.74	10.4473
1105.63	86.2114
1108.52	3.76856
1111.41	52.2336
1114.31	0.256104
1117.2	6.30689
1120.09	26.7651
1122.98	69.8359
1125.88	112.841
1128.77	66.3298
1131.66	93.1482
1134.56	86.4751
1137.45	79.4028
1140.34	49.9595
1143.23	71.9861
1146.13	62.1152
1149.02	81.3933
1151.91	4.23242
1154.81	58.4763
1157.7	70.074
1160.59	9.5105
1163.48	0.845703
1166.38	12.2664
1169.27	70.5647
1172.16	33.686
1175.05	59.4463
1177.95	29.99
1180.84	103.56
1183.73	44.6072
1186.62	45.9504
1189.52	84.4456
1192.41	75.4856
1195.3	102.836
1198.2	114.459
1201.09	43.2786
1203.98	18.4475
1206.87	62.9756
1209.77	96.198
1212.66	54.3897
1215.55	146.213
1218.44	112.927
1221.34	84.3777
1224.23	118.437
1227.12	51.8215
1230.02	133.324
1232.91	63.8374
1235.8	17.0649
1238.69	6.71631
1241.59	111.582
1244.48	66.3084
1247.37	103.759
1250.26	58.9224
1253.16	81.6628
1256.05	104.631
1258.94	50.8987
1261.84	37.1841
1264.73	44.7075
1267.62	44.5632
