Measurement: Raman, 532 nm, unoriented, Raman Data Processed
Mineral: Dolerophanite
Rruff sample: R060139
Ideal chemistry: Cu_2_OSO_4_
Locality: Vesuvius, Italy
Source: University of Arizona Mineral Museum
Description: Rootbeer brown fragment
Raman shift (cm-1)	intensity
150.528	0
153.421	18.9497
156.314	55.1396
159.207	70.3506
162.099	47.2867
164.992	20.727
167.885	9.93465
170.777	4.65064
173.67	5.05107
176.563	6.11385
179.455	0.728291
182.348	1.39208
185.241	1.0525
188.133	0.714768
191.026	0.032954
193.919	1.94236
196.812	1.04981
199.704	0.944706
202.597	0.782141
205.49	4.38649
208.382	9.46051
211.275	25.6647
214.168	42.2069
217.06	62.7705
219.953	82.8714
222.846	108.561
225.739	144.971
228.631	177.036
231.524	183.409
234.417	144.418
237.309	94.6161
240.202	63.5624
243.095	44.5729
245.988	31.6758
248.88	22.5772
251.773	16.3835
254.666	11.6548
257.558	5.64283
260.451	3.00315
263.344	1.6574
266.236	1.50995
269.129	0.932896
272.022	1.56342
274.915	0.783597
277.807	2.27321
280.7	3.60576
283.593	5.68505
286.485	10.8576
289.378	14.9894
292.271	17.3037
295.163	18.5028
298.056	18.9106
300.949	16.9766
303.842	13.9281
306.734	9.20269
309.627	8.29861
312.52	5.27431
315.412	5.84156
318.305	3.13724
321.198	1.81943
324.091	2.58178
326.983	2.64758
329.876	0.887322
332.769	1.29205
335.661	2.13535
338.554	0.749067
341.447	2.11839
344.339	0.108142
347.232	0.647749
350.125	0.0527
353.018	0.208492
355.91	0.323585
358.803	0.376625
361.696	0.086208
364.588	0.029515
367.481	0.202151
370.374	0.902788
373.267	0.320768
376.159	0.101871
379.052	1.58321
381.945	0.028477
384.837	0.047624
387.73	0.890741
390.623	0.26681
393.515	0.044351
396.408	0.467611
399.301	1.22854
402.194	2.18429
405.086	2.84585
407.979	2.76589
410.872	6.52891
413.764	10.4444
416.657	15.6971
419.55	19.9608
422.442	26.2577
425.335	24.1302
428.228	17.7996
431.121	15.1999
434.013	15.2443
436.906	17.3512
439.799	23.5566
442.691	27.8028
445.584	35.2944
448.477	45.6875
451.37	55.4724
454.262	66.9961
457.155	80.2045
460.048	92.2084
462.94	93.2601
465.833	76.4133
468.726	57.2014
471.618	38.8843
474.511	28.3317
477.404	19.3314
480.297	14.5614
483.189	10.5252
486.082	8.79706
488.975	4.72425
491.867	4.54312
494.76	3.35666
497.653	1.51486
500.546	2.07976
503.438	1.22035
506.331	0.333852
509.224	0.008128
512.116	0.488356
515.009	0.683387
517.902	0.184092
520.794	0.079795
523.687	0.318236
526.58	0.238765
529.472	0.071671
532.365	0.677468
535.258	0.155547
538.151	0.3555
541.043	0.665891
543.936	0.464504
546.829	0.102713
549.721	3.56789
552.614	5.98583
555.507	8.48845
558.399	11.1224
561.292	16.5419
564.185	20.6441
567.078	22.4968
569.97	18.526
572.863	17.3335
575.756	14.8537
578.649	15.8776
581.541	17.1788
584.434	21.2623
587.327	26.3174
590.219	24.9851
593.112	15.9697
596.005	8.0496
598.897	3.87508
601.79	1.02016
604.683	0.281536
607.576	0.478841
610.468	3.63331
613.361	12.7494
616.254	25.9961
619.146	43.5095
622.039	70.3434
624.932	113.072
627.824	148.65
630.717	131.881
633.61	99.2944
636.503	99.8178
639.395	124.139
642.288	153.581
645.181	176.177
648.073	156.613
650.966	105.742
653.859	68.2779
656.751	43.8694
659.644	31.4264
662.537	21.7109
665.43	22.2065
668.322	10.2492
671.215	7.52015
674.108	6.75897
677	3.2088
679.893	0.842236
682.786	1.34372
685.678	0.026839
688.571	0.593413
691.464	0.443929
694.357	0.291571
697.249	0.313653
700.142	0.169187
703.035	0.028729
705.927	0.595025
708.82	0.317147
711.713	0.208577
714.606	0.248145
717.498	0.135428
720.391	0.480631
723.284	0.223954
726.176	1.33572
729.069	0.893438
731.962	0.584523
734.855	1.53486
737.747	0.869401
740.64	0.668994
743.533	1.00868
746.425	0.765646
749.318	1.93531
752.211	1.54573
755.103	1.98429
757.996	2.56249
760.889	1.24953
763.782	1.42426
766.674	0.079745
769.567	0.12463
772.46	0.019786
775.352	1.42471
778.245	0.022893
781.138	0.214617
784.03	0.146196
786.923	0.683234
789.816	1.9307
792.709	1.41316
795.601	0.183518
798.494	0.16075
801.387	1.85852
804.279	1.3648
807.172	2.43787
810.065	4.01485
812.957	2.81863
815.85	1.75534
818.743	2.46509
821.636	1.56226
824.528	2.44829
827.421	1.01808
830.314	1.55026
833.206	2.546
836.099	2.3998
838.992	2.80576
841.885	4.37648
844.777	1.66909
847.67	2.26742
850.563	2.5963
853.455	3.21238
856.348	2.17782
859.241	2.85427
862.134	2.24013
865.026	0.005827
867.919	2.18765
870.812	1.52123
873.704	1.61404
876.597	0.937337
879.49	1.3075
882.382	2.40302
885.275	1.68174
888.168	1.52138
891.061	1.38701
893.953	1.37234
896.846	0.984017
899.739	0.118634
902.631	0.084478
905.524	1.35564
908.417	0.572586
911.309	0.078111
914.202	0.399953
917.095	0.084044
919.987	0.78581
922.88	0.895355
925.773	0.3273
928.666	0.086336
931.558	0.28129
934.451	0.083348
937.344	0.260826
940.236	1.20557
943.129	0.276068
946.022	1.01506
948.915	0.128583
951.807	0.425221
954.7	0.431699
957.593	0.140191
960.485	0.583936
963.378	3.4666
966.271	3.83584
969.163	8.90381
972.056	11.0715
974.949	16.1054
977.842	24.0208
980.734	34.76
983.627	54.4931
986.52	91.9704
989.412	156.118
992.305	243.099
995.198	369.02
998.091	534.026
1000.98	577.963
1003.88	355.044
1006.77	167.231
1009.66	86.844
1012.55	57.8049
1015.45	45.7686
1018.34	44.2051
1021.23	46.5293
1024.12	42.4959
1027.02	27.9861
1029.91	14.1089
1032.8	7.32443
1035.7	3.12119
1038.59	0.545283
1041.48	0.651732
1044.37	0.233971
1047.27	0.973149
1050.16	0.15071
1053.05	0.914644
1055.94	0.924682
1058.84	1.1957
1061.73	3.03649
1064.62	3.40437
1067.52	4.64033
1070.41	6.88182
1073.3	6.85891
1076.19	10.9262
1079.09	16.6896
1081.98	22.7461
1084.87	33.8036
1087.76	50.1765
1090.66	72.1446
1093.55	100.009
1096.44	132.099
1099.34	158.447
1102.23	156.863
1105.12	123.831
1108.01	86.8149
1110.91	59.4853
1113.8	39.2362
1116.69	27.6366
1119.58	17.3933
1122.48	9.84796
1125.37	7.29104
1128.26	0.710493
1131.15	1.24263
1134.05	0.428452
1136.94	0.143524
1139.83	0.415107
1142.73	0.252062
1145.62	0.514401
1148.51	0.108581
1151.4	0.345846
1154.3	1.6283
1157.19	5.59514
1160.08	14.191
1162.97	20.3446
1165.87	35.497
1168.76	56.0521
1171.65	85.7166
1174.55	118.373
1177.44	123.469
1180.33	90.8206
1183.22	55.339
1186.12	34.9582
1189.01	23.6029
1191.9	19.919
1194.79	11.4865
1197.69	8.05404
1200.58	6.47893
1203.47	5.39019
1206.37	3.81303
1209.26	2.93023
1212.15	2.02059
1215.04	2.36282
1217.94	1.77833
1220.83	0.932757
1223.72	0.82801
1226.61	0.453044
1229.51	0.113543
1232.4	0.428798
1235.29	0.608173
1238.18	0.475926
1241.08	0.178278
1243.97	1.18256
1246.86	0.3833
1249.76	1.00477
1252.65	1.36129
1255.54	1.32213
1258.43	2.7988
1261.33	2.46359
1264.22	0.633441
1267.11	1.41371
1270.01	1.20303
1272.9	2.31292
1275.79	0.322792
1278.68	0.639334
1281.58	0.156565
1284.47	1.38996
1287.36	0.823833
1290.25	1.05595
1293.15	0.18267
1296.04	0.317851
1298.93	1.09073
1301.82	0
