Measurement: Raman, 532 nm, unoriented, Raman Data Processed
Mineral: Dolerophanite
Rruff sample: R070652
Ideal chemistry: Cu_2_OSO_4_
Locality: First scoria cone, Northern Breakthrough (North Breach), Great Fissure (Main Fracture) eruption, Tolbachik volcano, Kamchatka Oblast', Far-Eastern Region, Russia
Source: Michael Scott
Description: Very dark brown prismatic crystal to golden brown crystal fragments associated with euchlorine
Raman shift (cm-1)	intensity
107.026	0
110.401	379.019
113.776	166.322
117.15	24.7349
120.525	135.191
123.9	663.766
127.275	514.752
130.65	527.622
134.025	384.219
137.399	506.271
140.774	875.298
144.149	1118.15
147.524	1511.09
150.899	1654.82
154.274	1935.42
157.648	2182.58
161.023	2072.28
164.398	1417.03
167.773	851.495
171.148	514.689
174.522	210.753
177.897	79.8396
181.272	46.2463
184.647	38.9029
188.022	8.61462
191.396	110.618
194.771	193.94
198.146	384.811
201.521	569.62
204.896	578.156
208.27	485.681
211.645	359.936
215.02	399.931
218.395	529.999
221.77	676.523
225.145	929.864
228.519	1227.35
231.894	1514.98
235.269	1276.56
238.644	811.747
242.019	502.467
245.393	413.075
248.768	430.572
252.143	344.673
255.518	250.08
258.893	258.691
262.268	291.192
265.642	447.935
269.017	300.883
272.392	149.306
275.767	81.9789
279.142	51.913
282.517	1.98926
285.891	23.3035
289.266	65.9933
292.641	197.935
296.016	225.064
299.39	158.005
302.765	50.8735
306.14	26.9307
309.515	37.0892
312.89	110.25
316.265	175.863
319.639	318.139
323.014	421.349
326.389	630.432
329.764	752.602
333.139	730.72
336.514	539.212
339.888	391.001
343.263	292.536
346.638	170.996
350.013	70.978
353.388	52.0364
356.762	15.5043
360.137	11.922
363.512	2.49963
366.887	26.7355
370.262	39.4143
373.637	0.189453
377.011	62.1338
380.386	19.8436
383.761	35.1938
387.136	119.158
390.511	144.558
393.885	353.701
397.26	590.455
400.635	1012.72
404.01	1495.59
407.385	2114.38
410.76	2996.61
414.134	3718.21
417.509	3661.86
420.884	2909.21
424.259	2294.85
427.634	1738.89
431.008	1309.62
434.383	1157.48
437.758	1274.98
441.133	1297.54
444.508	1277.93
447.882	1335.95
451.257	1427.03
454.632	1593
458.007	1793
461.382	2123.6
464.757	2232.81
468.131	2282.13
471.506	2165.39
474.881	1926.99
478.256	1800.4
481.631	1713.07
485.005	1660.02
488.38	1463.35
491.755	1181.37
495.13	1119.46
498.505	1065.2
501.88	953.678
505.254	701.257
508.629	483.496
512.004	288.3
515.379	189.154
518.754	122.985
522.128	70.296
525.503	21.8497
528.878	8.25311
532.253	4.27252
535.628	72.2646
539.002	51.3785
542.377	55.9232
545.752	30.2719
549.127	11.7752
552.502	79.9197
555.876	130.014
559.251	259.781
562.626	371.27
566.001	553.536
569.376	626.301
572.751	532.716
576.125	446.502
579.5	465.775
582.875	507.46
586.25	677.794
589.625	862.41
593	945.747
596.374	993.476
599.749	957.313
603.124	738.832
606.499	627.211
609.874	574.745
613.248	653.833
616.623	949.828
619.998	1380.35
623.373	2013.7
626.748	2859.72
630.122	3343.59
633.497	2139.13
636.872	1149.79
640.247	762.4
643.622	664.662
646.997	618.775
650.371	421.573
653.746	280.887
657.121	156.654
660.496	131.312
663.871	50.7369
667.245	62.1216
670.62	25.0359
673.995	2.24316
677.37	11.0488
680.745	14.3606
684.12	14.3055
687.494	22.1095
690.869	21.3707
694.244	3.5202
697.619	21.0333
700.994	17.4452
704.368	9.35956
707.743	18.3166
711.118	4.84631
714.493	31.5069
717.868	44.4039
721.242	37.7649
724.617	86.9467
727.992	96.0488
731.367	127.43
734.742	147.702
738.117	178.179
741.491	178.206
744.866	185.342
748.241	192.791
751.616	178.1
754.991	189.184
758.365	182.182
761.74	151.449
765.115	163.488
768.49	159.719
771.865	149.078
775.24	151.916
778.614	194.384
781.989	164.56
785.364	154.545
788.739	162.037
792.114	237.808
795.489	56.1777
798.863	71.5572
802.238	1.21881
805.613	8.7774
808.988	6.54291
812.362	9.24701
815.737	6.14288
819.112	2.2456
822.487	5.69098
825.862	10.8224
829.237	11.1755
832.611	17.852
835.986	49.7585
839.361	20.636
842.736	46.4783
846.111	68.9658
849.486	98.8188
852.86	87.0387
856.235	81.2461
859.61	100.718
862.985	93.5568
866.36	84.4016
869.734	75.6952
873.109	89.9966
876.484	62.8849
879.859	46.8445
883.234	41.4814
886.609	57.6382
889.983	47.4653
893.358	76.001
896.733	57.5237
900.108	85.6771
903.482	21.4358
906.857	30.0052
910.232	20.22
913.607	27.0192
916.982	30.3657
920.357	22.1944
923.731	2.75952
927.106	21.8284
930.481	17.3967
933.856	19.6521
937.231	28.9287
940.606	3.85175
943.98	26.3892
947.355	20.6396
950.73	8.47699
954.105	9.44556
957.48	41.8051
960.854	90.3229
964.229	214.196
967.604	378.693
970.979	666.76
974.354	1224.46
977.729	2281.23
981.103	3911.99
984.478	6041.13
987.853	8529.17
991.228	8978.22
994.602	8078.97
997.977	7931.71
1001.35	8256.21
1004.73	5528.73
1008.1	2921.02
1011.48	1843.64
1014.85	1785.94
1018.23	2108.69
1021.6	2504.3
1024.98	2367.94
1028.35	1568.67
1031.73	841.968
1035.1	450.882
1038.47	191.225
1041.85	126.303
1045.22	27.0154
1048.6	17.3543
1051.97	4.01623
1055.35	13.0521
1058.72	80.6582
1062.1	206.35
1065.47	442.017
1068.85	708.935
1072.22	1067.46
1075.6	1287.59
1078.97	1277.05
1082.35	1022.97
1085.72	797.422
1089.1	555.754
1092.47	519.445
1095.85	601.412
1099.22	705.849
1102.6	737.788
1105.97	564.633
1109.35	307.647
1112.72	110.928
1116.1	33.4473
1119.47	6.45801
1122.85	0.378662
1126.22	3.36224
1129.6	23.8607
1132.97	47.4863
1136.35	33.249
1139.72	12.8346
1143.09	5.51172
1146.47	14.2104
1149.84	121.681
1153.22	189.61
1156.59	373.444
1159.97	566.104
1163.34	866.208
1166.72	1048.64
1170.09	1248
1173.47	1288.77
1176.84	1128.54
1180.22	849.04
1183.59	472.445
1186.97	236.605
1190.34	146.563
1193.72	97.468
1197.09	96.4811
1200.47	44.2626
1203.84	83.0856
1207.22	28.7867
1210.59	24.8984
1213.97	31.0868
1217.34	8.29663
1220.71	41.139
1224.09	12.9739
1227.46	0.01062
1230.84	17.2823
1234.21	23.4346
1237.59	34.075
1240.96	59.2855
1244.34	61.3395
1247.71	37.1763
1251.09	11.7287
1254.46	19.868
1257.84	10.0587
1261.21	33.3152
1264.59	0.847656
1267.96	28.3538
