Measurement: Raman, 532 nm, unoriented, Raman Data Processed
Mineral: Dolomite
Rruff sample: R050241
Ideal chemistry: CaMg(CO_3_)_2_
Locality: Eugui quarries, Navarre, Spain
Source: Marcus Origlieri
Description: Light gray colored tabular crystals
Measured chemistry: (Ca_0.96_Mg_0.04_)_Σ=1_(Mg_0.98_Fe^2+^_0.02_)_Σ=1_(CO_3_)_2_ ; CO_2_ estimated by difference
Raman shift (cm-1)	intensity
117.852	0
121.227	1.92674
124.602	8.39879
127.976	11.2759
131.351	32.4761
134.726	55.8508
138.101	66.212
141.476	67.0606
144.85	63.7276
148.225	81.6507
151.6	119.948
154.975	206.728
158.35	430.378
161.725	582.056
165.099	725.199
168.474	967.39
171.849	1449.39
175.224	2809.41
178.599	3443.26
181.973	1098.24
185.348	389.71
188.723	195.973
192.098	109.114
195.473	69.1403
198.847	38.2131
202.222	23.1452
205.597	8.95743
208.972	5.25281
212.347	0.588379
215.722	1.86508
219.096	2.36215
222.471	3.91443
225.846	16.5201
229.221	12.2355
232.596	1.63687
235.97	5.07071
239.345	7.16495
242.72	6.47159
246.095	3.59369
249.47	1.21719
252.845	9.06418
256.219	20.9581
259.594	30.4846
262.969	39.5263
266.344	67.2022
269.719	100.76
273.093	154.552
276.468	266.516
279.843	481.967
283.218	842.921
286.593	1187.33
289.967	1540.73
293.342	2118.21
296.717	3105.15
300.092	4230.64
303.467	3501.72
306.842	1693.49
310.216	813.086
313.591	456.549
316.966	286.421
320.341	191.832
323.716	141.004
327.091	113.787
330.465	113.858
333.84	151.252
337.215	229.162
340.59	305.271
343.965	160.501
347.339	62.9547
350.714	31.9647
354.089	15.6986
357.464	6.80731
360.839	5.49737
364.214	6.71695
367.588	10.5652
370.963	3.91202
374.338	8.92716
377.713	2.33096
381.088	0.396973
384.462	6.51712
387.837	3.33758
391.212	2.25977
394.587	3.23212
397.962	0.523621
401.337	2.75775
404.711	2.09848
408.086	7.2247
411.461	4.77368
414.836	5.9129
418.211	5.6922
421.585	10.2304
424.96	1.50366
428.335	8.78485
431.71	3.74121
435.085	23.7418
438.459	20.2653
441.834	32.5159
445.209	10.2058
448.584	10.8367
451.959	6.02948
455.334	7.02844
458.708	6.47479
462.083	4.4671
465.458	2.1687
468.833	6.97217
472.208	9.21918
475.582	9.36298
478.957	3.2674
482.332	10.7808
485.707	5.2038
489.082	3.27533
492.457	2.11981
495.831	9.98053
499.206	11.934
502.581	7.78265
505.956	11.0058
509.331	2.99884
512.705	4.43597
516.08	0.415588
519.455	2.63684
522.83	1.82001
526.205	7.58295
529.58	4.49005
532.954	1.15649
536.329	8.71252
539.704	4.85858
543.079	6.5445
546.454	9.48596
549.828	1.87341
553.203	5.17859
556.578	2.16473
559.953	4.97095
563.328	11.4405
566.702	3.68707
570.077	3.14087
573.452	2.93396
576.827	7.08197
580.202	7.89002
583.577	9.57825
586.951	11.1503
590.326	8.58557
593.701	10.3998
597.076	9.32501
600.451	2.39545
603.825	9.08313
607.2	6.82245
610.575	2.55042
613.95	2.38379
617.325	0.79364
620.699	8.87366
624.074	0.034973
627.449	3.55572
630.824	4.45197
634.199	0.674927
637.573	8.99847
640.948	1.80341
644.323	6.30853
647.698	5.08356
651.073	7.9397
654.448	4.77649
657.822	4.87537
661.197	0.783508
664.572	0.78186
667.947	0.608765
671.322	7.36414
674.697	8.16876
678.071	14.5456
681.446	11.4898
684.821	12.5404
688.196	21.6804
691.571	28.1066
694.945	40.3919
698.32	46.8073
701.695	71.5521
705.07	83.7684
708.445	134.119
711.819	198.262
715.194	282.06
718.569	408.921
721.944	618.948
725.319	758.663
728.694	558.491
732.068	256.698
735.443	119.046
738.818	61.54
742.193	38.3848
745.568	29.8493
748.942	16.5154
752.317	11.4918
755.692	6.12518
759.067	8.32617
762.442	2.75824
765.817	10.6435
769.191	5.30353
772.566	4.78717
775.941	4.39185
779.316	1.03686
782.691	2.19977
786.065	0.308228
789.44	1.83069
792.815	6.25433
796.19	1.04327
799.565	3.68335
802.939	0.601196
806.314	2.3349
809.689	7.58838
813.064	10.5501
816.439	4.02606
819.814	8.12946
823.188	5.77307
826.563	5.5827
829.938	7.7218
833.313	10.9824
836.688	6.21143
840.062	2.37891
843.437	4.90747
846.812	5.14032
850.187	4.91492
853.562	3.50568
856.937	5.3985
860.311	0.693726
863.686	5.11151
867.061	9.24847
870.436	14.5883
873.811	19.4049
877.186	23.4238
880.56	61.1895
883.935	84.5176
887.31	20.5911
890.685	12.8226
894.06	14.4354
897.434	9.3374
900.809	13.1246
904.184	3.99713
907.559	5.57019
910.934	7.63623
914.308	6.42438
917.683	10.3011
921.058	6.09796
924.433	10.7214
927.808	14.2575
931.183	13.9253
934.557	8.88983
937.932	7.19647
941.307	12.052
944.682	17.5527
948.057	8.75964
951.432	9.02051
954.806	9.06189
958.181	9.69324
961.556	10.662
964.931	5.75842
968.306	1.4375
971.68	6.95789
975.055	4.40881
978.43	4.64661
981.805	2.7207
985.18	0.562256
988.554	1.13245
991.929	2.82654
995.304	4.28162
998.679	1.09973
1002.05	3.08643
1005.43	1.35779
1008.8	2.146
1012.18	2.10498
1015.55	5.85449
1018.93	4.17651
1022.3	8.27222
1025.68	13.4813
1029.05	9.78906
1032.43	10.5507
1035.8	17.1936
1039.18	17.0292
1042.55	22.9883
1045.93	36.0894
1049.3	36.3643
1052.68	56.6337
1056.05	75.5608
1059.43	101.736
1062.8	144.752
1066.17	227.592
1069.55	323.415
1072.92	450.493
1076.3	618.576
1079.67	782.953
1083.05	1012.11
1086.42	1657.89
1089.8	2744.23
1093.17	4585.05
1096.55	9725.28
1099.92	14362.7
1103.3	4891.65
1106.67	1433.47
1110.05	613.413
1113.42	333.397
1116.8	185.169
1120.17	106.622
1123.55	73.7664
1126.92	47.4653
1130.3	20.4657
1133.67	17.2825
1137.05	6.98975
1140.42	2.28662
1143.8	5.78735
1147.17	7.47583
1150.55	3.27771
1153.92	0.218018
1157.3	1.026
1160.67	4.34985
1164.05	9.21423
1167.42	5.75781
1170.79	6.0083
1174.17	0.228149
1177.54	0.467407
1180.92	7.52698
1184.29	13.2333
1187.67	5.2677
1191.04	11.9688
1194.42	8.74622
1197.79	2.40979
1201.17	8.19898
1204.54	13.1262
1207.92	9.22229
1211.29	10.7228
1214.67	13.6044
1218.04	19.8145
1221.42	10.5941
1224.79	10.9094
1228.17	16.2549
1231.54	3.45923
1234.92	10.4872
1238.29	0.133667
1241.67	13.6829
1245.04	6.2749
1248.41	4.80298
1251.79	11.7173
1255.16	13.5403
1258.54	9.21387
1261.91	6.52405
1265.29	4.41528
1268.66	9.33289
1272.04	12.2878
1275.41	3.23682
1278.79	9.6781
1282.16	0.958862
1285.54	10.8888
1288.91	2.60413
1292.29	0.263916
