Measurement: Raman, 780 nm, unoriented, Raman Data Processed
Mineral: Dolomite
Rruff sample: R100118
Ideal chemistry: CaMg(CO_3_)_2_
Locality: Bay Mag mine, Mount Brussilof, British Columbia, Canada
Source: Ray Hill and Robert Woodside
Description: Colorless crystals and cleavage fragments
Raman shift (cm-1)	intensity
118.568	0
121.943	0.224487
125.318	0.339703
128.693	1.49001
132.067	1.64678
135.442	0.127682
138.817	2.74722
142.192	3.57813
145.567	3.6071
148.941	6.8968
152.316	18.6818
155.691	47.2985
159.066	82.1721
162.441	99.7058
165.816	140.948
169.19	207.318
172.565	345.307
175.94	691.398
179.315	479.936
182.69	126.282
186.065	50.5516
189.439	24.0258
192.814	13.8866
196.189	7.23286
199.564	4.27981
202.939	2.01056
206.313	0.306232
209.688	0.039425
213.063	0.032383
216.438	0.507023
219.813	0.041149
223.188	1.9125
226.562	4.47886
229.937	4.16042
233.312	1.37529
236.687	0.94824
240.061	0.306202
243.436	0.100582
246.811	0.75095
250.186	0.048834
253.561	1.01938
256.936	1.8756
260.31	3.31818
263.685	6.08945
267.06	10.2954
270.435	16.0341
273.81	27.171
277.185	49.0936
280.559	91.7264
283.934	155.25
287.309	206.501
290.684	281.971
294.059	406.091
297.433	627.906
300.808	819.216
304.183	545.985
307.558	236.971
310.933	115.59
314.308	68.6072
317.682	43.9916
321.057	30.255
324.432	22.1446
327.807	18.13
331.182	19.2909
334.556	22.2883
337.931	33.9875
341.306	30.2215
344.681	11.765
348.056	3.89614
351.43	2.16604
354.805	1.70813
358.18	0.066036
361.555	1.76111
364.93	0.198774
368.305	1.492
371.679	0.69286
375.054	1.17387
378.429	0.22418
381.804	0.285427
385.179	0.392412
388.553	0.571242
391.928	0.543394
395.303	0.49913
398.678	0.004537
402.053	0.28585
405.427	0.620699
408.802	0.677149
412.177	0.271059
415.552	0.808578
418.927	1.13301
422.301	0.424228
425.676	2.14992
429.051	1.97968
432.426	1.09796
435.801	1.58588
439.176	1.7566
442.55	2.06505
445.925	1.96637
449.3	0.78031
452.675	2.54083
456.05	0.017803
459.425	0.788615
462.799	0.742896
466.174	1.43453
469.549	1.16376
472.924	1.37287
476.299	0.707222
479.673	0.845751
483.048	0.897922
486.423	0.994385
489.798	1.02184
493.173	1.53946
496.547	0.457102
499.922	0.636576
503.297	1.07231
506.672	1.19577
510.047	0.371135
513.422	0.783772
516.796	0.640879
520.171	0.724952
523.546	1.14967
526.921	0.716374
530.296	0.940455
533.67	0.490398
537.045	0.556044
540.42	0.04747
543.795	0.477182
547.17	1.59676
550.544	0.62966
553.919	0.264658
557.294	0.567291
560.669	0.800612
564.044	1.46212
567.418	0.855048
570.793	0.539194
574.168	0.972155
577.543	0.609138
580.918	0.390976
584.293	1.17442
587.667	0.758957
591.042	0.528048
594.417	0.984763
597.792	1.47674
601.167	0.444274
604.542	0.173457
607.916	1.18263
611.291	1.64319
614.666	1.88759
618.041	0.897551
621.416	1.86833
624.79	1.27131
628.165	0.866373
631.54	0.930721
634.915	0.309242
638.29	0.659312
641.664	1.09946
645.039	0.607821
648.414	0.2925
651.789	1.05166
655.164	1.20662
658.538	0.883018
661.913	0.072049
665.288	0.490932
668.663	0.470154
672.038	0.086373
675.413	0.167654
678.787	1.2939
682.162	1.52414
685.537	2.24391
688.912	2.21759
692.287	2.84555
695.662	3.95566
699.036	5.07112
702.411	6.49951
705.786	9.04387
709.161	14.5868
712.535	21.348
715.91	26.6525
719.285	36.7931
722.66	44.4665
726.035	47.8107
729.41	28.0871
732.784	11.8446
736.159	5.60803
739.534	3.23736
742.909	2.3713
746.284	1.05896
749.659	0.197254
753.033	1.60953
756.408	0.456882
759.783	0.076029
763.158	0.615964
766.533	0.308572
769.907	0.36624
773.282	0.057264
776.657	0.544462
780.032	0.232542
783.407	0.858614
786.782	0.398414
790.156	0.137433
793.531	0.075415
796.906	0.22673
800.281	0.11579
803.655	0.759425
807.03	1.86397
810.405	1.72588
813.78	0.282565
817.155	1.04252
820.53	1.17251
823.904	0.705396
827.279	1.38248
830.654	1.88962
834.029	0.974008
837.404	1.03877
840.779	1.96853
844.153	1.08288
847.528	1.75341
850.903	2.00839
854.278	1.62602
857.653	1.7607
861.027	1.77746
864.402	0.958872
867.777	1.81735
871.152	1.93529
874.527	2.99604
877.901	3.69819
881.276	10.7299
884.651	4.49775
888.026	2.6676
891.401	1.27908
894.775	0.276443
898.15	0.483648
901.525	0.931353
904.9	0.621384
908.275	0.746771
911.65	0.536691
915.024	0.447272
918.399	0.252113
921.774	0.674355
925.149	1.01596
928.524	0.794559
931.899	1.06878
935.273	0.85269
938.648	1.16072
942.023	1.15372
945.398	1.63593
948.773	1.21157
952.147	0.980132
955.522	0.041958
958.897	1.10581
962.272	1.4922
965.647	0.630426
969.021	1.47173
972.396	0.548591
975.771	0.640241
979.146	0.429183
982.521	0.165133
985.895	0.493413
989.27	1.48859
992.645	0.192807
996.02	0.381187
999.395	0.17864
1002.77	0.676598
1006.14	0.368634
1009.52	1.00261
1012.89	0.302179
1016.27	0.01354
1019.64	0.381453
1023.02	1.28374
1026.39	0.689839
1029.77	1.75758
1033.14	0.999902
1036.52	0.899995
1039.89	0.846248
1043.27	0.825612
1046.64	1.5295
1050.02	2.4502
1053.39	3.24196
1056.77	4.09731
1060.14	8.002
1063.52	12.0752
1066.89	16.4697
1070.27	26.4475
1073.64	36.6955
1077.02	49.8024
1080.39	60.9123
1083.77	85.3772
1087.14	146.432
1090.52	226.28
1093.89	402.89
1097.26	850.652
1100.64	808.407
1104.01	206.996
1107.39	71.3091
1110.76	31.9413
1114.14	16.9127
1117.51	9.74021
1120.89	5.70002
1124.26	3.60016
1127.64	3.03152
1131.01	1.53329
1134.39	0.946714
1137.76	1.0979
1141.14	0.269933
1144.51	1.31268
1147.89	0.280071
1151.26	0.267703
1154.64	0.002377
1158.01	0.738721
1161.39	0.750313
1164.76	0.348866
1168.13	0.644514
1171.51	0.490191
1174.88	0.339202
1178.26	0.676353
1181.63	0.154831
1185.01	0.834805
1188.38	1.38855
1191.76	0.725482
1195.13	1.76147
1198.51	1.65295
1201.88	0.949419
1205.26	0.439888
1208.63	1.28273
1212.01	0.299534
1215.38	0.977442
1218.76	0.611288
1222.13	0.594536
1225.51	0.894558
1228.88	1.02298
1232.26	0.709109
1235.63	1.79445
1239.01	2.09373
1242.38	0.814722
1245.76	1.05793
1249.13	1.13318
1252.51	1.03249
1255.88	0.822897
1259.26	1.62252
1262.63	0.202345
1266.01	0.53897
1269.38	0.345746
1272.76	1.41859
1276.13	0.979136
1279.5	0.10966
1282.88	0.096171
