Measurement: Raman, 532 nm, unoriented, Raman Data Processed
Mineral: Dolomite
Rruff sample: R050370
Ideal chemistry: CaMg(CO_3_)_2_
Locality: Morro Velho mine, Nova Lima, Minas Gerais, Brazil
Source: Eugene Schlepp
Description: Colorless bladed crystals associated with pyrrhotite and albite
Measured chemistry: (Ca_0.84_Fe_0.16_)_Σ=1_(Mg_0.98_Mn_0.02_)_Σ=1_(CO_3_)_2_ ; CO_2_ estimated by difference
Raman shift (cm-1)	intensity
112.12	0
115.495	0.338488
118.87	4.48301
122.245	7.39278
125.62	7.86853
128.994	13.973
132.369	19.0705
135.744	26.0962
139.119	36.4263
142.494	37.537
145.869	51.8145
149.243	75.9778
152.618	123.643
155.993	222.306
159.368	310.363
162.743	399.244
166.117	527.846
169.492	752.252
172.867	1078.16
176.242	974.415
179.617	453.981
182.992	204.689
186.366	113.24
189.741	70.8245
193.116	45.3826
196.491	29.4388
199.865	20.4044
203.24	14.1762
206.615	7.49815
209.99	1.45249
213.365	1.96618
216.74	1.61523
220.114	1.66628
223.489	2.78797
226.864	0.213905
230.239	3.40608
233.614	4.29987
236.988	1.81176
240.363	5.90897
243.738	5.01482
247.113	13.7548
250.488	23.6859
253.863	31.1485
257.237	43.1356
260.612	65.0189
263.987	89.8311
267.362	127.404
270.737	179.595
274.111	266.995
277.486	385.106
280.861	537.781
284.236	712.607
287.611	891.624
290.986	1082.55
294.36	1226.33
297.735	1196.55
301.11	900.718
304.485	531.99
307.86	306.048
311.235	186.37
314.609	117.132
317.984	76.8566
321.359	61.3512
324.734	52.3456
328.109	48.9533
331.483	45.717
334.858	55.1802
338.233	61.0313
341.608	47.8672
344.983	28.6168
348.358	11.79
351.732	5.33188
355.107	3.99284
358.482	4.05498
361.857	0.537163
365.231	1.2097
368.606	0.013706
371.981	1.36749
375.356	0.480289
378.731	0.184536
382.106	1.52153
385.48	0.449383
388.855	1.23609
392.23	0.980316
395.605	2.03868
398.98	1.92298
402.354	1.76618
405.729	1.86971
409.104	0.242714
412.479	3.99307
415.854	2.98332
419.229	3.02657
422.603	3.34983
425.978	4.19952
429.353	4.15482
432.728	4.32772
436.103	2.23493
439.478	3.35437
442.852	1.70481
446.227	2.63565
449.602	3.21331
452.977	1.68211
456.352	1.65513
459.726	0.015839
463.101	3.11298
466.476	5.32756
469.851	3.24507
473.226	1.63679
476.601	1.95846
479.975	3.73269
483.35	0.744648
486.725	0.791206
490.1	0.1702
493.475	1.49795
496.849	1.30001
500.224	2.61076
503.599	2.97104
506.974	2.94197
510.349	0.811607
513.723	2.96974
517.098	1.8277
520.473	1.4598
523.848	2.99653
527.223	3.15973
530.598	3.10086
533.972	0.825245
537.347	2.41511
540.722	1.14259
544.097	2.87123
547.472	2.57479
550.846	4.53111
554.221	3.50554
557.596	1.93356
560.971	3.49604
564.346	3.7827
567.721	1.59527
571.095	3.60949
574.47	2.97813
577.845	1.63457
581.22	2.70702
584.595	3.07155
587.969	3.95746
591.344	4.44151
594.719	2.69767
598.094	2.528
601.469	2.01945
604.843	1.51205
608.218	1.37763
611.593	0.630756
614.968	1.87391
618.343	2.64548
621.718	2.22288
625.092	0.901867
628.467	0.99712
631.842	1.12366
635.217	0.245045
638.592	0.024498
641.966	0.287449
645.341	0.376438
648.716	0.003208
652.091	0.242256
655.466	1.231
658.841	2.14027
662.215	3.25738
665.59	3.74714
668.965	3.73094
672.34	3.35881
675.715	4.17429
679.09	4.48738
682.464	7.53017
685.839	8.84222
689.214	14.153
692.589	17.6783
695.964	22.0683
699.338	28.8019
702.713	43.4396
706.088	67.0002
709.463	102.595
712.838	154.783
716.212	211.742
719.587	279.672
722.962	335.665
726.337	278.305
729.712	155.054
733.087	79.1357
736.461	45.1631
739.836	26.8211
743.211	18.0606
746.586	10.9723
749.961	8.24183
753.335	5.74362
756.71	2.97831
760.085	4.04263
763.46	0.061039
766.835	0.70118
770.21	1.0739
773.584	0.183159
776.959	0.505299
780.334	0.874249
783.709	0.337498
787.084	0.017262
790.458	0.52853
793.833	0.296726
797.208	1.36382
800.583	1.34661
803.958	0.415737
807.332	1.0224
810.707	0.746559
814.082	1.92393
817.457	2.16056
820.832	2.20978
824.207	2.0707
827.581	2.56396
830.956	2.06794
834.331	0.746155
837.706	0.764751
841.081	1.7864
844.456	2.02279
847.83	2.16768
851.205	3.28643
854.58	3.07993
857.955	1.32615
861.33	2.80821
864.704	3.42771
868.079	3.10469
871.454	8.46948
874.829	9.20402
878.204	13.4056
881.578	17.8716
884.953	9.48367
888.328	2.69437
891.703	3.45164
895.078	3.04998
898.453	2.63778
901.827	3.74715
905.202	2.64968
908.577	3.09597
911.952	1.56971
915.327	2.83343
918.702	2.63439
922.076	0.456581
925.451	3.09562
928.826	3.6995
932.201	1.771
935.576	3.02235
938.95	2.55685
942.325	4.62566
945.7	1.93025
949.075	4.01221
952.45	2.85371
955.824	1.62086
959.199	2.41904
962.574	1.77509
965.949	1.94452
969.324	2.76789
972.698	0.574718
976.073	1.25503
979.448	0.315434
982.823	0.055187
986.198	0.616673
989.573	1.03293
992.947	0.976547
996.322	0.683033
999.697	0.931747
1003.07	0.811535
1006.45	0.55637
1009.82	0.044044
1013.2	3.47576
1016.57	2.02229
1019.95	4.84327
1023.32	5.29019
1026.7	7.63834
1030.07	9.18474
1033.44	11.1213
1036.82	11.9043
1040.19	19.2193
1043.57	21.3066
1046.94	26.8041
1050.32	31.1975
1053.69	40.7558
1057.07	53.9091
1060.44	70.5449
1063.82	96.5864
1067.19	132.434
1070.57	178.458
1073.94	247.988
1077.32	334.853
1080.69	522.587
1084.07	993.886
1087.44	1781.79
1090.82	2840.45
1094.19	4702.84
1097.57	5062.92
1100.94	2210.64
1104.32	662.757
1107.69	271.662
1111.07	140.267
1114.44	77.5904
1117.82	50.8725
1121.19	32.4138
1124.57	17.9493
1127.94	12.046
1131.32	6.58472
1134.69	5.50172
1138.07	2.09048
1141.44	2.09811
1144.81	1.1925
1148.19	1.73177
1151.56	1.33686
1154.94	2.32733
1158.31	0.299767
1161.69	1.6826
1165.06	1.53135
1168.44	0.208332
1171.81	0.297935
1175.19	1.66071
1178.56	0.210789
1181.94	2.03079
1185.31	1.64908
1188.69	3.47901
1192.06	3.46367
1195.44	2.29647
1198.81	4.62353
1202.19	4.38125
1205.56	3.2427
1208.94	4.22999
1212.31	3.64882
1215.68	5.44518
1219.06	3.14102
1222.43	3.54027
1225.81	2.66122
1229.18	2.24998
1232.56	3.39866
1235.93	3.1008
1239.31	2.33853
1242.68	2.83908
1246.06	2.23214
1249.43	3.54904
1252.81	1.28385
1256.18	0.148031
1259.56	1.31613
1262.93	1.31239
1266.31	0.548454
1269.68	0.000267
1273.06	0.966125
1276.43	0.203632
