Measurement: Raman, 514 nm, unoriented, Raman Data Processed
Mineral: Dolomite
Rruff sample: R050129
Ideal chemistry: CaMg(CO_3_)_2_
Locality: Black Cloud mine, Leadville, Lake County, Colorado, USA
Source: Dave Bunk Minerals
Description: Aggregate of colorless to white rhombohedra
Measured chemistry: Ca(Mg_0.62_Fe^2+^_0.33_Mn_0.05_)_Î£=1_(CO_3_)_2_ ; CO_2_ estimated by difference
Raman shift (cm-1)	intensity
100.34	0
104.516	28.336
108.691	39.914
112.864	114.345
117.034	148.416
121.203	172.777
125.369	95.753
129.534	141.054
133.696	224.871
137.857	234.748
142.016	299.24
146.172	280.994
150.327	297.76
154.48	416.399
158.63	547.889
162.779	884.912
166.926	1671.49
171.07	2185.51
175.213	1511.32
179.354	764.458
183.493	369.948
187.63	220.467
191.765	165.038
195.898	149.996
200.029	128.274
204.158	123.724
208.285	87.393
212.41	57.264
216.533	5.762
220.654	74.329
224.773	43.543
228.891	44.844
233.006	78.265
237.119	9.256
241.231	69.949
245.34	119.078
249.448	101.289
253.553	90.374
257.657	108.687
261.758	207.859
265.858	299.427
269.956	351.951
274.052	519.875
278.146	764.247
282.237	1076.15
286.327	1382.02
290.416	1644.86
294.502	1696.16
298.586	1193.18
302.668	772.253
306.749	445.863
310.827	314.431
314.903	215.413
318.978	211.552
323.051	153.593
327.121	153.907
331.19	120.598
335.257	202.053
339.322	235.279
343.385	86.379
347.446	114.817
351.505	105.787
355.563	91.01
359.618	78.947
363.672	75.822
367.723	10.224
371.773	67.862
375.821	108.008
379.866	5.797
383.91	48.641
387.952	5.504
391.992	16.079
396.031	45.664
400.067	73.859
404.101	88.753
408.134	106.666
412.165	0.305
416.193	110.293
420.22	25.3
424.245	40.505
428.268	84.725
432.289	40.249
436.309	31.625
440.326	59.787
444.342	45.94
448.355	6.947
452.367	33.455
456.377	64.737
460.385	41.998
464.391	43.668
468.395	22.102
472.398	16.156
476.398	44.297
480.397	80.723
484.394	7.71
488.389	19.538
492.382	59.816
496.373	72.191
500.362	83.833
504.349	10.472
508.335	40.882
512.319	76.812
516.3	101.021
520.28	163.953
524.259	126.911
528.235	82.718
532.209	52.594
536.182	175.333
540.152	120.395
544.121	53.738
548.088	98.93
552.053	172.97
556.017	110.773
559.978	170.55
563.938	124.229
567.895	75.768
571.851	49.657
575.805	84.566
579.758	63.46
583.708	215.083
587.657	149.665
591.603	114.038
595.548	123.507
599.491	97.785
603.432	76.546
607.372	50.797
611.309	60.963
615.245	168.971
619.179	60.144
623.111	179.223
627.041	3.481
630.97	37.222
634.896	25.431
638.821	45.216
642.744	148.157
646.665	40.225
650.584	98.105
654.502	40.753
658.418	140.556
662.331	22.86
666.244	31.96
670.154	115.881
674.062	99.986
677.969	121.914
681.874	57.231
685.777	207.933
689.678	214.792
693.577	67.962
697.475	187.79
701.371	233.558
705.265	331.511
709.157	426.108
713.047	794.139
716.936	1192.33
720.823	1851.37
724.708	1705.14
728.591	997.582
732.472	499.751
736.352	361.816
740.23	230.737
744.106	134.445
747.98	57.571
751.853	158.587
755.723	55.459
759.592	73.062
763.459	110.431
767.325	114.213
771.188	125.11
775.05	56.817
778.91	65.962
782.768	85.607
786.625	89.93
790.479	100.323
794.332	17.717
798.183	120.927
802.033	96.356
805.88	118.411
809.726	60.86
813.57	18.373
817.413	94.782
821.253	29.716
825.092	79.122
828.929	91.431
832.764	62.815
836.598	34.438
840.429	38.572
844.259	156.262
848.088	55.616
851.914	10.154
855.739	56.54
859.562	38.963
863.383	1.695
867.203	114.564
871.02	62.778
874.836	132.938
878.65	95.808
882.463	117.156
886.274	75.254
890.083	178.863
893.89	78.286
897.695	51.236
901.499	58.847
905.301	44.365
909.102	137.697
912.9	156.303
916.697	140.44
920.492	98.201
924.285	196.479
928.077	150.954
931.867	96.582
935.655	282.592
939.442	14.502
943.226	68.691
947.009	210.393
950.791	146.523
954.57	10.037
958.348	26.156
962.124	45.985
965.899	53.711
969.671	84.945
973.442	93.89
977.211	85.692
980.979	69.455
984.745	21.687
988.509	48.351
992.271	153.248
996.032	84.304
999.791	34.208
1003.55	128.663
1007.3	202.845
1011.06	123.171
1014.81	148.913
1018.56	252.709
1022.31	286.681
1026.06	311.76
1029.8	421.265
1033.55	330.525
1037.29	386.793
1041.03	554.504
1044.77	564.021
1048.5	565.039
1052.24	714.235
1055.97	688.719
1059.7	874.052
1063.43	979.299
1067.16	1225.93
1070.89	1665.97
1074.61	2146.69
1078.34	2682.43
1082.06	4273.11
1085.78	8515.57
1089.5	20295.3
1093.21	44824.4
1096.93	37768.1
1100.64	13420.8
1104.35	4403.95
1108.06	1910.71
1111.77	1142.64
1115.48	681.552
1119.18	564.395
1122.89	470.928
1126.59	337.016
1130.29	264.621
1133.99	78.074
1137.68	14.655
1141.38	38.056
1145.07	24.395
1148.76	34.662
1152.45	78.068
1156.14	78.807
1159.83	64.29
1163.51	94.577
1167.19	42.469
1170.88	86.403
1174.56	47.349
1178.23	80.261
1181.91	1.582
1185.59	183.021
1189.26	77.471
1192.93	200.747
1196.6	171.151
1200.27	163.316
1203.94	310.923
1207.6	330.442
1211.27	190.924
1214.93	105.517
1218.59	128.948
1222.25	168.009
1225.9	320.541
1229.56	290.98
1233.21	151.957
1236.86	160.593
1240.51	217.214
1244.16	271.395
1247.81	128.078
1251.45	95.451
1255.1	156.526
1258.74	193.254
1262.38	46.648
1266.02	226.639
1269.66	182.296
1273.29	70.736
1276.93	91.368
1280.56	76.047
1284.19	50.486
1287.82	14.188
1291.45	24.319
1295.07	74.395
1298.7	128.547
1302.32	84.866
1305.94	101.695
1309.56	3.889
1313.18	2.984
1316.8	112.444
1320.41	84.986
1324.02	146.523
1327.63	81.401
1331.24	78.48
1334.85	63.645
1338.46	159.586
1342.06	50.678
1345.67	189.529
1349.27	134.967
1352.87	236.271
1356.47	137.559
1360.07	135.678
1363.66	102.873
1367.25	193.336
1370.85	109.742
1374.44	256.949
1378.03	144.877
1381.61	120.266
1385.2	242.283
1388.78	208.365
1392.37	276.08
1395.95	292.467
1399.53	269.43
1403.1	258.711
1406.68	287.775
1410.26	475.951
1413.83	144.479
1417.4	415.934
1420.97	249.082
1424.54	425.264
1428.1	427.496
1431.67	569.191
1435.23	477.486
1438.8	796.283
1442.36	1028.37
1445.91	719.963
1449.47	677.303
1453.03	525.541
1456.58	418.635
1460.13	431.525
1463.68	423.811
1467.23	657.52
1470.78	367.451
1474.33	506.398
1477.87	301.494
1481.42	457.838
1484.96	338.227
1488.5	588.838
1492.04	106.082
1495.57	207.223
1499.11	343.848
1502.64	0.289
1506.17	34.156
1509.71	100.975
1513.23	234.533
1516.76	318.527
1520.29	174.385
