Measurement: Raman, 780 nm, unoriented, Raman Data Processed
Mineral: Dolomite
Rruff sample: R050272
Ideal chemistry: CaMg(CO_3_)_2_
Locality: Eagle mine, Gillman, Colorado, USA
Source: University of Arizona Mineral Museum
Description: Gray-white rhombohedral crystals
Measured chemistry: (Ca_0.96_Fe^2+^_0.04_)_Σ=1_(Mg_0.63_Mn^2+^_0.21_Fe^2+^_0.16_)_Σ=1_(CO_3_)_2_ ; CO_3_ estimated by difference and stoichiometry
Raman shift (cm-1)	intensity
123.046	0
126.421	0.720348
129.796	2.62528
133.171	4.44915
136.546	6.71683
139.92	13.3884
143.295	18.5852
146.67	31.6187
150.045	56.6124
153.419	87.4397
156.794	119.124
160.169	153.22
163.544	202.191
166.919	280.265
170.294	372.843
173.668	360.575
177.043	211.906
180.418	108.552
183.793	59.9895
187.168	36.5927
190.542	23.9728
193.917	14.0735
197.292	10.5356
200.667	6.2356
204.042	1.08415
207.417	0.424538
210.791	0.720802
214.166	0.072655
217.541	0.250473
220.916	1.39485
224.291	0.976646
227.666	3.36007
231.04	1.04555
234.415	1.95258
237.79	3.28778
241.165	9.68692
244.54	14.8897
247.914	23.1303
251.289	31.7911
254.664	48.2636
258.039	60.8602
261.414	86.7904
264.788	119.253
268.163	167.233
271.538	239.996
274.913	316.725
278.288	403.299
281.663	500.642
285.037	600.426
288.412	682.938
291.787	733.458
295.162	677.975
298.537	505.03
301.911	329.229
305.286	202.927
308.661	131.502
312.036	86.7924
315.411	61.8734
318.786	43.7978
322.16	37.3238
325.535	32.5931
328.91	31.3942
332.285	27.8363
335.66	29.5275
339.034	29.1473
342.409	19.8067
345.784	13.14
349.159	5.27469
352.534	1.66917
355.909	2.19833
359.283	0.97892
362.658	0.469891
366.033	1.40722
369.408	0.690016
372.783	1.24882
376.157	0.695717
379.532	0.301207
382.907	0.085958
386.282	0.070618
389.657	0.50029
393.031	1.05372
396.406	0.525217
399.781	0.754181
403.156	1.2975
406.531	1.49711
409.906	2.27778
413.28	3.07311
416.655	1.33632
420.03	2.35338
423.405	4.54031
426.78	2.86191
430.154	1.35535
433.529	3.80247
436.904	0.458096
440.279	0.586878
443.654	2.33812
447.029	2.36424
450.403	2.127
453.778	1.05939
457.153	0.725832
460.528	2.16298
463.903	0.975441
467.277	2.37376
470.652	0.514282
474.027	0.647861
477.402	1.10743
480.777	1.72089
484.152	3.02284
487.526	0.05685
490.901	1.52243
494.276	2.4562
497.651	1.18105
501.026	0.585512
504.4	0.86725
507.775	0.874176
511.15	1.41034
514.525	0.99015
517.9	1.4361
521.274	0.748369
524.649	0.453985
528.024	1.63559
531.399	1.91932
534.774	0.530018
538.149	1.10669
541.523	1.42643
544.898	0.940458
548.273	1.08267
551.648	3.43005
555.023	0.882874
558.398	2.46074
561.772	2.66587
565.147	1.27025
568.522	1.53264
571.897	1.30242
575.272	2.33207
578.646	1.65257
582.021	1.26221
585.396	1.89542
588.771	1.95847
592.146	1.27412
595.52	1.59862
598.895	0.371414
602.27	0.495831
605.645	1.10474
609.02	0.890818
612.394	0.05442
615.769	1.11176
619.144	0.369019
622.519	0.921078
625.894	1.04092
629.269	1.06878
632.643	1.06275
636.018	1.3256
639.393	0.490919
642.768	1.06791
646.143	0.314539
649.518	0.999947
652.892	0.890692
656.267	2.39765
659.642	1.92665
663.017	0.75351
666.392	1.48653
669.766	3.13332
673.141	2.33679
676.516	4.35759
679.891	5.54798
683.266	6.20281
686.64	9.62335
690.015	10.0159
693.39	14.9497
696.765	22.8349
700.14	35.4014
703.515	57.7101
706.889	92.92
710.264	137.579
713.639	187.932
717.014	255.016
720.389	307.708
723.764	263.648
727.138	163.516
730.513	84.5442
733.888	44.4188
737.263	25.4138
740.638	15.3502
744.012	10.8438
747.387	4.9221
750.762	4.37566
754.137	3.45364
757.512	1.65362
760.886	1.45245
764.261	1.47468
767.636	0.988522
771.011	1.85017
774.386	1.03122
777.761	0.485452
781.135	1.00107
784.51	0.596665
787.885	0.850289
791.26	1.31043
794.635	2.49392
798.01	0.945073
801.384	1.08094
804.759	0.301237
808.134	1.16231
811.509	1.34293
814.884	1.07584
818.258	2.19208
821.633	1.48573
825.008	1.34784
828.383	1.37042
831.758	1.23163
835.132	1.11307
838.507	2.96261
841.882	1.60888
845.257	1.55368
848.632	1.17856
852.006	0.978084
855.381	1.37848
858.756	0.877102
862.131	3.39436
865.506	2.32158
868.881	5.28147
872.255	8.94657
875.63	6.90727
879.005	6.30655
882.38	4.38041
885.755	1.77208
889.13	1.6101
892.504	1.16119
895.879	1.86498
899.254	0.061525
902.629	0.846981
906.004	1.47158
909.378	0.252109
912.753	0.924351
916.128	1.28664
919.503	2.15216
922.878	2.4298
926.252	1.74364
929.627	1.57467
933.002	1.63564
936.377	1.95064
939.752	1.92659
943.126	2.08383
946.501	1.68051
949.876	2.81418
953.251	2.16433
956.626	1.77111
960.001	2.54019
963.375	0.492526
966.75	0.410421
970.125	0.014266
973.5	0.156109
976.875	0.466627
980.25	0.285182
983.624	0.526301
986.999	1.30526
990.374	0.378197
993.749	0.621552
997.124	0.352808
1000.5	0.458601
1003.87	0.437609
1007.25	0.375168
1010.62	1.84205
1014	1.03409
1017.37	3.3587
1020.75	4.22347
1024.12	5.11149
1027.5	5.80932
1030.87	7.99884
1034.25	9.9999
1037.62	10.9374
1041	14.1475
1044.37	16.9575
1047.75	22.0721
1051.12	24.9602
1054.49	33.0651
1057.87	43.4283
1061.24	57.0135
1064.62	77.3012
1067.99	107.573
1071.37	160.395
1074.74	250.216
1078.12	416.236
1081.49	766.28
1084.87	1265.21
1088.24	1956.78
1091.62	2944.23
1094.99	3472.1
1098.37	1758.07
1101.74	544.272
1105.12	197.762
1108.49	93.8449
1111.87	54.0016
1115.24	30.5721
1118.62	17.9155
1121.99	12.7789
1125.37	7.46383
1128.74	4.77032
1132.12	2.76454
1135.49	3.09287
1138.87	1.50913
1142.24	0.810921
1145.62	0.293453
1148.99	0.336518
1152.37	0.903277
1155.74	1.03896
1159.12	0.207118
1162.49	0.483239
1165.86	0.499741
1169.24	0.505322
1172.61	0.075058
1175.99	1.09037
1179.36	1.77572
1182.74	2.03383
1186.11	1.00266
1189.49	3.98576
1192.86	3.78014
1196.24	2.00953
1199.61	1.8454
1202.99	2.18807
1206.36	4.31676
1209.74	2.45855
1213.11	2.54609
1216.49	2.83105
1219.86	3.58075
1223.24	1.40842
1226.61	2.112
1229.99	3.26396
1233.36	0.454614
1236.74	1.41221
1240.11	0.710713
1243.48	2.44699
1246.86	2.90542
1250.23	1.01602
1253.61	1.42899
1256.98	2.33218
1260.36	0.311673
1263.73	0.063534
1267.11	0.922304
1270.48	1.48409
1273.86	2.29676
1277.23	0.135192
1280.61	0.967827
1283.98	1.64192
