Measurement: Raman, 780 nm, unoriented, Raman Data Processed
Mineral: Dolomite
Rruff sample: R040030
Ideal chemistry: CaMg(CO_3_)_2_
Locality: Austria
Source: University of Arizona Mineral Museum
Description: Group of colorless tabular crystals
Measured chemistry: (Ca_0.99_Mg_0.01_)_Î£=1_Mg_1.00_(CO_3_)_2_ ; trace amounts of Mn; CO_2_ estimated by difference
Raman shift (cm-1)	intensity
120.062	0
122.955	3.36459
125.848	0.755821
128.74	1.43642
131.633	1.68248
134.526	0.750229
137.418	4.82923
140.311	7.80354
143.204	12.8451
146.096	25.7913
148.989	44.7685
151.882	91.6695
154.775	192.66
157.667	289.519
160.56	321.209
163.453	393.637
166.345	494.394
169.238	629.099
172.131	868.25
175.024	1301.45
177.916	1078
180.809	390.339
183.702	155.379
186.594	80.5393
189.487	45.2353
192.38	30.1758
195.272	18.3195
198.165	8.58435
201.058	4.88707
203.951	2.46662
206.843	3.44687
209.736	0.346024
212.629	1.88298
215.521	1.26859
218.414	1.91811
221.307	1.52367
224.199	4.95478
227.092	3.79752
229.985	1.77306
232.877	0.266518
235.77	3.59
238.663	1.38584
241.556	0.260139
244.448	0.134872
247.341	3.09482
250.234	2.68622
253.126	8.46184
256.019	8.36733
258.912	15.4381
261.805	19.8794
264.697	31.2785
267.59	43.0068
270.483	64.4585
273.375	98.3287
276.268	154.09
279.161	258.334
282.053	375.341
284.946	467.897
287.839	568.457
290.731	702.101
293.624	879.275
296.517	1115.93
299.41	1293.14
302.302	1036.13
305.195	578.454
308.088	305.32
310.98	181.547
313.873	120.084
316.766	86.3976
319.659	72.4897
322.551	64.7767
325.444	63.6813
328.337	66.7781
331.229	78.6271
334.122	101.025
337.015	137.644
339.907	139.898
342.8	76.7202
345.693	32.1346
348.586	14.8747
351.478	11.2214
354.371	4.33588
357.264	1.77271
360.156	0.453094
363.049	0.217949
365.942	0.305218
368.834	0.803463
371.727	1.19058
374.62	0.117847
377.512	1.17887
380.405	0.425236
383.298	0.1544
386.191	0.701332
389.083	0.452053
391.976	0.461224
394.869	0.50909
397.761	0.040665
400.654	0.471329
403.547	0.237713
406.44	1.08133
409.332	0.426239
412.225	0.603622
415.118	2.20023
418.01	1.5751
420.903	0.868591
423.796	1.58113
426.688	3.73159
429.581	2.4042
432.474	2.22654
435.366	3.17804
438.259	4.30508
441.152	3.69445
444.045	2.65296
446.937	3.20601
449.83	2.8724
452.723	2.91475
455.615	2.23902
458.508	3.57088
461.401	0.104946
464.293	2.87092
467.186	2.7873
470.079	2.45262
472.972	4.33979
475.864	0.635166
478.757	0.438416
481.65	1.36227
484.542	3.0123
487.435	0.863689
490.328	3.70245
493.221	1.92906
496.113	0.463028
499.006	1.6781
501.899	0.707283
504.791	2.20729
507.684	0.694176
510.577	1.99186
513.469	1.35789
516.362	0.126904
519.255	1.0943
522.148	0.625141
525.04	0.473186
527.933	1.39892
530.826	1.5846
533.718	1.50943
536.611	1.99497
539.504	2.28326
542.396	1.68775
545.289	5.45023
548.182	3.54082
551.074	4.02426
553.967	5.17897
556.86	5.00294
559.753	3.39234
562.645	3.30268
565.538	2.29491
568.431	1.68392
571.323	3.57365
574.216	0.953407
577.109	4.20281
580.001	2.24962
582.894	2.87183
585.787	2.7356
588.68	2.73131
591.572	1.17744
594.465	3.17435
597.358	1.10286
600.25	0.934204
603.143	1.81412
606.036	1.01925
608.928	0.57251
611.821	2.94231
614.714	1.16213
617.607	0.651703
620.499	0.111492
623.392	1.2775
626.285	0.77219
629.177	0.565899
632.07	0.463749
634.963	0.200409
637.856	1.37133
640.748	1.53253
643.641	2.82509
646.534	0.410473
649.426	1.2138
652.319	2.10637
655.212	1.10046
658.104	1.39285
660.997	3.84802
663.89	2.22564
666.783	0.442192
669.675	3.79677
672.568	1.70106
675.461	4.83809
678.353	3.85519
681.246	6.43964
684.139	8.97325
687.031	11.2414
689.924	13.2395
692.817	15.5243
695.71	20.6396
698.602	25.4456
701.495	35.7967
704.388	47.2131
707.28	69.9399
710.173	101.742
713.066	127.78
715.958	161.099
718.851	204.904
721.744	268.03
724.636	296.566
727.529	224.181
730.422	118.815
733.315	57.9054
736.207	33.3004
739.1	20.3075
741.993	13.7154
744.885	9.07894
747.778	5.51919
750.671	3.99718
753.563	2.76448
756.456	0.907867
759.349	0.822388
762.242	1.30944
765.134	1.98474
768.027	1.02772
770.92	0.42889
773.812	0.874714
776.705	1.23657
779.598	2.28592
782.49	0.424595
785.383	0.081253
788.276	0.58181
791.169	1.19068
794.061	1.71721
796.954	0.464844
799.847	1.1085
802.739	2.0787
805.632	0.819651
808.525	0.713446
811.418	2.04664
814.31	2.60052
817.203	1.62386
820.096	3.23209
822.988	1.31282
825.881	2.71156
828.774	2.26362
831.666	3.69855
834.559	3.08137
837.452	1.6896
840.345	2.34175
843.237	2.40189
846.13	2.74768
849.023	2.60215
851.915	3.14525
854.808	2.84355
857.701	1.99854
860.593	2.77235
863.486	3.28516
866.379	3.13387
869.271	7.04263
872.164	7.91642
875.057	11.2855
877.95	14.2609
880.842	28.6748
883.735	16.4734
886.628	5.40249
889.52	2.47219
892.413	3.99075
895.306	1.37705
898.198	2.41146
901.091	0.81036
903.984	1.45799
906.877	0.892836
909.769	1.27994
912.662	2.51256
915.555	2.52339
918.447	1.93596
921.34	1.63771
924.233	1.74778
927.125	3.29458
930.018	3.25143
932.911	1.3601
935.803	2.45596
938.696	2.3374
941.589	2.26269
944.482	3.03647
947.374	2.79928
950.267	1.66959
953.16	2.48127
956.052	1.93301
958.945	2.02646
961.838	0.617928
964.731	0.587788
967.623	1.04319
970.516	0.033924
973.409	1.71272
976.301	0.22682
979.194	2.17268
982.087	1.48247
984.979	1.16266
987.872	0.007599
990.765	0.149164
993.658	0.556839
996.55	1.22393
999.443	0.122747
1002.34	1.68312
1005.23	0.517498
1008.12	0.078705
1011.01	1.35251
1013.91	1.09227
1016.8	3.34036
1019.69	3.41106
1022.59	2.01474
1025.48	3.60589
1028.37	4.97624
1031.26	4.65554
1034.15	5.0433
1037.05	3.42606
1039.94	8.02851
1042.83	9.59472
1045.73	10.7896
1048.62	14.8625
1051.51	19.7486
1054.4	26.2157
1057.3	39.12
1060.19	56.821
1063.08	76.5511
1065.97	105.74
1068.87	141.097
1071.76	187.383
1074.65	243.211
1077.55	304.488
1080.44	397.401
1083.33	638.213
1086.22	1081.76
1089.12	1508.17
1092.01	2166.36
1094.9	3236.45
1097.8	4437.58
1100.69	2701.56
1103.58	863.927
1106.47	340.937
1109.37	172.572
1112.26	99.8328
1115.15	60.2996
1118.04	37.7569
1120.94	25.7366
1123.83	16.2782
1126.72	12.1449
1129.61	6.27502
1132.51	6.5396
1135.4	4.10185
1138.29	2.83284
1141.18	0.061029
1144.08	0.939894
1146.97	1.17128
1149.86	0.297958
1152.76	1.69585
1155.65	1.89453
1158.54	1.28805
1161.43	0.761528
1164.33	0.971172
1167.22	1.5269
1170.11	0.59263
1173.01	1.32952
1175.9	0.87521
1178.79	2.10222
1181.68	0.759104
1184.58	2.85766
1187.47	2.21125
1190.36	2.13345
1193.25	2.87275
1196.15	4.49805
1199.04	2.67254
1201.93	2.31044
1204.83	2.82618
1207.72	3.09749
1210.61	4.32431
1213.5	2.3276
1216.39	3.75885
1219.29	2.69393
1222.18	2.7182
1225.07	4.04343
1227.97	2.01918
1230.86	2.99369
1233.75	1.91717
1236.64	2.34707
1239.54	2.97084
1242.43	1.46625
1245.32	2.27497
1248.21	2.38796
1251.11	1.09764
1254	2.45769
1256.89	0.544363
1259.79	0.30722
1262.68	2.75484
1265.57	2.8392
1268.46	0.495451
1271.36	1.39613
1274.25	0.019382
