Measurement: Raman, 532 nm, unoriented, Raman Data Processed
Mineral: Dolomite
Rruff sample: R100168
Ideal chemistry: CaMg(CO_3_)_2_
Locality: Oberdorf An Der Laming Moine near Bruck An Der Mur, Styria, Austria
Source: Mineralogical Museum, Harvard University
Description: Colorless transparent cleavage rhomb
Raman shift (cm-1)	intensity
91.0352	0
94.41	4.64659
97.7848	8.61002
101.16	8.26142
104.534	16.6004
107.909	22.2366
111.284	29.7379
114.659	41.9849
118.034	39.1762
121.409	25.6281
124.783	13.5639
128.158	8.83548
131.533	1.81815
134.908	9.46487
138.283	3.59977
141.657	5.52315
145.032	31.098
148.407	48.4119
151.782	84.4379
155.157	172.048
158.532	350.903
161.906	550.487
165.281	714.838
168.656	1025.34
172.031	1588.94
175.406	2693.13
178.78	2800.13
182.155	908.809
185.53	385.976
188.905	238.796
192.28	172.705
195.655	124.101
199.029	100.99
202.404	85.1883
205.779	67.3033
209.154	57.8627
212.529	50.2243
215.904	41.7724
219.278	39.5164
222.653	38.4777
226.028	38.3191
229.403	35.976
232.778	19.3217
236.152	8.10376
239.527	1.12006
242.902	0.452911
246.277	0.42215
249.652	1.93597
253.026	1.01559
256.401	6.46466
259.776	4.28818
263.151	11.0727
266.526	23.2276
269.901	41.3629
273.276	68.019
276.65	122.341
280.025	238.891
283.4	458.509
286.775	765.593
290.15	1120.09
293.524	1693.7
296.899	2753.18
300.274	3785.8
303.649	3041.49
307.024	1429.63
310.399	671.359
313.773	365.571
317.148	221.422
320.523	147.482
323.898	105.235
327.273	88.9097
330.647	95.7715
334.022	120.877
337.397	188.172
340.772	220.53
344.147	100.638
347.522	34.8266
350.896	16.3788
354.271	3.09171
357.646	2.50885
361.021	3.50366
364.396	0.178619
367.77	2.53845
371.145	1.60269
374.52	3.21286
377.895	0.101807
381.27	0.161804
384.644	1.08969
388.019	0.080231
391.394	3.40115
394.769	2.95154
398.144	3.34146
401.519	2.4845
404.894	3.4928
408.268	3.01331
411.643	1.22427
415.018	5.94415
418.393	7.79712
421.767	7.8627
425.142	6.77417
428.517	7.5899
431.892	10.2155
435.267	6.80215
438.642	11.9564
442.017	10.208
445.391	7.23035
448.766	7.37274
452.141	8.06171
455.516	7.0979
458.891	6.34909
462.265	8.832
465.64	5.52173
469.015	4.47784
472.39	6.88007
475.765	3.73029
479.139	7.28647
482.514	10.4797
485.889	3.04895
489.264	2.60275
492.639	1.43301
496.014	0.879517
499.388	4.00827
502.763	0.033783
506.138	1.44379
509.513	1.07895
512.888	3.40277
516.263	0.513916
519.637	4.92828
523.012	5.14014
526.387	2.77484
529.762	1.68301
533.137	0.716797
536.511	2.33939
539.886	3.81448
543.261	0.135406
546.636	3.56351
550.011	0.437225
553.386	3.56229
556.76	1.07147
560.135	0.275757
563.51	2.0256
566.885	9.36783
570.26	6.72998
573.635	4.703
577.009	2.72775
580.384	2.19943
583.759	7.40936
587.134	6.76306
590.509	6.72284
593.883	7.25308
597.258	3.50464
600.633	5.72888
604.008	2.25018
607.383	2.55389
610.758	4.02557
614.132	1.49963
617.507	3.97412
620.882	0.039856
624.257	1.54382
627.632	2.79822
631.006	2.04456
634.381	1.37219
637.756	0.022278
641.131	2.08954
644.506	2.13568
647.881	1.02679
651.255	1.34912
654.63	1.94379
658.005	5.3017
661.38	2.69775
664.755	1.3233
668.13	0.103088
671.504	3.17169
674.879	6.00201
678.254	8.62176
681.629	8.48535
685.004	13.5534
688.378	22.9885
691.753	26.1367
695.128	31.762
698.503	40.7772
701.878	55.7988
705.253	80.1644
708.627	106.316
712.002	155.631
715.377	237.816
718.752	360.794
722.127	554.267
725.501	684.155
728.876	473.806
732.251	209.836
735.626	98.4126
739.001	53.613
742.375	29.5766
745.75	18.4482
749.125	15.0837
752.5	10.5356
755.875	6.90338
759.25	2.11847
762.625	0.331726
765.999	1.58069
769.374	0.023438
772.749	0.20929
776.124	2.1062
779.499	0.035034
782.873	4.62512
786.248	2.91998
789.623	0.085999
792.998	1.60327
796.373	2.75531
799.747	3.91833
803.122	5.34662
806.497	7.35352
809.872	7.60181
813.247	5.82697
816.621	3.48779
819.996	4.39197
823.371	3.83221
826.746	4.22955
830.121	2.91846
833.496	1.82977
836.87	0.901062
840.245	4.70679
843.62	5.263
846.995	3.41309
850.37	2.6275
853.745	4.05078
857.119	7.01562
860.494	0.201904
863.869	5.68158
867.244	4.86438
870.619	12.2853
873.994	15.0949
877.368	25.4212
880.743	62.6977
884.118	46.1527
887.493	13.572
890.868	9.49298
894.242	3.78674
897.617	9.97485
900.992	4.45203
904.367	12.8844
907.742	7.5932
911.116	6.38043
914.491	4.8125
917.866	7.74506
921.241	7.90729
924.616	10.7961
927.991	8.82398
931.365	12.3771
934.74	12.2369
938.115	5.21582
941.49	2.26379
944.865	0.372131
948.24	3.45789
951.614	10.4061
954.989	3.88556
958.364	5.30713
961.739	1.95789
965.114	7.43671
968.489	6.79706
971.863	8.81158
975.238	0.729858
978.613	7.93353
981.988	4.68579
985.362	0.976318
988.737	1.56787
992.112	1.50836
995.487	3.54199
998.862	3.29175
1002.24	1.17267
1005.61	1.44714
1008.99	3.22327
1012.36	0.475891
1015.74	2.40472
1019.11	2.1214
1022.49	3.00592
1025.86	5.42639
1029.23	11.832
1032.61	9.83795
1035.98	14.8087
1039.36	16.1037
1042.73	16.7639
1046.11	20.3248
1049.48	28.3798
1052.86	39.0475
1056.23	59.5641
1059.61	76.9674
1062.98	108.901
1066.36	167.917
1069.73	249.006
1073.11	356.135
1076.48	480.248
1079.86	595.785
1083.23	785.257
1086.61	1284.2
1089.98	2298.74
1093.36	3952.89
1096.73	7814.88
1100.11	9235.1
1103.48	2906.33
1106.86	905.192
1110.23	391.278
1113.61	202.774
1116.98	118.053
1120.36	71.9615
1123.73	45.0897
1127.11	27.8256
1130.48	16.5936
1133.86	10.7692
1137.23	8.82599
1140.6	1.24548
1143.98	3.08521
1147.35	0.996826
1150.73	2.96728
1154.1	2.08704
1157.48	2.07898
1160.85	2.53381
1164.23	2.14777
1167.6	2.08966
1170.98	2.77893
1174.35	1.71973
1177.73	2.52692
1181.1	5.44983
1184.48	7.52356
1187.85	6.8645
1191.23	2.58234
1194.6	2.81171
1197.98	7.06616
1201.35	7.01593
1204.73	7.25812
1208.1	5.46497
1211.48	4.8714
1214.85	12.0931
1218.22	9.00507
1221.6	13.2378
1224.97	0.519714
1228.35	1.76105
1231.72	3.21094
1235.1	5.48401
1238.47	1.26013
1241.85	2.50085
1245.22	5.46533
1248.6	2.15765
1251.97	5.77423
1255.35	4.73718
1258.72	4.27087
1262.1	3.11249
1265.47	11.6191
1268.85	7.37866
1272.22	2.48346
1275.6	6.5835
1278.97	3.47717
1282.35	1.88184
1285.72	0.432007
1289.1	6.06274
1292.47	7.82336
1295.85	4.07239
1299.22	5.53308
1302.6	0
