Measurement: Raman, 514 nm, unoriented, Raman Data Processed
Mineral: Dolomite
Rruff sample: R050357
Ideal chemistry: CaMg(CO_3_)_2_
Locality: Black Rock, Lawrence County, Arkansas, USA
Source: California Institute of Technology
Description: Aggregate of pale pink curved saddle-shaped crystals
Measured chemistry: Ca_1.00_(Mg_0.98_Fe^2+^_0.02_)_Î£=1_(CO_3_)_2_ ; CO_2_ estimated by difference
Raman shift (cm-1)	intensity
105.908	0
110.082	17.358
114.254	235.888
118.424	367.749
122.592	203.021
126.758	106.601
130.922	197.104
135.083	149.029
139.243	320.604
143.401	300.184
147.557	288.061
151.711	439.018
155.863	799.849
160.013	1124.41
164.161	953.66
168.308	2194.49
172.452	4425.82
176.594	5036.06
180.734	2668.9
184.872	1068.21
189.008	409.189
193.143	218.164
197.275	156.148
201.405	146.45
205.534	87.994
209.66	88.89
213.784	18.038
217.907	115.298
222.027	32.666
226.146	46.25
230.263	59.008
234.377	47.855
238.49	45.761
242.601	46.739
246.709	67.777
250.816	29.772
254.921	25.867
259.024	132.816
263.125	203.202
267.224	244.976
271.321	255.388
275.416	387.233
279.51	638.905
283.601	1062.17
287.69	1829.2
291.778	3361.01
295.863	5847.27
299.947	6504.91
304.029	4301.71
308.108	2066.36
312.186	1073.59
316.262	665.778
320.336	455.104
324.408	376.549
328.478	336.992
332.546	412.487
336.612	569.976
340.677	442.628
344.739	347.393
348.799	85.294
352.858	49.987
356.915	61.918
360.969	78.377
365.022	40.816
369.073	74.231
373.122	59.317
377.169	73.814
381.215	24.619
385.258	13.834
389.299	10.969
393.339	69.333
397.376	157.46
401.412	14.875
405.446	36.263
409.478	58.801
413.508	43.154
417.536	101.56
421.562	20.417
425.586	95.92
429.609	110.363
433.629	55.357
437.648	10.208
441.665	31.909
445.68	68.168
449.693	39.255
453.704	64.573
457.713	32.425
461.721	38.512
465.726	35.196
469.73	33.497
473.731	49.934
477.731	43.227
481.729	51.459
485.725	105.909
489.72	69.196
493.712	88.278
497.703	10.765
501.691	2.223
505.678	31.176
509.663	68.705
513.646	31.799
517.627	88.858
521.607	77.834
525.584	141.123
529.56	21.826
533.534	140.493
537.506	64.065
541.476	74.399
545.444	70.627
549.41	151.456
553.375	86.222
557.337	38.019
561.298	72.713
565.257	101.302
569.214	75.749
573.17	93.194
577.123	83.896
581.075	79.011
585.024	72.945
588.972	25.841
592.918	8.066
596.863	58.193
600.805	90.4
604.746	103.252
608.685	100.379
612.621	93.75
616.557	142.857
620.49	17.831
624.421	80.8
628.351	54.224
632.279	63.51
636.205	56.102
640.129	62.477
644.051	58.98
647.972	214.438
651.89	73.792
655.807	137.341
659.722	85.261
663.636	61.148
667.547	131.444
671.457	156.559
675.365	101.709
679.271	50.475
683.175	94.879
687.077	142.897
690.978	312.313
694.877	313.287
698.774	216.746
702.669	283.555
706.562	444.93
710.454	701.012
714.344	679.354
718.232	1481.4
722.118	2485.86
726.002	2362.95
729.885	1372.9
733.766	536.914
737.645	429.412
741.522	164.363
745.397	151.729
749.271	87.075
753.143	91.895
757.013	85.451
760.881	149.263
764.748	77.35
768.613	96.006
772.476	57.971
776.337	85.816
780.196	17.347
784.054	34.644
787.91	9.88
791.764	69.783
795.616	4.427
799.467	58.504
803.316	85.806
807.163	103.636
811.008	67.366
814.851	26.984
818.693	55.454
822.533	35.956
826.371	31.403
830.208	119.626
834.042	3.423
837.875	214.406
841.706	7.499
845.536	77.282
849.363	60.951
853.189	44.283
857.013	68.292
860.836	14.888
864.656	33.493
868.475	28.06
872.292	52.573
876.108	38.005
879.922	333.404
883.733	225.8
887.544	1.689
891.352	118.603
895.159	193.958
898.964	180.308
902.767	115.546
906.568	189.796
910.368	30.243
914.166	98.923
917.962	131.897
921.757	199.879
925.55	221.541
929.341	188
933.13	87.424
936.918	48.754
940.703	118.228
944.488	275.232
948.27	138.438
952.051	60.381
955.83	111.514
959.607	93.331
963.383	133.586
967.156	148.817
970.928	185.935
974.699	136.736
978.468	136.521
982.234	168.869
986	214.57
989.763	195.419
993.525	199.999
997.285	238.858
1001.04	188.251
1004.8	172.439
1008.55	186.378
1012.31	229.989
1016.06	204.088
1019.81	297.793
1023.56	208.633
1027.31	334.489
1031.05	372.011
1034.79	430.292
1038.53	356.5
1042.27	361.502
1046.01	427.282
1049.75	608.359
1053.48	510.257
1057.22	619.278
1060.95	588.299
1064.68	810.359
1068.4	1248.58
1072.13	1544.43
1075.86	1985.7
1079.58	2430.97
1083.3	2954.23
1087.02	4939.01
1090.74	8558.67
1094.45	24770.9
1098.17	41991.7
1101.88	17496.5
1105.59	5678.02
1109.3	2160.16
1113.01	1103.79
1116.71	745.572
1120.42	482.314
1124.12	519.973
1127.82	244.033
1131.52	257.051
1135.22	139.76
1138.91	49.438
1142.61	46.404
1146.3	98.719
1149.99	28.443
1153.68	140.557
1157.37	66.701
1161.06	130.584
1164.74	104.441
1168.42	140.445
1172.1	122.648
1175.78	140.045
1179.46	142.43
1183.14	168.982
1186.81	148.182
1190.48	120.148
1194.15	55.59
1197.83	261.193
1201.49	73.66
1205.16	308.84
1208.82	22.818
1212.49	70.838
1216.15	229.963
1219.81	25.168
1223.46	74.238
1227.12	122.568
1230.78	222.422
1234.43	185.578
1238.08	226.293
1241.73	167.52
1245.38	240.551
1249.03	282.523
1252.67	268.75
1256.31	75.646
1259.95	296.07
1263.6	224.328
1267.23	121.914
1270.87	120.961
1274.51	59.49
1278.14	71.346
1281.77	186.809
1285.4	53.908
1289.03	173.184
1292.66	17.951
1296.28	125.789
1299.91	178.068
1303.53	46.693
1307.15	139.727
1310.77	228.705
1314.38	127.084
1318	187.646
1321.61	128.721
1325.23	16.295
1328.84	83.502
1332.45	120.229
1336.06	96.373
1339.66	112.912
1343.27	268.549
1346.87	149.576
1350.47	210.594
1354.07	242.107
1357.67	207.918
1361.26	247.277
1364.86	165.564
1368.45	157.189
1372.04	203.365
1375.63	316.818
1379.22	174.582
1382.81	213.391
1386.39	262.494
1389.98	200.131
1393.56	311.766
1397.14	294.854
1400.72	289.51
1404.3	444.789
1407.87	202.521
1411.45	248.43
1415.02	301.041
1418.59	310.723
1422.16	433.096
1425.73	516.547
1429.29	487.75
1432.86	401.244
1436.42	635.465
1439.98	1364.16
1443.54	1751.44
1447.1	1118.1
1450.66	548.414
1454.21	516.869
1457.77	543.365
1461.32	496.492
1464.87	470.783
1468.42	302.955
1471.96	437.209
1475.51	391.34
1479.06	289.518
1482.6	321.033
1486.14	194.639
1489.68	154.506
1493.22	370.902
1496.75	464.529
1500.29	81.953
1503.82	37.992
1507.35	27.17
1510.88	19.574
1514.41	139.957
1517.94	92.381
1521.46	133.893
