Measurement: Raman, 780 nm, unoriented, Raman Data Processed
Mineral: Dolomite
Rruff sample: R100168
Ideal chemistry: CaMg(CO_3_)_2_
Locality: Oberdorf An Der Laming Moine near Bruck An Der Mur, Styria, Austria
Source: Mineralogical Museum, Harvard University
Description: Colorless transparent cleavage rhomb
Raman shift (cm-1)	intensity
90.6055	0
93.9803	29.2455
97.3551	14.3791
100.73	7.31552
104.105	20.4043
107.48	0.932373
110.854	2.88559
114.229	2.91392
117.604	9.55911
120.979	1.4891
124.354	2.52037
127.728	7.47794
131.103	0.875847
134.478	4.57632
137.853	3.79134
141.228	3.55714
144.602	9.22788
147.977	18.6616
151.352	45.8513
154.727	101.338
158.102	187.854
161.477	234.191
164.851	325.053
168.226	495.117
171.601	938.991
174.976	2076.44
178.351	1767.03
181.726	477.879
185.1	171.682
188.475	81.1814
191.85	46.2835
195.225	22.5167
198.6	14.0354
201.974	10.4858
205.349	3.10964
208.724	0.83358
212.099	0.023949
215.474	0.730034
218.848	1.92814
222.223	6.30236
225.598	9.30511
228.973	0.136108
232.348	0.900284
235.722	1.31875
239.097	1.35107
242.472	0.355125
245.847	2.2746
249.222	1.75806
252.597	0.62146
255.971	1.42999
259.346	5.2412
262.721	9.51009
266.096	18.6603
269.471	28.7206
272.846	45.9451
276.22	82.6533
279.595	149.156
282.97	252.798
286.345	349.914
289.719	473.102
293.094	701.653
296.469	1129.81
299.844	1544.7
303.219	1133.09
306.594	520.297
309.968	262.568
313.343	160.623
316.718	108.702
320.093	82.9498
323.468	74.6088
326.842	75.7351
330.217	97.1415
333.592	170.669
336.967	345.176
340.342	373.929
343.717	149.038
347.091	59.7761
350.466	36.3722
353.841	23.0271
357.216	22.4996
360.591	20.3171
363.965	17.5227
367.34	12.5442
370.715	11.6539
374.09	10.5112
377.465	6.99934
380.839	2.34058
384.214	1.08282
387.589	0.095444
390.964	0.409355
394.339	0.693275
397.714	2.53292
401.088	1.70746
404.463	1.74629
407.838	1.76203
411.213	0.722443
414.588	2.07008
417.962	1.48784
421.337	3.71107
424.712	3.97023
428.087	2.08077
431.462	4.64072
434.837	1.52402
438.211	3.34673
441.586	2.68831
444.961	2.16737
448.336	2.08484
451.711	2.07449
455.085	1.61947
458.46	2.17178
461.835	2.15066
465.21	1.03974
468.585	2.25983
471.959	1.46733
475.334	0.232006
478.709	3.44831
482.084	2.42689
485.459	0.932167
488.834	1.71574
492.208	3.02256
495.583	0.812286
498.958	2.01441
502.333	2.0473
505.708	2.66498
509.082	3.64136
512.457	3.95654
515.832	0.294773
519.207	0.832069
522.582	1.64192
525.957	2.26783
529.331	1.69088
532.706	0.310658
536.081	0.615387
539.456	2.07259
542.831	1.11728
546.205	1.70728
549.58	1.63452
552.955	0.562279
556.33	1.94749
559.705	2.05647
563.08	1.1909
566.454	0.371475
569.829	0.038185
573.204	2.25683
576.579	2.0689
579.954	2.26921
583.328	0.259781
586.703	0.937122
590.078	2.81508
593.453	3.29167
596.828	4.79467
600.202	2.32867
603.577	3.7295
606.952	3.25333
610.327	1.94657
613.702	1.41471
617.077	1.94199
620.451	0.218071
623.826	1.23377
627.201	0.219551
630.576	0.607124
633.951	0.086651
637.325	0.046181
640.7	1.8951
644.075	1.22394
647.45	3.15048
650.825	0.316185
654.199	1.57877
657.574	2.23748
660.949	2.13898
664.324	0.741676
667.699	3.77091
671.073	4.25901
674.448	6.72181
677.823	7.33423
681.198	11.2319
684.573	16.6437
687.948	23.1455
691.322	31.0083
694.697	39.9721
698.072	53.2563
701.447	73.8049
704.822	97.0377
708.197	139.245
711.571	200.596
714.946	289.146
718.321	449.688
721.696	748.901
725.071	941.671
728.445	583.506
731.82	251.765
735.195	118.296
738.57	63.7616
741.945	38.9835
745.319	24.8951
748.694	16.1741
752.069	9.6121
755.444	5.68293
758.819	4.83658
762.193	3.1147
765.568	0.99902
768.943	1.84263
772.318	0.000835
775.693	0.325485
779.068	0.469292
782.442	1.07069
785.817	1.21746
789.192	2.38329
792.567	1.53183
795.942	1.88887
799.317	3.96589
802.691	6.27691
806.066	5.67143
809.441	9.83047
812.816	5.01909
816.191	8.01396
819.565	6.88028
822.94	4.57362
826.315	5.20846
829.69	3.7096
833.065	2.64873
836.439	2.50838
839.814	0.878803
843.189	2.58475
846.564	0.623913
849.939	3.45635
853.313	3.81995
856.688	3.61951
860.063	0.125965
863.438	3.41144
866.813	3.37308
870.188	7.40591
873.562	7.59119
876.937	17.0318
880.312	75.4743
883.687	31.8789
887.062	5.91022
890.437	6.92016
893.811	1.83625
897.186	3.17282
900.561	2.1046
903.936	1.34182
907.311	1.43198
910.685	0.42786
914.06	0.677944
917.435	2.74367
920.81	0.3941
924.185	1.50776
927.559	2.0744
930.934	2.67699
934.309	3.56095
937.684	0.382313
941.059	3.39758
944.433	4.70357
947.808	5.86797
951.183	4.77036
954.558	2.92145
957.933	5.97094
961.308	4.31835
964.682	3.57606
968.057	3.59001
971.432	2.6753
974.807	2.79559
978.182	2.22062
981.557	0.429649
984.931	0.420506
988.306	0.916904
991.681	1.70951
995.056	0.100174
998.431	1.2826
1001.8	2.06037
1005.18	2.82724
1008.55	2.27174
1011.93	1.29533
1015.3	1.32471
1018.68	1.64259
1022.05	1.58122
1025.43	3.57381
1028.8	5.8714
1032.18	7.26762
1035.55	8.11616
1038.93	10.3436
1042.3	12.0476
1045.68	17.4164
1049.05	22.1207
1052.43	33.7285
1055.8	52.7456
1059.18	83.7067
1062.55	128.443
1065.93	196.817
1069.3	296.663
1072.68	429.064
1076.05	600.658
1079.43	746.769
1082.8	1011.14
1086.18	1680.19
1089.55	2541.32
1092.92	4437.84
1096.3	10459.9
1099.67	11689.9
1103.05	3146.56
1106.42	1010.66
1109.8	445.995
1113.17	233.983
1116.55	134.296
1119.92	84.143
1123.3	54.2739
1126.67	38.391
1130.05	25.3567
1133.42	16.5228
1136.8	12.7104
1140.17	11.052
1143.55	8.30789
1146.92	7.88574
1150.3	9.61464
1153.67	11.7163
1157.05	11.482
1160.42	10.5192
1163.8	8.63806
1167.17	0.722275
1170.55	3.3824
1173.92	5.80837
1177.3	9.20326
1180.67	5.23779
1184.05	5.49248
1187.42	14.4185
1190.8	31.3667
1194.17	53.2136
1197.55	72.0942
1200.92	82.1209
1204.29	77.7681
1207.67	62.6469
1211.04	38.2154
1214.42	15.9528
1217.79	2.16232
1221.17	0.490753
1224.54	1.97513
1227.92	11.1121
1231.29	19.3459
1234.67	29.382
1238.04	42.481
1241.42	51.2402
1244.79	73.3073
1248.17	90.755
1251.54	103.49
1254.92	107.806
1258.29	92.7936
1261.67	74.9526
1265.04	63.4139
1268.42	60.0634
1271.79	62.583
1275.16	62.7659
1278.54	36.6565
1281.91	11.9224
