Measurement: Raman, 532 nm, unoriented, Raman Data Processed
Mineral: Dolomite
Rruff sample: R050272
Ideal chemistry: CaMg(CO_3_)_2_
Locality: Eagle mine, Gillman, Colorado, USA
Source: University of Arizona Mineral Museum
Description: Gray-white rhombohedral crystals
Measured chemistry: (Ca_0.96_Fe^2+^_0.04_)_Σ=1_(Mg_0.63_Mn^2+^_0.21_Fe^2+^_0.16_)_Σ=1_(CO_3_)_2_ ; CO_3_ estimated by difference and stoichiometry
Raman shift (cm-1)	intensity
122.915	0
126.29	0.481956
129.664	3.28154
133.039	10.1062
136.414	18.3301
139.789	27.748
143.164	28.3457
146.538	46.8213
149.913	68.5525
153.288	115.924
156.663	178.375
160.038	239.342
163.412	335.204
166.787	459.312
170.162	685.527
173.537	792.096
176.912	520.072
180.286	259.345
183.661	137.748
187.036	82.0334
190.411	51.6346
193.786	35.6802
197.161	22.3173
200.535	12.3124
203.91	6.48253
207.285	5.9385
210.66	1.76511
214.035	1.04424
217.41	1.95979
220.784	0.607147
224.159	1.6695
227.534	2.23409
230.909	1.67498
234.284	2.18156
237.658	4.0395
241.033	11.3621
244.408	18.8224
247.783	27.5199
251.158	39.3498
254.532	58.9258
257.907	80.9637
261.282	113.637
264.657	158.071
268.032	218.395
271.407	312.099
274.781	427.011
278.156	590.481
281.531	771.236
284.906	978.859
288.281	1202.77
291.656	1385.51
295.03	1395.46
298.405	1114.66
301.78	731.998
305.155	451.426
308.529	290.505
311.904	187.196
315.279	126.508
318.654	90.0118
322.029	70.3531
325.404	56.9077
328.778	47.0315
332.153	41.8248
335.528	41.3994
338.903	38.8443
342.278	30.4757
345.652	18.7853
349.027	12.0787
352.402	7.5821
355.777	2.67665
359.152	1.75695
362.527	0.086632
365.901	1.41795
369.276	0.342709
372.651	0.714565
376.026	0.140312
379.401	2.73222
382.776	0.74041
386.15	0.048634
389.525	0.013748
392.9	1.32111
396.275	0.411873
399.65	1.61556
403.024	1.01619
406.399	1.21663
409.774	1.48936
413.149	2.37458
416.524	3.96526
419.899	4.99243
423.273	4.28894
426.648	4.39879
430.023	3.25057
433.398	2.50458
436.773	3.12915
440.147	4.39249
443.522	3.70844
446.897	1.86146
450.272	3.41704
453.647	1.61466
457.021	1.54878
460.396	1.64298
463.771	0.71814
467.146	1.63086
470.521	1.48935
473.896	3.04701
477.27	1.45062
480.645	2.47126
484.02	0.21571
487.395	1.76301
490.77	2.33994
494.144	0.394325
497.519	1.32654
500.894	0.218353
504.269	0.881721
507.644	0.410576
511.019	1.23721
514.393	2.23285
517.768	0.327099
521.143	1.00434
524.518	2.1739
527.893	1.86144
531.267	1.01639
534.642	2.92714
538.017	1.494
541.392	2.6953
544.767	3.00984
548.141	3.69468
551.516	2.09027
554.891	4.67862
558.266	3.2352
561.641	2.43914
565.016	4.95203
568.39	2.78479
571.765	3.31201
575.14	3.88916
578.515	1.4993
581.89	1.55475
585.264	3.21884
588.639	2.78686
592.014	2.67885
595.389	1.63413
598.764	1.40989
602.139	1.74859
605.513	0.828545
608.888	0.940842
612.263	1.08506
615.638	1.4796
619.013	0.970688
622.387	0.863014
625.762	0.645409
629.137	1.38653
632.512	0.490063
635.887	1.19083
639.261	1.23988
642.636	0.404129
646.011	0.056313
649.386	0.202824
652.761	0.991024
656.136	1.82021
659.51	2.02656
662.885	3.25588
666.26	1.31029
669.635	3.12394
673.01	2.00883
676.385	4.56944
679.759	5.97923
683.134	7.55877
686.509	7.83312
689.884	9.55008
693.259	11.4967
696.633	18.7106
700.008	32.0954
703.383	50.6807
706.758	83.0409
710.133	133.496
713.507	196.033
716.882	265.617
720.257	326.123
723.632	311.103
727.007	202.61
730.381	111.713
733.756	59.8818
737.131	32.2522
740.506	17.9631
743.881	12.3547
747.256	10.2207
750.63	7.49075
754.005	4.13196
757.38	2.53139
760.755	2.80191
764.13	0.051922
767.505	1.21002
770.879	1.76222
774.254	0.798698
777.629	1.18671
781.004	0.975399
784.379	0.506756
787.753	1.47384
791.128	0.056705
794.503	0.958405
797.878	0.066704
801.253	0.82774
804.627	0.778316
808.002	1.03647
811.377	0.786705
814.752	0.130249
818.127	1.45361
821.501	2.0388
824.876	0.187237
828.251	2.58488
831.626	2.5151
835.001	1.58689
838.376	0.633118
841.75	0.816162
845.125	2.51741
848.5	0.79702
851.875	1.96544
855.25	2.45595
858.625	1.52947
861.999	4.36656
865.374	3.58939
868.749	10.1421
872.124	14.7102
875.499	14.301
878.873	11.7507
882.248	11.4087
885.623	5.1143
888.998	2.47095
892.373	1.88556
895.747	1.94303
899.122	2.01123
902.497	1.57048
905.872	1.50537
909.247	2.46882
912.622	1.62767
915.996	2.02863
919.371	1.14983
922.746	2.07507
926.121	1.16685
929.496	2.19719
932.87	2.85073
936.245	2.67413
939.62	1.81484
942.995	2.72465
946.37	1.29919
949.745	3.26973
953.119	2.57097
956.494	1.77603
959.869	3.00747
963.244	0.64225
966.619	2.48411
969.994	0.133053
973.368	0.435658
976.743	1.31872
980.118	0.041946
983.493	0.271309
986.867	0.058231
990.242	1.55638
993.617	0.26907
996.992	0.109859
1000.37	0.627064
1003.74	1.44509
1007.12	0.778824
1010.49	1.05949
1013.87	3.40408
1017.24	4.33585
1020.62	6.46208
1023.99	8.36774
1027.37	12.7542
1030.74	12.425
1034.12	15.4535
1037.49	20.0283
1040.87	23.7464
1044.24	27.1802
1047.61	34.0008
1050.99	41.0367
1054.36	48.1959
1057.74	61.4734
1061.11	79.2482
1064.49	107.379
1067.86	147.517
1071.24	211.354
1074.61	304.809
1077.99	490.052
1081.36	874.887
1084.74	1609.46
1088.11	2676.25
1091.49	4239.4
1094.86	5775.34
1098.24	3548.6
1101.61	1132.02
1104.99	397.67
1108.36	181.106
1111.74	101.226
1115.11	61.9858
1118.48	38.7711
1121.86	25.3516
1125.23	15.4033
1128.61	9.61676
1131.98	6.08508
1135.36	3.2336
1138.73	2.41731
1142.11	1.33713
1145.48	0.437851
1148.86	1.89387
1152.23	0.561981
1155.61	1.88531
1158.98	0.741714
1162.36	1.5332
1165.73	0.905579
1169.11	0.23082
1172.48	4.19508
1175.86	0.862732
1179.23	2.96463
1182.61	3.10724
1185.98	3.63339
1189.36	4.87423
1192.73	4.56287
1196.11	1.72327
1199.48	4.77719
1202.86	3.8215
1206.23	3.30137
1209.61	4.28783
1212.98	2.297
1216.36	3.58608
1219.73	1.50404
1223.11	2.67479
1226.48	3.27428
1229.85	3.64991
1233.23	3.12465
1236.6	3.68456
1239.98	3.08804
1243.35	3.05983
1246.73	1.92963
1250.1	0.690704
1253.48	3.68153
1256.85	0.306854
1260.23	0.966019
1263.6	2.81697
1266.98	1.12944
1270.35	1.51301
1273.73	2.03362
1277.1	2.70213
1280.48	1.39569
1283.85	0.297882
