Measurement: Raman, 514 nm, unoriented, Raman Data Processed
Mineral: Dolomite
Rruff sample: R050272
Ideal chemistry: CaMg(CO_3_)_2_
Locality: Eagle mine, Gillman, Colorado, USA
Source: University of Arizona Mineral Museum
Description: Gray-white rhombohedral crystals
Measured chemistry: (Ca_0.96_Fe^2+^_0.04_)_Σ=1_(Mg_0.63_Mn^2+^_0.21_Fe^2+^_0.16_)_Σ=1_(CO_3_)_2_ ; CO_3_ estimated by difference and stoichiometry
Raman shift (cm-1)	intensity
91.981	0
96.161	8.5
100.34	72.574
104.516	89.969
108.691	94.148
112.864	132.267
117.034	286.689
121.203	228.755
125.369	168.403
129.534	206.918
133.696	284.794
137.857	235.596
142.016	343.937
146.172	399.579
150.327	419.389
154.48	568.257
158.63	784.064
162.779	1454.7
166.926	2858.08
171.07	4481.22
175.213	3984.99
179.354	2078.9
183.493	1037.02
187.63	662.443
191.765	490.184
195.898	347.285
200.029	343.828
204.158	263.891
208.285	238.409
212.41	168.235
216.533	219.359
220.654	242.703
224.773	234.251
228.891	219.003
233.006	252.978
237.119	243.128
241.231	247.448
245.34	305.637
249.448	347.296
253.553	422.515
257.657	540.029
261.758	722.13
265.858	945.991
269.956	1231.07
274.052	1819.45
278.146	2691.78
282.237	4009.59
286.327	6191.88
290.416	8814.2
294.502	10083.3
298.586	8010.5
302.668	4849.25
306.749	2804.4
310.827	1689.9
314.903	1152.72
318.978	828.537
323.051	619.954
327.121	490.257
331.19	438.941
335.257	419.617
339.322	430.713
343.385	280.576
347.446	213.515
351.505	153.746
355.563	104.879
359.618	104.083
363.672	105.903
367.723	6.252
371.773	95.646
375.821	78.078
379.866	19.663
383.91	38.239
387.952	49.965
391.992	15.492
396.031	21.884
400.067	11.673
404.101	26.758
408.134	10.677
412.165	25.503
416.193	22.915
420.22	22.162
424.245	55.745
428.268	33.62
432.289	52.732
436.309	81.444
440.326	79.064
444.342	32.908
448.355	24.471
452.367	0.883
456.377	34.302
460.385	15.778
464.391	8.371
468.395	23.626
472.398	57.494
476.398	2.836
480.397	10.232
484.394	9.458
488.389	39.44
492.382	53.508
496.373	19.967
500.362	68.93
504.349	18.8
508.335	28.172
512.319	41.18
516.3	136.389
520.28	33.738
524.259	81.339
528.235	85.87
532.209	69.361
536.182	31.809
540.152	35.217
544.121	30.595
548.088	79.92
552.053	76.015
556.017	46.779
559.978	22.833
563.938	28.882
567.895	32.376
571.851	122.273
575.805	96.454
579.758	60.977
583.708	138.945
587.657	88.802
591.603	72.778
595.548	74.18
599.491	45.611
603.432	95.005
607.372	95.326
611.309	93.484
615.245	101.977
619.179	29.92
623.111	113.862
627.041	20.135
630.97	58.016
634.896	104.174
638.821	27.748
642.744	60.129
646.665	27.167
650.584	57.565
654.502	81.009
658.418	61.296
662.331	3.662
666.244	41.099
670.154	113.995
674.062	101.737
677.969	46.377
681.874	147.033
685.777	87.521
689.678	124.182
693.577	146.663
697.475	187.298
701.371	216.962
705.265	367.083
709.157	529.137
713.047	1049.08
716.936	1743.5
720.823	2686.01
724.708	2199.55
728.591	1233.31
732.472	666.463
736.352	358.39
740.23	260.998
744.106	172.308
747.98	129.841
751.853	141.774
755.723	117.78
759.592	10.233
763.459	76.057
767.325	63.513
771.188	84.809
775.05	42.746
778.91	11.393
782.768	11.483
786.625	24.101
790.479	16.424
794.332	16.472
798.183	56.625
802.033	113.618
805.88	60.25
809.726	22.167
813.57	6.021
817.413	3.54
821.253	10.123
825.092	85.79
828.929	70.077
832.764	23.849
836.598	8.869
840.429	5.427
844.259	11.221
848.088	144.826
851.914	58.355
855.739	36.819
859.562	10.276
863.383	55.742
867.203	76.205
871.02	162.85
874.836	153.144
878.65	172.626
882.463	121.115
886.274	87.616
890.083	4.126
893.89	32.643
897.695	35.171
901.499	38.707
905.301	52.725
909.102	9.211
912.9	16.156
916.697	74.372
920.492	57.913
924.285	90.471
928.077	36.048
931.867	81.359
935.655	133.797
939.442	17.016
943.226	16.475
947.009	47.063
950.791	57.793
954.57	11.967
958.348	115.506
962.124	46.34
965.899	63.666
969.671	35.072
973.442	47.652
977.211	59.693
980.979	113.785
984.745	22.343
988.509	20.456
992.271	75.35
996.032	85.737
999.791	36.385
1003.55	137.77
1007.3	196.688
1011.06	171.405
1014.81	274.055
1018.56	205.158
1022.31	244.038
1026.06	311.151
1029.8	360.277
1033.55	274.304
1037.29	281.097
1041.03	485.249
1044.77	521.368
1048.5	544.555
1052.24	627.755
1055.97	664.589
1059.7	907.858
1063.43	1068.09
1067.16	1345.52
1070.89	1814.17
1074.61	2431.64
1078.34	3384.27
1082.06	5834.72
1085.78	11611.2
1089.5	23163.1
1093.21	47730.8
1096.93	45957.6
1100.64	16916.3
1104.35	5268.36
1108.06	2420.17
1111.77	1282.52
1115.48	921.922
1119.18	618.928
1122.89	641.731
1126.59	265.409
1130.29	273.468
1133.99	138.696
1137.68	119.533
1141.38	220.771
1145.07	117.013
1148.76	51.878
1152.45	106.721
1156.14	60.894
1159.83	15.139
1163.51	88.286
1167.19	1.01
1170.88	88.692
1174.56	27.758
1178.23	37.42
1181.91	71.051
1185.59	73.899
1189.26	79.552
1192.93	110.153
1196.6	111.688
1200.27	50.947
1203.94	10.438
1207.6	107.409
1211.27	134.56
1214.93	43.625
1218.59	188.708
1222.25	74.908
1225.9	42.371
1229.56	201.168
1233.21	10.488
1236.86	56.211
1240.51	85.269
1244.16	110.23
1247.81	52.341
1251.45	44.047
1255.1	23.632
1258.74	114.097
1262.38	6.575
1266.02	81.553
1269.66	57.489
1273.29	32.213
1276.93	41.718
1280.56	30.002
1284.19	39.046
1287.82	0.641
1291.45	102.09
1295.07	14.621
1298.7	24.478
1302.32	18.726
1305.94	57.216
1309.56	20.232
1313.18	5.08
1316.8	24.022
1320.41	50.462
1324.02	51.812
1327.63	16.177
1331.24	26.252
1334.85	69.169
1338.46	96.98
1342.06	246.615
1345.67	142.043
1349.27	128.009
1352.87	111.246
1356.47	65.339
1360.07	65.698
1363.66	39.327
1367.25	131.978
1370.85	38.328
1374.44	3.976
1378.03	152.562
1381.61	167.88
1385.2	168.103
1388.78	145.331
1392.37	145.441
1395.95	176.474
1399.53	209.99
1403.1	234.645
1406.68	264.724
1410.26	395.941
1413.83	229.036
1417.4	414.749
1420.97	400.319
1424.54	572.75
1428.1	510.871
1431.67	675.352
1435.23	868.645
1438.8	1103.54
1442.36	1154.58
1445.91	911.044
1449.47	521.741
1453.03	500.818
1456.58	337.229
1460.13	314.621
1463.68	286.088
1467.23	293.196
1470.78	254.409
1474.33	198.481
1477.87	136.8
1481.42	177.867
1484.96	172.836
1488.5	279.098
1492.04	125.801
1495.57	108.026
1499.11	169.074
1502.64	41.965
1506.17	96.896
1509.71	104.335
1513.23	202.995
1516.76	117.292
1520.29	129.996
