Measurement: Raman, 532 nm, unoriented, Raman Data Processed
Mineral: Dolomite
Rruff sample: R050129
Ideal chemistry: CaMg(CO_3_)_2_
Locality: Black Cloud mine, Leadville, Lake County, Colorado, USA
Source: Dave Bunk Minerals
Description: Aggregate of colorless to white rhombohedra
Measured chemistry: Ca(Mg_0.62_Fe^2+^_0.33_Mn_0.05_)_Î£=1_(CO_3_)_2_ ; CO_2_ estimated by difference
Raman shift (cm-1)	intensity
144.989	0
148.364	16.4852
151.739	101.434
155.114	217.919
158.488	335.177
161.863	490.817
165.238	705.141
168.613	947.98
171.988	967.787
175.363	641.805
178.737	336.83
182.112	175.354
185.487	96.9098
188.862	51.2702
192.237	27.1299
195.611	7.53735
198.986	0.643829
202.361	8.38718
205.736	10.6811
209.111	12.4168
212.485	4.42035
215.86	1.92893
219.235	3.54657
222.61	7.95721
225.985	13.6568
229.359	20.1698
232.734	25.8186
236.109	45.3291
239.484	56.6083
242.859	78.2727
246.234	101.851
249.608	136.08
252.983	186.443
256.358	248.494
259.733	333.215
263.108	443.872
266.483	595.487
269.857	801.761
273.232	1061.45
276.607	1352.33
279.982	1673.27
283.357	1949.55
286.731	2128.86
290.106	2148.08
293.481	1947.68
296.856	1545.02
300.231	1074.99
303.606	699.722
306.98	460.567
310.355	313.107
313.73	218.377
317.105	157.136
320.48	117.541
323.854	87.8355
327.229	71.9059
330.604	58.4005
333.979	50.7129
337.354	42.0976
340.728	35.3411
344.103	24.1309
347.478	18.8614
350.853	7.53674
354.228	3.61368
357.603	0.661652
360.977	0.450043
364.352	3.9852
367.727	4.5914
371.102	3.33389
374.477	3.22833
377.851	1.80325
381.226	1.01019
384.601	2.39334
387.976	8.6434
391.351	3.29401
394.726	3.24039
398.1	1.99652
401.475	3.30627
404.85	3.15561
408.225	3.819
411.6	5.45325
414.974	6.4588
418.349	1.97488
421.724	6.78809
425.099	8.18423
428.474	4.28476
431.849	1.79089
435.223	2.23087
438.598	1.20789
441.973	2.99832
445.348	3.05212
448.723	3.81528
452.097	4.94809
455.472	3.57147
458.847	2.54321
462.222	2.21411
465.597	2.05145
468.971	3.56805
472.346	0.162537
475.721	1.23737
479.096	3.0141
482.471	2.37851
485.846	2.10153
489.22	0.187714
492.595	3.20795
495.97	0.975311
499.345	1.19159
502.72	1.11145
506.094	1.4671
509.469	2.69318
512.844	2.60388
516.219	3.88327
519.594	4.00006
522.968	5.23682
526.343	2.61609
529.718	5.0759
533.093	5.94568
536.468	5.51764
539.843	8.11682
543.217	8.50366
546.592	5.39386
549.967	10.2653
553.342	6.28201
556.717	8.42596
560.091	6.95904
563.466	4.98633
566.841	6.60602
570.216	5.83969
573.591	6.19952
576.966	8.66455
580.34	6.72708
583.715	6.79617
587.09	7.88431
590.465	7.39017
593.84	5.26224
597.215	2.1347
600.589	0.825958
603.964	2.95404
607.339	2.28226
610.714	0.493042
614.089	1.56995
617.463	2.86026
620.838	3.27908
624.213	1.42914
627.588	1.32886
630.963	0.203033
634.337	0.587799
637.712	2.14594
641.087	0.249512
644.462	0.8284
647.837	1.57861
651.212	2.97467
654.586	1.34845
657.961	3.8876
661.336	2.85492
664.711	3.9505
668.086	2.83038
671.46	3.91571
674.835	5.45795
678.21	6.13242
681.585	7.40643
684.96	11.5446
688.335	11.9142
691.709	13.8239
695.084	22.5532
698.459	31.6143
701.834	49.754
705.209	80.643
708.583	131.018
711.958	197.968
715.333	279.365
718.708	354.701
722.083	375.526
725.457	304.881
728.832	193.924
732.207	116.48
735.582	71.2728
738.957	44.898
742.332	29.4084
745.706	18.1641
749.081	14.3696
752.456	9.03207
755.831	8.58908
759.206	5.99875
762.58	2.67969
765.955	4.96493
769.33	4.94839
772.705	4.85281
776.08	2.15387
779.455	0.958313
782.829	1.00653
786.204	1.06937
789.579	1.20483
792.954	0.696289
796.329	2.68869
799.703	0.067841
803.078	0.405487
806.453	0.804932
809.828	0.188751
813.203	1.6384
816.577	0.826508
819.952	0.961243
823.327	0.994232
826.702	2.19003
830.077	2.15176
833.452	2.42062
836.826	0.647217
840.201	3.13953
843.576	2.44354
846.951	2.86304
850.326	3.21127
853.701	1.98444
857.075	3.79688
860.45	6.04248
863.825	9.54636
867.2	11.9818
870.575	19.5164
873.949	22.2502
877.324	16.1204
880.699	11.4764
884.074	10.4488
887.449	5.23227
890.823	2.59543
894.198	2.0162
897.573	2.2063
900.948	3.99628
904.323	2.82831
907.698	3.98834
911.072	3.59082
914.447	4.45575
917.822	3.53253
921.197	5.34994
924.572	3.05307
927.947	2.51666
931.321	3.33865
934.696	2.38098
938.071	6.46707
941.446	5.79288
944.821	1.89011
948.195	2.81952
951.57	3.11755
954.945	3.26639
958.32	5.14999
961.695	3.75421
965.069	0.874786
968.444	0.114868
971.819	0.057587
975.194	0.302948
978.569	1.68579
981.943	1.59741
985.318	1.38489
988.693	1.64127
992.068	1.14175
995.443	0.250427
998.818	1.12097
1002.19	0.091248
1005.57	0.643951
1008.94	1.12872
1012.32	0.004517
1015.69	7.21652
1019.07	6.72244
1022.44	7.67612
1025.82	11.6252
1029.19	13.8469
1032.57	19.3528
1035.94	20.4529
1039.32	24.0694
1042.69	29.9577
1046.07	34.3903
1049.44	42.8185
1052.82	49.8748
1056.19	63.6605
1059.56	80.5146
1062.94	108.281
1066.31	142.345
1069.69	194.501
1073.06	278.261
1076.44	424.101
1079.81	800.561
1083.19	1591.67
1086.56	2725.83
1089.94	4586.22
1093.31	6423.43
1096.69	4586.81
1100.06	1742.33
1103.44	616.34
1106.81	264.403
1110.19	142.459
1113.56	80.3847
1116.94	49.7727
1120.31	33.1717
1123.69	21.884
1127.06	13.0152
1130.43	7.76932
1133.81	3.86658
1137.18	1.7753
1140.56	2.32935
1143.93	0.23938
1147.31	2.35791
1150.68	2.6575
1154.06	1.35095
1157.43	0.140259
1160.81	0.675873
1164.18	4.24481
1167.56	0.460175
1170.93	1.90094
1174.31	3.87918
1177.68	2.17734
1181.06	4.16373
1184.43	7.09128
1187.81	7.07001
1191.18	4.4064
1194.56	5.37039
1197.93	3.69992
1201.31	4.39999
1204.68	4.57446
1208.06	7.0397
1211.43	2.50388
1214.81	3.38385
1218.18	3.11746
1221.56	5.27734
1224.93	3.01285
1228.31	4.05832
1231.68	2.42258
1235.06	3.29871
1238.43	3.51672
1241.8	3.88922
1245.18	3.74997
1248.55	4.72867
1251.93	2.91837
1255.3	4.1261
1258.68	1.5885
1262.05	3.86398
1265.43	5.87286
1268.8	0.857513
1272.18	2.05209
1275.55	1.39081
1278.93	4.50632
1282.3	2.97879
1285.68	4.33469
1289.05	4.1644
1292.43	2.38931
1295.8	2.64505
1299.18	3.70142
1302.55	3.85086
