Measurement: Raman, 532 nm, unoriented, Raman Data Processed
Mineral: Dolomite
Rruff sample: R100118
Ideal chemistry: CaMg(CO_3_)_2_
Locality: Bay Mag mine, Mount Brussilof, British Columbia, Canada
Source: Ray Hill and Robert Woodside
Description: Colorless crystals and cleavage fragments
Raman shift (cm-1)	intensity
149.371	0
152.264	1.48114
155.157	20.4677
158.049	64.9395
160.942	125.531
163.835	163.76
166.728	214.658
169.62	288.53
172.513	380.063
175.406	552.627
178.298	657.598
181.191	283.881
184.084	98.7123
186.976	49.7359
189.869	29.6966
192.762	19.1025
195.655	12.5223
198.547	8.85407
201.44	6.70753
204.333	5.36086
207.225	3.37217
210.118	2.07059
213.011	1.54705
215.904	0.845726
218.796	1.80638
221.689	0.919968
224.582	0.194908
227.474	1.9835
230.367	0.294456
233.26	1.19743
236.152	0.37088
239.045	0.384529
241.938	1.92945
244.831	0.696457
247.723	0.506516
250.616	0.366539
253.509	0.255516
256.401	1.89609
259.294	2.26073
262.187	5.88428
265.079	9.95535
267.972	9.50429
270.865	16.7328
273.758	26.0788
276.65	40.3937
279.543	69.9438
282.436	122.002
285.328	199.366
288.221	274.434
291.114	349.214
294.007	443.738
296.899	582.923
299.792	743.036
302.685	732.263
305.577	444.369
308.47	220.845
311.363	119.51
314.255	73.514
317.148	48.9758
320.041	34.5015
322.933	28.8315
325.826	24.6178
328.719	24.9427
331.612	25.9611
334.504	29.1903
337.397	39.1373
340.29	42.9289
343.183	27.7359
346.075	11.7019
348.968	6.38028
351.861	2.99872
354.753	3.75044
357.646	0.750992
360.539	2.93295
363.431	1.46643
366.324	0.314423
369.217	1.81122
372.11	1.05046
375.002	0.250488
377.895	0.271957
380.788	2.1646
383.68	0.261932
386.573	0.083374
389.466	0.100357
392.358	0.764206
395.251	0.310791
398.144	1.50687
401.036	0.342255
403.929	1.68207
406.822	1.14365
409.715	0.20369
412.607	2.03583
415.5	1.83875
418.393	2.23807
421.285	1.66748
424.178	1.66454
427.071	0.909576
429.964	3.01781
432.856	1.53238
435.749	2.06094
438.642	2.23836
441.534	1.63815
444.427	1.64407
447.32	2.57394
450.212	1.86128
453.105	1.21287
455.998	1.79607
458.891	0.517609
461.783	1.03265
464.676	1.85997
467.569	2.61491
470.461	0.930893
473.354	0.149384
476.247	3.13043
479.139	1.2673
482.032	1.01968
484.925	1.38066
487.818	0.065247
490.71	1.89154
493.603	2.53456
496.496	1.59047
499.388	2.04449
502.281	2.55862
505.174	1.10234
508.067	2.91698
510.959	0.248657
513.852	1.53879
516.745	3.65514
519.637	1.77212
522.53	0.828781
525.423	0.196564
528.316	1.14835
531.208	0.580872
534.101	0.093933
536.994	2.09483
539.886	0.38591
542.779	1.34181
545.672	1.63217
548.564	2.72189
551.457	1.46704
554.35	1.79314
557.242	0.214005
560.135	2.72472
563.028	1.79096
565.921	1.90263
568.813	2.91904
571.706	1.01633
574.599	0.871811
577.491	0.46492
580.384	0.609772
583.277	0.042343
586.17	1.90131
589.062	0.598236
591.955	1.52415
594.848	1.3898
597.74	0.640121
600.633	1.5876
603.526	1.53572
606.418	3.15115
609.311	0.860107
612.204	0.707397
615.097	0.94838
617.989	1.92485
620.882	0.383469
623.775	3.17146
626.667	1.52206
629.56	1.41399
632.453	0.450241
635.346	1.9736
638.238	1.30012
641.131	1.04865
644.024	1.13867
646.916	1.24266
649.809	0.92218
652.702	0.683456
655.594	0.290924
658.487	2.60002
661.38	2.08598
664.273	0.563202
667.165	2.62288
670.058	1.08868
672.951	2.96886
675.843	2.20996
678.736	2.04485
681.629	2.15791
684.521	3.91931
687.414	4.47797
690.307	6.6349
693.199	7.4733
696.092	8.23047
698.985	9.33756
701.878	11.4367
704.77	18.3024
707.663	22.8369
710.556	35.2562
713.448	46.8404
716.341	63.0925
719.234	81.4332
722.127	106.991
725.019	122.992
727.912	106.625
730.805	60.3424
733.697	27.3604
736.59	14.8074
739.483	8.53726
742.375	7.56743
745.268	3.41145
748.161	4.16646
751.054	2.59958
753.946	1.54153
756.839	0.87323
759.732	2.5312
762.625	1.61027
765.517	0.163589
768.41	0.839798
771.303	1.51228
774.195	0.759705
777.088	0.880447
779.981	1.77138
782.873	1.89192
785.766	1.662
788.659	1.37547
791.552	1.92776
794.444	2.83462
797.337	1.12489
800.23	0.889297
803.122	0.000946
806.015	1.52339
808.908	1.13168
811.8	1.96732
814.693	3.31334
817.586	0.787628
820.479	1.57974
823.371	2.21101
826.264	1.71376
829.157	1.4597
832.049	0.445755
834.942	0.039749
837.835	2.5392
840.727	1.53561
843.62	1.07959
846.513	1.68297
849.405	0.56926
852.298	1.95541
855.191	0.419449
858.084	0.418045
860.976	2.68217
863.869	0.240112
866.762	3.46127
869.654	3.79916
872.547	4.71062
875.44	6.33635
878.333	8.95076
881.225	13.7965
884.118	9.90253
887.011	2.61241
889.903	3.09232
892.796	1.17654
895.689	1.98381
898.582	1.63202
901.474	1.36085
904.367	0.501007
907.26	1.06296
910.152	1.51457
913.045	1.63766
915.938	2.02422
918.83	1.06845
921.723	1.53215
924.616	1.75789
927.509	1.50015
930.401	1.94469
933.294	3.81953
936.187	2.85254
939.079	0.396896
941.972	3.5491
944.865	1.71654
947.757	2.31635
950.65	1.63483
953.543	0.796829
956.436	1.91658
959.328	2.63013
962.221	1.51979
965.114	1.8703
968.006	2.32707
970.899	2.30605
973.792	1.40964
976.684	2.83604
979.577	0.042923
982.47	0.859787
985.362	1.70358
988.255	0.541763
991.148	1.24439
994.041	0.466721
996.933	1.0945
999.826	1.58118
1002.72	0.020569
1005.61	1.28888
1008.5	1.28508
1011.4	1.1637
1014.29	0.522614
1017.18	0.912094
1020.08	4.20813
1022.97	2.37456
1025.86	3.24599
1028.75	4.20003
1031.65	1.50148
1034.54	3.05057
1037.43	5.03586
1040.32	4.42702
1043.22	3.4243
1046.11	3.94546
1049	4.06749
1051.89	6.11145
1054.79	8.34731
1057.68	11.447
1060.57	18.2917
1063.47	28.3365
1066.36	36.6902
1069.25	52.2232
1072.14	70.6783
1075.04	88.6276
1077.93	115.135
1080.82	139.701
1083.71	189.412
1086.61	314.22
1089.5	542.008
1092.39	792.979
1095.29	1205.99
1098.18	1841.18
1101.07	1491.35
1103.96	497.047
1106.86	186.023
1109.75	91.4112
1112.64	50.7289
1115.53	30.1378
1118.43	21.2305
1121.32	11.7973
1124.21	8.4801
1127.11	5.87132
1130	3.24367
1132.89	2.68919
1135.78	2.1055
1138.68	1.25296
1141.57	0.471634
1144.46	0.216934
1147.35	1.38188
1150.25	0.404327
1153.14	1.43356
1156.03	0.368729
1158.92	0.251358
1161.82	0.494217
1164.71	0.514771
1167.6	0.427689
1170.5	0.486008
1173.39	1.33333
1176.28	0.932053
1179.17	1.4045
1182.07	3.22614
1184.96	0.656067
1187.85	2.99376
1190.74	0.474472
1193.64	2.37932
1196.53	1.96365
1199.42	2.98827
1202.32	1.33401
1205.21	2.25597
1208.1	2.00293
1210.99	1.3109
1213.89	2.76936
1216.78	3.92201
1219.67	2.52985
1222.56	1.71625
1225.46	3.1333
1228.35	1.34166
1231.24	1.6837
1234.13	2.82736
1237.03	1.85834
1239.92	0.260117
1242.81	2.57318
1245.71	2.38759
1248.6	3.04887
1251.49	2.72205
1254.38	0.275497
1257.28	3.03259
1260.17	0.062729
1263.06	2.08226
1265.95	1.92252
1268.85	4.47606
1271.74	2.52466
1274.63	3.47304
1277.53	3.98337
1280.42	1.056
1283.31	0.587875
1286.2	2.8028
1289.1	0.050232
1291.99	1.47575
1294.88	3.30865
1297.78	2.44553
1300.67	0.03125
