Measurement: Raman, 780 nm, unoriented, Raman Data Processed
Mineral: Dolomite
Rruff sample: R050241
Ideal chemistry: CaMg(CO_3_)_2_
Locality: Eugui quarries, Navarre, Spain
Source: Marcus Origlieri
Description: Light gray colored tabular crystals
Measured chemistry: (Ca_0.96_Mg_0.04_)_Σ=1_(Mg_0.98_Fe^2+^_0.02_)_Σ=1_(CO_3_)_2_ ; CO_2_ estimated by difference
Raman shift (cm-1)	intensity
117.906	0
121.281	1.25218
124.655	0.38459
128.03	1.29635
131.405	3.3367
134.78	1.93074
138.155	3.53299
141.529	8.87777
144.904	13.4908
148.279	24.0988
151.654	49.1797
155.029	111.569
158.404	171.123
161.778	192.645
165.153	243.163
168.528	316.709
171.903	462.853
175.278	871.076
178.652	769.537
182.027	222.351
185.402	82.6412
188.777	39.5283
192.152	24.3186
195.526	12.6555
198.901	10.4615
202.276	5.70598
205.651	2.33533
209.026	2.62606
212.401	0.773109
215.775	0.948097
219.15	2.24738
222.525	2.591
225.9	2.55133
229.275	1.33149
232.649	0.371483
236.024	0.890926
239.399	1.39474
242.774	0.453213
246.149	0.297615
249.524	1.44017
252.898	2.93721
256.273	4.99064
259.648	8.20192
263.023	8.86032
266.398	16.5973
269.772	25.5461
273.147	35.9109
276.522	70.5913
279.897	125.475
283.272	179.093
286.647	218.245
290.021	262.895
293.396	319.498
296.771	414.88
300.146	492.697
303.521	344.93
306.895	160.273
310.27	81.1301
313.645	51.5678
317.02	38.23
320.395	41.0761
323.769	43.4902
327.144	46.8849
330.519	59.8197
333.894	88.7344
337.269	153.542
340.644	173.276
344.018	76.0064
347.393	31.2526
350.768	13.9034
354.143	7.87715
357.518	5.45172
360.892	2.68034
364.267	1.65994
367.642	3.35916
371.017	1.58497
374.392	0.929459
377.767	0.429037
381.141	1.0414
384.516	0.891006
387.891	0.127583
391.266	0.537998
394.641	0.40366
398.015	0.663246
401.39	1.67525
404.765	0.057085
408.14	0.572292
411.515	0.189133
414.889	1.35018
418.264	0.339483
421.639	2.07459
425.014	1.60776
428.389	1.56709
431.764	1.71867
435.138	3.75476
438.513	0.759933
441.888	2.71757
445.263	2.9077
448.638	3.97092
452.012	3.28392
455.387	2.54622
458.762	2.88994
462.137	2.39035
465.512	0.816071
468.887	1.70721
472.261	1.55781
475.636	3.75936
479.011	1.57486
482.386	0.003633
485.761	0.936832
489.135	2.00419
492.51	2.92658
495.885	1.83151
499.26	0.505608
502.635	1.12888
506.01	0.891954
509.384	2.3878
512.759	0.848354
516.134	0.907038
519.509	2.33017
522.884	0.064466
526.259	1.06443
529.633	0.950912
533.008	1.67783
536.383	1.49935
539.758	2.37529
543.133	2.77695
546.507	0.654169
549.882	1.42046
553.257	1.64735
556.632	0.647455
560.007	1.53917
563.381	0.122345
566.756	1.6608
570.131	3.41897
573.506	1.9388
576.881	0.890902
580.256	0.194805
583.63	1.13998
587.005	1.42508
590.38	2.70586
593.755	1.85904
597.13	2.18346
600.504	1.7085
603.879	1.83611
607.254	1.24541
610.629	0.772612
614.004	2.14658
617.379	0.616892
620.753	1.81794
624.128	0.192629
627.503	0.925381
630.878	1.03526
634.253	0.726467
637.627	0.731995
641.002	2.10581
644.377	1.2355
647.752	1.28962
651.127	1.57672
654.501	1.89167
657.876	1.41884
661.251	0.023945
664.626	1.82572
668.001	0.86385
671.375	2.46934
674.75	4.49106
678.125	5.9415
681.5	8.67599
684.875	11.7604
688.25	12.8774
691.625	16.1131
694.999	22.7969
698.374	29.4661
701.749	42.0425
705.124	60.8335
708.499	90.441
711.873	125.735
715.248	165.584
718.623	229.878
721.998	335.872
725.373	417.672
728.747	280.762
732.122	121.994
735.497	57.7372
738.872	33.9567
742.247	19.6815
745.621	11.2672
748.996	7.53059
752.371	4.55772
755.746	5.15704
759.121	3.14802
762.496	2.20384
765.87	0.481812
769.245	1.06491
772.62	2.48878
775.995	0.77351
779.37	0.827654
782.745	0.2125
786.119	0.447311
789.494	1.60872
792.869	0.837261
796.244	0.360498
799.619	1.31301
802.993	0.633371
806.368	0.96213
809.743	0.659481
813.118	1.09092
816.493	0.259298
819.867	2.48052
823.242	1.20163
826.617	2.36346
829.992	2.33821
833.367	2.12617
836.742	0.460167
840.116	1.0226
843.491	1.41373
846.866	1.95342
850.241	2.41576
853.616	2.74781
856.99	2.7129
860.365	1.91463
863.74	2.35055
867.115	4.78704
870.49	4.78721
873.865	9.21544
877.239	11.2402
880.614	32.3235
883.989	19.2615
887.364	5.33495
890.739	4.10094
894.114	3.15202
897.488	1.95149
900.863	2.7655
904.238	3.37842
907.613	2.88079
910.987	1.6274
914.362	2.37768
917.737	1.70431
921.112	1.86697
924.487	2.06547
927.862	3.02048
931.236	3.96201
934.611	2.94615
937.986	4.31811
941.361	1.74355
944.736	2.40647
948.111	2.08488
951.485	1.98879
954.86	2.72229
958.235	1.6695
961.61	1.70314
964.985	0.594175
968.359	1.6483
971.734	2.37771
975.109	0.028431
978.484	0.685167
981.859	0.584656
985.234	2.46465
988.608	0.776695
991.983	0.268393
995.358	0.512928
998.733	0.331177
1002.11	1.39983
1005.48	0.531721
1008.86	1.42312
1012.23	0.869911
1015.61	1.01883
1018.98	1.36023
1022.36	4.68653
1025.73	4.0792
1029.11	3.6679
1032.48	6.36739
1035.86	7.68582
1039.23	8.92634
1042.61	11.0021
1045.98	15.2035
1049.36	19.5372
1052.73	27.3879
1056.11	41.1163
1059.48	62.4128
1062.85	92.5396
1066.23	134
1069.6	191.085
1072.98	271.765
1076.35	368.321
1079.73	482.296
1083.1	752.35
1086.48	1319.43
1089.85	1843.02
1093.23	2917.07
1096.6	5483.13
1099.98	5968.26
1103.35	1670.92
1106.73	540.444
1110.1	247.456
1113.48	132.192
1116.85	80.7659
1120.23	47.3645
1123.6	30.2531
1126.98	20.4666
1130.35	12.3828
1133.72	8.08613
1137.1	6.508
1140.47	3.50118
1143.85	2.58557
1147.22	0.80007
1150.6	1.2325
1153.97	0.749182
1157.35	0.774752
1160.72	0.534826
1164.1	0.671995
1167.47	0.190884
1170.85	1.67462
1174.22	0.771563
1177.6	0.575842
1180.97	1.77177
1184.35	0.581459
1187.72	2.47724
1191.1	3.659
1194.47	4.23913
1197.85	5.31575
1201.22	3.78929
1204.6	4.99078
1207.97	5.8316
1211.35	8.37047
1214.72	6.17979
1218.1	6.96324
1221.47	8.13113
1224.85	7.48519
1228.22	9.53565
1231.6	10.9432
1234.97	8.60385
1238.35	10.2058
1241.72	11.0673
1245.09	12.1194
1248.47	12.8423
1251.84	10.7498
1255.22	10.4378
1258.59	9.76402
1261.97	8.48921
1265.34	6.59247
1268.72	4.45698
1272.09	2.48222
1275.47	0.67705
1278.84	1.26656
1282.22	1.97687
1285.59	2.18967
