Measurement: Raman, 780 nm, unoriented, Raman Data Processed
Mineral: Dolomite
Rruff sample: R050129
Ideal chemistry: CaMg(CO_3_)_2_
Locality: Black Cloud mine, Leadville, Lake County, Colorado, USA
Source: Dave Bunk Minerals
Description: Aggregate of colorless to white rhombohedra
Measured chemistry: Ca(Mg_0.62_Fe^2+^_0.33_Mn_0.05_)_Î£=1_(CO_3_)_2_ ; CO_2_ estimated by difference
Raman shift (cm-1)	intensity
124.423	0
127.798	2.33876
131.173	2.8526
134.547	4.88059
137.922	11.5274
141.297	22.1258
144.672	36.2183
148.047	65.4948
151.421	98.6446
154.796	126.458
158.171	152.112
161.546	184.095
164.921	218.364
168.296	246.89
171.67	227.368
175.045	144.378
178.42	72.9505
181.795	41.0086
185.169	22.9691
188.544	12.5024
191.919	7.15579
195.294	4.5343
198.669	1.20673
202.044	0.138
205.418	0.490005
208.793	1.69224
212.168	2.30958
215.543	0.945671
218.918	0.149658
222.292	0.418373
225.667	1.15071
229.042	0.761307
232.417	5.03595
235.792	8.68641
239.167	11.9453
242.541	18.1421
245.916	28.4335
249.291	38.1132
252.666	53.282
256.041	73.6882
259.416	101.847
262.79	141.525
266.165	188.738
269.54	243.217
272.915	304.456
276.29	364.329
279.664	411.145
283.039	444.241
286.414	460.225
289.789	437.215
293.164	375.446
296.538	291.192
299.913	197.973
303.288	129.496
306.663	85.3205
310.038	57.9472
313.413	41.2342
316.787	29.6387
320.162	22.6684
323.537	18.3223
326.912	16.0666
330.287	11.7226
333.661	10.9515
337.036	9.07499
340.411	7.57524
343.786	3.82533
347.161	3.01844
350.536	0.436783
353.91	0.147766
357.285	0.208412
360.66	1.13145
364.035	1.05093
367.41	1.91773
370.784	0.794716
374.159	0.277477
377.534	1.28158
380.909	2.92962
384.284	2.70369
387.659	3.22612
391.033	1.23505
394.408	2.84063
397.783	1.81323
401.158	2.58453
404.533	1.29237
407.907	1.89883
411.282	1.31729
414.657	1.9776
418.032	1.227
421.407	1.37936
424.781	2.73529
428.156	0.428886
431.531	1.21561
434.906	0.103535
438.281	0.340084
441.656	1.22443
445.03	0.237686
448.405	1.87035
451.78	0.154583
455.155	1.60261
458.53	2.16908
461.904	1.5703
465.279	0.953644
468.654	0.369247
472.029	0.693634
475.404	1.11748
478.779	1.60337
482.153	1.66263
485.528	1.19267
488.903	1.40955
492.278	1.64178
495.653	0.257286
499.027	0.436405
502.402	0.040707
505.777	0.520332
509.152	1.49829
512.527	0.152859
515.902	1.40721
519.276	1.3374
522.651	0.851566
526.026	2.32261
529.401	2.30706
532.776	1.20089
536.15	1.27952
539.525	1.90662
542.9	1.66462
546.275	1.34749
549.65	2.87093
553.024	1.19737
556.399	1.93413
559.774	3.14761
563.149	1.61078
566.524	1.76966
569.899	2.18444
573.273	3.158
576.648	1.46151
580.023	2.30829
583.398	1.75507
586.773	1.25238
590.148	0.14233
593.522	1.22557
596.897	0.357018
600.272	2.47086
603.647	0.529438
607.022	1.11684
610.396	0.09708
613.771	0.589916
617.146	1.563
620.521	1.25999
623.896	1.35862
627.27	1.4426
630.645	0.243965
634.02	0.036144
637.395	0.655674
640.77	2.26116
644.145	0.0644
647.519	1.17305
650.894	0.929962
654.269	1.64309
657.644	2.27344
661.019	0.738003
664.394	1.04102
667.768	1.03135
671.143	2.05252
674.518	1.56488
677.893	1.66092
681.268	3.38148
684.642	2.77608
688.017	3.88283
691.392	4.85905
694.767	9.06576
698.142	12.7015
701.516	20.2728
704.891	31.2983
708.266	46.5952
711.641	61.2738
715.016	74.6302
718.391	85.3913
721.765	85.809
725.14	60.9524
728.515	35.5309
731.89	22.7152
735.265	13.1616
738.639	8.47224
742.014	4.63844
745.389	2.74243
748.764	2.91222
752.139	1.35435
755.514	0.43185
758.888	0.020306
762.263	0.589367
765.638	0.685368
769.013	0.048416
772.388	0.75423
775.763	0.032337
779.137	0.222279
782.512	0.022457
785.887	1.18308
789.262	0.473454
792.636	0.836712
796.011	1.42059
799.386	1.12679
802.761	1.09344
806.136	1.14521
809.511	1.66759
812.885	1.67185
816.26	1.1884
819.635	2.5121
823.01	3.11851
826.385	2.96574
829.76	1.13541
833.134	2.77299
836.509	2.1103
839.884	2.80513
843.259	2.33723
846.634	2.28929
850.008	2.83327
853.383	3.26373
856.758	3.11567
860.133	4.37308
863.508	3.02206
866.882	5.23722
870.257	6.43813
873.632	5.07796
877.007	3.37053
880.382	3.45196
883.756	1.8627
887.131	1.74817
890.506	1.36176
893.881	2.19847
897.256	0.251797
900.631	0.700584
904.005	0.547852
907.38	0.381294
910.755	1.13098
914.13	2.02477
917.505	1.36513
920.88	1.25839
924.254	1.18587
927.629	1.25154
931.004	2.32749
934.379	1.04522
937.754	1.2278
941.128	0.004517
944.503	0.916447
947.878	0.284382
951.253	1.4043
954.628	0.200344
958.003	0.793488
961.377	0.132618
964.752	0.187794
968.127	0.248249
971.502	0.83947
974.877	0.543171
978.251	0.577755
981.626	0.338192
985.001	1.25827
988.376	3.8e-05
991.751	0.380936
995.125	0.007858
998.5	0.663551
1001.88	1.36092
1005.25	1.36338
1008.62	0.511002
1012	1.1702
1015.37	1.1632
1018.75	1.82575
1022.12	2.17395
1025.5	3.0074
1028.87	2.87916
1032.25	3.11116
1035.62	5.23645
1039	5.07193
1042.37	5.64357
1045.75	7.79063
1049.12	8.0485
1052.5	12.0279
1055.87	14.5836
1059.25	18.8315
1062.62	24.2056
1066	35.0501
1069.37	50.5669
1072.75	76.2077
1076.12	139.811
1079.5	294.445
1082.87	501.932
1086.24	729.935
1089.62	994.32
1092.99	1055.59
1096.37	618.263
1099.74	219.755
1103.12	81.6196
1106.49	36.6258
1109.87	19.7957
1113.24	10.6348
1116.62	7.15355
1119.99	3.68477
1123.37	1.75938
1126.74	1.69376
1130.12	1.36702
1133.49	0.013628
1136.87	0.304033
1140.24	0.847857
1143.62	0.360258
1146.99	1.70589
1150.37	0.375727
1153.74	0.366928
1157.12	0.000904
1160.49	1.29741
1163.87	1.5785
1167.24	1.61184
1170.62	1.98239
1173.99	1.07722
1177.37	0.353363
1180.74	1.03112
1184.12	0.693798
1187.49	1.53393
1190.87	2.63691
1194.24	2.63517
1197.62	1.4429
1200.99	1.62004
1204.36	1.51887
1207.74	1.60454
1211.11	2.03164
1214.49	0.692774
1217.86	0.453678
1221.24	2.20977
1224.61	1.43043
1227.99	1.52417
1231.36	1.60597
1234.74	1.55217
1238.11	1.3869
1241.49	0.837082
1244.86	1.39463
1248.24	1.73942
1251.61	1.82942
1254.99	0.544996
1258.36	2.49696
1261.74	0.368353
1265.11	1.81018
1268.49	0.033033
1271.86	0.227535
1275.23	0.74663
1278.61	0.766304
1281.98	0.631351
1285.36	1.12634
