Measurement: Raman, 780 nm, unoriented, Raman Data Processed
Mineral: Dolomite
Rruff sample: R050357
Ideal chemistry: CaMg(CO_3_)_2_
Locality: Black Rock, Lawrence County, Arkansas, USA
Source: California Institute of Technology
Description: Aggregate of pale pink curved saddle-shaped crystals
Measured chemistry: Ca_1.00_(Mg_0.98_Fe^2+^_0.02_)_Î£=1_(CO_3_)_2_ ; CO_2_ estimated by difference
Raman shift (cm-1)	intensity
118.558	0
121.45	0.905319
124.343	0.035824
127.236	0.081009
130.129	0.637722
133.021	1.15039
135.914	2.26577
138.807	5.13516
141.699	8.12954
144.592	11.5823
147.485	19.2489
150.377	31.6148
153.27	58.5939
156.163	104.653
159.055	149.667
161.948	168.69
164.841	203.751
167.734	254.094
170.626	305.75
173.519	384.06
176.412	463.476
179.304	328.956
182.197	133.431
185.09	54.4127
187.982	27.8337
190.875	15.3326
193.768	7.51252
196.661	4.56455
199.553	2.08406
202.446	0.247475
205.339	1.18835
208.231	0.941559
211.124	0.886238
214.017	1.16824
216.91	0.713387
219.802	0.352638
222.695	2.21195
225.588	5.1255
228.48	4.49397
231.373	1.83833
234.266	0.630886
237.158	0.646233
240.051	0.679649
242.944	1.32995
245.837	1.6827
248.729	2.95509
251.622	4.43382
254.515	6.35487
257.407	10.6599
260.3	13.136
263.193	17.5839
266.085	26.1217
268.978	37.0176
271.871	54.5793
274.764	82.2066
277.656	127.918
280.549	195.455
283.442	272.946
286.334	330.346
289.227	399.142
292.12	489.975
295.012	585.23
297.905	671.926
300.798	665.391
303.69	467.708
306.583	263.019
309.476	148.272
312.369	94.0819
315.261	64.5882
318.154	47.9488
321.047	39.4201
323.939	29.8599
326.832	26.7925
329.725	23.2225
332.618	24.234
335.51	24.7441
338.403	26.5274
341.296	20.1499
344.188	10.5733
347.081	6.7153
349.974	3.0326
352.866	2.84405
355.759	2.01459
358.652	0.143772
361.545	0.253075
364.437	0.163521
367.33	0.711693
370.223	0.800732
373.115	0.940514
376.008	0.342384
378.901	0.288761
381.793	0.549988
384.686	0.255028
387.579	0.14365
390.471	0.662739
393.364	0.303303
396.257	0.621351
399.15	0.701902
402.042	1.6704
404.935	1.10693
407.828	1.43512
410.72	0.858139
413.613	1.12573
416.506	1.69801
419.399	1.66119
422.291	1.88184
425.184	0.556808
428.077	0.919302
430.969	1.24524
433.862	0.986448
436.755	1.19003
439.647	1.63721
442.54	1.69333
445.433	1.01445
448.325	2.44016
451.218	2.26749
454.111	1.10181
457.004	0.161337
459.896	1.62207
462.789	0.703381
465.682	0.44804
468.574	1.21769
471.467	2.35497
474.36	1.3842
477.252	1.44915
480.145	2.58249
483.038	1.94859
485.931	1.22085
488.823	1.77655
491.716	2.26221
494.609	1.14399
497.501	1.26726
500.394	1.50661
503.287	1.53029
506.18	0.917545
509.072	0.920807
511.965	1.85368
514.857	0.981886
517.75	1.03309
520.643	1.05873
523.536	1.15864
526.428	0.820419
529.321	1.73121
532.214	0.604025
535.106	0.902094
537.999	0.472134
540.892	1.20476
543.784	0.761168
546.677	0.932314
549.57	0.830437
552.463	0.838911
555.355	0.955647
558.248	2.06363
561.141	0.421984
564.033	2.16622
566.926	0.488417
569.819	0.563562
572.712	1.31833
575.604	0.561455
578.497	1.12887
581.39	1.12688
584.282	0.542925
587.175	1.39573
590.068	1.55871
592.96	0.71855
595.853	0.189127
598.746	0.586712
601.639	1.23298
604.531	0.961588
607.424	0.425053
610.317	0.264803
613.209	0.799339
616.102	0.04599
618.995	1.26946
621.888	0.917076
624.78	0.946384
627.673	0.025343
630.566	0.689915
633.458	0.521959
636.351	0.688528
639.244	0.328829
642.136	0.949526
645.029	0.33572
647.922	1.44463
650.814	0.814289
653.707	1.07592
656.6	0.804424
659.493	0.44713
662.385	0.917023
665.278	1.69237
668.171	0.943344
671.063	0.473394
673.956	2.01547
676.849	1.55351
679.741	2.41563
682.634	2.1078
685.527	3.25804
688.42	2.9977
691.312	5.88811
694.205	5.10206
697.098	5.63573
699.99	8.88371
702.883	11.4938
705.776	16.9922
708.668	24.289
711.561	33.7533
714.454	43.7421
717.346	53.704
720.239	68.1491
723.132	81.0351
726.025	76.7558
728.917	49.2917
731.81	26.3119
734.703	14.4679
737.595	7.76613
740.488	5.0819
743.381	2.66555
746.274	1.12125
749.166	0.192026
752.059	1.33587
754.952	0.305529
757.844	0.272585
760.737	0.39616
763.63	0.222027
766.522	0.128679
769.415	0.247881
772.308	0.99707
775.201	0.327971
778.093	0.532537
780.986	0.065739
783.879	0.074326
786.771	0.520224
789.664	0.107689
792.557	0.192471
795.449	0.365275
798.342	0.151244
801.235	0.090683
804.128	0.393116
807.02	1.49712
809.913	0.746782
812.806	1.57779
815.698	0.867993
818.591	0.735174
821.484	1.25451
824.376	0.359647
827.269	0.975721
830.162	1.30904
833.054	1.18547
835.947	1.19265
838.84	1.25615
841.733	1.47165
844.625	1.76987
847.518	0.571659
850.411	1.91957
853.303	1.37723
856.196	1.15487
859.089	1.55454
861.981	1.85617
864.874	2.85271
867.767	2.01042
870.66	3.51399
873.552	2.4603
876.445	3.90853
879.338	6.02464
882.23	6.82814
885.123	3.85277
888.016	2.19019
890.909	1.91864
893.801	1.35452
896.694	0.829234
899.587	0.742861
902.479	0.686761
905.372	1.45561
908.265	0.175338
911.157	1.05736
914.05	0.169096
916.943	0.721971
919.836	0.929487
922.728	0.667005
925.621	1.27515
928.514	0.034648
931.406	0.750331
934.299	1.3509
937.192	0.815543
940.084	1.21173
942.977	1.79682
945.87	1.35535
948.763	1.90826
951.655	1.58785
954.548	0.706276
957.441	1.80624
960.333	0.662539
963.226	1.44801
966.119	1.89693
969.011	0.443531
971.904	0.217613
974.797	1.0928
977.689	0.268254
980.582	1.13448
983.475	1.05725
986.368	0.226901
989.26	0.494693
992.153	0.344185
995.046	0.156185
997.938	0.258373
1000.83	0.224348
1003.72	0.042992
1006.62	0.307837
1009.51	0.596423
1012.4	0.531389
1015.29	0.182997
1018.19	0.038235
1021.08	0.749535
1023.97	0.686354
1026.87	0.584087
1029.76	0.027355
1032.65	0.543463
1035.54	1.16252
1038.44	1.83155
1041.33	2.27753
1044.22	2.19978
1047.11	1.6382
1050.01	4.19205
1052.9	4.14703
1055.79	7.55762
1058.68	9.46855
1061.58	14.5309
1064.47	20.8242
1067.36	26.9247
1070.26	33.9884
1073.15	44.4653
1076.04	56.2388
1078.93	74.6402
1081.83	113.131
1084.72	206.364
1087.61	332.242
1090.51	451.692
1093.4	627.917
1096.29	821.697
1099.18	815.907
1102.08	375.359
1104.97	138.836
1107.86	63.2279
1110.75	32.835
1113.65	19.9225
1116.54	14.9639
1119.43	10.0776
1122.32	8.84967
1125.22	6.96204
1128.11	5.9157
1131	5.66073
1133.89	4.12776
1136.79	4.18689
1139.68	3.57928
1142.57	3.25523
1145.47	2.50433
1148.36	2.73043
1151.25	2.26466
1154.14	1.65311
1157.04	0.754219
1159.93	0.687325
1162.82	0.436546
1165.71	0.055241
1168.61	0.412006
1171.5	0.008793
1174.39	0.082829
1177.29	0.478947
1180.18	0.479988
1183.07	0.104027
1185.96	0.928772
1188.86	2.05909
1191.75	2.27839
1194.64	1.60484
1197.54	2.26026
1200.43	3.46833
1203.32	3.24576
1206.21	5.32145
1209.11	4.34701
1212	3.81474
1214.89	4.98231
1217.78	4.85288
1220.68	5.41084
1223.57	4.98166
1226.46	5.45363
1229.35	4.57585
1232.25	3.2355
1235.14	3.26183
1238.03	5.73962
1240.92	7.1528
1243.82	7.9189
1246.71	11.1917
1249.6	11.8367
1252.5	12.8904
1255.39	11.8473
1258.28	11.4628
1261.17	10.9641
1264.07	7.90793
1266.96	6.80162
1269.85	0.186966
