Measurement: Raman, 532 nm, unoriented, Raman Data Processed
Mineral: Dolomite
Rruff sample: R050357
Ideal chemistry: CaMg(CO_3_)_2_
Locality: Black Rock, Lawrence County, Arkansas, USA
Source: California Institute of Technology
Description: Aggregate of pale pink curved saddle-shaped crystals
Measured chemistry: Ca_1.00_(Mg_0.98_Fe^2+^_0.02_)_Î£=1_(CO_3_)_2_ ; CO_2_ estimated by difference
Raman shift (cm-1)	intensity
119.352	0
122.727	1.55614
126.102	1.93015
129.476	4.31175
132.851	14.2173
136.226	24.0969
139.601	31.3903
142.976	35.7893
146.351	47.7193
149.725	65.7682
153.1	108.477
156.475	207.583
159.85	360.879
163.225	471.456
166.6	596.955
169.974	786.443
173.349	1156.04
176.724	1658.27
180.099	1052.44
183.474	346.518
186.848	144.204
190.223	75.9068
193.598	42.3287
196.973	28.9746
200.348	11.8901
203.722	8.99167
207.097	5.96195
210.472	1.73309
213.847	1.89306
217.222	0.358063
220.596	0.29097
223.971	2.4574
227.346	6.96788
230.721	2.72378
234.096	2.1907
237.471	0.174088
240.845	1.06592
244.22	1.04097
247.595	7.31694
250.97	9.12903
254.345	12.5125
257.719	21.2567
261.094	28.9858
264.469	44.2931
267.844	66.0488
271.219	100.743
274.594	145.364
277.968	239.464
281.343	408.951
284.718	623.228
288.093	843.91
291.468	1118.41
294.842	1535.36
298.217	2020.45
301.592	1990.52
304.967	1166.42
308.342	582.536
311.717	318.458
315.091	196.617
318.466	136.304
321.841	105.138
325.216	87.3931
328.591	81.3479
331.966	88.6563
335.34	114.03
338.715	136.826
342.09	90.5856
345.465	43.7695
348.84	24.4575
352.214	13.6468
355.589	6.66089
358.964	5.88045
362.339	1.13092
365.714	3.50949
369.089	1.30124
372.463	1.27231
375.838	0.90477
379.213	0.649139
382.588	0.942551
385.963	0.763519
389.337	1.66005
392.712	2.33073
396.087	2.02715
399.462	1.52768
402.837	0.131493
406.212	2.49782
409.586	1.11528
412.961	3.23274
416.336	0.473602
419.711	3.19711
423.086	1.76981
426.46	5.13722
429.835	3.66945
433.21	0.670006
436.585	5.57692
439.96	5.70237
443.334	5.238
446.709	3.84724
450.084	4.89868
453.459	4.66606
456.834	3.18967
460.209	3.76765
463.583	4.64159
466.958	3.36938
470.333	5.39175
473.708	5.99693
477.083	3.67287
480.457	0.851616
483.832	3.45884
487.207	4.38073
490.582	3.18927
493.957	3.41215
497.332	2.61221
500.706	3.36697
504.081	1.51964
507.456	1.83519
510.831	1.71803
514.206	0.445068
517.58	3.53474
520.955	4.15208
524.33	5.38455
527.705	2.21532
531.08	1.73244
534.455	3.36351
537.829	3.20163
541.204	0.069244
544.579	1.83756
547.954	0.277145
551.329	6.26384
554.703	1.95355
558.078	4.08701
561.453	2.42893
564.828	1.02448
568.203	1.96579
571.577	4.44948
574.952	0.616394
578.327	0.841293
581.702	4.02356
585.077	4.05229
588.452	5.00995
591.826	4.95631
595.201	3.92433
598.576	4.22096
601.951	2.80255
605.326	3.42259
608.7	5.08814
612.075	5.2442
615.45	4.60141
618.825	3.28511
622.2	1.69559
625.574	3.30037
628.949	1.6931
632.324	0.685287
635.699	1.85536
639.074	1.17418
642.449	1.88269
645.823	2.17075
649.198	0.029892
652.573	0.331665
655.948	2.14595
659.323	3.16977
662.697	4.54524
666.072	1.15718
669.447	5.35968
672.822	5.16757
676.197	3.92258
679.572	7.89233
682.946	9.73724
686.321	16.2971
689.696	19.2832
693.071	24.5462
696.446	33.0086
699.821	44.1143
703.195	63.1343
706.57	87.3268
709.945	134.375
713.32	202.178
716.695	283.85
720.069	400.756
723.444	522.948
726.819	478.151
730.194	255.997
733.569	117.389
736.943	60.7306
740.318	34.9579
743.693	21.4878
747.068	11.802
750.443	11.5954
753.818	6.67479
757.192	3.36758
760.567	3.51215
763.942	2.45245
767.317	0.575317
770.692	0.461884
774.067	0.387527
777.441	0.556137
780.816	1.27345
784.191	1.02676
787.566	2.04781
790.941	1.57304
794.315	0.103592
797.69	0.809921
801.065	1.64945
804.44	1.62511
807.815	1.35207
811.189	2.41365
814.564	1.7126
817.939	6.82388
821.314	3.67082
824.689	3.63261
828.063	0.109512
831.438	1.91658
834.813	4.93339
838.188	2.81677
841.563	7.61055
844.938	4.40131
848.312	0.404526
851.687	5.14169
855.062	5.711
858.437	6.20252
861.812	4.78664
865.187	2.34207
868.561	7.28468
871.936	10.6671
875.311	14.1737
878.686	21.2792
882.061	40.5524
885.435	13.2762
888.81	9.70732
892.185	5.9762
895.56	5.15372
898.935	2.42851
902.309	3.92059
905.684	6.67766
909.059	5.57773
912.434	5.48759
915.809	0.332504
919.184	1.38901
922.558	4.70053
925.933	5.79892
929.308	2.97455
932.683	4.46803
936.058	5.21979
939.433	1.15607
942.807	5.76985
946.182	5.58081
949.557	8.23373
952.932	5.39989
956.307	5.68509
959.681	0.701904
963.056	0.798874
966.431	1.04698
969.806	3.51802
973.181	0.581116
976.556	2.35587
979.93	1.33589
983.305	0.481674
986.68	0.29628
990.055	2.70955
993.43	0.966217
996.804	0.800797
1000.18	0.701157
1003.55	1.16518
1006.93	0.768707
1010.3	0.421387
1013.68	1.73938
1017.05	3.16617
1020.43	5.34059
1023.8	3.39058
1027.18	4.49431
1030.55	8.83972
1033.93	11.2551
1037.3	7.88927
1040.68	12.96
1044.05	15.0706
1047.43	19.1867
1050.8	28.5635
1054.18	41.6415
1057.55	55.6865
1060.93	78.6038
1064.3	115.003
1067.68	163.071
1071.05	217.618
1074.42	295.16
1077.8	380.777
1081.17	514.728
1084.55	885.101
1087.92	1725.1
1091.3	2654.21
1094.67	4435.17
1098.05	6967.04
1101.42	3959.61
1104.8	1214.24
1108.17	471.426
1111.55	221.8
1114.92	113.141
1118.3	73.7813
1121.67	44.7102
1125.05	29.484
1128.42	20.272
1131.8	10.6546
1135.17	8.9758
1138.55	9.47971
1141.92	1.47064
1145.3	5.23987
1148.67	0.643066
1152.05	3.47098
1155.42	0.46875
1158.8	2.54602
1162.17	1.56125
1165.55	0.609589
1168.92	0.441681
1172.3	1.51617
1175.67	1.22928
1179.04	1.07254
1182.42	1.01623
1185.79	3.45783
1189.17	5.88693
1192.54	6.15918
1195.92	3.59058
1199.29	4.55069
1202.67	8.33954
1206.04	7.34146
1209.42	10.3252
1212.79	6.02139
1216.17	5.42047
1219.54	4.41913
1222.92	1.79703
1226.29	3.30783
1229.67	0.854492
1233.04	2.3692
1236.42	6.19354
1239.79	3.98193
1243.17	4.91037
1246.54	4.6395
1249.92	7.48392
1253.29	4.36816
1256.66	2.94757
1260.04	5.17133
1263.41	3.11038
1266.79	6.11096
1270.16	4.51211
1273.54	3.00458
1276.91	3.91727
