Measurement: Raman, 514 nm, unoriented, Raman Data Processed
Mineral: Dolomite
Rruff sample: R040030
Ideal chemistry: CaMg(CO_3_)_2_
Locality: Austria
Source: University of Arizona Mineral Museum
Description: Group of colorless tabular crystals
Measured chemistry: (Ca_0.99_Mg_0.01_)_Î£=1_Mg_1.00_(CO_3_)_2_ ; trace amounts of Mn; CO_2_ estimated by difference
Raman shift (cm-1)	intensity
148.942	0
153.096	1.74
157.247	45.316
161.396	216.769
165.544	716.675
169.689	2542.04
173.833	5520.95
177.974	6542.59
182.114	2295.01
186.251	730.666
190.387	286.954
194.52	163.281
198.652	157.131
202.782	113.94
206.909	144.916
211.035	34.194
215.159	0.73
219.281	1.696
223.4	19.792
227.518	67.863
231.634	31.899
235.748	19.033
239.86	14.54
243.97	19.484
248.079	6.191
252.185	5.09
256.289	32.395
260.391	70.005
264.492	112.692
268.59	178.825
272.687	235.447
276.781	327.923
280.874	541.154
284.964	1032.45
289.053	2016.04
293.14	4372.16
297.225	8246.35
301.308	9855.78
305.389	5854.83
309.468	2440.79
313.545	1266.34
317.62	705.264
321.693	489.04
325.765	357.99
329.834	254.961
333.902	401.714
337.967	544.452
342.031	489.744
346.093	290.995
350.153	134.979
354.21	108.52
358.267	89.93
362.321	90.824
366.373	72.587
370.423	91.801
374.471	34.726
378.518	12.476
382.563	2.087
386.605	73.443
390.646	55.859
394.685	33.044
398.722	44.473
402.757	68.29
406.79	28.412
410.821	12.812
414.851	45.399
418.878	46.013
422.904	59.854
426.927	75.314
430.949	30.443
434.969	89.793
438.987	29.083
443.003	17.039
447.018	69.965
451.03	14.437
455.041	67.095
459.049	36.721
463.056	55.238
467.061	88.189
471.064	33.624
475.065	10.286
479.064	57.757
483.062	52.713
487.057	13.253
491.051	43.299
495.043	27.433
499.032	29.773
503.02	14.062
507.007	61.351
510.991	16.22
514.973	12.129
518.954	81.862
522.933	109.474
526.91	40.932
530.885	56.823
534.858	38.667
538.829	47.084
542.799	72.511
546.766	45.581
550.732	34.526
554.696	51.996
558.658	24.286
562.618	16.865
566.576	78.856
570.533	53.214
574.488	4.41
578.44	96.201
582.391	46.845
586.341	66.246
590.288	71.023
594.233	63.303
598.177	79.106
602.119	35.269
606.059	57.413
609.997	19.788
613.933	8.599
617.868	20.751
621.801	33.177
625.731	92.331
629.66	94.992
633.588	66.751
637.513	0.562
641.437	38.698
645.358	41.223
649.278	59.799
653.196	62.377
657.113	60.619
661.027	113.136
664.94	101.397
668.851	52.539
672.76	60.074
676.667	73.683
680.572	36.275
684.476	78.178
688.378	52.392
692.278	75.254
696.176	158.143
700.072	232.7
703.967	194.508
707.86	239.186
711.751	364.104
715.64	455.805
719.527	833.106
723.413	1500.69
727.297	1503.72
731.179	729.399
735.059	307.56
738.937	176.237
742.814	172.001
746.689	111.804
750.562	40.208
754.433	69.471
758.303	85.448
762.17	60.493
766.036	42.766
769.901	63.809
773.763	41.258
777.624	63.398
781.482	59.672
785.339	47.504
789.195	57.003
793.048	26.129
796.9	7.136
800.75	2.604
804.598	47.756
808.445	78.962
812.289	15.752
816.132	60.888
819.973	24.833
823.813	72.72
827.65	70.292
831.486	75.817
835.32	78.789
839.152	30.3
842.983	140.315
846.812	99.077
850.639	0.339
854.464	11.706
858.288	73.306
862.11	47.327
865.93	82.132
869.748	113
873.564	79.487
877.379	46.823
881.192	299.015
885.004	105.107
888.813	30.067
892.621	53.88
896.427	75.554
900.232	99.083
904.034	48.742
907.835	53.523
911.634	17.505
915.432	82.946
919.227	122.909
923.021	60.24
926.813	93.067
930.604	34.862
934.393	59.448
938.18	41.968
941.965	55.564
945.749	6.789
949.53	47.07
953.311	24.257
957.089	34.627
960.866	4.138
964.641	44.211
968.414	15.644
972.185	71.785
975.955	23.685
979.723	18.701
983.49	51.697
987.254	82.724
991.017	61.083
994.779	78.489
998.538	70.911
1002.3	109.182
1006.05	69.172
1009.81	87.699
1013.56	203.15
1017.31	38.875
1021.06	155.526
1024.81	132.409
1028.55	264.579
1032.3	201.265
1036.04	208.728
1039.78	233.105
1043.52	236.489
1047.26	279.989
1050.99	325.414
1054.73	337.591
1058.46	395.766
1062.19	540.991
1065.92	756.804
1069.65	1044.17
1073.37	1466.97
1077.1	1920.76
1080.82	2400.04
1084.54	2852.6
1088.26	4277.38
1091.97	7411.72
1095.69	20659.2
1099.4	45510.6
1103.12	15527
1106.83	4481.17
1110.54	1900.12
1114.24	1086.3
1117.95	634.207
1121.65	446.634
1125.35	370.583
1129.06	255.912
1132.75	193.205
1136.45	43.812
1140.15	103.893
1143.84	79.135
1147.53	115.717
1151.22	56.705
1154.91	200.224
1158.6	37.486
1162.28	97.631
1165.97	46.654
1169.65	106.505
1173.33	10.516
1177.01	131.896
1180.69	133.709
1184.36	169.594
1188.04	121.801
1191.71	84.427
1195.38	83.458
1199.05	107.713
1202.71	73.131
1206.38	150.311
1210.04	146.553
1213.71	125.185
1217.37	155.316
1221.03	75.447
1224.68	45.098
1228.34	94.629
1231.99	14.035
1235.65	68.808
1239.3	130.143
1242.95	125.503
1246.59	204.789
1250.24	9.058
1253.88	31.85
1257.53	122.725
1261.17	61.208
1264.81	36.251
1268.45	24.979
1272.08	4.416
1275.72	23.468
1279.35	0.113
1282.98	69.867
1286.61	5.54
1290.24	18.964
1293.87	88.123
1297.49	15.958
1301.11	4.591
1304.73	58.615
1308.36	119.628
1311.97	27.861
1315.59	27.623
1319.2	8.258
1322.82	38.125
1326.43	78.784
1330.04	23.633
1333.65	153.529
1337.26	76.396
1340.86	51.463
1344.47	67.899
1348.07	74.832
1351.67	33.895
1355.27	235.98
1358.87	132.649
1362.46	194.675
1366.06	213.128
1369.65	239.682
1373.24	208.14
1376.83	176.349
1380.42	177.126
1384	188.06
1387.59	113.375
1391.17	168.807
1394.75	232.245
1398.33	166.347
1401.91	140.743
1405.49	294.525
1409.06	266.943
1412.64	188.253
1416.21	269.741
1419.78	218.337
1423.35	231.292
1426.91	315.278
1430.48	290.473
1434.05	322.875
1437.61	648.953
1441.17	801.449
1444.73	1570.16
1448.29	927.765
1451.84	467.774
1455.4	336.43
1458.95	391.583
1462.5	396.812
1466.05	386.255
1469.6	265.694
1473.15	332.012
1476.69	272.127
1480.24	314.179
1483.78	167.59
1487.32	168.114
1490.86	221.806
1494.39	273.987
1497.93	229.774
1501.46	29.563
1505	18.037
1508.53	191.693
1512.06	6.115
1515.59	152.072
1519.11	150.165
1522.64	80.817
1526.16	0
