Measurement: Raman, 532 nm, unoriented, Raman Data Processed
Mineral: Dolomite
Rruff sample: R040030
Ideal chemistry: CaMg(CO_3_)_2_
Locality: Austria
Source: University of Arizona Mineral Museum
Description: Group of colorless tabular crystals
Measured chemistry: (Ca_0.99_Mg_0.01_)_Î£=1_Mg_1.00_(CO_3_)_2_ ; trace amounts of Mn; CO_2_ estimated by difference
Raman shift (cm-1)	intensity
126.19	0
129.565	0.43689
132.94	2.25485
136.315	5.9563
139.689	16.2301
143.064	25.4308
146.439	45.4992
149.814	88.5329
153.189	188.115
156.564	494.648
159.938	786.91
163.313	993.05
166.688	1283.99
170.063	1755.53
173.438	2790.13
176.812	3837.16
180.187	1497.08
183.562	487.218
186.937	223.821
190.312	125.245
193.686	72.1569
197.061	39.5711
200.436	17.0046
203.811	9.97073
207.186	2.50284
210.561	0.589722
213.935	4.32675
217.31	2.83258
220.685	3.00253
224.06	20.286
227.435	28.234
230.81	10.1483
234.184	6.54251
237.559	3.73047
240.934	2.71191
244.309	5.22775
247.684	3.73511
251.058	12.2293
254.433	21.977
257.808	34.1411
261.183	65.5854
264.558	84.764
267.932	130.852
271.307	204.33
274.682	334.234
278.057	589.854
281.432	1065.21
284.807	1625.64
288.181	2159.38
291.556	2835.05
294.931	3864.91
298.306	5116.56
301.681	4758.98
305.055	2495.39
308.43	1180.66
311.805	651.822
315.18	392.887
318.555	256.635
321.93	190.148
325.304	157.525
328.679	138.045
332.054	142.048
335.429	178.597
338.804	218.496
342.178	140.254
345.553	57.6733
348.928	25.4691
352.303	14.6823
355.678	6.01346
359.053	2.84119
362.427	3.62924
365.802	0.656372
369.177	0.693329
372.552	1.07159
375.926	1.26871
379.301	1.18033
382.676	1.26251
386.051	3.14557
389.426	0.91864
392.801	1.97592
396.175	0.488892
399.55	5.01013
402.925	2.21246
406.3	2.60504
409.675	0.553986
413.05	4.06488
416.424	3.97485
419.799	6.02972
423.174	2.60171
426.549	7.75259
429.924	7.09531
433.298	11.2116
436.673	9.13336
440.048	9.84558
443.423	7.50702
446.798	8.01245
450.173	4.29129
453.547	6.66635
456.922	8.31769
460.297	7.2385
463.672	11.469
467.047	6.89044
470.421	7.65744
473.796	7.84286
477.171	6.29333
480.546	7.10522
483.921	11.1309
487.296	5.72708
490.67	5.83026
494.045	4.52576
497.42	4.77591
500.795	5.52832
504.17	0.246185
507.544	5.69553
510.919	0.085815
514.294	1.54343
517.669	1.48215
521.044	3.11044
524.418	1.58566
527.793	3.07764
531.168	2.22925
534.543	6.99667
537.918	2.07135
541.293	4.07355
544.667	6.3927
548.042	6.85901
551.417	0.195374
554.792	5.90149
558.167	3.16614
561.541	4.78415
564.916	2.94464
568.291	8.68112
571.666	5.84302
575.041	4.29849
578.415	5.63461
581.79	2.96103
585.165	6.84976
588.54	9.95429
591.915	8.46167
595.29	5.8334
598.664	2.42221
602.039	6.03989
605.414	2.24402
608.789	5.74036
612.164	5.72595
615.538	5.85803
618.913	0.622162
622.288	0.06546
625.663	2.17279
629.038	4.4075
632.413	1.64389
635.787	0.182068
639.162	2.59253
642.537	4.14771
645.912	5.55722
649.287	0.276062
652.661	3.48792
656.036	2.87372
659.411	3.53784
662.786	2.431
666.161	4.06561
669.535	0.609344
672.91	7.1507
676.285	9.70963
679.66	10.8538
683.035	9.15643
686.41	11.5191
689.784	22.928
693.159	29.7698
696.534	39.0071
699.909	51.1841
703.284	67.4766
706.659	104.723
710.033	157.49
713.408	238.385
716.783	301.055
720.158	416.432
723.533	517.185
726.907	444.084
730.282	225.791
733.657	107.901
737.032	56.1249
740.407	36.195
743.782	17.9244
747.156	10.9255
750.531	12.648
753.906	10.002
757.281	3.25678
760.656	1.84155
764.03	1.03802
767.405	2.35425
770.78	5.31561
774.155	1.91071
777.53	0.733276
780.904	7.0733
784.279	5.95221
787.654	4.82825
791.029	1.46539
794.404	3.31403
797.779	3.41065
801.153	1.15894
804.528	1.37073
807.903	7.39026
811.278	8.78705
814.653	2.45691
818.027	1.57904
821.402	2.00513
824.777	4.68048
828.152	2.25153
831.527	1.63678
834.902	2.34473
838.276	4.39551
841.651	8.54584
845.026	7.16516
848.401	7.17718
851.776	5.33801
855.15	3.97363
858.525	4.93115
861.9	9.2724
865.275	7.91534
868.65	12.9253
872.024	19.4489
875.399	25.9588
878.774	46.5971
882.149	82.6111
885.524	22.4
888.899	12.6388
892.273	4.80011
895.648	4.45154
899.023	13.6717
902.398	3.91412
905.773	11.5391
909.148	12.2705
912.522	5.37903
915.897	9.31781
919.272	6.75525
922.647	10.5641
926.021	5.34582
929.396	9.14398
932.771	3.64294
936.146	4.18219
939.521	5.5304
942.896	3.79498
946.27	8.70258
949.645	7.54462
953.02	2.17413
956.395	5.1853
959.77	4.37903
963.144	8.62219
966.519	1.6048
969.894	1.16583
973.269	2.63098
976.644	5.86401
980.019	5.04675
983.393	4.09106
986.768	1.51288
990.143	0.553711
993.518	1.24579
996.893	3.3241
1000.27	2.2522
1003.64	3.95984
1007.02	1.05035
1010.39	5.00598
1013.77	0.685425
1017.14	1.2298
1020.52	11.5749
1023.89	6.78949
1027.27	8.25677
1030.64	9.21936
1034.02	15.3978
1037.39	19.273
1040.77	17.9352
1044.14	25.4667
1047.52	36.4614
1050.89	40.0938
1054.27	55.364
1057.64	85.937
1061.01	125.17
1064.39	186.046
1067.76	257.652
1071.14	360.194
1074.51	492.746
1077.89	643.233
1081.26	850.968
1084.64	1460.08
1088.01	2691.38
1091.39	4040.01
1094.76	6736.45
1098.14	10523.3
1101.51	5402.57
1104.89	1464.41
1108.26	576.717
1111.64	283.989
1115.01	165.31
1118.39	93.0403
1121.76	62.046
1125.14	40.3082
1128.51	20.1451
1131.88	13.959
1135.26	9.18835
1138.63	10.717
1142.01	3.66498
1145.38	2.06946
1148.76	2.19116
1152.13	1.62347
1155.51	0.147888
1158.88	2.84076
1162.26	0.173218
1165.63	0.358398
1169.01	0.203979
1172.38	4.64368
1175.76	5.36108
1179.13	7.54419
1182.51	10.7116
1185.88	4.56836
1189.26	0.730347
1192.63	0.160034
1196.01	13.0983
1199.38	7.51361
1202.76	8.85742
1206.13	7.2121
1209.51	10.9431
1212.88	10.2709
1216.26	2.73639
1219.63	15.1388
1223.01	11.8032
1226.38	8.97076
1229.76	8.06
1233.13	1.20245
1236.51	11.6851
1239.88	7.69
1243.25	8.71637
1246.63	3.62647
1250	13.3677
1253.38	8.84601
1256.75	9.21332
1260.13	6.11957
1263.5	13.1814
1266.88	6.28479
1270.25	11.1044
1273.63	4.04401
1277	9.08417
1280.38	11.0172
1283.75	3.93195
1287.13	1.71515
