Measurement: Raman, 780 nm, unoriented, Raman Data Processed
Mineral: Dolomite
Rruff sample: R050370
Ideal chemistry: CaMg(CO_3_)_2_
Locality: Morro Velho mine, Nova Lima, Minas Gerais, Brazil
Source: Eugene Schlepp
Description: Colorless bladed crystals associated with pyrrhotite and albite
Measured chemistry: (Ca_0.84_Fe_0.16_)_Σ=1_(Mg_0.98_Mn_0.02_)_Σ=1_(CO_3_)_2_ ; CO_2_ estimated by difference
Raman shift (cm-1)	intensity
113.254	0
116.147	0.454315
119.04	3.05824
121.933	3.3455
124.825	0.155968
127.718	2.72806
130.611	3.97855
133.503	8.88215
136.396	14.111
139.289	26.2906
142.181	27.6315
145.074	39.0881
147.967	58.3803
150.859	90.2167
153.752	142.948
156.645	203.066
159.538	235.147
162.43	295.435
165.323	371.762
168.216	483.575
171.108	670.544
174.001	796.609
176.894	583.733
179.786	282.379
182.679	139.041
185.572	78.3272
188.465	44.6615
191.357	36.518
194.25	20.3078
197.143	15.5706
200.035	6.8102
202.928	3.42458
205.821	3.68601
208.714	0.553932
211.606	0.495796
214.499	2.60502
217.392	1.44853
220.284	0.923912
223.177	0.856636
226.07	1.05841
228.962	0.622032
231.855	1.5511
234.748	0.455902
237.641	3.06161
240.533	2.92062
243.426	4.0557
246.319	11.313
249.211	16.0628
252.104	22.0125
254.997	28.7128
257.889	39.4086
260.782	53.4302
263.675	66.8307
266.567	96.0029
269.46	128.139
272.353	172.378
275.246	234.863
278.138	308.474
281.031	396.5
283.924	479.653
286.816	570.615
289.709	660.271
292.602	734.986
295.495	763.028
298.387	689.812
301.28	513.644
304.173	323.402
307.065	201.776
309.958	127.134
312.851	84.7517
315.743	61.81
318.636	46.7902
321.529	41.3482
324.421	36.4707
327.314	37.3811
330.207	37.4169
333.1	47.3252
335.992	48.3702
338.885	54.1187
341.778	42.1047
344.67	30.0919
347.563	14.3742
350.456	9.24245
353.349	4.73703
356.241	4.19912
359.134	3.13144
362.027	0.00758
364.919	2.56744
367.812	0.916248
370.705	2.80868
373.597	0.645412
376.49	1.15514
379.383	3.22051
382.276	1.02169
385.168	0.451736
388.061	4.10083
390.954	1.81914
393.846	3.96074
396.739	1.52407
399.632	0.75946
402.524	1.40666
405.417	2.44639
408.31	0.823429
411.202	2.2057
414.095	4.11621
416.988	3.05554
419.881	4.30506
422.773	2.88054
425.666	4.32896
428.559	0.745495
431.451	2.32859
434.344	2.46605
437.237	5.27317
440.13	6.356
443.022	2.56685
445.915	3.77645
448.808	3.10038
451.7	3.55159
454.593	2.78608
457.486	0.800659
460.378	5.25177
463.271	4.38036
466.164	4.40086
469.057	6.19736
471.949	1.44368
474.842	1.62709
477.735	4.01202
480.627	1.1527
483.52	1.75026
486.413	0.28194
489.305	2.11775
492.198	3.83294
495.091	2.92884
497.983	4.95749
500.876	0.957172
503.769	1.49023
506.662	0.67041
509.554	4.78486
512.447	2.01062
515.34	1.51563
518.232	4.251
521.125	6.83427
524.018	3.23245
526.91	3.59688
529.803	4.30065
532.696	1.0717
535.589	3.36952
538.481	1.79229
541.374	3.22616
544.267	2.49251
547.159	3.86568
550.052	6.35859
552.945	4.98591
555.837	0.38863
558.73	6.67885
561.623	1.63213
564.516	3.807
567.408	1.26398
570.301	1.9997
573.194	3.87168
576.086	0.520462
578.979	5.27402
581.872	3.28999
584.764	1.96635
587.657	4.505
590.55	4.23236
593.443	1.9217
596.335	2.42245
599.228	2.04517
602.121	2.67722
605.013	3.34345
607.906	3.27587
610.799	4.53857
613.692	3.44119
616.584	1.80825
619.477	4.34087
622.37	0.833126
625.262	0.428757
628.155	1.46882
631.048	0.318153
633.94	2.80785
636.833	3.9745
639.726	0.525578
642.619	0.920422
645.511	0.044109
648.404	0.982498
651.297	0.321236
654.189	4.11842
657.082	4.41784
659.975	4.12718
662.867	1.25944
665.76	1.50237
668.653	3.94395
671.545	6.7314
674.438	2.59765
677.331	5.33472
680.224	7.87718
683.116	6.83347
686.009	9.96809
688.902	15.1393
691.794	16.3123
694.687	22.5485
697.58	21.8433
700.472	36.2095
703.365	46.6022
706.258	67.7935
709.151	99.7569
712.043	134.725
714.936	170.093
717.829	215.961
720.721	265.765
723.614	285.466
726.507	227.833
729.399	131.071
732.292	73.6937
735.185	40.2788
738.078	25.8661
740.97	16.9795
743.863	9.17221
746.756	7.11083
749.648	6.37474
752.541	2.15341
755.434	3.12413
758.327	2.38208
761.219	2.78143
764.112	2.60849
767.005	0.384342
769.897	2.82269
772.79	3.82808
775.683	1.15663
778.575	0.450989
781.468	0.309605
784.361	0.030964
787.254	0.259518
790.146	3.7399
793.039	1.17639
795.932	1.95529
798.824	1.10529
801.717	0.274883
804.61	3.0049
807.502	3.83622
810.395	1.95854
813.288	4.29861
816.181	2.52338
819.073	5.64504
821.966	4.8728
824.859	4.27069
827.751	6.03451
830.644	5.59088
833.537	4.33393
836.429	4.442
839.322	5.91877
842.215	5.33977
845.107	4.04179
848	5.41095
850.893	5.64735
853.786	3.35228
856.678	5.19269
859.571	5.89285
862.464	5.30344
865.356	4.06263
868.249	7.17484
871.142	7.59612
874.034	6.52166
876.927	7.49216
879.82	9.85784
882.713	16.0014
885.605	5.55881
888.498	5.97911
891.391	2.29861
894.283	4.06788
897.176	1.9835
900.069	0.086878
902.962	3.24586
905.854	1.34654
908.747	0.605778
911.64	1.00187
914.532	3.07469
917.425	3.04017
920.318	3.75559
923.21	3.14271
926.103	3.29426
928.996	2.71832
931.888	3.22154
934.781	0.853754
937.674	2.27491
940.567	3.1634
943.459	0.845888
946.352	1.41385
949.245	2.82652
952.137	6.0567
955.03	4.96695
957.923	5.29896
960.815	0.982132
963.708	1.27468
966.601	2.69893
969.494	1.44859
972.386	1.85959
975.279	0.693979
978.172	0.671043
981.064	2.37225
983.957	0.803396
986.85	2.86111
989.742	1.95416
992.635	1.57367
995.528	0.534023
998.42	1.03395
1001.31	0.93257
1004.21	0.757383
1007.1	1.3369
1009.99	2.27571
1012.88	1.86079
1015.78	0.500076
1018.67	5.78999
1021.56	3.69172
1024.45	1.79844
1027.35	3.76526
1030.24	7.25315
1033.13	5.51334
1036.03	6.63688
1038.92	6.15224
1041.81	10.6507
1044.7	10.6349
1047.6	17.4841
1050.49	20.3604
1053.38	26.2181
1056.28	33.0221
1059.17	43.9501
1062.06	57.4983
1064.95	74.0976
1067.85	98.9751
1070.74	129.471
1073.63	176.71
1076.52	227.858
1079.42	337.563
1082.31	577.233
1085.2	975.66
1088.09	1417.34
1090.99	2084.22
1093.88	3053.87
1096.77	3325.12
1099.66	1898.68
1102.56	675.838
1105.45	272.88
1108.34	131.499
1111.24	76.4002
1114.13	49.1433
1117.02	26.3064
1119.91	20.1861
1122.81	12.3609
1125.7	8.58201
1128.59	9.40268
1131.48	5.86408
1134.38	5.51162
1137.27	3.94859
1140.16	0.427462
1143.06	0.59866
1145.95	0.982559
1148.84	1.05582
1151.73	1.31647
1154.63	0.672865
1157.52	1.24591
1160.41	2.51699
1163.3	0.946455
1166.2	0.605011
1169.09	0.120176
1171.98	0.42445
1174.88	0.484705
1177.77	2.47452
1180.66	2.30944
1183.55	4.6138
1186.45	3.67874
1189.34	6.77642
1192.23	4.51463
1195.12	6.73431
1198.02	4.45572
1200.91	6.70072
1203.8	0.102636
1206.69	5.27083
1209.59	2.66556
1212.48	3.34251
1215.37	2.83818
1218.27	4.85168
1221.16	3.79327
1224.05	5.50857
1226.94	1.63236
1229.84	4.39995
1232.73	4.45007
1235.62	0.478889
1238.52	4.39846
1241.41	2.88795
1244.3	1.93332
1247.19	6.76052
1250.09	4.84466
1252.98	0.187678
1255.87	2.93672
1258.76	1.39755
1261.66	5.81798
1264.55	1.76161
1267.44	0
