Measurement: Raman, 514 nm, unoriented, Raman Data Processed
Mineral: Dolomite
Rruff sample: R050241
Ideal chemistry: CaMg(CO_3_)_2_
Locality: Eugui quarries, Navarre, Spain
Source: Marcus Origlieri
Description: Light gray colored tabular crystals
Measured chemistry: (Ca_0.96_Mg_0.04_)_Σ=1_(Mg_0.98_Fe^2+^_0.02_)_Σ=1_(CO_3_)_2_ ; CO_2_ estimated by difference
Raman shift (cm-1)	intensity
89.193	0
93.375	20.266
97.554	23.86
101.732	49.703
105.908	65.063
110.082	81.499
114.254	88.128
118.424	139.322
122.592	92.691
126.758	106.011
130.922	129.272
135.083	159.205
139.243	377.546
143.401	351.252
147.557	219.29
151.711	139.636
155.863	136.303
160.013	191.24
164.161	295.128
168.308	619.458
172.452	1763.3
176.594	3368.78
180.734	1428.21
184.872	421.726
189.008	152.404
193.143	146.269
197.275	88.289
201.405	64.403
205.534	36.643
209.66	26.029
213.784	74.717
217.907	75.599
222.027	28.505
226.146	29.425
230.263	0.552
234.377	9.508
238.49	5.499
242.601	53.507
246.709	17.553
250.816	27.659
254.921	33.905
259.024	2.912
263.125	9.799
267.224	29.666
271.321	21.859
275.416	13.189
279.51	55.769
283.601	56.388
287.69	151.009
291.778	311.69
295.863	606.008
299.947	983.383
304.029	652.344
308.108	267.302
312.186	157.101
316.262	94.235
320.336	84.995
324.408	75.775
328.478	93.999
332.546	236.52
336.612	657.039
340.677	662.711
344.739	363.008
348.799	112.057
352.858	95.002
356.915	95.062
360.969	19.145
365.022	27.256
369.073	38.704
373.122	7.684
377.169	24.494
381.215	17.441
385.258	46.57
389.299	20.906
393.339	35.718
397.376	75.577
401.412	1.14
405.446	50.276
409.478	29.159
413.508	27.937
417.536	47.324
421.562	25.953
425.586	25.543
429.609	15.013
433.629	67.448
437.648	1.114
441.665	0.734
445.68	37.745
449.693	11.132
453.704	59.108
457.713	32.307
461.721	38.8
465.726	25.671
469.73	0.613
473.731	34.704
477.731	19.822
481.729	1.263
485.725	1.058
489.72	16.253
493.712	26.794
497.703	8.161
501.691	22.539
505.678	44.623
509.663	90.636
513.646	47.644
517.627	62.27
521.607	45.883
525.584	72.203
529.56	49.042
533.534	77.977
537.506	2.091
541.476	58.673
545.444	69.272
549.41	71.762
553.375	60.136
557.337	19.402
561.298	9.521
565.257	69.568
569.214	33.403
573.17	81.231
577.123	78.944
581.075	67.542
585.024	0.347
588.972	67.929
592.918	26.157
596.863	58.078
600.805	138.03
604.746	90.3
608.685	11.453
612.621	84.715
616.557	16.442
620.49	105.767
624.421	69.536
628.351	152.624
632.279	142.818
636.205	34.022
640.129	147.666
644.051	37.575
647.972	90.682
651.89	62.368
655.807	138.033
659.722	162.146
663.636	69.22
667.547	22.321
671.457	45.479
675.365	0.461
679.271	42.604
683.175	151.337
687.077	90.137
690.978	122.618
694.877	173.238
698.774	157.264
702.669	155.363
706.562	331.573
710.454	292.038
714.344	430.294
718.232	742.701
722.118	1567.98
726.002	1891.57
729.885	1039.17
733.766	502.854
737.645	301.347
741.522	131.202
745.397	179.601
749.271	96.648
753.143	60.996
757.013	24.735
760.881	37.725
764.748	0.835
768.613	13.571
772.476	47.327
776.337	28.351
780.196	68.349
784.054	26.52
787.91	34.193
791.764	22.927
795.616	101.158
799.467	27.867
803.316	0.315
807.163	85.792
811.008	22.533
814.851	49.683
818.693	59.275
822.533	51.751
826.371	47.432
830.208	52.461
834.042	24.022
837.875	57.304
841.706	131.658
845.536	128.063
849.363	22.872
853.189	33.024
857.013	92.067
860.836	102.005
864.656	78.775
868.475	67.544
872.292	77.257
876.108	90.816
879.922	282.317
883.733	184.745
887.544	61.093
891.352	118.366
895.159	45.583
898.964	69.322
902.767	40.703
906.568	96.491
910.368	69.042
914.166	53.612
917.962	1.402
921.757	47.652
925.55	68.793
929.341	129.753
933.13	7.724
936.918	52.566
940.703	54.243
944.488	26.727
948.27	86.273
952.051	115.102
955.83	117.93
959.607	47.11
963.383	23.952
967.156	40.307
970.928	75.893
974.699	3.467
978.468	9.781
982.234	81.045
986	127.83
989.763	98.327
993.525	76.016
997.285	84.331
1001.04	55.04
1004.8	55.311
1008.55	106.575
1012.31	90.199
1016.06	47.134
1019.81	40.921
1023.56	159.561
1027.31	128.751
1031.05	203.319
1034.79	254.551
1038.53	186.875
1042.27	154.606
1046.01	317.6
1049.75	325.986
1053.48	435.352
1057.22	504.439
1060.95	484.863
1064.68	781.449
1068.4	1109.49
1072.13	1429.51
1075.86	2092.96
1079.58	2718.54
1083.3	2939.26
1087.02	4000.98
1090.74	6575.56
1094.45	15371
1098.17	48660.1
1101.88	26445.4
1105.59	7087.3
1109.3	2667.73
1113.01	1249.92
1116.71	842.4
1120.42	523.93
1124.12	456.406
1127.82	279.282
1131.52	305.804
1135.22	169.496
1138.91	177.442
1142.61	81.921
1146.3	160.503
1149.99	147.643
1153.68	124.437
1157.37	147.497
1161.06	76.814
1164.74	65.95
1168.42	100.734
1172.1	69.881
1175.78	182.571
1179.46	164.787
1183.14	129.905
1186.81	70.664
1190.48	7.021
1194.15	136.957
1197.83	166.266
1201.49	80.084
1205.16	145.575
1208.82	71.305
1212.49	149.066
1216.15	127.896
1219.81	128.692
1223.46	39.536
1227.12	16.388
1230.78	82.986
1234.43	161.393
1238.08	181.812
1241.73	103.995
1245.38	136.631
1249.03	24.188
1252.67	41.5
1256.31	130.481
1259.95	185.175
1263.6	70.586
1267.23	16.832
1270.87	78.281
1274.51	48.184
1278.14	27.528
1281.77	86.345
1285.4	100.722
1289.03	57.673
1292.66	9.51
1296.28	71.001
1299.91	56.001
1303.53	36.612
1307.15	11.577
1310.77	120.072
1314.38	18.438
1318	1.382
1321.61	22.529
1325.23	104.224
1328.84	56.97
1332.45	102.071
1336.06	84.326
1339.66	36.373
1343.27	66.693
1346.87	19.312
1350.47	56.575
1354.07	86.538
1357.67	136.958
1361.26	240.934
1364.86	190.001
1368.45	162.336
1372.04	195.642
1375.63	209.62
1379.22	200.873
1382.81	59.814
1386.39	274.794
1389.98	121.28
1393.56	106.043
1397.14	112.304
1400.72	148.838
1404.3	139.343
1407.87	77.859
1411.45	155.476
1415.02	281.354
1418.59	217.015
1422.16	221.082
1425.73	275.476
1429.29	335.589
1432.86	256.479
1436.42	355.854
1439.98	581.431
1443.54	980.53
1447.1	773.808
1450.66	395.9
1454.21	303.464
1457.77	322.765
1461.32	381.15
1464.87	356.812
1468.42	340.412
1471.96	235.202
1475.51	208.625
1479.06	139.73
1482.6	100.717
1486.14	120.489
1489.68	194.532
1493.22	265.039
1496.75	239.269
1500.29	89.6
1503.82	26.343
1507.35	52.692
1510.88	120.325
1514.41	288.951
1517.94	83.039
1521.46	119.163
