Measurement: Raman, 532 nm, unoriented, Raman Data Processed
Mineral: Donnayite-(Y)
Rruff sample: R110164
Ideal chemistry: NaSr_3_CaY(CO_3_)_6_3H_2_O
Locality: Mont St. Hilaire, Quebec, Canada
Source: Donald M Doell
Description: Aggregate of greenish-grey platy crystals in a prismatic hexagonal stacking, associated with siderite, rhodochrosite and albite
Raman shift (cm-1)	intensity
179.202	0
182.094	0.702026
184.987	2.04962
187.88	6.59494
190.773	4.56113
193.665	10.5583
196.558	10.5286
199.451	8.50842
202.343	7.51303
205.236	6.80173
208.129	0.562714
211.021	0.427063
213.914	2.06601
216.807	11.9015
219.699	18.5925
222.592	33.8914
225.485	36.0137
228.377	43.7487
231.27	48.7954
234.163	47.4682
237.056	50.7271
239.948	48.5155
242.841	44.7846
245.734	38.2044
248.626	31.7734
251.519	19.7037
254.412	8.51666
257.305	0.551636
260.197	1.9754
263.09	4.48245
265.983	1.5676
268.875	1.49823
271.768	9.05402
274.661	20.4615
277.553	36.4125
280.446	54.2573
283.339	66.7463
286.232	84.4952
289.124	100.278
292.017	114.275
294.91	122.352
297.802	121.252
300.695	125.337
303.588	128.532
306.481	133.754
309.373	143.339
312.266	160.584
315.159	172.852
318.051	184.619
320.944	190.088
323.837	187.488
326.729	180.478
329.622	170.638
332.515	161.708
335.408	155.233
338.3	149.442
341.193	144.648
344.086	131.302
346.978	118.625
349.871	104.668
352.764	89.9779
355.656	79.1198
358.549	64.7621
361.442	56.0102
364.334	46.6222
367.227	37.7516
370.12	30.2468
373.012	24.0784
375.905	15.692
378.798	12.5024
381.691	5.22858
384.583	4.62576
387.476	0.697449
390.369	1.36932
393.261	2.08337
396.154	2.19556
399.047	1.07938
401.94	3.34589
404.832	0.761871
407.725	1.16211
410.618	0.38324
413.51	2.38232
416.403	1.94943
419.296	1.61356
422.188	0.390381
425.081	0.125549
427.974	4.44064
430.866	1.47232
433.759	2.52631
436.652	0.6875
439.545	3.84888
442.437	8.79449
445.33	8.87582
448.223	11.5018
451.115	16.4881
454.008	15.4731
456.901	18.5897
459.793	23.7044
462.686	25.9652
465.579	29.5
468.472	33.5464
471.364	38.7139
474.257	43.4927
477.15	45.7185
480.042	50.0445
482.935	49.26
485.828	53.7457
488.721	51.2093
491.613	51.2376
494.506	51.4111
497.399	49.8967
500.291	46.9454
503.184	43.5209
506.077	41.9856
508.969	36.7616
511.862	31.4567
514.755	29.5684
517.648	23.566
520.54	18.8236
523.433	16.3005
526.326	12.8697
529.218	9.9552
532.111	8.08994
535.004	6.63858
537.896	6.4678
540.789	9.34598
543.682	9.91333
546.575	11.4224
549.467	20.6498
552.36	22.4988
555.253	27.342
558.145	27.9891
561.038	27.4768
563.931	25.6989
566.823	23.8092
569.716	22.9287
572.609	20.9565
575.502	23.6496
578.394	18.6178
581.287	18.6447
584.18	14.6656
587.072	16.8992
589.965	16.9035
592.858	8.89493
595.75	5.38406
598.643	2.86026
601.536	2.66269
604.428	1.39712
607.321	2.69849
610.214	2.46527
613.107	0.110657
615.999	1.16617
618.892	3.15945
621.785	2.73962
624.677	2.19897
627.57	4.08347
630.463	6.44736
633.356	10.5875
636.248	16.8983
639.141	23.231
642.034	29.9305
644.926	33.9052
647.819	41.0627
650.712	45.7489
653.604	56.9017
656.497	62.256
659.39	68.2635
662.283	71.4317
665.175	76.8555
668.068	78.1063
670.961	83.5933
673.853	84.7593
676.746	93.1398
679.639	100.496
682.531	111.265
685.424	121.593
688.317	139.705
691.21	150.164
694.102	155.271
696.995	154.648
699.888	145.766
702.78	130.724
705.673	113.244
708.566	109.985
711.458	116.473
714.351	128.913
717.244	144.643
720.136	149.269
723.029	132.803
725.922	125.39
728.815	114.163
731.707	92.2985
734.6	76.5288
737.493	60.5527
740.385	45.425
743.278	31.8522
746.171	22.6308
749.063	15.693
751.956	8.71039
754.849	5.00561
757.742	2.9787
760.634	0.953369
763.527	2.35309
766.42	0.802368
769.312	1.18774
772.205	1.55627
775.098	0.657898
777.99	0.882446
780.883	0.707825
783.776	4.06848
786.669	3.81274
789.561	9.7489
792.454	11.2755
795.347	14.9065
798.239	15.9258
801.132	16.8041
804.025	19.4568
806.918	20.7273
809.81	27.2482
812.703	28.1623
815.596	30.4416
818.488	31.0292
821.381	31.0025
824.274	29.685
827.166	30.2267
830.059	27.1204
832.952	25.7168
835.845	25.0126
838.737	24.1523
841.63	23.0402
844.523	20.3077
847.415	18.0233
850.308	17.2286
853.201	15.2524
856.093	16.9381
858.986	13.1408
861.879	10.4904
864.771	10.4609
867.664	7.87842
870.557	5.89197
873.45	4.95752
876.342	4.52472
879.235	2.49097
882.128	1.2442
885.02	3.36408
887.913	4.39313
890.806	1.29804
893.698	1.11005
896.591	2.33179
899.484	0.344788
902.377	0.163391
905.269	2.87787
908.162	0.544006
911.055	3.54718
913.947	3.66736
916.84	5.28876
919.733	3.79718
922.625	4.28931
925.518	6.09796
928.411	6.16193
931.304	7.19415
934.196	4.26813
937.089	3.48279
939.982	5.10321
942.875	6.30597
945.767	8.36115
948.66	6.2605
951.553	7.44269
954.445	4.18976
957.338	5.00037
960.231	2.09961
963.123	2.04627
966.016	1.69421
968.909	0.645203
971.802	0.196289
974.694	1.23999
977.587	0.877808
980.48	2.06042
983.372	2.71454
986.265	0.808716
989.158	3.47009
992.05	1.39337
994.943	1.82208
997.836	0.898743
1000.73	0.974548
1003.62	0.731812
1006.51	2.04401
1009.41	0.298889
1012.3	0.14563
1015.19	2.32159
1018.09	0.255615
1020.98	5.19647
1023.87	2.62506
1026.76	4.69116
1029.66	8.04236
1032.55	8.78626
1035.44	14.9651
1038.33	17.1009
1041.23	17.3762
1044.12	25.6484
1047.01	29.7864
1049.9	43.9419
1052.8	60.3535
1055.69	88.2662
1058.58	127.069
1061.47	183.872
1064.37	246.084
1067.26	302.743
1070.15	367.764
1073.05	453.984
1075.94	532.462
1078.83	583.563
1081.72	644.51
1084.62	703.941
1087.51	535.529
1090.4	254.421
1093.3	113.051
1096.19	61.084
1099.08	36.0085
1101.97	19.8363
1104.87	15.9668
1107.76	10.7753
1110.65	12.4164
1113.54	13.6266
1116.44	11.7551
1119.33	12.5618
1122.22	10.872
1125.12	8.98633
1128.01	9.20648
1130.9	6.32062
1133.79	5.56287
1136.68	4.10413
1139.58	2.89563
1142.47	4.1593
1145.36	3.94013
1148.26	0.629578
1151.15	1.19812
1154.04	0.316956
1156.93	0.003845
1159.83	1.90375
1162.72	1.27502
1165.61	0.285645
1168.51	0.502441
1171.4	0.653381
1174.29	2.1134
1177.18	1.45679
1180.08	0.16626
1182.97	1.4765
1185.86	3.01654
1188.75	2.85815
1191.65	1.14624
1194.54	2.38751
1197.43	3.3963
1200.33	3.38031
1203.22	2.22528
1206.11	4.0116
1209	6.26685
1211.9	5.47888
1214.79	4.79858
1217.68	5.24603
1220.57	2.50488
1223.47	3.04724
1226.36	6.672
1229.25	3.31879
1232.14	6.36298
1235.04	0.710815
1237.93	1.06616
1240.82	2.13178
1243.71	0.674622
1246.61	2.36932
1249.5	1.04108
1252.39	2.24365
1255.29	1.42358
1258.18	3.69507
1261.07	3.05646
1263.96	2.96857
1266.86	2.92572
1269.75	4.71741
1272.64	2.18903
1275.54	6.45996
1278.43	0.8797
1281.32	0.739014
1284.21	1.78662
1287.11	2.03992
1290	0.372009
1292.89	0.07019
1295.78	4.40149
1298.68	4.04114
1301.57	2.71484
