Measurement: Raman, 514 nm, unoriented, Raman Data Processed
Mineral: Dravite
Rruff sample: R060280
Ideal chemistry: NaMg_3_Al_6_(Si_6_O_18_)(BO_3_)_3_(OH)_3_OH
Locality: near Merelani, Tanzania
Source: Herb Obodda
Description: Green fragment
Measured chemistry: (Na_0.45_Ca_0.40_[box]_0.15_)(Mg_0.89_Al_0.07_Ti_0.04_)_3_Al_6_(BO_3_)_3_(Si_0.93_B_0.07_)_6_O_18_((OH)_0.95_O_0.05_)_4_
Raman shift (cm-1)	intensity
171.761	0
175.904	153.491
180.044	169.758
184.183	16.169
188.319	132.814
192.454	641.49
196.586	1258.64
200.717	1578.52
204.846	2308.22
208.972	3592.56
213.097	5348.57
217.22	6745.35
221.341	6277.76
225.46	4573.14
229.577	3585.06
233.692	3327.63
237.805	3466.87
241.916	3857.95
246.025	4186.82
250.132	3593.79
254.237	2380.99
258.34	1309.36
262.442	813.148
266.541	679.733
270.639	982.483
274.734	1153.53
278.828	1085.95
282.919	853.017
287.009	363.065
291.097	220.807
295.183	98.002
299.266	18.504
303.348	1.39
307.428	88.908
311.507	186.409
315.583	581.963
319.657	793.566
323.729	985.215
327.8	1417.91
331.868	2257.64
335.935	3685.41
339.999	4790.31
344.062	5336.42
348.123	5027.85
352.182	4779.49
356.239	5364.72
360.294	6630.77
364.347	9406.48
368.398	13354.7
372.448	15420.4
376.495	13188.5
380.54	9401.76
384.584	6355.28
388.626	4351.97
392.666	3161.77
396.704	2671.65
400.74	2359.57
404.774	1986.5
408.806	1724.62
412.836	1269.38
416.865	868.728
420.891	514.287
424.916	298.311
428.939	482.975
432.959	652.237
436.978	873.114
440.996	732.554
445.011	922.396
449.024	1025.04
453.036	883.468
457.045	714.524
461.053	567.443
465.059	577.773
469.063	450.027
473.065	536.916
477.065	655.43
481.063	930.562
485.06	1236.3
489.054	1633.64
493.047	1785.57
497.038	2058.11
501.027	2405.45
505.014	2769.64
508.999	2848.67
512.982	2439.59
516.964	1936.3
520.944	1530.76
524.921	1310.96
528.897	1599.88
532.871	2069.5
536.844	2544.82
540.814	2880.8
544.783	2518.45
548.749	2068.73
552.714	1168.69
556.677	828.541
560.638	485.537
564.597	143.779
568.555	148.77
572.511	147.576
576.464	165.764
580.416	189.195
584.366	270.607
588.315	291.431
592.261	55.602
596.206	87.571
600.148	154.694
604.089	278.42
608.028	357.611
611.965	456.256
615.901	557.347
619.834	838.875
623.766	1162.83
627.696	1471.2
631.624	2183.98
635.551	2199.16
639.475	1387.72
643.398	1068.66
647.318	891.977
651.237	1276.65
655.155	1600.67
659.07	2267.04
662.984	2868.73
666.895	3441.74
670.805	3960.05
674.713	4182.04
678.62	4012.52
682.524	3736.66
686.427	3661.05
690.328	3826.68
694.227	4598.53
698.124	5866.61
702.02	7505.9
705.913	9068.72
709.805	9378.54
713.695	7752.15
717.584	5367.83
721.47	3693.69
725.355	2976.46
729.238	2606.43
733.119	2550.01
736.998	2555.23
740.876	2789.67
744.752	3110.47
748.626	4209.5
752.498	5602.56
756.368	7437.66
760.237	9110.02
764.104	9428.38
767.969	8113.76
771.832	6511.13
775.693	5577.48
779.553	5167.82
783.411	4770.12
787.267	4836.39
791.122	4740.61
794.974	4898.77
798.825	5136.86
802.674	4996.88
806.522	5030.82
810.367	5601.67
814.211	6704.42
818.053	8022.06
821.893	8539.59
825.732	8177.99
829.568	7098.27
833.403	5689.41
837.236	4154.4
841.068	3159.24
844.898	2329.93
848.726	1389.45
852.552	682.808
856.376	366.002
860.199	95.028
864.02	24.269
867.839	172.443
871.656	226.952
875.472	116.923
879.286	141.151
883.098	18.41
886.909	17.25
890.717	68.608
894.524	71.642
898.33	222.982
902.133	340.577
905.935	540.186
909.735	580.804
913.533	676.266
917.33	766.518
921.124	826.54
924.918	926.318
928.709	952.853
932.499	996.134
936.286	1127.16
940.073	1149.94
943.857	1421.46
947.64	1522.72
951.421	1736.72
955.2	1874.46
958.978	2006.94
962.753	2311.38
966.527	2662.09
970.3	2845.77
974.071	3122.18
977.84	3327.31
981.607	3398.18
985.372	3157.78
989.136	3079.1
992.898	2941.16
996.659	2701.94
1000.42	2532.85
1004.17	2602.85
1007.93	2617.52
1011.68	2830.55
1015.43	3183.22
1019.18	3564.74
1022.93	3956.35
1026.68	4358.84
1030.42	4743.78
1034.17	5133.3
1037.91	5609.99
1041.65	6192.18
1045.39	6622.48
1049.12	7034.71
1052.86	7317.23
1056.59	7493.02
1060.33	7440.26
1064.06	7427.09
1067.78	7646.29
1071.51	7853.85
1075.23	8003.35
1078.96	8030.05
1082.68	7396.85
1086.4	6282.45
1090.12	5233.85
1093.83	4323.04
1097.55	3557.04
1101.26	2949.28
1104.97	2328.46
1108.68	2033.88
1112.39	1715.98
1116.1	1461.15
1119.8	1261
1123.5	1112.67
1127.2	879.153
1130.9	712.455
1134.6	569.578
1138.3	407.942
1141.99	279.291
1145.69	155.888
1149.38	163.307
1153.07	52.541
1156.76	102.571
1160.44	40.598
1164.13	62.166
1167.81	9.815
1171.49	78.468
1175.17	158.113
1178.85	5.959
1182.52	100.886
1186.2	7.923
1189.87	51.146
1193.54	22.774
1197.21	65.803
1200.88	45.183
1204.55	75
1208.21	75.782
1211.88	7.337
1215.54	167.696
1219.2	197.907
1222.86	293.974
1226.51	470.893
1230.17	567.66
1233.82	657.275
1237.47	743.621
1241.12	671.263
1244.77	698.107
1248.42	693.3
1252.06	701.239
1255.71	580.057
1259.35	607.75
1262.99	638.318
1266.63	668.763
1270.26	578.081
1273.9	490.272
1277.53	539.339
1281.16	545.28
1284.8	587.105
1288.42	516.911
1292.05	504.682
1295.68	495.854
1299.3	452.006
1302.92	464.298
1306.55	431.133
1310.16	338.013
1313.78	388.509
1317.4	284.077
1321.01	353.391
1324.62	314.515
1328.24	330.223
1331.85	356.147
1335.45	354.588
1339.06	250.557
1342.66	185.427
1346.27	193.158
1349.87	204.086
1353.47	102.103
1357.07	123.046
1360.66	161.44
1364.26	251.964
1367.85	344.014
1371.44	434.615
1375.04	315.78
1378.62	318.289
1382.21	364.7
1385.8	330.233
1389.38	357.092
1392.96	378.729
1396.54	379.142
1400.12	402.326
1403.7	330.278
1407.28	334.997
1410.85	243.465
1414.42	262.722
1417.99	185.803
1421.56	157.762
1425.13	219.965
1428.7	161.582
1432.26	139.901
1435.83	89.896
1439.39	98.564
1442.95	95.582
1446.51	122.688
1450.06	50.917
1453.62	36.362
1457.17	34.052
1460.73	62.874
1464.28	103.897
1467.83	22.225
1471.37	98.979
1474.92	117.303
1478.46	119.999
1482.01	32.553
1485.55	8.564
1489.09	80.774
1492.63	90.683
1496.16	70.447
1499.7	160.022
1503.23	148.349
1506.76	90.735
1510.29	130.645
1513.82	104.851
1517.35	119.062
1520.88	35.662
1524.4	0
