Measurement: Raman, 780 nm, unoriented, Raman Data Processed
Mineral: Dravite
Rruff sample: R060286
Ideal chemistry: NaMg_3_Al_6_(Si_6_O_18_)(BO_3_)_3_(OH)_3_OH
Locality: Badakshan Province, Afghanistan
Source: Herb Obodda
Description: Brown prismatic tourmaline crystal
Measured chemistry: (Na_0.48_Ca_0.38_[box]_0.14_)_Σ=1_(Mg_2.90_Ti_0.10_)_Σ=3_Al_6.00_(B_1.00_O_3_)_3_(Si_5.56_B_0.44_)_Σ=6_O_18_(OH)_4_; (OH) assumed from stoichiometry; B estimated by difference and charge balance
Raman shift (cm-1)	intensity
97.9915	0
101.366	3.99698
104.741	0.547424
108.116	1.62878
111.491	5.32736
114.865	3.17508
118.24	3.15277
121.615	3.89813
124.99	4.81985
128.365	8.83386
131.74	14.3821
135.114	22.2437
138.489	29.7015
141.864	24.9099
145.239	23.3484
148.614	20.1415
151.988	12.429
155.363	7.63074
158.738	0.611786
162.113	1.50601
165.488	1.46399
168.863	0.096161
172.237	2.935
175.612	0.792084
178.987	7.19302
182.362	12.4715
185.737	23.9534
189.111	42.2609
192.486	71.8137
195.861	108.727
199.236	138.726
202.611	180.442
205.986	251.723
209.36	348.168
212.735	443.014
216.11	413.111
219.485	303.973
222.86	226.333
226.234	201.498
229.609	200.847
232.984	217.433
236.359	248.005
239.734	297.736
243.108	320.064
246.483	287.581
249.858	210.552
253.233	131.406
256.608	90.3726
259.983	66.483
263.357	55.1521
266.732	43.2869
270.107	39.7734
273.482	31.6709
276.857	20.8951
280.231	11.3127
283.606	7.53088
286.981	1.69208
290.356	3.61548
293.731	0.779633
297.106	2.59396
300.48	0.423279
303.855	0.729248
307.23	6.87479
310.605	19.5906
313.98	32.3112
317.354	25.1547
320.729	11.3365
324.104	10.1343
327.479	17.0065
330.854	23.8951
334.228	34.1934
337.603	49.041
340.978	63.8247
344.353	82.7604
347.728	110.627
351.103	143.856
354.477	193.126
357.852	253.117
361.227	338.935
364.602	441.859
367.977	502.392
371.351	459.09
374.726	334.944
378.101	222.448
381.476	150.832
384.851	108.543
388.226	84.6099
391.6	71.6414
394.975	62.384
398.35	62.3986
401.725	61.8245
405.099	57.5476
408.474	46.9746
411.849	30.7496
415.224	16.27
418.599	5.89767
421.974	3.07294
425.348	0.995148
428.723	1.6442
432.098	1.4733
435.473	0.812927
438.848	1.99206
442.223	0.073914
445.597	0.217621
448.972	1.11386
452.347	3.2269
455.722	3.64423
459.097	6.52789
462.471	9.51172
465.846	9.59897
469.221	19.6896
472.596	23.7068
475.971	30.4185
479.346	36.7145
482.72	44.3022
486.095	44.8337
489.47	45.3614
492.845	46.7458
496.219	46.0821
499.594	43.2685
502.969	38.9258
506.344	32.7208
509.719	29.1399
513.094	23.5427
516.468	18.5073
519.843	15.5336
523.218	14.1929
526.593	13.6251
529.968	18.3372
533.342	16.7228
536.717	16.4084
540.092	13.2713
543.467	11.1805
546.842	6.07819
550.217	6.45499
553.591	1.34634
556.966	1.95563
560.341	0.523468
563.716	0.377258
567.091	0.479492
570.466	0.021942
573.84	1.96359
577.215	0.730713
580.59	2.44098
583.965	1.09338
587.34	0.030426
590.714	2.53177
594.089	1.91278
597.464	2.30637
600.839	5.09854
604.214	7.30652
607.588	6.56766
610.963	9.4556
614.338	10.791
617.713	16.2938
621.088	20.863
624.462	30.0133
627.837	43.6688
631.212	53.6562
634.587	45.687
637.962	42.1313
641.337	40.7747
644.711	53.2325
648.086	66.7858
651.461	79.8573
654.836	81.4428
658.211	84.5321
661.585	91.149
664.96	102.602
668.335	109.004
671.71	110.806
675.085	96.9534
678.46	83.8539
681.834	73.5665
685.209	73.4156
688.584	76.3858
691.959	86.9054
695.334	98.5985
698.708	112.294
702.083	110.65
705.458	96.1718
708.833	66.7142
712.208	36.6669
715.582	21.1791
718.957	9.42487
722.332	6.40262
725.707	0.894379
729.082	0.371552
732.457	2.55106
735.831	3.013
739.206	3.02801
742.581	1.41452
745.956	4.80002
749.331	9.50333
752.705	13.727
756.08	20.0354
759.455	21.095
762.83	17.7787
766.205	9.18146
769.58	6.58749
772.954	8.4447
776.329	6.75729
779.704	5.24588
783.079	11.9163
786.454	12.5854
789.828	13.8053
793.203	18.1291
796.578	18.7877
799.953	16.8823
803.328	15.0312
806.702	16.3203
810.077	18.0579
813.452	18.0852
816.827	17.8554
820.202	17.6601
823.577	17.6433
826.951	13.2136
830.326	7.83057
833.701	6.1059
837.076	6.2623
840.451	3.17029
843.825	0.955139
847.2	0.068726
850.575	0.536591
853.95	0.74054
857.325	1.15735
860.699	0.819824
864.074	0.003326
867.449	1.07858
870.824	1.17682
874.199	1.00409
877.573	1.0199
880.948	1.41696
884.323	0.825439
887.698	1.0329
891.073	1.37518
894.448	2.22794
897.822	1.07709
901.197	2.07941
904.572	0.894745
907.947	1.78558
911.322	0.503418
914.697	0.160217
918.071	0.628632
921.446	1.19504
924.821	0.256134
928.196	0.224091
931.571	1.71786
934.945	0.523834
938.32	0.962372
941.695	2.65024
945.07	3.67642
948.445	5.0191
951.819	4.48517
955.194	6.6268
958.569	9.09994
961.944	10.1346
965.319	10.5278
968.693	13.4082
972.068	11.1494
975.443	9.65466
978.818	8.51132
982.193	3.70465
985.568	2.10455
988.942	2.64227
992.317	0.168793
995.692	1.40994
999.067	0.69458
1002.44	2.22888
1005.82	4.61633
1009.19	9.67157
1012.57	16.4479
1015.94	23.7333
1019.32	31.3858
1022.69	34.5137
1026.07	41.0146
1029.44	47.6962
1032.82	53.4498
1036.19	56.7226
1039.57	55.7734
1042.94	54.7647
1046.31	52.0494
1049.69	46.7899
1053.06	43.0703
1056.44	38.8135
1059.81	32.803
1063.19	29.9178
1066.56	26.2351
1069.94	24.3975
1073.31	20.7124
1076.69	19.2431
1080.06	13.2585
1083.44	11.1776
1086.81	6.95462
1090.19	6.90794
1093.56	4.16032
1096.94	3.05444
1100.31	0.641052
1103.69	1.82021
1107.06	1.54387
1110.44	1.36623
1113.81	0.572159
1117.18	0.699936
1120.56	0.892776
1123.93	0.804352
1127.31	0.679657
1130.68	1.03682
1134.06	1.43282
1137.43	0.413101
1140.81	0.340317
1144.18	0.018585
1147.56	0.958344
1150.93	2.93985
1154.31	0.7668
1157.68	2.63405
1161.06	2.19017
1164.43	3.38499
1167.81	3.80983
1171.18	5.1286
1174.56	5.9675
1177.93	5.96551
1181.31	7.52379
1184.68	7.12383
1188.06	11.1446
1191.43	13.499
1194.81	16.3033
1198.18	21.61
1201.56	25.3784
1204.93	29.7038
1208.31	32.3063
1211.68	34.0475
1215.06	39.3455
1218.43	40.1409
1221.81	38.3638
1225.18	36.0392
1228.55	36.7037
1231.93	32.0888
1235.3	27.4891
1238.68	20.0135
1242.05	11.4267
1245.43	7.30957
1248.8	1.81625
1252.18	1.1326
1255.55	2.02835
1258.93	1.31424
1262.3	9.65732
1265.68	16.0117
1269.05	22.9632
1272.43	20.0685
1275.8	17.5558
1279.18	15.5809
1282.55	10.8301
1285.93	0.064301
