Measurement: Raman, 532 nm, unoriented, Raman Data Processed
Mineral: Dravite
Rruff sample: R050059
Ideal chemistry: NaMg_3_Al_6_(Si_6_O_18_)(BO_3_)_3_(OH)_3_OH
Locality: Nepal
Source: Rock Currier
Description: Dark brown single crystal
Measured chemistry: (Na_0.79_[box]_0.16_Ca_0.05_)_Σ=1_(Mg_2.44_Al_0.29_[box]_0.14_Fe^2+^_0.08_Ti_0.05_)_Σ=3_Al_6.00_(BO_3_)_3_Si_6.00_O_18_(OH)_4_ ; H_2_O assumed ideal from stoichiometry; B_2_O_3_ estimated by difference
Raman shift (cm-1)	intensity
155.929	0
158.822	103.005
161.715	39.4307
164.607	44.7266
167.5	213.043
170.393	260.829
173.286	277.975
176.178	360.744
179.071	367.826
181.964	380.293
184.856	414.346
187.749	532.595
190.642	578.917
193.535	622.648
196.427	651.003
199.32	647.201
202.213	659.102
205.105	769.249
207.998	1043.94
210.891	1268.9
213.783	1336.84
216.676	1280.22
219.569	1132.61
222.462	979.692
225.354	828.183
228.247	870.929
231.14	868.851
234.032	804.744
236.925	952.614
239.818	912.537
242.71	995.582
245.603	792.13
248.496	656.234
251.388	611.901
254.281	490.793
257.174	303.722
260.067	273.644
262.959	219.436
265.852	250.291
268.745	259.335
271.637	144.588
274.53	167.89
277.423	119.583
280.315	151.264
283.208	19.2598
286.101	49.667
288.994	107.761
291.886	46.791
294.779	0.750977
297.672	42.0791
300.564	13.5098
303.457	54.4228
306.35	29.749
309.243	30.6738
312.135	107.504
315.028	21.166
317.921	11.584
320.813	9.23926
323.706	0.533203
326.599	89.7666
329.491	2.32129
332.384	26.2656
335.277	110.561
338.17	230.398
341.062	291.647
343.955	225.719
346.848	281.412
349.74	372.42
352.633	454.932
355.526	602.518
358.418	883.012
361.311	1083.37
364.204	1484.48
367.097	1855.88
369.989	1714.37
372.882	1519.53
375.775	1128.81
378.667	673.324
381.56	502.529
384.453	498.121
387.346	278.688
390.238	233.244
393.131	248.816
396.024	255.975
398.916	218.199
401.809	103.004
404.702	95.1289
407.594	129.098
410.487	95.8672
413.38	42.0859
416.272	5.2207
419.165	22.416
422.058	28.832
424.951	18.4746
427.843	29.9238
430.736	186.5
433.629	119.709
436.521	99.4141
439.414	34.7227
442.307	78.5488
445.2	25.1582
448.092	74.2383
450.985	65.0273
453.878	3.61914
456.77	64.7246
459.663	100.01
462.556	73.041
465.448	55.2207
468.341	66.3418
471.234	16.4336
474.127	196.238
477.019	138.908
479.912	32.8613
482.805	193.246
485.697	214.574
488.59	207.094
491.483	326.254
494.375	276.24
497.268	322.424
500.161	191.115
503.053	278.969
505.946	279.709
508.839	169.299
511.732	173.693
514.624	167.215
517.517	191.725
520.41	90.7246
523.302	167.367
526.195	365.461
529.088	146.91
531.981	204.988
534.873	158.519
537.766	283.809
540.659	164.803
543.551	108.619
546.444	143.644
549.337	169.928
552.229	128.865
555.122	83.6367
558.015	55.5918
560.908	148.008
563.8	137.195
566.693	27.541
569.586	36.8906
572.478	116.445
575.371	14.7383
578.264	50.0312
581.156	37.8848
584.049	60.2578
586.942	12.5977
589.835	28.0391
592.727	54.2461
595.62	70.9883
598.513	121.926
601.405	33.4473
604.298	33.1699
607.191	28.8457
610.083	66.1465
612.976	155.338
615.869	70.3945
618.762	61.6191
621.654	175.893
624.547	50.5801
627.44	249.57
630.332	241.496
633.225	128.461
636.118	265.012
639.01	220.08
641.903	169.637
644.796	224.816
647.689	314.527
650.581	419.227
653.474	453.367
656.367	251.231
659.259	461.443
662.152	361.865
665.045	556.727
667.938	600.512
670.83	770.516
673.723	846.019
676.616	678.379
679.508	730.75
682.401	591.236
685.294	374.549
688.186	361.9
691.079	468.318
693.972	557.402
696.865	626.912
699.757	799.686
702.65	737.482
705.543	643.019
708.435	508.615
711.328	304.731
714.221	139.398
717.113	9.51953
720.006	95.8047
722.899	15.5391
725.792	6.37891
728.684	26.6992
731.577	61.1328
734.47	129.957
737.362	70.1914
740.255	199.992
743.148	133.816
746.04	292.398
748.933	357.535
751.826	404.246
754.719	470.812
757.611	452.519
760.504	483.184
763.397	339.769
766.289	272.074
769.182	263.848
772.075	324.945
774.967	284.055
777.86	533.301
780.753	564.625
783.646	636.637
786.538	507.801
789.431	649.316
792.324	530.348
795.216	520.848
798.109	481.34
801.002	435.121
803.894	395.469
806.787	604.207
809.68	664.809
812.573	535.231
815.465	607.023
818.358	489.859
821.251	329.387
824.143	275.172
827.036	102.758
829.929	48.2812
832.822	137.359
835.714	177.918
838.607	24.9258
841.5	207.457
844.392	130.652
847.285	82.8672
850.178	169.32
853.07	1.78125
855.963	12.0117
858.856	80.0273
861.749	48.8125
864.641	82.8672
867.534	163.836
870.427	113.844
873.319	108.418
876.212	73.1992
879.105	1.34766
881.997	137.668
884.89	209.59
887.783	113.93
890.676	236.773
893.568	161.703
896.461	41.5625
899.354	142.211
902.246	85.0625
905.139	15.9727
908.032	154.227
910.924	208.082
913.817	262.273
916.71	168.789
919.602	163.332
922.495	146.769
925.388	67.6133
928.281	99.0664
931.173	96.0898
934.066	117.168
936.959	124.879
939.851	80.5703
942.744	13.5039
945.637	97.3359
948.529	53.8047
951.422	288.102
954.315	65.75
957.208	224.641
960.1	163.297
962.993	177.488
965.886	161.133
968.778	50.8711
971.671	182.719
974.564	223.875
977.457	136.289
980.349	91.3711
983.242	67.4961
986.135	53.3516
989.027	58.332
991.92	110.25
994.813	97.8477
997.705	48.4023
1000.6	43.4805
1003.49	47.8477
1006.38	133.902
1009.28	8.60547
1012.17	252.766
1015.06	185.375
1017.95	175.191
1020.85	233.078
1023.74	170.961
1026.63	264.055
1029.53	218.769
1032.42	260.379
1035.31	465.648
1038.2	149.879
1041.1	269.305
1043.99	311.231
1046.88	301.828
1049.77	364.984
1052.67	337.008
1055.56	395.801
1058.45	413.484
1061.35	541.816
1064.24	514.836
1067.13	509.34
1070.02	353.766
1072.92	233.629
1075.81	381.875
1078.7	392.617
1081.59	256.516
1084.49	132.051
1087.38	97.9453
1090.27	153.277
1093.16	176.519
1096.06	31.4648
1098.95	18.0508
1101.84	49.5273
1104.73	105.727
1107.63	166.809
1110.52	43.7266
1113.41	38.8477
1116.31	15.3203
1119.2	101.281
1122.09	53.3359
1124.98	159.949
1127.88	94.3906
1130.77	20.6719
1133.66	192.894
1136.56	159.949
1139.45	160.508
1142.34	276.32
1145.23	189.305
1148.13	123.488
1151.02	145.676
1153.91	115.965
1156.8	313.219
1159.7	306.039
1162.59	253.371
1165.48	155.852
1168.38	220.613
1171.27	75.9062
1174.16	78.6445
1177.05	388.609
1179.95	209.394
1182.84	281.387
1185.73	283.519
1188.62	156.074
1191.52	192.961
1194.41	237.801
1197.3	119.688
1200.19	173.191
1203.09	301.465
1205.98	142.359
1208.87	318.926
1211.77	229.535
1214.66	160.144
1217.55	10.8789
1220.44	179.332
1223.34	134.961
1226.23	168.168
1229.12	158.297
1232.01	324.492
1234.91	148.602
1237.8	131.16
1240.69	242.316
1243.59	439.559
1246.48	165.418
1249.37	243.629
1252.26	141.551
1255.16	276.769
1258.05	134.113
1260.94	211.09
1263.83	292.348
1266.73	213.559
1269.62	192.016
1272.51	340.719
1275.4	263.586
1278.3	292.051
1281.19	294.816
1284.08	231.211
1286.98	280.367
1289.87	13.0469
1292.76	136.445
1295.65	0.050781
