Measurement: Raman, 780 nm, unoriented, Raman Data Processed
Mineral: Dravite
Rruff sample: R060280
Ideal chemistry: NaMg_3_Al_6_(Si_6_O_18_)(BO_3_)_3_(OH)_3_OH
Locality: near Merelani, Tanzania
Source: Herb Obodda
Description: Green fragment
Measured chemistry: (Na_0.45_Ca_0.40_[box]_0.15_)(Mg_0.89_Al_0.07_Ti_0.04_)_3_Al_6_(BO_3_)_3_(Si_0.93_B_0.07_)_6_O_18_((OH)_0.95_O_0.05_)_4_
Raman shift (cm-1)	intensity
97.3453	0
100.72	206.688
104.095	156.812
107.47	405.047
110.845	1594.33
114.219	2108.42
117.594	1635.48
120.969	526.109
124.344	40.625
127.719	191.438
131.094	541.375
134.468	940.469
137.843	1372.44
141.218	1489.75
144.593	1415.75
147.968	861.344
151.342	233.391
154.717	472.469
158.092	65.0625
161.467	170.25
164.842	72.5312
168.216	204.156
171.591	353.125
174.966	581.281
178.341	700.203
181.716	855.312
185.09	1448.03
188.465	1745.59
191.84	2053.23
195.215	3105.89
198.59	4200.17
201.965	5520.05
205.339	7476.78
208.714	10481.7
212.089	14590.3
215.464	19221.6
218.839	20563.1
222.214	17003.2
225.588	12660.7
228.963	10327.5
232.338	9704.91
235.713	10353.3
239.088	11667.6
242.462	13290.6
245.837	14548.8
249.212	13894.9
252.587	11409.7
255.962	8264.2
259.336	6436.41
262.711	4881.31
266.086	4403.53
269.461	4459.14
272.836	3856.3
276.211	3393.94
279.585	2569.52
282.96	1752.08
286.335	976.109
289.71	529.5
293.085	100.25
296.459	85.8906
299.834	90.375
303.209	247.094
306.584	212.281
309.959	408.641
313.334	859.984
316.708	1687.31
320.083	1136.7
323.458	178.688
326.833	294.875
330.207	236.656
333.582	131.266
336.957	1018.53
340.332	1720.52
343.707	2119.25
347.082	2733.28
350.456	3487.86
353.831	4805.83
357.206	7246.95
360.581	10683.9
363.956	14863.2
367.33	19707.2
370.705	23308.6
374.08	21902.1
377.455	16949.3
380.83	11641.3
384.205	7746.45
387.579	5522.58
390.954	4143.17
394.329	3177.33
397.704	2669.56
401.079	2309.92
404.453	2351.3
407.828	1999.98
411.203	1580.55
414.578	837.172
417.953	111.5
421.327	234.188
424.702	4.23438
428.077	64.0312
431.452	26.3906
434.827	147.203
438.202	100.641
441.576	181.828
444.951	165.719
448.326	6.73438
451.701	414.656
455.076	648.719
458.45	833.594
461.825	861.5
465.2	863.875
468.575	1157.61
471.95	1297.5
475.325	1317
478.699	1124.5
482.074	1565.72
485.449	1802.61
488.824	2396.94
492.199	2404.34
495.573	2432.05
498.948	2612.92
502.323	2622.7
505.698	2817.52
509.073	3215.69
512.447	2839.41
515.822	2334.39
519.197	1693.36
522.572	1112.3
525.947	1095.17
529.322	968.938
532.696	855.75
536.071	923.156
539.446	1214.12
542.821	1024.14
546.196	737.453
549.57	441.328
552.945	358.031
556.32	130.094
559.695	96.1094
563.07	261.484
566.444	24.8906
569.819	6.375
573.194	51.9688
576.569	454.141
579.944	308.75
583.319	145.719
586.693	152.688
590.068	155.359
593.443	71.3594
596.818	600.688
600.193	358.703
603.567	694.703
606.942	603.984
610.317	578.391
613.692	581.25
617.067	577.156
620.442	693.312
623.816	1013.52
627.191	1347.61
630.566	1595.52
633.941	2325.48
637.316	2235.2
640.69	1886.39
644.065	1585.84
647.44	1905.86
650.815	2062.61
654.19	2130.36
657.564	3075.11
660.939	3067.47
664.314	3389.27
667.689	4186.55
671.064	4156.41
674.439	4292.91
677.813	3991.84
681.188	3545.75
684.563	3136.8
687.938	3439.41
691.313	3659.16
694.688	4330.45
698.062	4797.22
701.437	5609.19
704.812	5999.12
708.187	5933.27
711.562	4531.7
714.936	3442.67
718.311	2019.02
721.686	780.438
725.061	158.328
728.436	117.938
731.81	57.1562
735.185	146.25
738.56	171.594
741.935	10.7812
745.31	361.344
748.684	17.1406
752.059	380.203
755.434	628.625
758.809	700.781
762.184	552.188
765.559	8.1875
768.933	120.688
772.308	162.844
775.683	149.234
779.058	173.375
782.433	113.25
785.808	158.844
789.182	329.75
792.557	303.562
795.932	716.062
799.307	869.094
802.682	611.562
806.056	1217.38
809.431	1005.69
812.806	1053.28
816.181	1809.33
819.556	1700.25
822.93	1963.91
826.305	1825.48
829.68	1460.22
833.055	1153.08
836.43	905.281
839.804	870.359
843.179	648.484
846.554	1015.22
849.929	721.453
853.304	357.344
856.679	396
860.053	166.141
863.428	509.344
866.803	239.266
870.178	57.4219
873.553	159.797
876.927	49.625
880.302	175.359
883.677	193.219
887.052	297.25
890.427	196.547
893.802	537.656
897.176	102.109
900.551	167.359
903.926	173.953
907.301	261.156
910.676	606.391
914.05	280.438
917.425	146.484
920.8	470.812
924.175	151.359
927.55	130.094
930.924	7.75
934.299	5.21875
937.674	338.672
941.049	110.188
944.424	100.953
947.799	25.1562
951.173	170.984
954.548	313.391
957.923	324.688
961.298	417.891
964.673	451.859
968.047	301.594
971.422	373.703
974.797	240.547
978.172	112.422
981.547	33.3906
984.922	128.375
988.296	195.75
991.671	29.5312
995.046	256.953
998.421	96.7656
1001.8	78.6719
1005.17	313.797
1008.54	506.234
1011.92	690.125
1015.29	765.156
1018.67	983.172
1022.04	1077.91
1025.42	1574.72
1028.79	1400.97
1032.17	1617.72
1035.54	2373.06
1038.92	2401.91
1042.29	2332.88
1045.67	2176.78
1049.04	2238.75
1052.42	2191.98
1055.79	2049.38
1059.17	1877.78
1062.54	2053.69
1065.92	1916.66
1069.29	1739.02
1072.67	1131.42
1076.04	1477.27
1079.42	985.656
1082.79	794.812
1086.17	796.703
1089.54	735.906
1092.92	68.2031
1096.29	265.672
1099.66	311.109
1103.04	118.484
1106.41	306.359
1109.79	434
1113.16	13.4688
1116.54	66.4688
1119.91	0.171875
1123.29	255.828
1126.66	45.9062
1130.04	151.5
1133.41	393.25
1136.79	313.25
1140.16	752.484
1143.54	548.562
1146.91	849.812
1150.29	856.016
1153.66	939.922
1157.04	869.906
1160.41	1047.7
1163.79	1540.62
1167.16	1450.45
1170.54	1762.41
1173.91	2275.83
1177.29	2368.23
1180.66	2744.58
1184.04	2971.06
1187.41	3308.78
1190.79	3975.23
1194.16	5087.59
1197.54	6278.52
1200.91	7395.61
1204.28	7874.5
1207.66	8549.44
1211.03	9379.91
1214.41	9598.88
1217.78	9761.17
1221.16	9304.11
1224.53	8996.81
1227.91	8355.02
1231.28	7638.41
1234.66	6564.3
1238.03	4580.41
1241.41	2794.14
1244.78	1241.69
1248.16	128.562
1251.53	340.297
1254.91	68.0469
1258.28	574.406
1261.66	1954.52
1265.03	3427.62
1268.41	4039.16
1271.78	3177.81
1275.16	2598.89
1278.53	1945.62
1281.9	1120.14
