Measurement: Raman, 532 nm, unoriented, Raman Data Processed
Mineral: Dravite
Rruff sample: R050077
Ideal chemistry: NaMg_3_Al_6_(Si_6_O_18_)(BO_3_)_3_(OH)_3_OH
Locality: Yinnietharra Station, Western Australia, Australia
Source: Rock Currier
Description: Dark brown euhedral prismatic single crystal
Measured chemistry: (Na_0.783_Ca_0.217_)(Mg_0.771_Fe^2+^_0.221_Ti^4+^_0.008_)_3_(Al_0.956_Mg_0.044_)_6_(BO_3_)_3_[Si_6_O_18_]((OH)_0.914_F_0.086_)_4_
Raman shift (cm-1)	intensity
168.946	0
171.839	35.9316
174.732	56.7685
177.625	6.04834
180.517	18.6157
183.41	40.7129
186.303	113.314
189.195	238.956
192.088	292.256
194.981	452.376
197.874	684.834
200.766	981.116
203.659	1302.06
206.552	1705.36
209.444	2145.24
212.337	2235.2
215.23	2090.71
218.122	1768.97
221.015	1482.75
223.908	1424.74
226.8	1403.04
229.693	1579.29
232.586	1844.66
235.479	2134.78
238.371	2393.6
241.264	2425.54
244.157	2144.23
247.049	1655.79
249.942	1227.09
252.835	854.444
255.727	582.505
258.62	477.789
261.513	418.742
264.406	393.637
267.298	286.371
270.191	229.401
273.084	242.67
275.976	123.715
278.869	74.7647
281.762	38.3804
284.655	6.14893
287.547	7.87842
290.44	76.7104
293.333	68.1362
296.225	25.9761
299.118	36.2315
302.011	81.4658
304.904	165.678
307.796	188.605
310.689	236.891
313.582	300.248
316.474	322.915
319.367	205.949
322.26	239.85
325.152	243.014
328.045	264.158
330.938	383.913
333.83	477.943
336.723	597.742
339.616	686.874
342.509	711.358
345.401	793.779
348.294	1012.53
351.187	1187.58
354.079	1585.7
356.972	2083.39
359.865	2740.14
362.757	3469.72
365.65	4052.39
368.543	4264.89
371.436	3841.83
374.328	2925.57
377.221	2237.09
380.114	1694.2
383.006	1301.11
385.899	1115.75
388.792	980.768
391.685	887.912
394.577	923.262
397.47	784.403
400.363	702.633
403.255	677.047
406.148	661.624
409.041	520.99
411.933	406.474
414.826	311.283
417.719	217.565
420.611	125.524
423.504	86.5884
426.397	49.6553
429.29	26.6846
432.182	20.9722
435.075	1.26221
437.968	1.5415
440.86	38.1836
443.753	4.03809
446.646	4.71289
449.538	39.5122
452.431	20.8501
455.324	12.7021
458.217	48.1274
461.109	72.418
464.002	13.8174
466.895	123.848
469.787	128.02
472.68	221.474
475.573	297.108
478.466	312.254
481.358	363.611
484.251	399.392
487.144	473.082
490.036	531.796
492.929	500.606
495.822	523.809
498.714	493.425
501.607	427.488
504.5	361.598
507.393	329.662
510.285	294.559
513.178	237.05
516.071	127.47
518.963	156.629
521.856	180.616
524.749	220.286
527.641	242.736
530.534	308.083
533.427	261.307
536.32	307.183
539.212	356.937
542.105	324.805
544.998	376.912
547.89	294.756
550.783	257.981
553.676	257.103
556.568	265.741
559.461	196.058
562.354	211.34
565.247	152.989
568.139	157.977
571.032	116.884
573.925	80.0576
576.817	93.7012
579.71	73.2305
582.603	79.9824
585.495	42.918
588.388	5.79004
591.281	8.36914
594.174	60.1309
597.066	2.20215
599.959	6.5918
602.852	1.97363
605.744	2.98144
608.637	10.7793
611.53	7.87305
614.423	64.668
617.315	52.8232
620.208	174.112
623.101	289.164
625.993	333.062
628.886	340.012
631.779	306.866
634.671	237.209
637.564	232.718
640.457	244.739
643.35	242.281
646.242	404.21
649.135	444.804
652.028	487.231
654.92	452.417
657.813	496.508
660.706	555.128
663.598	557.794
666.491	669.759
669.384	602.318
672.277	598.894
675.169	452.641
678.062	305.768
680.955	173.615
683.847	159.558
686.74	241.553
689.633	331.611
692.525	477.541
695.418	777.236
698.311	879.455
701.204	991.987
704.096	808.688
706.989	560.928
709.882	332.952
712.774	148.924
715.667	13.8184
718.56	34.0254
721.452	41.4658
724.345	11.5967
727.238	70.2393
730.131	174.264
733.023	142.647
735.916	295.519
738.809	389.048
741.701	494.666
744.594	588.251
747.487	748.762
750.38	751.182
753.272	849.79
756.165	921.318
759.058	872.509
761.95	867.519
764.843	789.431
767.736	774.508
770.628	741.727
773.521	726.062
776.414	717.384
779.307	686.217
782.199	686.739
785.092	628.29
787.985	479.13
790.877	466.935
793.77	400.22
796.663	311.966
799.555	284.806
802.448	275.31
805.341	275.381
808.234	337.9
811.126	243.389
814.019	282.499
816.912	226.66
819.804	242.891
822.697	144.677
825.59	79.2705
828.482	10.085
831.375	0.959961
834.268	22.1416
837.16	48.9346
840.053	19.1426
842.946	8.41797
845.839	7.70117
848.731	23.3457
851.624	25.0674
854.517	64.3809
857.409	47.3105
860.302	32.1494
863.195	91.4707
866.087	133.208
868.98	189.911
871.873	112.217
874.766	146.943
877.658	141.798
880.551	118.257
883.444	204.267
886.337	132.582
889.229	194.178
892.122	162.868
895.015	164.121
897.907	123.081
900.8	112.823
903.693	129.24
906.585	106.964
909.478	131.077
912.371	133.103
915.264	147.003
918.156	66.2656
921.049	44.0684
923.942	15.0137
926.834	2.37695
929.727	8.52539
932.62	20.8281
935.512	6.44824
938.405	1.7832
941.298	37.2315
944.191	21.3438
947.083	40.7539
949.976	42.7275
952.869	102.625
955.761	93.8818
958.654	137.395
961.547	62.7256
964.439	181.102
967.332	184.466
970.225	119.943
973.117	66.8662
976.01	128.189
978.903	72.5449
981.796	70.3721
984.688	87.8623
987.581	70.5557
990.474	12.6641
993.366	14.0078
996.259	17.9648
999.152	14.9922
1002.04	32.8691
1004.94	103.879
1007.83	42.917
1010.72	157.436
1013.62	200.805
1016.51	341.761
1019.4	325.615
1022.29	487.64
1025.19	497.309
1028.08	455.392
1030.97	592.98
1033.86	582.289
1036.76	618.289
1039.65	651.812
1042.54	685.123
1045.43	700.727
1048.33	742.778
1051.22	732.696
1054.11	697.924
1057.01	699.583
1059.9	526.659
1062.79	540.281
1065.68	557.259
1068.58	475.902
1071.47	457.2
1074.36	332.913
1077.26	233.933
1080.15	236.871
1083.04	152.803
1085.93	96.7881
1088.83	145.775
1091.72	105.86
1094.61	90.0498
1097.5	57.8574
1100.4	43.9922
1103.29	97.9512
1106.18	113.064
1109.07	141.912
1111.97	26.125
1114.86	92.6846
1117.75	38.1533
1120.64	44.5039
1123.54	32.1592
1126.43	18.6006
1129.32	10.4316
1132.22	6.28223
1135.11	27.6045
1138	3.52051
1140.89	76.7529
1143.79	59.1709
1146.68	38.6162
1149.57	63.832
1152.46	90.8984
1155.36	137.039
1158.25	64.3008
1161.14	20.7539
1164.04	112.053
1166.93	91.1514
1169.82	32.8867
1172.71	48.9326
1175.61	110.237
1178.5	54.1201
1181.39	32.7246
1184.29	41.8281
1187.18	77.4248
1190.07	121.509
1192.96	20.7139
1195.86	15.0986
1198.75	47.5605
1201.64	41.9023
1204.53	89.4268
1207.43	1.10352
1210.32	77.3203
1213.21	38.2725
1216.1	27.6611
1219	109.888
1221.89	155.1
1224.78	94.5742
1227.67	103.856
1230.57	103.544
1233.46	39.5879
1236.35	126.966
1239.25	113.18
1242.14	63.6397
1245.03	194.696
1247.92	130.269
1250.82	146.675
1253.71	179.029
1256.6	173.537
1259.49	203.585
1262.39	135.511
1265.28	210.198
1268.17	138.612
1271.07	129.776
1273.96	88.8887
1276.85	46.626
1279.74	48.2119
1282.64	65.2539
1285.53	78.5478
1288.42	149.474
1291.32	92.7012
1294.21	98.4434
1297.1	42.1289
1299.99	125.993
1302.88	21.0508
