Measurement: Raman, 785 nm, unoriented, Raman Data Processed
Mineral: Dravite
Rruff sample: R050059
Ideal chemistry: NaMg_3_Al_6_(Si_6_O_18_)(BO_3_)_3_(OH)_3_OH
Locality: Nepal
Source: Rock Currier
Description: Dark brown single crystal
Measured chemistry: (Na_0.79_[box]_0.16_Ca_0.05_)_Σ=1_(Mg_2.44_Al_0.29_[box]_0.14_Fe^2+^_0.08_Ti_0.05_)_Σ=3_Al_6.00_(BO_3_)_3_Si_6.00_O_18_(OH)_4_ ; H_2_O assumed ideal from stoichiometry; B_2_O_3_ estimated by difference
Raman shift (cm-1)	intensity
171.16	0
174.052	16.0884
176.945	13.856
179.838	13
182.73	99.4966
185.623	160.148
188.516	309.556
191.408	498.613
194.301	661.867
197.194	792.768
200.087	1069.45
202.979	1503.64
205.872	1939.31
208.765	2673.99
211.657	3505.81
214.55	4109.79
217.443	4109.28
220.335	3555.85
223.228	2960.22
226.121	2612.55
229.013	2512.1
231.906	2598.03
234.799	2745.04
237.692	2987.68
240.584	3383.62
243.477	3372.23
246.37	3050.61
249.262	2582.29
252.155	1986.1
255.048	1512.31
257.941	1222.23
260.833	1006.97
263.726	863.277
266.619	718.618
269.511	629.819
272.404	493.503
275.297	376.805
278.19	241.365
281.082	152.022
283.975	151.4
286.868	83.604
289.76	22.5537
292.653	42.5884
295.546	76.6079
298.438	23.5244
301.331	11.3691
304.224	32.2109
307.116	139.941
310.009	258.433
312.902	466.801
315.795	312.496
318.687	91.3037
321.58	38.7051
324.473	0.706055
327.365	91.9746
330.258	157.114
333.151	277.321
336.043	345.884
338.936	453.981
341.829	659.848
344.721	721.304
347.614	916.607
350.507	1137.72
353.4	1522.62
356.292	2131.41
359.185	2909.83
362.078	3893.6
364.97	5231.02
367.863	6254.69
370.756	6357.65
373.649	5118.23
376.541	3539.04
379.434	2456.74
382.327	1653.47
385.219	1224.52
388.112	874.563
391.005	749.143
393.897	661.843
396.79	626.043
399.683	575.796
402.575	581.202
405.468	561.624
408.361	424.016
411.254	359.447
414.146	253.834
417.039	158.828
419.932	122.608
422.824	37.9878
425.717	4.77979
428.61	3.77197
431.502	5.2832
434.395	8.77246
437.288	16.7856
440.181	30.8667
443.073	24.4502
445.966	25.4644
448.859	4.46387
451.751	4.18018
454.644	8.01123
457.537	11.521
460.43	25.958
463.322	114.735
466.215	115.189
469.108	163.332
472	177.237
474.893	216.99
477.786	263.201
480.678	339.656
483.571	447.294
486.464	528.53
489.356	632.098
492.249	687.62
495.142	740.718
498.035	707.796
500.927	657.369
503.82	612.525
506.713	582.033
509.605	462.818
512.498	436.766
515.391	359.317
518.284	276.909
521.176	284.748
524.069	286.318
526.962	260.417
529.854	291.482
532.747	322.398
535.64	303.856
538.533	299.415
541.425	264.196
544.318	218.047
547.211	170.419
550.103	148.778
552.996	101.203
555.889	81.6499
558.781	85.1069
561.674	70.1894
564.567	47.3374
567.459	24.5796
570.352	8.71289
573.245	38.269
576.138	25.9707
579.03	23.9282
581.923	36.3721
584.816	30.999
587.708	29.4331
590.601	27.4165
593.494	34.335
596.386	2.30957
599.279	10.4443
602.172	2.79053
605.064	30.0356
607.957	64.7398
610.85	52.5815
613.743	54.6152
616.635	88.6103
619.528	77.1812
622.421	212.161
625.313	300.67
628.206	446.638
631.099	568.715
633.991	689.997
636.884	672.814
639.777	626.705
642.67	540.065
645.562	690.4
648.455	781.334
651.348	858.387
654.24	920.874
657.133	959.779
660.026	980.207
662.918	1128.37
665.811	1328.79
668.704	1587.01
671.597	1892.89
674.489	2084.83
677.382	2001.86
680.275	1767.45
683.167	1526
686.06	1368.12
688.953	1333.59
691.846	1376.17
694.738	1532.3
697.631	1827.44
700.524	2080.52
703.416	2124
706.309	1825.02
709.202	1374.39
712.094	916.704
714.987	556.103
717.88	372.197
720.773	264.192
723.665	189.54
726.558	79.6616
729.451	34.3159
732.343	13.0747
735.236	11.2041
738.129	19.793
741.021	78.542
743.914	56.5273
746.807	76.0137
749.699	70.5903
752.592	124.3
755.485	190.978
758.378	156.398
761.27	151.624
764.163	25.981
767.056	45.6108
769.948	30.5269
772.841	14.8809
775.734	20.0947
778.626	7.69971
781.519	6.18652
784.412	29.2246
787.305	57.3848
790.197	65.4944
793.09	53.7507
795.983	42.0562
798.875	80.4536
801.768	64.314
804.661	113.608
807.553	182.408
810.446	194.146
813.339	272.42
816.232	302.893
819.124	266.254
822.017	231.617
824.91	183.704
827.802	201.666
830.695	172.017
833.588	165.214
836.481	145.541
839.373	129.468
842.266	119.916
845.159	101.588
848.051	73.7981
850.944	17.2063
853.837	56.2087
856.729	40.2329
859.622	34.3569
862.515	38.9685
865.408	35.9954
868.3	28.0527
871.193	73.395
874.086	39.52
876.978	19.4211
879.871	0.622803
882.764	38.4326
885.656	8.68433
888.549	17.5347
891.442	47.5225
894.335	50.2148
897.227	7.52124
900.12	54.8355
903.013	20.9998
905.905	23.9336
908.798	31.5308
911.691	7.20166
914.583	11.9978
917.476	7.55493
920.369	30.8084
923.261	12.8789
926.154	6.05591
929.047	8.18018
931.94	30.5964
934.832	36.4128
937.725	16.9099
940.618	19.876
943.51	50.4785
946.403	32.8909
949.296	28.0896
952.188	66.5967
955.081	36.2642
957.974	98.7849
960.867	166.745
963.759	132.325
966.652	114.742
969.545	144.269
972.437	162.962
975.33	114.887
978.223	128.331
981.115	128.178
984.008	154.562
986.901	86.0825
989.794	72.0518
992.686	65.3525
995.579	42.1641
998.472	22.082
1001.36	41.0574
1004.26	128.524
1007.15	103.186
1010.04	251.627
1012.93	266.366
1015.83	331.477
1018.72	376.008
1021.61	471.76
1024.51	547.137
1027.4	606.403
1030.29	603.726
1033.18	622.057
1036.08	594.413
1038.97	574.764
1041.86	586.541
1044.76	554.541
1047.65	537.47
1050.54	538.292
1053.43	477.574
1056.33	426.909
1059.22	466.541
1062.11	440.54
1065	432.269
1067.9	379.074
1070.79	349.555
1073.68	313.659
1076.58	214.908
1079.47	211.206
1082.36	145.741
1085.25	70.0779
1088.14	12.7749
1091.04	9.49146
1093.93	5.27832
1096.82	28.2231
1099.72	3.15552
1102.61	0.643799
1105.5	2.60889
1108.39	66.8091
1111.29	21.2815
1114.18	71.5693
1117.07	61.2012
1119.96	73.874
1122.86	162.602
1125.75	146
1128.64	149.018
1131.54	207.822
1134.43	180.866
1137.32	238.371
1140.21	222.885
1143.11	222.23
1146	251.808
1148.89	231.042
1151.79	279.915
1154.68	284.292
1157.57	214.249
1160.46	158.002
1163.36	122.708
1166.25	54.1692
1169.14	19.4834
1172.03	41.0723
1174.93	29.1482
1177.82	5.22168
1180.71	8.55908
1183.6	1.22436
1186.5	28.2444
1189.39	35.7273
1192.28	117.224
1195.17	160.067
1198.07	249.456
1200.96	346.3
1203.85	417.558
1206.75	447.688
1209.64	471.033
1212.53	443.968
1215.42	492.989
1218.32	454.637
1221.21	470.864
1224.1	391.735
1226.99	335.824
1229.89	274.274
1232.78	153.954
1235.67	50.8484
1238.57	16.6702
