Measurement: Raman, 780 nm, unoriented, Raman Data Processed
Mineral: Dravite
Rruff sample: R060534
Ideal chemistry: NaMg_3_Al_6_(Si_6_O_18_)(BO_3_)_3_(OH)_3_OH
Locality: Sri Lanka
Source: Gemological Institute of America
Description: Black trigonal prism
Measured chemistry: (Na_0.79_Ca_0.21_)(Mg_0.68_Fe^2+^_0.29_Ti_0.02_Al_0.01_)_3_Al_6.00_(BO_3_)_3_(Si_0.95_Al_005_)_6.00_O_18_(OH)_4_
Raman shift (cm-1)	intensity
103.295	0
106.669	2.69603
110.044	0.318283
113.419	0.039528
116.794	1.3157
120.169	1.99853
123.544	2.74007
126.918	2.18269
130.293	2.28261
133.668	2.51003
137.043	5.99165
140.418	4.7674
143.792	6.72932
147.167	6.77355
150.542	4.20734
153.917	3.96488
157.292	0.976746
160.667	0.795898
164.041	1.62662
167.416	0.1371
170.791	1.14614
174.166	2.44014
177.541	2.67345
180.916	5.94476
184.29	11.5389
187.665	16.7504
191.04	28.0111
194.415	36.7285
197.79	49.5551
201.164	62.6149
204.539	77.0041
207.914	90.6552
211.289	94.5386
214.664	89.9796
218.038	81.5429
221.413	80.5149
224.788	85.1198
228.163	91.1004
231.538	102.991
234.912	116.056
238.287	126.744
241.662	120.958
245.037	95.3807
248.412	67.9081
251.787	44.5935
255.161	31.9296
258.536	22.5639
261.911	18.4449
265.286	13.2635
268.661	7.01838
272.036	5.83404
275.41	4.04587
278.785	2.43503
282.16	0.720894
285.535	2.57711
288.909	0.493324
292.284	0.903015
295.659	0.06958
299.034	1.90699
302.409	3.86366
305.784	4.98412
309.158	10.8771
312.533	15.5532
315.908	13.2147
319.283	8.29991
322.658	8.53637
326.033	9.28294
329.407	12.3434
332.782	14.9049
336.157	20.1782
339.532	27.0993
342.907	36.3371
346.281	48.791
349.656	65.135
353.031	83.643
356.406	105.746
359.781	130.137
363.155	151.025
366.53	158.29
369.905	141.93
373.28	110.488
376.655	77.8046
380.029	59.6949
383.404	46.2559
386.779	40.7323
390.154	35.7717
393.529	29.7465
396.904	27.9039
400.278	24.5047
403.653	22.468
407.028	18.8163
410.403	13.7778
413.778	10.346
417.152	4.82808
420.527	3.04536
423.902	2.849
427.277	0.825432
430.652	1.37151
434.027	0.876503
437.401	1.2484
440.776	0.243187
444.151	0.612328
447.526	0.364807
450.901	1.4254
454.275	0.984673
457.65	3.05042
461.025	3.36101
464.4	5.41091
467.775	5.14371
471.149	7.41738
474.524	10.8739
477.899	12.093
481.274	14.0052
484.649	15.7254
488.024	18.7821
491.398	20.7034
494.773	20.9642
498.148	19.2465
501.523	17.6947
504.898	15.6928
508.272	13.3267
511.647	12.8553
515.022	10.9497
518.397	9.70048
521.772	9.85317
525.146	11.3679
528.521	12.8882
531.896	12.118
535.271	11.8674
538.646	8.73195
542.021	8.17715
545.395	7.38951
548.77	5.49573
552.145	5.70485
555.52	2.97127
558.895	3.03159
562.269	1.36675
565.644	2.23027
569.019	0.437035
572.394	0.288193
575.769	0.372826
579.144	1.29347
582.518	1.47937
585.893	0.318245
589.268	0.041191
592.643	0.324203
596.018	1.14552
599.393	0.878571
602.767	1.91666
606.142	3.50649
609.517	3.90553
612.892	6.98833
616.266	9.79404
619.641	11.6074
623.016	16.2482
626.391	24.0518
629.766	25.6389
633.141	25.7788
636.515	26.4567
639.89	28.0142
643.265	30.4299
646.64	30.7998
650.015	29.8571
653.389	30.6131
656.764	30.4886
660.139	31.7074
663.514	36.2771
666.889	37.0539
670.264	36.3619
673.638	34.0704
677.013	28.6662
680.388	27.6151
683.763	28.9865
687.138	32.2063
690.513	34.7531
693.887	39.7974
697.262	42.8244
700.637	42.7294
704.012	36.2053
707.386	24.2146
710.761	11.2561
714.136	6.19726
717.511	3.50929
720.886	0.777641
724.261	0.248802
727.635	1.77484
731.01	0.629036
734.385	0.78347
737.76	2.41968
741.135	1.86803
744.51	2.58411
747.884	3.99804
751.259	3.35516
754.634	4.80396
758.009	3.72353
761.384	2.2679
764.758	0.548691
768.133	2.44304
771.508	2.14673
774.883	2.09544
778.258	2.29386
781.632	0.822151
785.007	1.51382
788.382	1.36824
791.757	0.750816
795.132	1.55169
798.506	0.117142
801.881	1.25379
805.256	0.471245
808.631	0.852234
812.006	0.97937
815.381	0.782043
818.755	2.34629
822.13	1.4841
825.505	1.50137
828.88	1.13283
832.255	0.99485
835.63	0.20787
839.004	2.8125
842.379	1.12695
845.754	2.36385
849.129	2.86888
852.504	2.45126
855.878	2.2868
859.253	4.21644
862.628	2.79045
866.003	2.18116
869.378	2.24587
872.752	2.77229
876.127	2.24255
879.502	2.68278
882.877	1.9238
886.252	1.9233
889.626	0.750328
893.001	2.06725
896.376	0.795166
899.751	0.754395
903.126	1.09968
906.5	1.59304
909.875	0.094376
913.25	0.346558
916.625	0.081009
920	0.716652
923.375	1.41863
926.75	0.7593
930.124	0.580116
933.499	0.731049
936.874	0.320282
940.249	1.1452
943.624	0.797775
946.998	2.59957
950.373	2.0432
953.748	2.84745
957.123	3.37355
960.498	2.37205
963.872	3.53717
967.247	3.69426
970.622	1.48773
973.997	2.25452
977.372	1.37051
980.746	2.01996
984.121	0.752136
987.496	0.600891
990.871	0.838432
994.246	1.48953
997.62	3.80776
1001	3.78143
1004.37	5.54033
1007.75	7.93915
1011.12	9.51968
1014.5	13.9226
1017.87	16.8919
1021.24	18.7645
1024.62	19.8377
1027.99	21.6571
1031.37	22.8783
1034.74	21.9717
1038.12	23.6031
1041.49	22.6171
1044.87	21.5485
1048.24	18.7024
1051.62	17.0081
1054.99	16.0145
1058.37	12.7357
1061.74	12.9675
1065.12	10.5742
1068.49	10.331
1071.87	7.02808
1075.24	6.01849
1078.62	4.76144
1081.99	4.28139
1085.37	2.20977
1088.74	2.1934
1092.12	1.71377
1095.49	0.806015
1098.87	1.06514
1102.24	0.461372
1105.62	0.168865
1108.99	1.72011
1112.36	0.434464
1115.74	0.080009
1119.11	0.360271
1122.49	0.286407
1125.86	0.867466
1129.24	0.052452
1132.61	0.039154
1135.99	0.723293
1139.36	0.594372
1142.74	1.21133
1146.11	1.06657
1149.49	1.91167
1152.86	1.09324
1156.24	1.1357
1159.61	0.903923
1162.99	1.78807
1166.36	2.28458
1169.74	2.36199
1173.11	0.27803
1176.49	1.72574
1179.86	1.79332
1183.23	2.0544
1186.61	1.75559
1189.98	2.1378
1193.36	2.20884
1196.73	1.1568
1200.11	1.35928
1203.48	1.83687
1206.86	0.321747
1210.23	1.3637
1213.61	1.6747
1216.98	2.08402
1220.36	2.18485
1223.73	1.2425
1227.11	1.68832
1230.48	0.656513
1233.86	3.20818
1237.23	2.35237
1240.61	1.31003
1243.98	0.575851
1247.36	1.21189
1250.73	2.59399
1254.11	1.8106
1257.48	1.02839
1260.86	0.803806
1264.23	0.681553
1267.61	1.87475
1270.98	0.97263
1274.36	0.097729
1277.73	1.54329
1281.11	1.17722
1284.48	0.127476
