Measurement: Raman, 785 nm, unoriented, Raman Data Processed
Mineral: Dravite
Rruff sample: R050077
Ideal chemistry: NaMg_3_Al_6_(Si_6_O_18_)(BO_3_)_3_(OH)_3_OH
Locality: Yinnietharra Station, Western Australia, Australia
Source: Rock Currier
Description: Dark brown euhedral prismatic single crystal
Measured chemistry: (Na_0.783_Ca_0.217_)(Mg_0.771_Fe^2+^_0.221_Ti^4+^_0.008_)_3_(Al_0.956_Mg_0.044_)_6_(BO_3_)_3_[Si_6_O_18_]((OH)_0.914_F_0.086_)_4_
Raman shift (cm-1)	intensity
174.534	0
177.427	24.0605
180.32	5.58875
183.212	24.6932
186.105	25.4718
188.998	63.5687
191.891	118.771
194.783	204.939
197.676	363.236
200.569	516.095
203.461	724.026
206.354	963.641
209.247	1258.97
212.139	1474.26
215.032	1386.79
217.925	1247.62
220.818	1038.6
223.71	1009.59
226.603	999.672
229.496	1064.07
232.388	1241.3
235.281	1480.94
238.174	1674.42
241.066	1806.56
243.959	1750.07
246.852	1473.12
249.745	1027.75
252.637	744.847
255.53	558.488
258.423	430.625
261.315	335.178
264.208	285.874
267.101	231.733
269.993	174.499
272.886	179.442
275.779	121.906
278.672	62.8688
281.564	29.6152
284.457	17.269
287.35	4.07947
290.242	11.3634
293.135	36.825
296.028	40.6992
298.921	1.74548
301.813	25.0832
304.706	48.6847
307.599	77.5685
310.491	144.888
313.384	176.708
316.277	155.057
319.169	88.3433
322.062	47.3886
324.955	45.2283
327.847	63.1108
330.74	105.245
333.633	144.404
336.526	179.875
339.418	257.63
342.311	318.081
345.204	390.927
348.096	483.786
350.989	627.959
353.882	868.158
356.774	1151.22
359.667	1566.8
362.56	2035.63
365.452	2473.25
368.345	2738.07
371.238	2598.32
374.131	2067.04
377.023	1540.44
379.916	1129.24
382.809	858.61
385.701	659.332
388.594	580.321
391.487	489.496
394.38	451.599
397.272	474.031
400.165	420.224
403.058	428.52
405.95	389.669
408.843	316.335
411.736	221.128
414.628	176.367
417.521	130.998
420.414	71.7456
423.307	54.1605
426.199	6.71924
429.092	25.2673
431.985	3.44238
434.877	0.515259
437.77	1.8634
440.663	9.01538
443.555	45.5422
446.448	43.7034
449.341	1.72583
452.234	0.506958
455.126	21.5957
458.019	30.7439
460.912	38.9563
463.804	58.7609
466.697	100.402
469.59	104.445
472.483	128.705
475.375	146.756
478.268	185.1
481.161	206.269
484.053	261.68
486.946	265.34
489.839	321.405
492.731	339.611
495.624	325.792
498.517	318.138
501.409	305.6
504.302	258.939
507.195	259.037
510.088	193.472
512.98	198.663
515.873	141.877
518.766	142.759
521.658	134.926
524.551	143.226
527.444	137.846
530.337	195.365
533.229	168.416
536.122	183.357
539.015	181.287
541.907	124.592
544.8	156.682
547.693	110.283
550.585	104.569
553.478	69.4115
556.371	80.9363
559.263	62.2666
562.156	51.4989
565.049	14.3787
567.942	4.66748
570.834	18.996
573.727	16.4064
576.62	11.4756
579.512	7.53686
582.405	18.097
585.298	12.9908
588.19	0.60022
591.083	8.0957
593.976	11.579
596.869	2.63013
599.761	28.514
602.654	27.8829
605.547	24.9729
608.439	27.4119
611.332	67.1154
614.225	68.1544
617.117	71.3303
620.01	160.25
622.903	200.514
625.795	265.733
628.688	305.121
631.581	373.507
634.474	320.768
637.366	362.24
640.259	335.774
643.152	361.608
646.044	441.297
648.937	451.966
651.83	482.106
654.722	452.698
657.615	467.489
660.508	504.062
663.401	561.301
666.293	582.942
669.186	668.39
672.079	703.561
674.971	630.312
677.864	610.047
680.757	543.846
683.649	468.996
686.542	482.668
689.435	545.861
692.328	615.276
695.22	692.535
698.113	825.991
701.006	858.405
703.898	814.729
706.791	671.021
709.684	436.21
712.577	288.149
715.469	160.598
718.362	95.0915
721.255	65.3106
724.147	39.4924
727.04	7.20752
729.933	5.05225
732.825	11.6479
735.718	10.8977
738.611	3.82886
741.504	11.244
744.396	13.864
747.289	2.37585
750.182	14.72
753.074	25.3257
755.967	58.8509
758.86	46.8972
761.752	4.91687
764.645	17.5341
767.538	26.8878
770.431	22.2195
773.323	38.3131
776.216	30.3099
779.109	40.5804
782.001	15.5038
784.894	16.0919
787.787	58.4573
790.679	14.1627
793.572	19.7789
796.465	31.0851
799.357	7.53845
802.25	45.7225
805.143	50.5122
808.036	38.8458
810.928	16.9114
813.821	30.6139
816.714	44.1644
819.606	53.626
822.499	64.3372
825.392	29.0812
828.284	12.4738
831.177	1.68591
834.07	48.45
836.963	37.1462
839.855	38.5579
842.748	35.411
845.641	32.8546
848.533	0.137695
851.426	18.7205
854.319	27.3762
857.212	6.04456
860.104	31.2938
862.997	33.5527
865.89	7.34045
868.782	43.8816
871.675	2.08813
874.568	1.64307
877.46	53.0446
880.353	30.558
883.246	28.9725
886.139	14.449
889.031	11.3573
891.924	22.053
894.817	27.845
897.709	51.4836
900.602	3.49487
903.495	27.8814
906.388	15.0969
909.28	0.310547
912.173	40.927
915.066	15.6483
917.958	23.3772
920.851	0.201294
923.744	20.5048
926.636	23.4326
929.529	1.66797
932.422	12.7407
935.314	21.6254
938.207	8.96057
941.1	5.05408
943.993	13.3108
946.885	3.73377
949.778	24.2322
952.671	25.6587
955.563	56.7562
958.456	51.7741
961.349	72.2305
964.241	58.8932
967.134	52.6733
970.027	59.5327
972.92	75.9254
975.812	58.227
978.705	52.5835
981.598	2.61231
984.49	18.3855
987.383	22.2078
990.276	4.30396
993.168	20.2588
996.061	16.8554
998.954	15.2456
1001.85	47.4393
1004.74	35.5557
1007.63	83.2079
1010.52	107.337
1013.42	141.268
1016.31	139.473
1019.2	201.581
1022.1	246.106
1024.99	243.175
1027.88	285.584
1030.77	280.44
1033.67	337.079
1036.56	293.638
1039.45	314.429
1042.34	322.242
1045.24	320.33
1048.13	305.294
1051.02	345.371
1053.91	286.246
1056.81	258.472
1059.7	265.117
1062.59	215.89
1065.49	186.475
1068.38	172.354
1071.27	131.69
1074.16	134.301
1077.06	122.258
1079.95	95.9312
1082.84	88.743
1085.73	56.3475
1088.63	25.1985
1091.52	41.9368
1094.41	1.06201
1097.31	7.92493
1100.2	43.6948
1103.09	20.7752
1105.98	20.7127
1108.88	21.0429
1111.77	5.86529
1114.66	21.3123
1117.56	10.759
1120.45	23.5331
1123.34	33.0425
1126.23	9.39075
1129.12	26.2161
1132.02	4.54096
1134.91	25.0413
1137.8	12.9772
1140.7	5.77295
1143.59	3.10828
1146.48	0.082825
1149.37	24.4305
1152.27	31.822
1155.16	18.3093
1158.05	44.3503
1160.94	7.32776
1163.84	2.17572
1166.73	27.732
1169.62	3.54456
1172.52	48.897
1175.41	20.4493
1178.3	29.7476
1181.19	36.0574
1184.09	52.2095
1186.98	42.2479
1189.87	29.5154
1192.77	29.4804
1195.66	29.2846
1198.55	14.8815
1201.44	21.4291
1204.34	32.4384
1207.23	31.8231
1210.12	36.4413
1213.01	28.6368
1215.91	2.8031
1218.8	22.675
1221.69	32.7775
1224.58	7.59619
