Measurement: Raman, 514 nm, unoriented, Raman Data Processed
Mineral: Dravite
Rruff sample: R060286
Ideal chemistry: NaMg_3_Al_6_(Si_6_O_18_)(BO_3_)_3_(OH)_3_OH
Locality: Badakshan Province, Afghanistan
Source: Herb Obodda
Description: Brown prismatic tourmaline crystal
Measured chemistry: (Na_0.48_Ca_0.38_[box]_0.14_)_Σ=1_(Mg_2.90_Ti_0.10_)_Σ=3_Al_6.00_(B_1.00_O_3_)_3_(Si_5.56_B_0.44_)_Σ=6_O_18_(OH)_4_; (OH) assumed from stoichiometry; B estimated by difference and charge balance
Raman shift (cm-1)	intensity
113.559	0
117.729	48.386
121.897	152.778
126.063	174.955
130.228	250.009
134.39	595.627
138.55	911.226
142.709	1370.18
146.865	1650.17
151.019	1346.93
155.171	975.276
159.322	444.803
163.47	171.84
167.617	6.159
171.761	112.637
175.904	159.017
180.044	44.549
184.183	241.964
188.319	784.181
192.454	1462.47
196.586	2600.03
200.717	4585.53
204.846	8069.56
208.972	15003.1
213.097	25015.1
217.22	31295.3
221.341	25791
225.46	17019.8
229.577	12763
233.692	12013.4
237.805	14530.4
241.916	19453.1
246.025	23969.3
250.132	22241.1
254.237	15307.5
258.34	9414.47
262.442	6223.62
266.541	4579.72
270.639	3738.28
274.734	3098.31
278.828	2174.45
282.919	1332.81
287.009	890.279
291.097	574.932
295.183	356.486
299.266	348.653
303.348	455.715
307.428	834.328
311.507	1777.87
315.583	3282.48
319.657	3845.51
323.729	2503.89
327.8	1811.57
331.868	1737.24
335.935	2069.84
339.999	2642.88
344.062	3495.78
348.123	4919.3
352.182	6938.89
356.239	10199.5
360.294	15526.1
364.347	25206.7
368.398	37722.3
372.448	44565.8
376.495	37577.2
380.54	25513.5
384.584	16422.7
388.626	11423.8
392.666	8869.53
396.704	7450.75
400.74	7220.09
404.774	7017.97
408.806	6936.74
412.836	5868.26
416.865	4176.03
420.891	2890
424.916	1973.96
428.939	1476.79
432.959	1155.14
436.978	1153.39
440.996	924.19
445.011	838.71
449.024	868.953
453.036	841.9
457.045	804.751
461.053	832.868
465.059	886.872
469.063	1011.54
473.065	1469.89
477.065	2289.92
481.063	2671.6
485.06	3035.93
489.054	3262.87
493.047	3635.43
497.038	3955.7
501.027	3762.84
505.014	3562.7
508.999	3196.13
512.982	2622.08
516.964	1944.55
520.944	1454.52
524.921	1102.97
528.897	868.895
532.871	893.277
536.844	909.105
540.814	1010.37
544.783	724.119
548.749	560.509
552.714	262.593
556.677	8.421
560.638	116.145
564.597	241.801
568.555	230.944
572.511	260.591
576.464	309.738
580.416	185.485
584.366	140.75
588.315	22.591
592.261	187.021
596.206	441.586
600.148	590.693
604.089	773.896
608.028	957.316
611.965	1230.94
615.901	1575.76
619.834	2076.75
623.766	2765.91
627.696	4060.22
631.624	6241.68
635.551	7151.27
639.475	5883.97
643.398	5742.78
647.318	6863.68
651.237	9138.67
655.155	10605.7
659.07	11295.8
662.984	11874
666.895	13244.2
670.805	15449.4
674.713	15409.6
678.62	13758.8
682.524	11326
686.427	10095.1
690.328	9833.24
694.227	10482.4
698.124	12279.9
702.02	14562.8
705.913	15988.6
709.805	13893.5
713.695	9008
717.584	5510.81
721.47	3417.07
725.355	2459.45
729.238	1910.34
733.119	1636.3
736.998	1374.48
740.876	1244.37
744.752	1118.64
748.626	1378.64
752.498	1754.31
756.368	2227.02
760.237	2968.1
764.104	3167.77
767.969	2680.26
771.832	2181.58
775.693	2040.72
779.553	2120.67
783.411	2234.77
787.267	2376.99
791.122	2776.34
794.974	3288.48
798.825	3843.41
802.674	3844.12
806.522	3553.6
810.367	3316.84
814.211	3075.85
818.053	2924.62
821.893	2977.15
825.732	2865.42
829.568	2326.44
833.403	1853.21
837.236	1217.71
841.068	789.942
844.898	448.909
848.726	197.603
852.552	30.992
856.376	62.13
860.199	54.571
864.02	60.925
867.839	69.826
871.656	100.606
875.472	71.909
879.286	79.56
883.098	2.628
886.909	3.186
890.717	31.951
894.524	13.771
898.33	113.509
902.133	198.005
905.935	211.384
909.735	234.6
913.533	339.595
917.33	429.774
921.124	434.508
924.918	505.143
928.709	570.133
932.499	689.837
936.286	760.248
940.073	866.369
943.857	1145.2
947.64	1321.73
951.421	1688.96
955.2	2006.91
958.978	2402.56
962.753	2652.92
966.527	2979.98
970.3	3162.74
974.071	3082.22
977.84	3007.41
981.607	2780.31
985.372	2709.93
989.136	2665.27
992.898	2492.33
996.659	2632.1
1000.42	2640.46
1004.17	2963.77
1007.93	3214.58
1011.68	3830.05
1015.43	4595.68
1019.18	5655.7
1022.93	6789.2
1026.68	8073.5
1030.42	9360.06
1034.17	10671.6
1037.91	11427.5
1041.65	11971.7
1045.39	12240.9
1049.12	11575.2
1052.86	11174.7
1056.59	10026.5
1060.33	8777.41
1064.06	7561.05
1067.78	6759.85
1071.51	6073.68
1075.23	5517.44
1078.96	4943.06
1082.68	4310.17
1086.4	3740.42
1090.12	3195.54
1093.83	2656.6
1097.55	2281.34
1101.26	2049.35
1104.97	1815.84
1108.68	1541.21
1112.39	1440.15
1116.1	1230.83
1119.8	1107.64
1123.5	938.58
1127.2	950.881
1130.9	814.524
1134.6	675.663
1138.3	513.34
1141.99	411.387
1145.69	261.068
1149.38	186.011
1153.07	157.544
1156.76	82.401
1160.44	8.754
1164.13	55.146
1167.81	35.557
1171.49	47.972
1175.17	63.123
1178.85	131.051
1182.52	2.026
1186.2	43.526
1189.87	12.008
1193.54	8.109
1197.21	36.983
1200.88	105.555
1204.55	29.138
1208.21	13.938
1211.88	39.976
1215.54	5.885
1219.2	42.518
1222.86	92.611
1226.51	63.497
1230.17	197.237
1233.82	145.91
1237.47	173.234
1241.12	222.374
1244.77	115.337
1248.42	150.129
1252.06	108.769
1255.71	148.259
1259.35	210.188
1262.99	174.76
1266.63	100.752
1270.26	167.564
1273.9	63.173
1277.53	148.584
1281.16	9.818
1284.8	122.867
1288.42	140.732
1292.05	75.431
1295.68	1.036
1299.3	96.067
1302.92	66.311
1306.55	56.764
1310.16	104.752
1313.78	141.711
1317.4	127.176
1321.01	99.752
1324.62	71.789
1328.24	73.169
1331.85	33.208
1335.45	129.138
1339.06	78.29
1342.66	89.074
1346.27	101.62
1349.87	84.234
1353.47	113.444
1357.07	152.389
1360.66	82.832
1364.26	121.651
1367.85	128.026
1371.44	126.682
1375.04	158.662
1378.62	237.687
1382.21	124.708
1385.8	175.995
1389.38	211.827
1392.96	170.943
1396.54	227.698
1400.12	305.942
1403.7	305.059
1407.28	276.524
1410.85	285.745
1414.42	215.153
1417.99	253.383
1421.56	258.344
1425.13	304.025
1428.7	190.703
1432.26	198.49
1435.83	113.482
1439.39	238.488
1442.95	161.39
1446.51	25.352
1450.06	113.531
1453.62	4.336
1457.17	91.535
1460.73	92.78
1464.28	128.938
1467.83	126.027
1471.37	2.764
1474.92	103.821
1478.46	86.845
1482.01	0.643
1485.55	10.671
1489.09	62.062
1492.63	59.812
1496.16	141.557
1499.7	173.768
1503.23	56.097
1506.76	59.219
1510.29	62.19
1513.82	175.902
1517.35	141.377
1520.88	118.916
1524.4	139.268
1527.92	153.381
