Measurement: Raman, 532 nm, unoriented, Raman Data Processed
Mineral: Dravite
Rruff sample: R060286
Ideal chemistry: NaMg_3_Al_6_(Si_6_O_18_)(BO_3_)_3_(OH)_3_OH
Locality: Badakshan Province, Afghanistan
Source: Herb Obodda
Description: Brown prismatic tourmaline crystal
Measured chemistry: (Na_0.48_Ca_0.38_[box]_0.14_)_Σ=1_(Mg_2.90_Ti_0.10_)_Σ=3_Al_6.00_(B_1.00_O_3_)_3_(Si_5.56_B_0.44_)_Σ=6_O_18_(OH)_4_; (OH) assumed from stoichiometry; B estimated by difference and charge balance
Raman shift (cm-1)	intensity
150.446	0
153.338	3.04233
156.231	3.03748
159.124	4.54849
162.016	3.05252
164.909	3.32556
167.802	4.70081
170.694	2.30286
173.587	3.85867
176.48	0.98996
179.373	2.17755
182.265	1.73798
185.158	6.7182
188.051	23.4705
190.943	22.5251
193.836	40.2247
196.729	53.04
199.621	55.0516
202.514	69.0087
205.407	91.3732
208.299	122.488
211.192	166.221
214.085	195.123
216.978	181.107
219.87	134.215
222.763	98.7201
225.656	85.2065
228.548	81.345
231.441	80.0717
234.334	83.1859
237.226	89.3957
240.119	107.468
243.012	117.525
245.905	110.642
248.797	78.8787
251.69	49.2883
254.583	25.0882
257.475	12.8202
260.368	9.42725
263.261	8.66943
266.154	10.2618
269.046	10.5597
271.939	17.4881
274.832	13.5442
277.724	9.17853
280.617	7.42709
283.51	4.38281
286.402	0.933228
289.295	3.56097
292.188	0.794495
295.08	1.7005
297.973	3.55322
300.866	0.963806
303.759	4.62964
306.651	2.38782
309.544	1.56354
312.437	7.36481
315.329	15.0579
318.222	13.1134
321.115	15.3913
324.007	23.1071
326.9	34.1917
329.793	49.2493
332.686	66.5346
335.578	81.4898
338.471	96.2156
341.364	96.7982
344.256	97.24
347.149	89.9705
350.042	92.2031
352.935	103.63
355.827	126.024
358.72	158.527
361.613	212.631
364.505	258.947
367.398	298.703
370.291	307.696
373.183	271.822
376.076	203.207
378.969	148.481
381.861	105.427
384.754	80.9878
387.647	61.6246
390.54	49.7549
393.432	40.9963
396.325	35.4134
399.218	32.5533
402.11	27.2813
405.003	29.6205
407.896	21.6926
410.788	16.8716
413.681	11.4117
416.574	9.7392
419.467	3.23999
422.359	3.22125
425.252	0.575195
428.145	1.90222
431.037	3.05536
433.93	1.0274
436.823	2.3385
439.716	0.066406
442.608	0.725647
445.501	2.39886
448.394	5.75446
451.286	8.35614
454.179	7.17297
457.072	8.84912
459.964	6.95648
462.857	11.1295
465.75	14.0002
468.642	19.1712
471.535	22.4129
474.428	33.5829
477.321	41.0704
480.213	47.0997
483.106	54.8085
485.999	56.35
488.891	54.4636
491.784	53.9928
494.677	51.2146
497.57	45.8555
500.462	43.5337
503.355	40.9156
506.248	32.8761
509.14	29.8993
512.033	24.4174
514.926	21.9857
517.818	19.4567
520.711	21.5193
523.604	24.0413
526.496	29.0946
529.389	30.6618
532.282	33.5334
535.175	36.17
538.067	32.0032
540.96	27.6814
543.853	20.3256
546.745	19.1213
549.638	16.5969
552.531	11.5761
555.423	12.4646
558.316	12.4079
561.209	10.712
564.102	8.82758
566.994	6.2915
569.887	7.05127
572.78	5.49335
575.672	5.19623
578.565	0.44342
581.458	1.33142
584.351	0.428711
587.243	0.66394
590.136	0.740234
593.029	2.36072
595.921	1.1803
598.814	0.160706
601.707	0.489197
604.599	3.14734
607.492	0.749939
610.385	0.064941
613.278	0.152344
616.17	1.55365
619.063	9.17566
621.956	11.6471
624.848	15.8018
627.741	22.0449
630.634	27.0515
633.526	22.7609
636.419	14.6577
639.312	6.4823
642.205	9.39477
645.097	12.4516
647.99	12.8627
650.883	19.4884
653.775	25.6899
656.668	31.6484
659.561	36.3002
662.453	41.1491
665.346	48.9988
668.239	55.7375
671.131	60.4124
674.024	61.6502
676.917	55.7922
679.81	44.9053
682.702	34.9931
685.595	31.9086
688.488	34.9468
691.38	47.4485
694.273	63.0709
697.166	76.6965
700.058	95.2526
702.951	99.6525
705.844	89.0626
708.737	68.3068
711.629	38.8514
714.522	20.4335
717.415	6.67065
720.307	1.98468
723.2	3.27637
726.093	2.32434
728.986	3.16956
731.878	1.06189
734.771	4.31763
737.664	4.26941
740.556	11.3615
743.449	20.1845
746.342	31.1353
749.234	51.5552
752.127	72.1825
755.02	95.7321
757.913	110.179
760.805	108.833
763.698	93.3236
766.591	73.2347
769.483	62.4282
772.376	56.6196
775.269	51.9621
778.161	47.8898
781.054	48.6971
783.947	48.4388
786.84	50.8934
789.732	53.8262
792.625	59.1271
795.518	58.5876
798.41	58.9451
801.303	57.0088
804.196	54.3788
807.088	56.9753
809.981	61.3991
812.874	58.7797
815.766	62.7242
818.659	62.5944
821.552	61.7795
824.445	52.733
827.337	47.465
830.23	30.3182
833.123	26.2581
836.015	19.7148
838.908	10.7555
841.801	7.94818
844.693	4.38623
847.586	2.90595
850.479	4.91022
853.372	0.117554
856.264	1.00024
859.157	2.83185
862.05	2.54034
864.942	1.08203
867.835	3.32056
870.728	3.18774
873.62	6.16827
876.513	4.14319
879.406	4.35877
882.299	4.58093
885.191	5.90418
888.084	4.00415
890.977	5.8172
893.869	6.94367
896.762	7.01678
899.655	7.67029
902.548	8.64679
905.44	8.48206
908.333	7.68195
911.226	5.28271
914.118	6.07642
917.011	3.8634
919.904	1.62268
922.796	1.2326
925.689	1.91815
928.582	0.875244
931.475	0.15271
934.367	1.43146
937.26	3.13788
940.153	1.45319
943.045	6.28619
945.938	5.11578
948.831	5.8305
951.723	7.29327
954.616	10.7472
957.509	14.5024
960.402	15.647
963.294	17.0124
966.187	21.07
969.08	21.0841
971.972	20.7534
974.865	27.161
977.758	21.7382
980.65	26.0519
983.543	21.8128
986.436	16.2822
989.328	13.2226
992.221	5.64453
995.114	2.56195
998.007	1.19556
1000.9	0.465881
1003.79	3.78632
1006.68	1.7514
1009.58	2.5564
1012.47	7.51251
1015.36	11.7059
1018.25	17.7055
1021.15	21.5176
1024.04	29.3821
1026.93	32.4556
1029.83	45.8261
1032.72	48.5701
1035.61	57.2977
1038.5	59.8701
1041.4	62.0214
1044.29	70.1609
1047.18	69.9334
1050.08	67.2914
1052.97	68.5269
1055.86	66.7163
1058.75	68.2325
1061.65	63.9995
1064.54	68.1357
1067.43	66.0507
1070.32	66.4122
1073.22	61.1127
1076.11	59.5089
1079	49.6277
1081.89	37.1823
1084.79	28.5178
1087.68	24.6014
1090.57	16.6004
1093.47	11.5815
1096.36	6.07684
1099.25	5.55182
1102.14	4.21112
1105.04	3.73108
1107.93	2.64404
1110.82	1.01068
1113.71	0.230835
1116.61	3.90295
1119.5	5.12201
1122.39	6.96314
1125.29	8.20477
1128.18	9.19879
1131.07	13.2372
1133.96	9.45331
1136.86	7.99957
1139.75	2.19965
1142.64	3.9353
1145.53	0.235107
1148.43	2.11426
1151.32	0.827637
1154.21	4.4801
1157.11	0.900574
1160	3.11054
1162.89	0.744812
1165.78	0.521667
1168.68	1.97168
1171.57	0.793091
1174.46	2.97528
1177.35	3.85535
1180.25	3.36682
1183.14	1.172
1186.03	5.25378
1188.92	5.40808
1191.82	2.90839
1194.71	6.875
1197.6	5.38837
1200.5	5.72382
1203.39	4.61591
1206.28	6.06384
1209.17	5.61865
1212.07	6.41071
1214.96	7.44104
1217.85	5.66815
1220.74	7.62518
1223.64	12.1039
1226.53	12.791
1229.42	11.0508
1232.32	13.0327
1235.21	11.4119
1238.1	11.3615
1240.99	8.71582
1243.89	10.0698
1246.78	9.53217
1249.67	9.42334
1252.56	8.82214
1255.46	6.57867
1258.35	6.16913
1261.24	6.39111
1264.13	6.57776
1267.03	5.26953
1269.92	11.1075
1272.81	8.78455
1275.71	5.65942
1278.6	3.67114
1281.49	0.872131
1284.38	3.94202
1287.28	3.66559
1290.17	0.551819
1293.06	2.96753
1295.95	5.39636
1298.85	1.97485
1301.74	1.72278
1304.63	0
