Measurement: Raman, 514 nm, unoriented, Raman Data Processed
Mineral: Dravite
Rruff sample: R050077
Ideal chemistry: NaMg_3_Al_6_(Si_6_O_18_)(BO_3_)_3_(OH)_3_OH
Locality: Yinnietharra Station, Western Australia, Australia
Source: Rock Currier
Description: Dark brown euhedral prismatic single crystal
Measured chemistry: (Na_0.783_Ca_0.217_)(Mg_0.771_Fe^2+^_0.221_Ti^4+^_0.008_)_3_(Al_0.956_Mg_0.044_)_6_(BO_3_)_3_[Si_6_O_18_]((OH)_0.914_F_0.086_)_4_
Raman shift (cm-1)	intensity
100.34	0
104.516	120.557
108.691	107.933
112.864	196.796
117.034	577.984
121.203	131.677
125.369	32.966
129.534	143.923
133.696	439.013
137.857	1040.38
142.016	1269.07
146.172	1313.03
150.327	1098.33
154.48	870.938
158.63	337.724
162.779	132.401
166.926	123.216
171.07	153.116
175.213	61.289
179.354	173.286
183.493	642.75
187.63	1264.84
191.765	2219.38
195.898	3733.24
200.029	6408.79
204.158	11150.3
208.285	18336.8
212.41	23430.2
216.533	22445.5
220.654	17850.2
224.773	14623.5
228.891	14733
233.006	17731.7
237.119	23405.7
241.231	28310.8
245.34	26115.1
249.448	18578.6
253.553	11377.4
257.657	7362.02
261.758	5385
265.858	4050.47
269.956	3028.17
274.052	2162.88
278.146	1358.07
282.237	663.581
286.327	218.058
290.416	18.563
294.502	87.602
298.586	43.743
302.668	275.049
306.749	1168.07
310.827	2611.1
314.903	3466.12
318.978	2207.08
323.051	1225.96
327.121	1061.36
331.19	1470.06
335.257	2083.79
339.322	2866.78
343.385	3944.04
347.446	5244.14
351.505	7778.07
355.563	11747.8
359.618	19371.3
363.672	31193.6
367.723	41598.5
371.773	40348.3
375.821	29265.8
379.866	18790.1
383.91	12903.2
387.952	9991.17
391.992	8136.92
396.031	7525.48
400.067	7314.84
404.101	6992.18
408.134	6172.8
412.165	4770.88
416.193	3373.66
420.22	2239.94
424.245	1582.49
428.268	1201.72
432.289	876.517
436.309	702.532
440.326	498.25
444.342	414.672
448.355	362.801
452.367	295.64
456.377	419.526
460.385	442.479
464.391	698.482
468.395	1004.24
472.398	1499.73
476.398	1999.97
480.397	2428.92
484.394	2991.59
488.389	3620.96
492.382	3992.14
496.373	4262.36
500.362	4088.59
504.349	3335.54
508.335	3271.15
512.319	3337.41
516.3	2125.31
520.28	944.838
524.259	874.015
528.235	1000.88
532.209	1195.44
536.182	1298.89
540.152	1165.28
544.121	981.62
548.088	709.939
552.053	393.269
556.017	131.526
559.978	48.626
563.938	141.566
567.895	186.419
571.851	106.219
575.805	159.995
579.758	232.862
583.708	168.979
587.657	3.737
591.603	79.741
595.548	267.168
599.491	272.999
603.432	457.216
607.372	663.803
611.309	995.748
615.245	1394.07
619.179	2109.78
623.111	3259.83
627.041	5312.18
630.97	7487.82
634.896	7366.73
638.821	6829.91
642.744	7842.33
646.665	9418.99
650.584	10302.9
654.502	9917.94
658.418	9582.2
662.331	10358.6
666.244	11856.2
670.154	13667.9
674.062	13708.8
677.969	11866.3
681.874	9900.26
685.777	9227.52
689.678	9613.85
693.577	10779.7
697.475	13801.3
701.371	15680.7
705.265	13894.3
709.157	9044.96
713.047	5473.61
716.936	3307.58
720.823	2195.93
724.708	1711.82
728.591	1278.7
732.472	1189.17
736.352	1063.67
740.23	1052.75
744.106	1148.05
747.98	1306.79
751.853	1727.64
755.723	1864.94
759.592	1728.7
763.459	1488.23
767.325	1235.51
771.188	1066.54
775.05	1001.3
778.91	995.792
782.768	989.757
786.625	987.913
790.479	934.524
794.332	779.823
798.183	690.802
802.033	515.45
805.88	424.761
809.726	487.725
813.57	550.333
817.413	591.58
821.253	520.457
825.092	402.955
828.929	254.069
832.764	135.782
836.598	40.01
840.429	159.648
844.259	75.372
848.088	71.062
851.914	64.792
855.739	107.272
859.562	111.065
863.383	80.178
867.203	37.46
871.02	58.741
874.836	4.893
878.65	63.399
882.463	40.337
886.274	80.969
890.083	158.357
893.89	177.587
897.695	253.709
901.499	324.115
905.301	346.295
909.102	404.103
912.9	494.525
916.697	574.626
920.492	632.439
924.285	682.838
928.077	735.839
931.867	919.434
935.655	1066.63
939.442	1192.41
943.226	1388.77
947.009	1639.7
950.791	2001.2
954.57	2384.86
958.348	2660.93
962.124	2920.16
965.899	3040.98
969.671	2973.38
973.442	2939.37
977.211	2783.96
980.979	2700.14
984.745	2586.47
988.509	2568.88
992.271	2708.91
996.032	2871.49
999.791	3092.36
1003.55	3494.35
1007.3	4123.45
1011.06	4894.48
1014.81	5787.45
1018.56	7032.07
1022.31	8246.15
1026.06	8996.66
1029.8	9951.69
1033.55	10145.2
1037.29	10089.4
1041.03	10125.3
1044.77	9840.12
1048.5	9409.54
1052.24	9014.52
1055.97	7993.28
1059.7	7190.16
1063.43	6458.13
1067.16	5802.98
1070.89	5235.83
1074.61	4534.18
1078.34	3885.37
1082.06	3225.78
1085.78	2665.07
1089.5	2236.67
1093.21	1889.44
1096.93	1629.09
1100.64	1399.56
1104.35	1221.76
1108.06	1147.8
1111.77	1055.81
1115.48	842.77
1119.18	756.384
1122.89	802.874
1126.59	555.224
1130.29	339.385
1133.99	312.665
1137.68	226.733
1141.38	206.79
1145.07	243.898
1148.76	159.481
1152.45	114.324
1156.14	87.306
1159.83	99.646
1163.51	43.307
1167.19	35.214
1170.88	16.318
1174.56	7.458
1178.23	41.207
1181.91	17.971
1185.59	59.125
1189.26	5.271
1192.93	6.592
1196.6	28.518
1200.27	11.599
1203.94	79.868
1207.6	23.635
1211.27	23.041
1214.93	38.053
1218.59	24.659
1222.25	16.267
1225.9	11.745
1229.56	18.078
1233.21	6.286
1236.86	91.397
1240.51	63.442
1244.16	84.445
1247.81	103.409
1251.45	115.333
1255.1	128.219
1258.74	81.389
1262.38	103.88
1266.02	87.652
1269.66	198.385
1273.29	104.08
1276.93	81.739
1280.56	110.023
1284.19	114.944
1287.82	103.866
1291.45	97.997
1295.07	65.657
1298.7	118.717
1302.32	126.641
1305.94	98.576
1309.56	124.193
1313.18	80.016
1316.8	123.61
1320.41	132.955
1324.02	172.293
1327.63	227.432
1331.24	194.049
1334.85	217.339
1338.46	295.695
1342.06	260.629
1345.67	253.479
1349.27	200.852
1352.87	206.333
1356.47	186.319
1360.07	113.005
1363.66	170.94
1367.25	234.99
1370.85	165.751
1374.44	193.186
1378.03	216.404
1381.61	180.206
1385.2	171.689
1388.78	305.219
1392.37	306.557
1395.95	276.737
1399.53	325.993
1403.1	333.012
1406.68	263.994
1410.26	260.562
1413.83	269.179
1417.4	289.759
1420.97	268.175
1424.54	178.535
1428.1	228.933
1431.67	131.096
1435.23	84.191
1438.8	108.53
1442.36	100.388
1445.91	97.699
1449.47	91.292
1453.03	40.209
1456.58	14.229
1460.13	6.251
1463.68	3.303
1467.23	78.423
1470.78	32.679
1474.33	17.119
1477.87	19.189
1481.42	60.848
1484.96	48.204
1488.5	70.049
1492.04	89.023
1495.57	99.085
1499.11	137.628
1502.64	103.795
1506.17	122.914
1509.71	70.283
1513.23	88.342
1516.76	60.434
1520.29	0.22
