Measurement: Raman, 514 nm, unoriented, Raman Data Processed
Mineral: Dravite
Rruff sample: R050059
Ideal chemistry: NaMg_3_Al_6_(Si_6_O_18_)(BO_3_)_3_(OH)_3_OH
Locality: Nepal
Source: Rock Currier
Description: Dark brown single crystal
Measured chemistry: (Na_0.79_[box]_0.16_Ca_0.05_)_Σ=1_(Mg_2.44_Al_0.29_[box]_0.14_Fe^2+^_0.08_Ti_0.05_)_Σ=3_Al_6.00_(BO_3_)_3_Si_6.00_O_18_(OH)_4_ ; H_2_O assumed ideal from stoichiometry; B_2_O_3_ estimated by difference
Raman shift (cm-1)	intensity
110.082	0
114.254	181.333
118.424	365.131
122.592	474.61
126.758	721.906
130.922	941.85
135.083	1173.41
139.243	1484.82
143.401	1360.07
147.557	995.981
151.711	582.902
155.863	252.228
160.013	1.512
164.161	0.314
168.308	27.775
172.452	147.163
176.594	66.963
180.734	100.768
184.872	371.988
189.008	953.87
193.143	1757.72
197.275	3061.64
201.405	5404.23
205.534	10190.4
209.66	18293.8
213.784	26959.5
217.907	27736.3
222.027	21489
226.146	17298.9
230.263	16353.7
234.377	17876
238.49	20024.9
242.601	22260.2
246.709	20904
250.816	16651.3
254.921	12401.1
259.024	9322.59
263.125	7576.62
267.224	6495.55
271.321	5596.53
275.416	4031.41
279.51	2802.62
283.601	2114.3
287.69	1577.57
291.778	1335.11
295.863	981.758
299.947	1113.82
304.029	1456.61
308.108	2741.38
312.186	4702.64
316.262	3932.21
320.336	2023.05
324.408	1445.58
328.478	1309.7
332.546	1714.75
336.612	2161.85
340.677	3087.31
344.739	3982.63
348.799	5283.19
352.858	7509.74
356.915	11551.2
360.969	19530.7
365.022	33513
369.073	44127.2
373.122	37490.3
377.169	23983.2
381.215	14760
385.258	10028.6
389.299	7453.12
393.339	6216.45
397.376	5655.6
401.412	5136.16
405.446	5160.26
409.478	4540.89
413.508	3572.1
417.536	2620.68
421.562	1674.68
425.586	1339.38
429.609	1077.66
433.629	971.528
437.648	913.376
441.665	656.021
445.68	584.304
449.693	520.214
453.704	571.747
457.713	435.906
461.721	633.684
465.726	651.085
469.73	847.121
473.731	1369.79
477.731	1538.08
481.729	1903.98
485.725	2669.47
489.72	3301.61
493.712	3886.45
497.703	4261.98
501.691	4232.37
505.678	3885.3
509.663	3435.73
513.646	2707.63
517.627	2221.99
521.607	1446.81
525.584	1259.05
529.56	1285.72
533.534	1381.79
537.506	1479.26
541.476	1359.12
545.444	968.486
549.41	646.334
553.375	295.88
557.337	98.17
561.298	140.96
565.257	283.063
569.214	195.501
573.17	299.317
577.123	345.767
581.075	28.181
585.024	220.014
588.972	28.776
592.918	13.706
596.863	188.799
600.805	479.099
604.746	593.581
608.685	818.221
612.621	1009
616.557	1371.9
620.49	1685.93
624.421	1991.05
628.351	3441.27
632.279	5696.56
636.205	7570.93
640.129	6747.34
644.051	6458.78
647.972	7375.26
651.89	8597.75
655.807	9169.23
659.722	9160.7
663.636	9313.13
667.547	10793.5
671.457	13130.9
675.365	15266.1
679.271	14417.3
683.175	12947.4
687.077	11447.5
690.978	11568.4
694.877	13251.7
698.774	15709
702.669	17576.6
706.562	15291.2
710.454	10412.9
714.344	6335.21
718.232	4125.85
722.118	2923.45
726.002	2091.22
729.885	1935.14
733.766	1697.3
737.645	1500.79
741.522	1315.63
745.397	1472.95
749.271	1829.69
753.143	2213.42
757.013	2343.58
760.881	2083.04
764.748	1478.88
768.613	1041.45
772.476	876.759
776.337	1109.79
780.196	1143.53
784.054	1253.99
787.91	1331.16
791.764	1340.03
795.616	1497.59
799.467	1227.84
803.316	1228.78
807.163	1580.4
811.008	1996.78
814.851	2226.67
818.693	2143.3
822.533	1779.6
826.371	1451.57
830.208	1237.18
834.042	957.455
837.875	991.377
841.706	744.058
845.536	440.161
849.363	177.013
853.189	118.514
857.013	116.259
860.836	89.427
864.656	2.499
868.475	28.579
872.292	17.569
876.108	249.205
879.922	2.622
883.733	210.268
887.544	17.565
891.352	53.373
895.159	114.896
898.964	267.187
902.767	180.133
906.568	147.725
910.368	314.044
914.166	532.055
917.962	771.43
921.757	673.116
925.55	736.152
929.341	862.852
933.13	970.223
936.918	1114.28
940.703	1390.99
944.488	1475.36
948.27	1951.38
952.051	2231.06
955.83	2653.39
959.607	2831.37
963.383	3251.03
967.156	3621.39
970.928	4047.41
974.699	3747.08
978.468	3462.41
982.234	3477.4
986	3649.06
989.763	3510.38
993.525	3432.35
997.285	3614.14
1001.04	3876.37
1004.8	4396
1008.55	4948.7
1012.31	6013.1
1016.06	6676.78
1019.81	7746.23
1023.56	8787.67
1027.31	9632.05
1031.05	10337.8
1034.79	9955.53
1038.53	9464.14
1042.27	8756.8
1046.01	8302.75
1049.75	8054.43
1053.48	7525.71
1057.22	7232.51
1060.95	6181.79
1064.68	5883.76
1068.4	5653.28
1072.13	4999.65
1075.86	4302.97
1079.58	3601.74
1083.3	3047.22
1087.02	2461.55
1090.74	2067.4
1094.45	1610.45
1098.17	1358.99
1101.88	1205.91
1105.59	935.801
1109.3	818.807
1113.01	694.668
1116.71	607.117
1120.42	620.852
1124.12	536.207
1127.82	585.012
1131.52	528.688
1135.22	409.416
1138.91	460.584
1142.61	287.611
1146.3	169.205
1149.99	33.711
1153.68	228.682
1157.37	60.545
1161.06	167.094
1164.74	125.941
1168.42	196.428
1172.1	28.506
1175.78	110.818
1179.46	67.172
1183.14	83.326
1186.81	84.139
1190.48	43.961
1194.15	26.256
1197.83	61.455
1201.49	3.924
1205.16	35.994
1208.82	65.883
1212.49	124.934
1216.15	54.188
1219.81	125.291
1223.46	61.879
1227.12	74.211
1230.78	59.135
1234.43	196.406
1238.08	272.949
1241.73	379.564
1245.38	121.832
1249.03	112.711
1252.67	226.25
1256.31	300.436
1259.95	389.215
1263.6	286.602
1267.23	277.506
1270.87	136.791
1274.51	103.438
1278.14	76.422
1281.77	273.861
1285.4	236.85
1289.03	274.316
1292.66	37.947
1296.28	93.449
1299.91	38.131
1303.53	34.391
1307.15	75.969
1310.77	286.705
1314.38	189.021
1318	184.428
1321.61	48.643
1325.23	98.617
1328.84	7.275
1332.45	141.49
1336.06	94.615
1339.66	128.428
1343.27	51.916
1346.87	199.469
1350.47	68.412
1354.07	230.574
1357.67	454.199
1361.26	466.098
1364.86	342.916
1368.45	307.686
1372.04	249.123
1375.63	408.09
1379.22	113.215
1382.81	352.57
1386.39	446.951
1389.98	299.676
1393.56	352.219
1397.14	491.078
1400.72	413.9
1404.3	497.441
1407.87	311.078
1411.45	486.32
1415.02	499.811
1418.59	536.854
1422.16	586.096
1425.73	501.855
1429.29	310.896
1432.86	344.623
1436.42	469.588
1439.98	528.186
1443.54	288.908
1447.1	263.973
1450.66	338.885
1454.21	324.994
1457.77	359.213
1461.32	605.396
1464.87	571.055
1468.42	367.553
1471.96	398.033
1475.51	318.654
1479.06	333.01
1482.6	171.76
1486.14	145.068
1489.68	218.441
1493.22	321.211
1496.75	261.164
1500.29	164.1
1503.82	158.543
1507.35	358.318
1510.88	165.07
1514.41	31.129
