Measurement: Raman, 532 nm, unoriented, Raman Data Processed
Mineral: Dreyerite
Rruff sample: R130060
Ideal chemistry: Bi^3+^V^5+^O_4_
Locality: Ritter mine, Schneeberg District, Erzgebirge, Saxony, Germany
Source: William W. Pinch
Description: Greenish-yellow tetragonal crystals, associated with waylandite and bismutite
Raman shift (cm-1)	intensity
155.412	0
158.304	17.0861
161.197	39.3122
164.09	74.6138
166.982	40.1961
169.875	6.07479
172.768	10.5074
175.661	15.4064
178.553	109.957
181.446	281.229
184.339	493.749
187.231	718.015
190.124	971.298
193.017	1329.1
195.909	1707.51
198.802	2094.66
201.695	2470.03
204.588	2809.45
207.48	3048.79
210.373	3073.39
213.266	2852.93
216.158	2424.96
219.051	1952.17
221.944	1529.36
224.836	1207.85
227.729	1003.48
230.622	873.229
233.514	794.956
236.407	751.359
239.3	767.385
242.193	868.79
245.085	1015.25
247.978	953.421
250.871	579.343
253.763	318.856
256.656	201.199
259.549	141.281
262.442	106.549
265.334	82.6528
268.227	68.6719
271.12	50.2993
274.012	34.4753
276.905	14.6107
279.798	2.5166
282.69	19.4842
285.583	26.1903
288.476	24.3053
291.368	16.4143
294.261	4.84924
297.154	46.7668
300.047	109.813
302.939	194.988
305.832	317.65
308.725	487.676
311.617	691.336
314.51	924.596
317.403	1194.84
320.296	1485.01
323.188	1751.34
326.081	1903.47
328.974	1836.29
331.866	1595.17
334.759	1326.28
337.652	1135.92
340.544	1045.62
343.437	1063.2
346.33	1170.18
349.223	1361.82
352.115	1637.64
355.008	1955.62
357.901	2318.04
360.793	2695.84
363.686	2999
366.579	3054.01
369.471	2756.52
372.364	2241.18
375.257	1718.4
378.149	1317.45
381.042	992.122
383.935	726.682
386.828	537.254
389.72	417.41
392.613	322.295
395.506	257.282
398.398	204.034
401.291	153.968
404.184	108.263
407.077	67.3729
409.969	34.0488
412.862	17.1301
415.755	5.5094
418.647	17.5947
421.54	20.0162
424.433	15.4685
427.325	6.82025
430.218	1.42261
433.111	8.76752
436.003	24.3964
438.896	48.3397
441.789	64.8699
444.682	76.3984
447.574	77.6003
450.467	71.1918
453.36	64.2261
456.252	65.169
459.145	72.129
462.038	77.9206
464.93	85.8055
467.823	95.3483
470.716	111.676
473.609	118.032
476.501	121.55
479.394	114.577
482.287	97.1818
485.179	67.5713
488.072	43.9459
490.965	23.0394
493.858	11.9832
496.75	2.95459
499.643	0.011353
502.536	1.26398
505.428	4.53253
508.321	5.80951
511.214	5.33313
514.106	3.41242
516.999	4.76367
519.892	0.343323
522.784	1.42432
525.677	4.18585
528.57	6.02948
531.463	6.98938
534.355	14.1732
537.248	18.6771
540.141	23.0087
543.033	26.1137
545.926	32.8255
548.819	40.9543
551.712	48.9613
554.604	53.8958
557.497	63.8835
560.39	71.0306
563.282	75.11
566.175	80.8612
569.068	83.6261
571.96	92.7927
574.853	92.2721
577.746	92.796
580.639	97.1333
583.531	97.8897
586.424	100.378
589.317	110.432
592.209	110.586
595.102	109.885
597.995	118.397
600.888	123.422
603.78	129.439
606.673	137.924
609.566	147.293
612.458	161.055
615.351	166.843
618.244	176.438
621.136	181.829
624.029	180.599
626.922	181.138
629.814	178.039
632.707	178.156
635.6	171.744
638.493	161.059
641.385	144.361
644.278	128.839
647.171	106.899
650.063	84.9569
652.956	63.9711
655.849	43.0151
658.741	25.9236
661.634	13.3007
664.527	5.90662
667.42	5.01721
670.312	0.690857
673.205	11.9335
676.098	44.3025
678.99	75.6533
681.883	119.081
684.776	152.519
687.668	181.239
690.561	202.321
693.454	222.734
696.347	239.306
699.239	250.801
702.132	260.628
705.025	264.008
707.917	257.173
710.81	236.488
713.703	198.673
716.596	161.361
719.488	124.696
722.381	74.0564
725.274	29.1038
728.166	15.1335
731.059	53.5874
733.952	86.9556
736.844	108.346
739.737	100.037
742.63	61.2383
745.523	11.8457
748.415	104.548
751.308	204.705
754.201	303.72
757.093	380.68
759.986	426.792
762.879	467.712
765.771	511.623
768.664	579.888
771.557	694.8
774.449	861.461
777.342	1070.13
780.235	1326.98
783.128	1633.94
786.02	2002.62
788.913	2426.96
791.806	2942.41
794.698	3532.58
797.591	4191.95
800.484	4974.74
803.376	5863.12
806.269	6882.4
809.162	8020.3
812.055	9145.66
814.947	10299.5
817.84	11317.2
820.733	12164.2
823.625	12591.9
826.518	12554.6
829.411	12015.5
832.303	11193.9
835.196	10204.3
838.089	9169.59
840.982	8336.1
843.874	7635.59
846.767	7157.95
849.66	6786.29
852.552	6319.22
855.445	5510.02
858.338	4422.07
861.231	3323.39
864.123	2423.91
867.016	1758.94
869.909	1275.49
872.801	914.456
875.694	655.99
878.587	460.227
881.479	311.216
884.372	199.037
887.265	116.943
890.158	55.2112
893.05	9.6908
895.943	19.3124
898.836	41.6088
901.728	53.6295
904.621	58.2349
907.514	60.7042
910.406	56.4023
913.299	43.4979
916.192	29.5466
919.085	12.8095
921.977	5.26758
924.87	25.6909
927.763	42.9329
930.655	63.714
933.548	82.3552
936.441	102.806
939.333	121.282
942.226	141.786
945.119	157.538
948.011	174.114
950.904	191.204
953.797	204.478
956.69	210.506
959.582	219.115
962.475	221.184
965.368	213.752
968.26	204.173
971.153	193.355
974.046	181.907
976.938	170.851
979.831	161.147
982.724	153.784
985.617	151.018
988.509	147.566
991.402	141.664
994.295	137.326
997.187	133.891
1000.08	132.18
1002.97	127.314
1005.87	121.084
1008.76	114.738
1011.65	110.294
1014.54	102.218
1017.44	95.9988
1020.33	89.3757
1023.22	82.6168
1026.11	84.8533
1029.01	71.664
1031.9	66.7861
1034.79	61.7443
1037.68	55.7222
1040.58	51.99
1043.47	50.0826
1046.36	47.9673
1049.26	44.0926
1052.15	38.6501
1055.04	34.625
1057.93	32.5857
1060.83	26.8945
1063.72	26.2983
1066.61	23.4667
1069.51	22.9215
1072.4	18.2845
1075.29	15.8718
1078.18	14.0006
1081.08	12.6798
1083.97	12.5761
1086.86	12.8527
1089.75	10.6883
1092.65	9.74353
1095.54	7.26623
1098.43	6.25082
1101.33	6.90533
1104.22	5.14654
1107.11	4.54623
1110	2.78861
1112.89	3.54504
1115.79	4.3356
1118.68	0.305603
1121.57	0.344025
1124.47	0.075562
1127.36	2.49432
1130.25	0.561676
1133.14	1.77304
1136.04	1.76926
1138.93	4.20502
1141.82	3.92007
1144.71	3.16437
1147.61	3.63113
1150.5	1.6727
1153.39	2.8847
1156.29	0.028687
1159.18	3.09988
1162.07	0.258942
1164.96	1.84296
1167.86	4.59943
1170.75	3.42966
1173.64	4.70926
1176.54	6.70398
1179.43	5.39325
1182.32	7.46121
1185.21	7.26874
1188.11	8.52325
1191	6.90048
1193.89	8.75055
1196.78	10.9148
1199.68	12.9656
1202.57	9.80634
1205.46	12.5969
1208.35	12.054
1211.25	11.6891
1214.14	10.7072
1217.03	10.2079
1219.92	8.87314
1222.82	8.72275
1225.71	7.13168
1228.6	6.67481
1231.5	23.1795
1234.39	6.28168
1237.28	5.61749
1240.17	3.09366
1243.07	4.98001
1245.96	5.27911
1248.85	3.64731
1251.74	5.1619
1254.64	2.92157
1257.53	2.07104
1260.42	5.00674
1263.32	1.4223
1266.21	3.57605
1269.1	3.55804
1271.99	1.14737
1274.89	0.981445
1277.78	1.33066
1280.67	3.66287
1283.57	1.10303
1286.46	2.42789
1289.35	0.993134
1292.24	1.22293
1295.13	0.78479
1298.03	1.01193
1300.92	0.014008
