Measurement: Raman, 780 nm, unoriented, Raman Data Processed
Mineral: Dreyerite
Rruff sample: R140327
Ideal chemistry: Bi^3+^V^5+^O_4_
Locality: Ritter mine, Schneeberg District, Erzgebirge, Saxony, Germany
Source: William W. Pinch
Description: Clear crystal, associated with milky crystal of dreyerite R130060.
Raman shift (cm-1)	intensity
91.1996	0
94.5744	580.01
97.9492	662.186
101.324	811.05
104.699	1096.84
108.074	1380.36
111.448	1564.75
114.823	1705.65
118.198	1669.43
121.573	1315.69
124.948	816.135
128.322	427.766
131.697	172.576
135.072	21.9995
138.447	53.6567
141.822	85.7358
145.197	86.0366
148.571	64.573
151.946	37.386
155.321	155.682
158.696	295.346
162.071	436.656
165.446	569.868
168.82	722.833
172.195	875.75
175.57	1040.25
178.945	1164.69
182.32	1277.94
185.694	1371.02
189.069	1438.4
192.444	1465.51
195.819	1392.35
199.194	1213.99
202.569	1015.56
205.943	820.357
209.318	652.147
212.693	550.159
216.068	504.357
219.442	530.179
222.817	697.095
226.192	1065.05
229.567	1642.54
232.942	2191.66
236.317	2907.35
239.691	3975.99
243.066	5526
246.441	6856.6
249.816	5607.06
253.191	3002.37
256.565	1585.99
259.94	980.292
263.315	675.474
266.69	513.094
270.065	413.317
273.44	344.877
276.814	292.632
280.189	242.941
283.564	185.86
286.939	138.234
290.314	85.4487
293.688	29.0083
297.063	11.6352
300.438	46.8809
303.813	66.7876
307.188	88.5942
310.562	101.138
313.937	87.4253
317.312	42.4404
320.687	18.1196
324.062	90.0947
327.437	207.973
330.811	344.485
334.186	547.312
337.561	810.582
340.936	1114.33
344.311	1510.33
347.685	1970.13
351.06	2439.16
354.435	2903.94
357.81	3304.3
361.185	3609.79
364.56	3734.86
367.934	3662.18
371.309	3355.44
374.684	2897.5
378.059	2439
381.434	2043.64
384.808	1774.67
388.183	1606.01
391.558	1550.02
394.933	1573.97
398.308	1670.64
401.683	1819.8
405.057	2034.22
408.432	2226.9
411.807	2472.77
415.182	2730
418.557	2950.14
421.931	3184.45
425.306	3302.78
428.681	3268.77
432.056	3126.39
435.431	2905.21
438.805	2652.08
442.18	2398.21
445.555	2098.49
448.93	1812.26
452.305	1546.56
455.68	1258.17
459.054	1012.78
462.429	772.656
465.804	554.152
469.179	398.292
472.554	262.498
475.928	157.419
479.303	74.9228
482.678	34.8657
486.053	15.2754
489.428	46.3643
492.803	66.3408
496.177	68.3706
499.552	77.9497
502.927	51.3184
506.302	27.4683
509.677	0.456055
513.051	23.9868
516.426	59.835
519.801	86.4399
523.176	97.8477
526.551	117.04
529.926	110.791
533.3	112.81
536.675	112.707
540.05	118.534
543.425	101.56
546.799	98.6548
550.174	97.707
553.549	98.2104
556.924	74.5698
560.299	64.5815
563.674	54.5884
567.048	110.155
570.423	85.5952
573.798	101.392
577.173	111.634
580.548	137.989
583.923	149.923
587.297	176.26
590.672	209.471
594.047	231.304
597.422	261.45
600.797	285.723
604.171	306.577
607.546	300.143
610.921	313.4
614.296	306.866
617.671	306.721
621.045	292.178
624.42	279.46
627.795	272.211
631.17	259.538
634.545	265.031
637.919	273.038
641.294	276.476
644.669	285.487
648.044	283.635
651.419	283.361
654.794	260.964
658.168	250.984
661.543	225.072
664.918	197.788
668.293	181.197
671.668	156.943
675.043	132.197
678.417	108.748
681.792	70.5525
685.167	38.9111
688.542	9.31567
691.917	21.1619
695.291	53.3857
698.666	62.4641
702.041	77.1902
705.416	74.3948
708.791	55.4282
712.165	25.4714
715.54	31.228
718.915	115.752
722.29	228.425
725.665	345.968
729.039	501.831
732.414	670.125
735.789	863.319
739.164	1081.39
742.539	1304.59
745.914	1478.29
749.288	1591.16
752.663	1577.53
756.038	1499.2
759.413	1397.36
762.788	1294.82
766.163	1243.82
769.537	1194.65
772.912	1204.84
776.287	1244.3
779.662	1284.88
783.037	1311.94
786.411	1347.97
789.786	1353.51
793.161	1309.54
796.536	1219.66
799.911	1100.36
803.285	961.355
806.66	833.031
810.035	708.659
813.41	632.053
816.785	666.843
820.159	763.064
823.534	1004.87
826.909	1419.46
830.284	2025.72
833.659	2871.5
837.034	3988.54
840.408	5300.55
843.783	6635.65
847.158	7692.89
850.533	8066.39
853.908	7410.27
857.283	6065.23
860.657	4517.82
864.032	3214.17
867.407	2210.16
870.782	1511.96
874.157	992.326
877.531	626.67
880.906	394.247
884.281	234.294
887.656	109.087
891.031	29.6773
894.405	22.1705
897.78	51.6172
901.155	63.9259
904.53	65.0621
907.905	60.7751
911.279	51.2096
914.654	32.0429
918.029	3.42456
921.404	19.5166
924.779	49.8243
928.154	77.7844
931.528	110.851
934.903	135.145
938.278	160.471
941.653	190
945.028	213.545
948.403	245.308
951.777	264.266
955.152	279.487
958.527	292.691
961.902	290.26
965.277	283.98
968.651	272.113
972.026	255.807
975.401	240.304
978.776	231.64
982.151	225.524
985.525	212.581
988.9	208.643
992.275	200.551
995.65	194.419
999.025	188.386
1002.4	179.707
1005.77	170.958
1009.15	166.25
1012.52	153.482
1015.9	147.731
1019.27	138.65
1022.65	129.075
1026.02	121.673
1029.4	115.747
1032.77	104.085
1036.15	98.4217
1039.52	88.7758
1042.9	81.5482
1046.27	75.3168
1049.65	65.5512
1053.02	56.7018
1056.4	51.1561
1059.77	45.9318
1063.15	36.4194
1066.52	28.9664
1069.9	23.6166
1073.27	14.9349
1076.64	11.6289
1080.02	5.09821
1083.39	2.48846
1086.77	0.259827
1090.14	1.99219
1093.52	0.274597
1096.89	1.37561
1100.27	0.049377
1103.64	1.00012
1107.02	0.821899
1110.39	0.653198
1113.77	1.67316
1117.14	3.8288
1120.52	0.157349
1123.89	2.10168
1127.27	1.08221
1130.64	1.6023
1134.02	2.64508
1137.39	2.08337
1140.77	4.19775
1144.14	1.99835
1147.52	1.73035
1150.89	1.25287
1154.27	1.28381
1157.64	1.7019
1161.02	1.05072
1164.39	0.369202
1167.77	4.20019
1171.14	7.44208
1174.52	13.7557
1177.89	19.5013
1181.27	20.9566
1184.64	24.8096
1188.01	27.9857
1191.39	34.0482
1194.76	35.0481
1198.14	39.7974
1201.51	39.4514
1204.89	36.7134
1208.26	31.3038
1211.64	45.229
1215.01	23.9882
1218.39	13.7059
1221.76	5.98749
1225.14	5.75458
1228.51	3.79498
1231.89	0.243347
1235.26	3.80005
1238.64	5.71094
1242.01	15.1887
1245.39	21.9309
1248.76	26.7106
1252.14	31.318
1255.51	33.2756
1258.88	29.6802
1262.26	25.9265
1265.63	33.5686
1269.01	21.9325
1272.38	17.8046
1275.76	6.48621
1279.13	5.02087
1282.51	0.616699
