Measurement: Raman, 532 nm, unoriented, Raman Data Processed
Mineral: Dreyerite
Rruff sample: R140327
Ideal chemistry: Bi^3+^V^5+^O_4_
Locality: Ritter mine, Schneeberg District, Erzgebirge, Saxony, Germany
Source: William W. Pinch
Description: Clear crystal, associated with milky crystal of dreyerite R130060.
Raman shift (cm-1)	intensity
198.802	0
201.695	3.75247
204.588	16.6902
207.48	27.4255
210.373	24.8451
213.266	16.5768
216.158	14.5493
219.051	19.0487
221.944	31.5886
224.836	50.1944
227.729	77.4131
230.622	115.625
233.514	148.727
236.407	190.033
239.3	249.363
242.193	349.891
245.085	488.183
247.978	548.074
250.871	383.347
253.763	199.698
256.656	105.992
259.549	65.4252
262.442	43.1827
265.334	34.7738
268.227	32.7179
271.12	25.785
274.012	25.2608
276.905	21.5808
279.798	16.7755
282.69	12.4668
285.583	5.79483
288.476	3.75348
291.368	0.399811
294.261	5.17136
297.154	4.06198
300.047	4.33435
302.939	2.59506
305.832	1.62024
308.725	7.14465
311.617	15.8451
314.51	27.2096
317.403	40.2788
320.296	53.1731
323.188	75.0235
326.081	100.647
328.974	134.065
331.866	170.334
334.759	219.225
337.652	271.611
340.544	339.116
343.437	416.365
346.33	507.61
349.223	604.998
352.115	706.466
355.008	810.154
357.901	899.469
360.793	970.085
363.686	1008.89
366.579	991.536
369.471	920.056
372.364	796.319
375.257	651.952
378.149	506.431
381.042	376.547
383.935	272.605
386.828	195.649
389.72	138.617
392.613	94.3361
395.506	64.4822
398.398	42.9969
401.291	27.7289
404.184	17.6334
407.077	9.28183
409.969	0.317352
412.862	1.50482
415.755	5.70584
418.647	5.86536
421.54	0.826569
424.433	12.4353
427.325	22.8007
430.218	35.9438
433.111	55.454
436.003	76.02
438.896	97.5123
441.789	123.156
444.682	143.377
447.574	147.369
450.467	138.387
453.36	120.524
456.252	106.856
459.145	101.712
462.038	101.868
464.93	104.895
467.823	112.755
470.716	122.051
473.609	128.133
476.501	137.011
479.394	140.476
482.287	136.361
485.179	128.674
488.072	102.562
490.965	82.352
493.858	62.3321
496.75	46.5046
499.643	34.5516
502.536	22.4157
505.428	15.0427
508.321	10.3208
511.214	6.89763
514.106	2.39606
516.999	0.247055
519.892	0.342255
522.784	1.60167
525.677	1.8269
528.57	1.35031
531.463	0.577713
534.355	2.03186
537.248	3.54742
540.141	5.74377
543.033	8.71783
545.926	12.4823
548.819	17.1433
551.712	21.658
554.604	25.8267
557.497	30.3531
560.39	34.124
563.282	36.306
566.175	38.8039
569.068	38.8882
571.96	38.9181
574.853	36.9094
577.746	35.1938
580.639	32.8072
583.531	31.325
586.424	30.7734
589.317	27.282
592.209	27.4158
595.102	25.2149
597.995	23.9607
600.888	20.6671
603.78	16.4262
606.673	15.3062
609.566	13.0149
612.458	10.5709
615.351	7.5997
618.244	6.48212
621.136	5.42014
624.029	2.12058
626.922	0.54213
629.814	0.621353
632.707	0.546661
635.6	0.774307
638.493	2.11478
641.385	4.00638
644.278	2.54217
647.171	0.730865
650.063	0.412811
652.956	1.32889
655.849	4.67191
658.741	9.17136
661.634	13.5606
664.527	18.9452
667.42	27.6086
670.312	35.1166
673.205	40.32
676.098	48.0796
678.99	53.7917
681.883	57.5668
684.776	60.3965
687.668	64.2282
690.561	66.5717
693.454	68.9789
696.347	59.1613
699.239	54.6982
702.132	53.4088
705.025	51.7867
707.917	54.2194
710.81	57.7885
713.703	62.7433
716.596	72.3238
719.488	83.345
722.381	96.7312
725.274	108.757
728.166	114.249
731.059	106.759
733.952	101.156
736.844	98.5808
739.737	98.5356
742.63	106.433
745.523	120.954
748.415	136.91
751.308	147.108
754.201	144.789
757.093	131.878
759.986	106.881
762.879	79.25
765.771	47.4147
768.664	23.3538
771.557	4.89716
774.449	8.29083
777.342	15.3957
780.235	14.0798
783.128	11.9497
786.02	8.45044
788.913	2.13885
791.806	17.0929
794.698	30.6054
797.591	45.3386
800.484	63.4423
803.376	81.642
806.269	110.95
809.162	148.115
812.055	194.354
814.947	259.288
817.84	347.169
820.733	462.551
823.625	620.971
826.518	808.52
829.411	1058.34
832.303	1390.07
835.196	1827.19
838.089	2371.78
840.982	3037.82
843.874	3783.95
846.767	4518.97
849.66	5056.88
852.552	5219.82
855.445	4857.73
858.338	4086.74
861.231	3189.58
864.123	2397.15
867.016	1791.33
869.909	1345.87
872.801	1021.3
875.694	786.543
878.587	616.028
881.479	490.574
884.372	392.633
887.265	313.055
890.158	255.368
893.05	207.815
895.943	163.253
898.836	131.484
901.728	101.839
904.621	74.6761
907.514	55.6895
910.406	40.0315
913.299	27.4112
916.192	16.3012
919.085	6.92706
921.977	2.37732
924.87	1.22961
927.763	3.24698
930.655	4.33008
933.548	5.34343
936.441	4.45499
939.333	6.16336
942.226	4.41688
945.119	5.04292
948.011	3.22319
950.904	2.1665
953.797	0.045013
956.69	1.60933
959.582	3.89894
962.475	6.14699
965.368	9.79135
968.26	11.4889
971.153	13.1587
974.046	15.9773
976.938	17.4984
979.831	20.1266
982.724	22.0934
985.617	24.8783
988.509	27.0476
991.402	28.3612
994.295	28.6297
997.187	29.5944
1000.08	31.1713
1002.97	30.7132
1005.87	29.0602
1008.76	28.3883
1011.65	27.9293
1014.54	27.2983
1017.44	26.3305
1020.33	26.2955
1023.22	25.6022
1026.11	26.4483
1029.01	26.8097
1031.9	25.8593
1034.79	25.5859
1037.68	25.622
1040.58	25.0025
1043.47	25.3191
1046.36	25.5245
1049.26	24.2534
1052.15	23.0562
1055.04	21.0762
1057.93	20.018
1060.83	19.8597
1063.72	18.0027
1066.61	15.7258
1069.51	21.4169
1072.4	13.7734
1075.29	12.0485
1078.18	18.3812
1081.08	8.90389
1083.97	7.13237
1086.86	6.22499
1089.75	5.73164
1092.65	5.35339
1095.54	4.33518
1098.43	3.04539
1101.33	2.70636
1104.22	1.25794
1107.11	1.66969
1110	1.51759
1112.89	1.48655
1115.79	1.26676
1118.68	1.4696
1121.57	4.90106
1124.47	0.625854
1127.36	1.17157
1130.25	0.259377
1133.14	0.021698
1136.04	0.589676
1138.93	0.161781
1141.82	0.106331
1144.71	0.661186
1147.61	0.466255
1150.5	0.392357
1153.39	2.02965
1156.29	0.252037
1159.18	1.02959
1162.07	0.160179
1164.96	0.353043
1167.86	0.483871
1170.75	0.153702
1173.64	1.15088
1176.54	1.46207
1179.43	1.7925
1182.32	1.56691
1185.21	2.72449
1188.11	2.97394
1191	3.4643
1193.89	4.88502
1196.78	3.80849
1199.68	4.8907
1202.57	4.99116
1205.46	5.09077
1208.35	4.50688
1211.25	4.84065
1214.14	4.48147
1217.03	4.52611
1219.92	3.10323
1222.82	3.76222
1225.71	3.39056
1228.6	2.13222
1231.5	1.69024
1234.39	1.28097
1237.28	0.829163
1240.17	0.808926
1243.07	1.19297
1245.96	0.954391
1248.85	0.841419
1251.74	0.096546
1254.64	0.773739
1257.53	0.095329
1260.42	0.577621
1263.32	0.110378
1266.21	0.531956
1269.1	0.804775
1271.99	0.504414
1274.89	1.11065
1277.78	0.583244
1280.67	0.790409
1283.57	1.16908
1286.46	0.836754
1289.35	0.740314
1292.24	1.1883
1295.13	0.721569
1298.03	0.919479
1300.92	0.69849
