Measurement: Raman, 780 nm, unoriented, Raman Data Processed
Mineral: Dreyerite
Rruff sample: R130060
Ideal chemistry: Bi^3+^V^5+^O_4_
Locality: Ritter mine, Schneeberg District, Erzgebirge, Saxony, Germany
Source: William W. Pinch
Description: Greenish-yellow tetragonal crystals, associated with waylandite and bismutite
Raman shift (cm-1)	intensity
176.052	0
178.945	0.700684
181.838	79.0396
184.73	267.329
187.623	532.618
190.516	875.833
193.408	1245.55
196.301	1625.19
199.194	2013.39
202.086	2375.94
204.979	2623.88
207.872	2668.83
210.764	2457.22
213.657	1981.79
216.55	1429.62
219.442	974.534
222.335	625.869
225.228	402.644
228.121	302.198
231.013	249.661
233.906	255.686
236.799	334.93
239.691	495.729
242.584	754.345
245.477	1020.34
248.369	899.416
251.262	377.447
254.155	60.5073
257.048	42.1167
259.94	65.7246
262.833	51.0347
265.726	38.0405
268.618	16.6528
271.511	5.98584
274.404	7.35547
277.296	9.39453
280.189	7.8999
283.082	8.52588
285.975	42.7944
288.867	114.071
291.76	226.406
294.653	391.911
297.545	600.8
300.438	885.47
303.331	1253.59
306.224	1733.58
309.116	2317.29
312.009	2968.74
314.902	3671.5
317.794	4393.69
320.687	5114.53
323.58	5695.47
326.472	5969.79
329.365	5786.19
332.258	5179.25
335.151	4449.77
338.043	3853.78
340.936	3499.16
343.829	3397.12
346.721	3505
349.614	3756.05
352.507	4106.28
355.399	4524.67
358.292	4944.39
361.185	5254.18
364.077	5308.69
366.97	4945.26
369.863	4230.08
372.755	3356.97
375.648	2612.41
378.541	2028.57
381.434	1595.77
384.326	1233.61
387.219	960.902
390.112	748.899
393.004	587.365
395.897	472.8
398.79	373.817
401.683	272.919
404.575	189.743
407.468	131.125
410.361	83.8897
413.253	54.6616
416.146	28.2087
419.039	25.5813
421.931	18.2925
424.824	27.8147
427.717	28.2922
430.61	14.1021
433.502	5.73315
436.395	27.9753
439.288	39.2056
442.18	32.3298
445.073	31.4851
447.966	20.3108
450.858	17.5708
453.751	11.7876
456.644	0.471191
459.536	7.9541
462.429	16.3984
465.322	20.7856
468.215	31.0769
471.107	40.1604
474	46.3372
476.893	55.0381
479.785	67.3533
482.678	76.2944
485.571	84.6611
488.463	92.1819
491.356	100.547
494.249	94.2637
497.142	95.4314
500.034	88.1704
502.927	84.0264
505.82	75.2324
508.712	72.5281
511.605	68.2415
514.498	62.6348
517.39	58.856
520.283	51.8568
523.176	45.939
526.068	44.7429
528.961	39.582
531.854	33.3037
534.747	22.6522
537.639	21.1592
540.532	17.9678
543.425	13.9944
546.317	15.2279
549.21	11.8113
552.103	12.8606
554.995	13.1791
557.888	16.5508
560.781	20.3766
563.674	24.0615
566.566	32.8507
569.459	35.3796
572.352	36.7815
575.244	49.1896
578.137	58.7102
581.03	67.3768
583.923	75.4065
586.815	86.7756
589.708	91.1522
592.601	90.2089
595.493	94.269
598.386	103.938
601.279	110.68
604.171	125.625
607.064	140.475
609.957	160.101
612.85	183.448
615.742	206.294
618.635	225.149
621.528	244.114
624.42	257.961
627.313	277.499
630.206	286.695
633.098	299.216
635.991	307.125
638.884	302.473
641.776	280.649
644.669	251.94
647.562	209.836
650.455	163.264
653.347	112.55
656.24	75.0891
659.133	42.3063
662.025	15.0693
664.918	2.42664
667.811	7.80981
670.703	11.41
673.596	3.84778
676.489	33.3991
679.381	74.1338
682.274	118.328
685.167	162.774
688.06	202.257
690.952	235.97
693.845	268.116
696.738	292.216
699.63	310.834
702.523	317.972
705.416	313.862
708.308	304.41
711.201	283.931
714.094	254.302
716.987	206.249
719.879	164.054
722.772	108.78
725.665	55.8392
728.557	10.8445
731.45	37.2361
734.343	65.0188
737.236	78.6311
740.128	73.5876
743.021	46.5056
745.914	5.58179
748.806	52.544
751.699	112.681
754.592	150.945
757.484	181.708
760.377	190.641
763.27	206.598
766.163	229.75
769.055	288.796
771.948	381.678
774.841	505.845
777.733	661.441
780.626	862.043
783.519	1110.37
786.411	1410.48
789.304	1751.48
792.197	2138.44
795.089	2587.46
797.982	3094.3
800.875	3661.42
803.768	4315.89
806.66	5051.85
809.553	5782.33
812.446	6486.56
815.338	7165.32
818.231	7706.83
821.124	8076.59
824.016	8197.97
826.909	8069.5
829.802	7688.59
832.694	7138.59
835.587	6560.6
838.48	5999.15
841.373	5510.56
844.265	5157.48
847.158	4907
850.051	4666.49
852.943	4288.78
855.836	3685.16
858.729	2971.75
861.621	2274.09
864.514	1710.29
867.407	1283.81
870.3	967.662
873.192	718.707
876.085	530.011
878.978	388.38
881.87	281.652
884.763	199.01
887.656	126.938
890.548	75.3945
893.441	37.7152
896.334	4.80701
899.227	18.2268
902.119	29.4464
905.012	39.1776
907.905	41.0675
910.797	44.4504
913.69	35.8459
916.583	26.9867
919.476	18.0272
922.368	7.34357
925.261	4.11841
928.154	22.1901
931.046	36.226
933.939	50.0013
936.832	63.2609
939.724	76.4509
942.617	92.397
945.51	105.158
948.403	119.731
951.295	131.881
954.188	145.273
957.081	154.651
959.973	164.561
962.866	170.404
965.759	167.792
968.651	163.966
971.544	156.085
974.437	151.617
977.329	144.546
980.222	134.429
983.115	130.142
986.008	128.489
988.9	122.708
991.793	123.201
994.686	120.255
997.578	113.751
1000.47	111.079
1003.36	106.109
1006.26	101.902
1009.15	96.9023
1012.04	92.8901
1014.93	89.4946
1017.83	81.8452
1020.72	78.3816
1023.61	73.3206
1026.51	68.5387
1029.4	65.7384
1032.29	57.6038
1035.18	59.5248
1038.08	55.1383
1040.97	47.4824
1043.86	45.9979
1046.75	41.1969
1049.65	38.2267
1052.54	36.3107
1055.43	32.806
1058.33	30.3558
1061.22	28.7326
1064.11	25.2225
1067	20.7386
1069.9	32.9984
1072.79	15.6108
1075.68	13.5083
1078.57	13.1839
1081.47	10.458
1084.36	7.83905
1087.25	8.56525
1090.14	6.85016
1093.04	4.86835
1095.93	3.18063
1098.82	3.50201
1101.71	2.68057
1104.61	0.013397
1107.5	2.3638
1110.39	0.578796
1113.29	1.16589
1116.18	1.71884
1119.07	2.21805
1121.96	1.93356
1124.86	2.82202
1127.75	2.27524
1130.64	1.41019
1133.54	0.408783
1136.43	3.56097
1139.32	0.09024
1142.21	0.834991
1145.11	2.74603
1148	1.62036
1150.89	0.100647
1153.78	0.95575
1156.68	1.22781
1159.57	0.048248
1162.46	0.89566
1165.36	1.93933
1168.25	3.96173
1171.14	5.70547
1174.03	7.91544
1176.93	7.57648
1179.82	9.65012
1182.71	9.94183
1185.6	11.2276
1188.5	11.2216
1191.39	12.2789
1194.28	11.8174
1197.17	10.8574
1200.07	11.1986
1202.96	9.55676
1205.85	9.35962
1208.74	9.39151
1211.64	7.73947
1214.53	7.29678
1217.42	6.0209
1220.32	4.19428
1223.21	2.20596
1226.1	1.18088
1228.99	1.31735
1231.89	0.011993
1234.78	3.46011
1237.67	4.1015
1240.57	4.75888
1243.46	6.02704
1246.35	6.26825
1249.24	7.52994
1252.14	10.7329
1255.03	9.0347
1257.92	6.71881
1260.81	4.73663
1263.71	9.82159
1266.6	6.82486
1269.49	5.39844
1272.38	4.68207
1275.28	3.23956
1278.17	0.75824
1281.06	0.475464
1283.95	0
