Measurement: Raman, 780 nm, unoriented, Raman Data Processed
Mineral: Dufrenoysite
Rruff sample: R070579
Ideal chemistry: Pb_2_As_2_S_5_
Locality: Lengenbach Quarry, Imfeld, Binnental, Valais, Switzerland
Source: James Shigley
Description: Lead gray metallic prismatic crystals associated with pyrite and dolomite
Measured chemistry: (Pb_1.71_Tl_0.08_Sb_0.04_Ag_0.03_)_Î£1.86_As_2.05_S_5.00
Raman shift (cm-1)	intensity
121.8	0
124.693	126.418
127.585	636.223
130.478	1237.13
133.371	2127.45
136.263	3078.15
139.156	4447.03
142.049	5230.98
144.942	5892.9
147.834	5572.99
150.727	5519.84
153.62	6151.29
156.512	6748.59
159.405	6761.51
162.298	6055.28
165.19	5299.66
168.083	4518.06
170.976	3517.67
173.869	2601.22
176.761	1268.96
179.654	209.299
182.547	254.545
185.439	805.814
188.332	912.861
191.225	683.717
194.118	450.547
197.01	15.8574
199.903	935.371
202.796	2127.39
205.688	3469.65
208.581	5175.39
211.474	6638.55
214.366	8244.73
217.259	9341.77
220.152	10062.3
223.045	10152.9
225.937	9950.92
228.83	9414.42
231.723	8677.36
234.615	8225.06
237.508	7951.49
240.401	7640.26
243.293	7612.5
246.186	7357.81
249.079	7384.28
251.972	7452.03
254.864	7237.39
257.757	7313.34
260.65	6715.23
263.542	5554.94
266.435	4695.64
269.328	3576.24
272.221	2884.11
275.113	2572.2
278.006	2768.86
280.899	3524.65
283.791	4888.39
286.684	6687.43
289.577	8210.3
292.469	9187.57
295.362	9021.45
298.255	8108.32
301.147	6182.1
304.04	4015.65
306.933	2652.12
309.826	2235.56
312.718	2588.07
315.611	3130.08
318.504	4130.95
321.396	5039.27
324.289	5710.73
327.182	5569.02
330.075	5359.97
332.967	5120.92
335.86	4937.02
338.753	4779.96
341.645	4528.45
344.538	4698.64
347.431	6206.87
350.323	9044.37
353.216	13107.7
356.109	18054
359.002	22852
361.894	27557.8
364.787	31181.6
367.68	31516.5
370.572	29290
373.465	26068.5
376.358	23008
379.25	18360.2
382.143	11677.5
385.036	5945.41
387.928	2382.9
390.821	509.024
393.714	317.027
396.607	631.105
399.499	702.246
402.392	600.677
405.285	455.413
408.177	266.112
411.07	7.88892
413.963	228.01
416.856	491.598
419.748	756.275
422.641	982.029
425.534	1253.81
428.426	1494.22
431.319	1712.39
434.212	1969.16
437.104	2143.45
439.997	2320.45
442.89	2481.83
445.783	2651.35
448.675	2797.4
451.568	2889.13
454.461	2834.87
457.353	2605.8
460.246	2417.86
463.139	2098.38
466.031	1909.24
468.924	1710.6
471.817	1580.87
474.71	1496.46
477.602	1409.87
480.495	1373.2
483.388	1270.94
486.28	1237.05
489.173	1196.46
492.066	1129.3
494.959	1055.5
497.851	994.958
500.744	927.97
503.637	847.56
506.529	819.591
509.422	709.422
512.315	650.225
515.207	563.863
518.1	528.92
520.993	443.614
523.885	383.965
526.778	349.303
529.671	336.15
532.564	272.849
535.456	249.599
538.349	187.681
541.242	166.74
544.134	130.134
547.027	115.714
549.92	105.316
552.812	74.2212
555.705	84.1444
558.598	55.0647
561.491	53.2288
564.383	47.2895
567.276	35.9451
570.169	16.545
573.061	0.08313
575.954	9.7135
578.847	7.84949
581.74	8.04468
584.632	12.897
587.525	5.66174
590.418	2.95947
593.31	11.49
596.203	5.91077
599.096	15.1469
601.988	6.98694
604.881	41.6014
607.774	16.1327
610.667	22.0032
613.559	23.7564
616.452	23.094
619.345	1.90796
622.237	7.65186
625.13	4.37415
628.023	1.17346
630.915	4.69348
633.808	27.2841
636.701	22.3854
639.593	38.6338
642.486	52.7119
645.379	50.5334
648.272	41.2734
651.164	44.0117
654.057	75.7602
656.95	63.9205
659.842	71.519
662.735	68.1666
665.628	72.8469
668.521	91.4622
671.413	58.0373
674.306	71.3405
677.199	79.2463
680.091	55.625
682.984	43.3223
685.877	31.9845
688.769	32.197
691.662	29.6576
694.555	17.3417
697.448	20.071
700.34	18.9518
703.233	16.2914
706.126	21.6949
709.018	30.4549
711.911	42.5645
714.804	67.7769
717.697	89.1104
720.589	104.86
723.482	114.293
726.375	161.679
729.267	142.98
732.16	123.23
735.053	145.829
737.945	142.271
740.838	144.491
743.731	157.23
746.624	137.603
749.516	118.435
752.409	98.2638
755.302	107.223
758.194	82.2788
761.087	52.6187
763.98	48.4314
766.872	28.9204
769.765	22.9861
772.658	9.94113
775.551	16.6345
778.443	5.17358
781.336	12.9849
784.229	11.8342
787.121	0.975616
790.014	3.83191
792.907	6.91827
795.799	10.7774
798.692	12.6925
801.585	5.90469
804.477	19.8445
807.37	16.93
810.263	6.66565
813.156	25.7922
816.048	21.6144
818.941	33.7953
821.834	26.5233
824.726	21.0438
827.619	34.09
830.512	24.5778
833.404	22.1571
836.297	24.5359
839.19	22.958
842.083	30.1357
844.975	27.5437
847.868	29.2123
850.761	4.81329
853.653	15.2034
856.546	3.3165
859.439	27.5169
862.332	11.6621
865.224	3.9198
868.117	6.23511
871.01	20.0716
873.902	7.33237
876.795	10.6583
879.688	17.3805
882.58	11.8608
885.473	6.39951
888.366	7.63223
891.259	7.48923
894.151	10.828
897.044	3.56107
899.937	15.8594
902.829	8.89493
905.722	7.80716
908.615	0.683044
911.507	4.81195
914.4	14.7951
917.293	15.8974
920.186	13.0008
923.078	18.2993
925.971	3.93442
928.864	1.67801
931.756	6.03702
934.649	13.7642
937.542	6.85883
940.434	9.27789
943.327	6.53593
946.22	6.9136
949.112	0.270569
952.005	15.0028
954.898	14.0967
957.791	6.47867
960.683	19.4274
963.576	12.0621
966.469	7.07935
969.361	9.39615
972.254	4.34114
975.147	2.9501
978.04	7.72614
980.932	6.34255
983.825	13.5673
986.718	8.68774
989.61	9.53134
992.503	10.6729
995.396	4.71625
998.288	13.2446
1001.18	14.7035
1004.07	10.1931
1006.97	8.30275
1009.86	4.93373
1012.75	10.2824
1015.64	6.61844
1018.54	11.6806
1021.43	24.2951
1024.32	17.192
1027.21	13.5212
1030.11	1.16977
1033	14.9337
1035.89	7.3931
1038.79	18.2871
1041.68	16.1729
1044.57	8.3278
1047.46	9.46184
1050.36	4.7356
1053.25	9.71248
1056.14	13.9003
1059.04	4.93878
1061.93	0.036255
1064.82	13.1371
1067.71	3.22014
1070.61	17.1872
1073.5	16.463
1076.39	1.45239
1079.28	19.5444
1082.18	6.62111
1085.07	9.58147
1087.96	10.2579
1090.86	9.98135
1093.75	14.9514
1096.64	11.6802
1099.53	8.99477
1102.43	6.3692
1105.32	22.1524
1108.21	21.4477
1111.1	3.30379
1114	4.99287
1116.89	5.6454
1119.78	13.0423
1122.67	2.96622
1125.57	2.80403
1128.46	13.6832
1131.35	4.12427
1134.24	13.2306
1137.14	14.3881
1140.03	2.62749
1142.92	2.27289
1145.82	7.54857
1148.71	10.3915
1151.6	19.6183
1154.49	9.71753
1157.39	10.2713
1160.28	7.93878
1163.17	13.3099
1166.07	5.2043
1168.96	10.2902
1171.85	13.1214
1174.74	10.5283
1177.64	6.92166
1180.53	18.5218
1183.42	2.10808
1186.31	11.1391
1189.21	2.37473
1192.1	7.18922
1194.99	1.6017
1197.88	10.9774
1200.78	0.30278
1203.67	13.1005
1206.56	8.27335
1209.46	8.47221
1212.35	15.0749
1215.24	7.31961
1218.13	6.56609
1221.03	19.8459
1223.92	12.5584
1226.81	15.9015
1229.7	5.12703
1232.6	15.1361
1235.49	15.7134
1238.38	9.88442
1241.28	15.3869
1244.17	18.4295
1247.06	10.7541
1249.95	4.17993
1252.85	5.74377
1255.74	7.08046
1258.63	14.5986
1261.52	3.17654
1264.42	12.7614
1267.31	8.50545
1270.2	2.83311
1273.1	5.82477
