Measurement: Raman, 514 nm, unoriented, Raman Data Processed
Mineral: Duftite
Rruff sample: R040160
Ideal chemistry: Pb^2+^Cu^2+^As^5+^O_4_(OH)
Locality: Tsumeb mine, Tsumeb, Otavi District, Oshikoto, Namibia
Source: University of Arizona Mineral Museum
Description: Green crystalline coating
Measured chemistry: (Pb_0.96_Zn_0.04_)_Î£=1_Cu_1.00_As_1.00_O_4_(OH); OH estimated by charge balance
Raman shift (cm-1)	intensity
100.34	0
104.516	190.269
108.691	336.122
112.864	490.766
117.034	959.324
121.203	877.01
125.369	1062.16
129.534	1495.1
133.696	1467.16
137.857	1090.73
142.016	452.475
146.172	137.332
150.327	90.507
154.48	71.144
158.63	26.445
162.779	297.963
166.926	670.621
171.07	935.409
175.213	1273.81
179.354	1065.76
183.493	1029.59
187.63	811.641
191.765	592.974
195.898	591.936
200.029	424.779
204.158	375.14
208.285	502.725
212.41	185.976
216.533	153.794
220.654	32.146
224.773	24.453
228.891	37.803
233.006	13.757
237.119	43.399
241.231	91.083
245.34	75.121
249.448	81.778
253.553	24.916
257.657	107.942
261.758	109.066
265.858	214.554
269.956	473.427
274.052	649.999
278.146	763.645
282.237	968.909
286.327	1351.4
290.416	1950.87
294.502	2675.94
298.586	3427.35
302.668	3746.16
306.749	3994.3
310.827	3911.3
314.903	3730.03
318.978	3862.35
323.051	4132.7
327.121	4385.9
331.19	4515.66
335.257	4209.29
339.322	3851.78
343.385	2988.67
347.446	2346.99
351.505	1940.61
355.563	1521.91
359.618	1311.76
363.672	1184.81
367.723	1153.42
371.773	1009.09
375.821	884.658
379.866	1020.19
383.91	843.263
387.952	945.481
391.992	1078.71
396.031	1341.48
400.067	1651.96
404.101	1752.88
408.134	1695.05
412.165	1769.01
416.193	1645.98
420.22	1208.76
424.245	1213.14
428.268	1814.54
432.289	1968.98
436.309	2446.79
440.326	2498.99
444.342	2080.6
448.355	2049.35
452.367	2142.52
456.377	2328.47
460.385	2801.3
464.391	2873.75
468.395	2382.3
472.398	2068.3
476.398	1023.54
480.397	936.794
484.394	639.396
488.389	503.217
492.382	348.906
496.373	360.971
500.362	365.628
504.349	392.935
508.335	343.844
512.319	409.417
516.3	477.184
520.28	747.418
524.259	759.429
528.235	537.109
532.209	323.025
536.182	166.603
540.152	194.501
544.121	230.861
548.088	158.402
552.053	172.676
556.017	206.78
559.978	141.728
563.938	181.625
567.895	195.446
571.851	190.027
575.805	239.276
579.758	17.211
583.708	112.332
587.657	46.673
591.603	1.366
595.548	64.107
599.491	27.179
603.432	3.007
607.372	8.879
611.309	159.322
615.245	64.699
619.179	73.731
623.111	99.666
627.041	241.232
630.97	87.652
634.896	104.938
638.821	106.246
642.744	159.288
646.665	40.07
650.584	80.045
654.502	161.331
658.418	9.514
662.331	211.932
666.244	288.755
670.154	173.102
674.062	76.924
677.969	8.951
681.874	58.806
685.777	77.405
689.678	131.467
693.577	89.906
697.475	37.719
701.371	201.683
705.265	61.364
709.157	347.32
713.047	307.066
716.936	366.101
720.823	566.812
724.708	744.733
728.591	1030.06
732.472	1086.08
736.352	945.393
740.23	1047.51
744.106	1142.91
747.98	1415.71
751.853	1572.23
755.723	1963.91
759.592	2753.67
763.459	3508.58
767.325	3649.63
771.188	4009.2
775.05	4458.51
778.91	5000.92
782.768	5964.12
786.625	7331.49
790.479	9190.65
794.332	11095.4
798.183	12464.1
802.033	13710
805.88	14800.8
809.726	15739.9
813.57	18341.2
817.413	24312.5
821.253	31162
825.092	32148.7
828.929	26655.4
832.764	18921.6
836.598	12660.1
840.429	8518.72
844.259	6283.87
848.088	4583.21
851.914	3604.84
855.739	2788.13
859.562	2243.27
863.383	1955.7
867.203	1528.49
871.02	1370.6
874.836	1198.01
878.65	1170.7
882.463	1229.72
886.274	1295.1
890.083	1581.72
893.89	1470.71
897.695	1244.14
901.499	1114.88
905.301	905.932
909.102	634.359
912.9	430.051
916.697	467.98
920.492	298.225
924.285	249.816
928.077	201.629
931.867	136.805
935.655	152.08
939.442	335.061
943.226	214.682
947.009	101.607
950.791	116.734
954.57	22.039
958.348	123.885
962.124	35.295
965.899	71.963
969.671	79.695
973.442	81.629
977.211	30.662
980.979	64.281
984.745	121.668
988.509	130.26
992.271	27.881
996.032	197.307
999.791	281.715
1003.55	78.127
1007.3	187.047
1011.06	238.035
1014.81	178.27
1018.56	217.584
1022.31	174.414
1026.06	307.715
1029.8	142.912
1033.55	200.643
1037.29	435.064
1041.03	665.334
1044.77	859.309
1048.5	536.852
1052.24	542.822
1055.97	374.32
1059.7	422.018
1063.43	329.762
1067.16	171.551
1070.89	68.307
1074.61	91.902
1078.34	282.021
1082.06	151.125
1085.78	124.371
1089.5	190.477
1093.21	256.289
1096.93	148.639
1100.64	182.676
1104.35	23.619
1108.06	50.752
1111.77	166.266
1115.48	241.039
1119.18	69.307
1122.89	103.066
1126.59	93.117
1130.29	28.682
1133.99	110.023
1137.68	66.039
1141.38	34.652
1145.07	198.947
1148.76	22.268
1152.45	37.35
1156.14	3.594
1159.83	84.518
1163.51	109.703
1167.19	70.713
1170.88	215.361
1174.56	14.623
1178.23	160.986
1181.91	107.045
1185.59	197.848
1189.26	258.902
1192.93	348.744
1196.6	259.076
1200.27	142.285
1203.94	422.096
1207.6	249.021
1211.27	191.363
1214.93	379.201
1218.59	284.215
1222.25	85.881
1225.9	94.129
1229.56	141.588
1233.21	394.5
1236.86	221.707
1240.51	56.811
1244.16	345.131
1247.81	279.119
1251.45	437.641
1255.1	229.471
1258.74	460.16
1262.38	575.598
1266.02	318.916
1269.66	198.592
1273.29	140.645
1276.93	247.049
1280.56	295.908
1284.19	200.143
1287.82	211.527
1291.45	7.426
1295.07	134.926
1298.7	84.688
1302.32	112.299
1305.94	100.451
1309.56	167.406
1313.18	58.047
1316.8	296.756
1320.41	148.154
1324.02	67.58
1327.63	172.75
1331.24	178.762
1334.85	290.223
1338.46	168.625
1342.06	272.234
1345.67	279.805
1349.27	280.83
1352.87	354.967
1356.47	406.664
1360.07	578.926
1363.66	235.193
1367.25	345.92
1370.85	400.031
1374.44	312.184
1378.03	476.295
1381.61	398.027
1385.2	468.467
1388.78	235.398
1392.37	475.564
1395.95	455.637
1399.53	336.047
1403.1	313.789
1406.68	233.037
1410.26	373.482
1413.83	246.578
1417.4	394.957
1420.97	255.25
1424.54	149.09
1428.1	312.23
1431.67	244.238
1435.23	420.6
1438.8	421.275
1442.36	454.041
1445.91	510.48
1449.47	303.658
1453.03	628.494
1456.58	502.963
1460.13	412.916
1463.68	463.574
1467.23	187.5
1470.78	316.021
1474.33	229.535
1477.87	83.834
1481.42	205.416
1484.96	342.277
1488.5	128.611
1492.04	126.756
1495.57	310.182
1499.11	30.109
1502.64	127.494
1506.17	143.889
1509.71	251.139
1513.23	160.471
1516.76	2.566
1520.29	15.037
