Measurement: Raman, 532 nm, unoriented, Raman Data Processed
Mineral: Duftite
Rruff sample: R040160
Ideal chemistry: Pb^2+^Cu^2+^As^5+^O_4_(OH)
Locality: Tsumeb mine, Tsumeb, Otavi District, Oshikoto, Namibia
Source: University of Arizona Mineral Museum
Description: Green crystalline coating
Measured chemistry: (Pb_0.96_Zn_0.04_)_Î£=1_Cu_1.00_As_1.00_O_4_(OH); OH estimated by charge balance
Raman shift (cm-1)	intensity
131.823	0
135.198	122.436
138.573	271.706
141.948	311.445
145.323	265.823
148.698	265.421
152.072	355.458
155.447	495.659
158.822	584.023
162.197	683.003
165.572	793.389
168.946	946.722
172.321	1093.22
175.696	1024.6
179.071	948.564
182.446	816.829
185.821	728.459
189.195	622.526
192.57	470.505
195.945	371.918
199.32	251.274
202.695	213.022
206.07	126.929
209.444	146.911
212.819	79.1597
216.194	49.4192
219.569	65.4031
222.944	15.3645
226.318	12.2319
229.693	40.2012
233.068	14.0195
236.443	5.33887
239.818	26.9439
243.192	6.08154
246.567	34.0547
249.942	23.408
253.317	31.4739
256.692	6.52075
260.067	74.6667
263.441	152.902
266.816	174.366
270.191	231.125
273.566	340.676
276.941	442.263
280.315	510.594
283.69	718.501
287.065	970.016
290.44	1352.89
293.815	1768.09
297.19	2150.47
300.564	2470.5
303.939	2653.59
307.314	2602.73
310.689	2601.41
314.064	2743.12
317.438	2938.6
320.813	3280.98
324.188	3720.17
327.563	3921.51
330.938	3947.46
334.313	3677.66
337.687	3179.74
341.062	2508.35
344.437	1820.65
347.812	1276.29
351.187	905.487
354.562	571.611
357.936	344.299
361.311	192.833
364.686	102.243
368.061	39.2114
371.436	36.5327
374.81	71.7905
378.185	29.0247
381.56	13.6572
384.935	95.5188
388.31	181.818
391.685	415.486
395.059	585.633
398.434	769.024
401.809	901.317
405.184	992.14
408.559	901.265
411.933	770.921
415.308	696.995
418.683	580.79
422.058	635.705
425.433	820.745
428.808	1044.11
432.182	1308.68
435.557	1557.36
438.932	1617.87
442.307	1536.73
445.682	1457.42
449.056	1606
452.431	1880.87
455.806	2221.99
459.181	2509.63
462.556	2481.7
465.93	2075.49
469.305	1498.6
472.68	923.099
476.055	600.137
479.43	376.962
482.805	241.479
486.179	94.6287
489.554	34.2234
492.929	1.25321
496.304	7.10494
499.679	-2.80911
503.053	8.24467
506.428	20.5881
509.803	67.7227
513.178	178.641
516.553	230
519.928	332.271
523.302	380.994
526.677	323.275
530.052	151.472
533.427	125.043
536.802	73.0281
540.177	33.8108
543.551	66.2085
546.926	70.9763
550.301	99.5579
553.676	89.0674
557.051	109.092
560.425	68.0657
563.8	43.9392
567.175	29.3674
570.55	37.2898
573.925	12.2654
577.299	36.8467
580.674	28.2212
584.049	20.0459
587.424	32.3562
590.799	38.9094
594.174	29.6545
597.548	22.2336
600.923	52.6008
604.298	83.5498
607.673	50.669
611.048	67.4319
614.423	110.241
617.797	82.3826
621.172	94.2161
624.547	93.4961
627.922	105.085
631.297	116.277
634.671	134.468
638.046	123.369
641.421	128.554
644.796	176.435
648.171	183.279
651.545	236.184
654.92	262.866
658.295	289.518
661.67	285.051
665.045	267.332
668.42	234.685
671.794	235.009
675.169	194.959
678.544	136.944
681.919	106.708
685.294	99.2769
688.668	77.4463
692.043	67.0256
695.418	49.0212
698.793	4.11612
702.168	9.59282
705.543	14.893
708.917	13.224
712.292	21.4568
715.667	16.4994
719.042	6.4104
722.417	89.3845
725.792	196.726
729.166	235.289
732.541	212.444
735.916	184.562
739.291	177.282
742.666	179.181
746.04	244.974
749.415	342.038
752.79	633.192
756.165	887.628
759.54	1206.72
762.915	1562.61
766.289	1784.16
769.664	1789.82
773.039	1918.36
776.414	2360.41
779.789	3034.75
783.163	3897.93
786.538	5067.93
789.913	6464.49
793.288	7660.05
796.663	8634
800.038	9469.67
803.412	10212.8
806.787	10944.1
810.162	12825.2
813.537	15991.9
816.912	19941.1
820.286	22971.4
823.661	23122.1
827.036	19622.7
830.411	14525.7
833.786	9941.63
837.16	6420.95
840.535	4138.97
843.91	2734.12
847.285	1808.4
850.66	1108.59
854.035	681.986
857.409	336.847
860.784	181.885
864.159	14.0122
867.534	17.5831
870.909	30.9737
874.284	7.0998
877.658	32.7862
881.033	60.7329
884.408	149.737
887.783	316.7
891.158	361.73
894.533	340.125
897.907	321.045
901.282	199.435
904.657	143.314
908.032	76.6345
911.407	43.0181
914.781	0.414307
918.156	23.7546
921.531	44.5603
924.906	61.9028
928.281	42.6858
931.655	9.1311
935.03	30.9512
938.405	39.5759
941.78	96.7781
945.155	128.521
948.529	119.622
951.904	87.3154
955.279	123.479
958.654	131.225
962.029	103.158
965.404	158.89
968.778	126.522
972.153	130.411
975.528	115.229
978.903	110.808
982.278	79.9539
985.653	82.2927
989.027	79.8525
992.402	87.0806
995.777	94.0276
999.152	89.1877
1002.53	91.9548
1005.9	77.042
1009.28	61.5388
1012.65	62.5735
1016.03	99.9558
1019.4	72.3389
1022.78	97.5251
1026.15	83.187
1029.53	123.386
1032.9	167.165
1036.28	239.159
1039.65	323.884
1043.02	274.449
1046.4	242.215
1049.77	137.045
1053.15	103.11
1056.52	47.2856
1059.9	47.0532
1063.27	40.4727
1066.65	27.7127
1070.02	5.55347
1073.4	33.8415
1076.77	20.6294
1080.15	7.6145
1083.52	3.3186
1086.9	3.67065
1090.27	12.6685
1093.65	10.5225
1097.02	19.6091
1100.4	23.1687
1103.77	0.428711
1107.15	9.2644
1110.52	0.08252
1113.9	5.05347
1117.27	17.6924
1120.64	28.7478
1124.02	37.615
1127.39	20.9387
1130.77	35.9534
1134.14	11.3389
1137.52	29.3186
1140.89	7.23877
1144.27	90.5803
1147.64	4.1001
1151.02	12.4612
1154.39	48.0859
1157.77	18.1226
1161.14	34.9739
1164.52	42.1523
1167.89	41.8774
1171.27	30.6831
1174.64	43.6006
1178.02	37.8901
1181.39	60.7131
1184.77	8.48096
1188.14	35.9302
1191.52	2.99048
1194.89	28.7749
1198.27	53.9128
1201.64	23.0339
1205.02	32.8206
1208.39	22.28
1211.77	5.60132
1215.14	22.0076
1218.52	9.82104
1221.89	34.0308
1225.27	42.0708
1228.64	67.4255
1232.01	53.1221
1235.39	12.2583
1238.76	54.6914
1242.14	28.9971
1245.51	23.6509
1248.89	13.2881
1252.26	46.751
1255.64	22.6162
1259.01	14.7969
1262.39	58.8296
1265.76	48.1235
1269.14	24.0544
1272.51	70.5447
1275.89	19.3611
1279.26	61.1387
1282.64	18.8577
1286.01	16.1291
1289.39	44.592
1292.76	22.4731
1296.14	68.238
1299.51	96.2197
1302.88	0.465332
