Measurement: Raman, 532 nm, unoriented, Raman Data Processed
Mineral: Duftite
Rruff sample: R070474
Ideal chemistry: Pb^2+^Cu^2+^As^5+^O_4_(OH)
Locality: Black Pine mine, Phillipsburg, Montana, USA
Source: Bob Jenkins
Description: Light green to blackish-green psuedo-octahedral crystals associated with acicular malachite and quartz. The cell parameters are small for duftite.
Raman shift (cm-1)	intensity
144.37	0
147.263	296.885
150.155	884.061
153.048	1738.87
155.941	2781.73
158.833	3774.89
161.726	4227.09
164.619	4166.83
167.512	3638.28
170.404	2917.12
173.297	2254.12
176.19	1699.02
179.082	1386.79
181.975	1049.36
184.868	842.932
187.761	442.753
190.653	320.272
193.546	375.263
196.439	346.09
199.331	247.505
202.224	149.31
205.117	177.407
208.009	260.335
210.902	326.38
213.795	451.067
216.688	515.106
219.58	546.166
222.473	517.074
225.366	445.173
228.258	259.497
231.151	109.277
234.044	95.541
236.936	162.862
239.829	195.787
242.722	119.66
245.614	95.2568
248.507	58.832
251.4	209.415
254.293	204.091
257.185	284.797
260.078	419.345
262.971	414.741
265.863	495.188
268.756	439.183
271.649	386.931
274.541	340.878
277.434	351.692
280.327	482.484
283.22	729.126
286.112	1087.45
289.005	1558.79
291.898	2128.03
294.79	2934.92
297.683	3640.72
300.576	4346.49
303.469	4516.82
306.361	4168.83
309.254	3570.33
312.147	3353.32
315.039	3525.39
317.932	4112.85
320.825	4948.41
323.717	5492.31
326.61	5528.4
329.503	4857.06
332.396	3998.63
335.288	3512.23
338.181	3227.8
341.074	3038.91
343.966	2783.63
346.859	2407.46
349.752	1928
352.644	1525.02
355.537	1355.28
358.43	1114.11
361.322	899.344
364.215	570.636
367.108	259.523
370.001	10.3584
372.893	14.96
375.786	50.5127
378.679	46.7148
381.572	62.1553
384.464	167.465
387.357	503.196
390.25	649.66
393.142	854.791
396.035	1059.42
398.928	1179.32
401.82	1159.7
404.713	1035.12
407.606	798.233
410.498	453.971
413.391	259.987
416.284	56.2207
419.177	66.6064
422.069	11.4023
424.962	1.31543
427.855	191.061
430.747	199.906
433.64	230.04
436.533	256.446
439.425	324.435
442.318	545.291
445.211	777.312
448.104	1014.67
450.996	1259.83
453.889	1298.27
456.782	1132.63
459.674	733.79
462.567	366.236
465.46	103.673
468.353	53.1826
471.245	8.77441
474.138	4.10352
477.031	3.89648
479.923	62.0449
482.816	162.403
485.709	155.807
488.601	73.6182
491.494	63.2207
494.387	18.2627
497.279	14.9004
500.172	14.8213
503.065	4.03906
505.958	65.5957
508.85	128.448
511.743	198.524
514.636	257.771
517.528	297.835
520.421	265.324
523.314	352.086
526.207	305.077
529.099	377.368
531.992	514.73
534.885	457.149
537.777	428.21
540.67	367.865
543.563	355.394
546.455	329.932
549.348	224.743
552.241	220.53
555.134	188.976
558.026	246.881
560.919	128.884
563.812	137.781
566.704	176.892
569.597	62.1943
572.49	160.352
575.382	80.3574
578.275	81.2988
581.168	89.4111
584.061	67.8506
586.953	14.0205
589.846	79.0088
592.739	113.417
595.631	66.167
598.524	136.471
601.417	82.9902
604.309	171.602
607.202	120.409
610.095	66.7519
612.987	21.543
615.88	60.5772
618.773	110.561
621.666	90.124
624.558	59.3623
627.451	40.5381
630.344	15.6055
633.236	35.2402
636.129	59.333
639.022	45.9766
641.915	119.995
644.807	162.878
647.7	175.394
650.593	107.387
653.485	119.45
656.378	103.65
659.271	79.2715
662.163	139.237
665.056	145.811
667.949	58.5137
670.842	8.7959
673.734	35.4297
676.627	138.302
679.52	71.6221
682.412	58.7139
685.305	51.1094
688.198	2.63477
691.091	84.9873
693.983	33.4414
696.876	26.5596
699.769	83.4443
702.661	72.9326
705.554	6.71875
708.447	20.5459
711.339	65.7676
714.232	214.985
717.125	363.083
720.018	465.799
722.91	735.979
725.803	1129.29
728.696	1841.23
731.588	2979.74
734.481	4531.94
737.374	6395.55
740.266	8336.99
743.159	9614.58
746.052	9674.74
748.944	8413.82
751.837	6395.67
754.73	4518.99
757.623	3174.38
760.515	2076.08
763.408	1416.21
766.301	1007.13
769.193	788.198
772.086	597.244
774.979	445.749
777.871	362.201
780.764	480.051
783.657	690.521
786.55	1051.29
789.442	1682.5
792.335	2801.22
795.228	4818.69
798.12	8864.59
801.013	15993
803.906	24960.2
806.798	34351.3
809.691	41147.7
812.584	33012.6
815.477	18184.7
818.369	10112
821.262	6646.35
824.155	4753.27
827.047	3780.47
829.94	3186.47
832.833	2619.39
835.726	1981.9
838.618	1213.17
841.511	802.145
844.404	499.336
847.296	301.372
850.189	115.784
853.082	98.0225
855.975	5.56445
858.867	56.0361
861.76	113.106
864.653	62.2685
867.545	56.7842
870.438	5.24414
873.331	5.70606
876.223	117.725
879.116	182.342
882.009	340.144
884.902	454.21
887.794	752.805
890.687	1135.04
893.58	1492.02
896.472	1609.02
899.365	1422.23
902.258	1184.26
905.15	1143.05
908.043	1062.69
910.936	1113.69
913.828	1000.65
916.721	877.013
919.614	723.427
922.507	449.134
925.399	326.166
928.292	259.832
931.185	165.394
934.077	106.637
936.97	21.0508
939.863	52.0127
942.755	25.9395
945.648	40.4912
948.541	18.668
951.434	64.7012
954.326	8.58398
957.219	104.156
960.112	120.144
963.004	201.927
965.897	237.233
968.79	309.385
971.683	414.95
974.575	317.372
977.468	326.136
980.361	314.143
983.253	322.072
986.146	388.022
989.039	323.794
991.931	385.701
994.824	334.326
997.717	198.773
1000.61	185.731
1003.5	247.638
1006.39	178.617
1009.29	208.807
1012.18	138.151
1015.07	136.436
1017.97	110.207
1020.86	77.415
1023.75	11.7998
1026.64	25.624
1029.54	105.489
1032.43	67.8838
1035.32	48.833
1038.21	57.6484
1041.11	43.8076
1044	34.0068
1046.89	137.093
1049.79	89.0244
1052.68	139.224
1055.57	110.065
1058.46	197.494
1061.36	129.008
1064.25	183.754
1067.14	186.334
1070.03	210.497
1072.93	147.706
1075.82	177.611
1078.71	155.895
1081.61	172.36
1084.5	143.782
1087.39	104.654
1090.28	85.2109
1093.18	237.907
1096.07	150.294
1098.96	203.593
1101.85	176.054
1104.75	89.8047
1107.64	33.6367
1110.53	26.2979
1113.42	111.261
1116.32	109.873
1119.21	89.3184
1122.1	39.5215
1125	7.71387
1127.89	81.2305
1130.78	66.0537
1133.67	67.4736
1136.57	81.3516
1139.46	96.6689
1142.35	62.1348
1145.24	78.3731
1148.14	24.9053
1151.03	12.9707
1153.92	54.6494
1156.82	63.3262
1159.71	3.77051
1162.6	22.417
1165.49	6.81934
1168.39	0.885742
1171.28	60.5859
1174.17	107.858
1177.06	75.918
1179.96	61.6943
1182.85	97.7812
1185.74	44.5283
1188.63	121.925
1191.53	80.8984
1194.42	23.835
1197.31	99.7402
1200.21	69.0996
1203.1	103.351
1205.99	110.874
1208.88	50.6045
1211.78	97.6426
1214.67	27.9883
1217.56	91.4512
1220.45	102.286
1223.35	149.062
1226.24	105.863
1229.13	60.6162
1232.03	5.34277
1234.92	59.5244
1237.81	57.8721
1240.7	26.5303
1243.6	12.8799
1246.49	94.4424
1249.38	103.477
1252.28	29.3105
1255.17	81.0527
1258.06	72.1045
1260.95	36.666
1263.85	162.369
1266.74	163.623
1269.63	48.9941
1272.52	13.543
1275.42	17.1201
1278.31	41.9863
1281.2	45.6641
1284.09	156.989
1286.99	45.1211
1289.88	20.4336
