Measurement: Raman, 532 nm, unoriented, Raman Data Processed
Mineral: Duftite
Rruff sample: R050507
Ideal chemistry: Pb^2+^Cu^2+^As^5+^O_4_(OH)
Locality: Mt. Bonney, Northern Territory, Australia
Source: University of Arizona Mineral Museum
Description: Green aggregate of acicular crystals forming round wheel-like shapes, intimately mixed with mimetite
Measured chemistry: Pb_1.00_Cu_1.00_As_1.00_O_4_(OH) ; = dark phase. The lght phase is mimetite: (Pb_4.95_Cu_0.05_)_Î£=5_(As_1.00_O_4_)_3_Cl_1.00_; OH estimated by charge balance
Raman shift (cm-1)	intensity
94.722	0
98.097	28.833
101.471	114.608
104.846	273.511
108.221	347.54
111.596	203.115
114.971	87.589
118.345	74.068
121.72	89.638
125.095	89.557
128.47	75.999
131.845	24.821
135.219	12.104
138.594	41.344
141.969	64.179
145.344	66.174
148.719	57.752
152.094	59.052
155.469	59.718
158.843	67.129
162.218	80.866
165.593	83.25
168.968	77.914
172.342	55.643
175.717	61.712
179.092	65.514
182.467	84.862
185.842	107.334
189.217	90.012
192.591	57.855
195.966	46.273
199.341	24.36
202.716	12.467
206.091	22.552
209.465	17.809
212.84	1.322
216.215	3.603
219.59	4.963
222.965	6.8
226.34	4.597
229.714	4.591
233.089	12.156
236.464	12.034
239.839	14.241
243.214	7.697
246.589	21.645
249.963	50.975
253.338	88.665
256.713	105.307
260.088	95.723
263.463	78.549
266.837	71.389
270.212	52.635
273.587	38.443
276.962	42.579
280.337	49.763
283.711	68.3
287.086	134.55
290.461	204.387
293.836	326.989
297.211	518.512
300.586	675.556
303.96	806.97
307.335	761.801
310.71	720.584
314.085	911.507
317.46	1290.42
320.835	1934.11
324.209	2666.39
327.584	3063.45
330.959	2702.07
334.334	1867.88
337.709	1305.62
341.083	953.202
344.458	685.903
347.833	456.468
351.208	270.66
354.583	187.451
357.957	124.161
361.332	91.527
364.707	49.345
368.082	13.1
371.457	9.382
374.832	10.484
378.206	2.611
381.581	27.218
384.956	105.083
388.331	217.701
391.706	355.401
395.081	551.434
398.455	680.56
401.83	761.104
405.205	745.528
408.58	505.084
411.955	289.751
415.329	149.156
418.704	69.058
422.079	37.007
425.454	8.142
428.829	8.879
432.203	15.562
435.578	3.71
438.953	23.49
442.328	62.967
445.703	94.721
449.078	123.762
452.452	163.053
455.827	137.328
459.202	104.455
462.577	67.103
465.952	47.155
469.327	51.039
472.701	72.679
476.076	89.138
479.451	109.697
482.826	126.389
486.201	75.528
489.575	41.738
492.95	20.4
496.325	0.595
499.7	4.684
503.075	4.868
506.449	10.372
509.824	12.881
513.199	21.069
516.574	39.704
519.949	19.152
523.323	28.066
526.698	16
530.073	14.571
533.448	20.588
536.823	9.766
540.198	7.779
543.572	15.383
546.947	10.111
550.322	13.739
553.697	2.679
557.072	14.449
560.446	4.553
563.821	5.215
567.196	17.249
570.571	12.623
573.946	4.545
577.321	13.275
580.695	26.223
584.07	18.37
587.445	18.451
590.82	18.786
594.195	16.555
597.57	13.835
600.944	2.063
604.319	16.337
607.694	25.467
611.069	15.15
614.444	13.418
617.818	20.989
621.193	12.015
624.568	5.468
627.943	15.307
631.318	17.282
634.693	31.361
638.067	16.292
641.442	22.836
644.817	16.039
648.192	14.401
651.567	13.068
654.941	23.105
658.316	10.272
661.691	3.315
665.066	13.317
668.441	1.69
671.815	10.298
675.19	3.085
678.565	0.864
681.94	3.303
685.315	4.957
688.69	5.805
692.064	14.006
695.439	5.242
698.814	7.023
702.189	1.181
705.564	8.798
708.938	20.003
712.313	26.931
715.688	53.621
719.063	89.13
722.438	165.978
725.813	235.083
729.187	404.998
732.562	710.6
735.937	1067.93
739.312	1421.69
742.687	1564.66
746.062	1220.29
749.436	756.023
752.811	428.177
756.186	244.328
759.561	127.605
762.935	97.412
766.31	39.097
769.685	39.568
773.06	51.87
776.435	76.308
779.81	108.953
783.184	127.1
786.559	212.678
789.934	391.393
793.309	704.964
796.684	1256.64
800.058	2298.43
803.433	4057.24
806.808	6543.69
810.183	7724.83
813.558	3767.11
816.933	1558.83
820.307	831.903
823.682	505.498
827.057	387.332
830.432	350.623
833.807	337.424
837.182	265.591
840.556	229.358
843.931	162.987
847.306	101.649
850.681	27.445
854.056	8.336
857.43	2.733
860.805	5.1
864.18	14.074
867.555	3.205
870.93	4.672
874.305	14.557
877.679	23.818
881.054	27.194
884.429	40.186
887.804	48.892
891.179	67.875
894.554	80.492
897.928	63.456
901.303	47.083
904.678	42.863
908.053	14.007
911.428	27.925
914.802	22.389
918.177	16.442
921.552	11.505
924.927	12.995
928.302	3.803
931.677	13.234
935.051	4.541
938.426	1.155
941.801	11.321
945.176	7.419
948.55	21.215
951.925	13.685
955.3	6.853
958.675	22.784
962.05	12.778
965.425	17.824
968.799	36.12
972.174	32.398
975.549	27.693
978.924	49.305
982.299	46.193
985.674	36.735
989.048	30.199
992.423	19.407
995.798	20.004
999.173	9.517
1002.55	11.943
1005.92	19.921
1009.3	14.003
1012.67	16.272
1016.05	7.797
1019.42	5.199
1022.8	3.887
1026.17	10.412
1029.55	9.901
1032.92	10.292
1036.3	2.038
1039.67	3.995
1043.05	3.517
1046.42	5.02
1049.8	5.556
1053.17	1.024
1056.55	4.188
1059.92	9.328
1063.29	12.136
1066.67	5.099
1070.04	14.004
1073.42	11.78
1076.79	3.12
1080.17	6.116
1083.54	13.101
1086.92	13.637
1090.29	9.09
1093.67	13.97
1097.04	13.235
1100.42	11.94
1103.79	4.86
1107.17	1.306
1110.54	5.587
1113.92	3.598
1117.29	7.387
1120.67	10.155
1124.04	7.093
1127.42	14.522
1130.79	8.505
1134.17	13.057
1137.54	13.42
1140.91	13.935
1144.29	4.607
1147.66	3.919
1151.04	8.92
1154.41	5.397
1157.79	8.995
1161.16	13.376
1164.54	4.618
1167.91	11.04
1171.29	20.762
1174.66	5.992
1178.04	6.42
1181.41	13.766
1184.79	4.661
1188.16	7.504
1191.54	14.968
1194.91	6.772
1198.29	18.717
1201.66	3.616
1205.04	19.655
1208.41	1.723
1211.79	1.301
1215.16	8.796
1218.54	4.262
1221.91	2.401
1225.29	20.339
1228.66	2.292
1232.04	17.964
1235.41	9.471
1238.79	20.816
1242.16	8.521
1245.53	16.345
1248.91	17.107
1252.28	20.665
1255.66	9.948
1259.03	12.11
1262.41	5.948
1265.78	7.192
1269.16	10.433
1272.53	1.218
1275.91	13.669
1279.28	3.333
1282.66	6.221
1286.03	0.64
1289.41	10.205
1292.78	6.2
1296.16	1.282
