Measurement: Raman, 785 nm, unoriented, Raman Data Processed
Mineral: Duftite
Rruff sample: R040160
Ideal chemistry: Pb^2+^Cu^2+^As^5+^O_4_(OH)
Locality: Tsumeb mine, Tsumeb, Otavi District, Oshikoto, Namibia
Source: University of Arizona Mineral Museum
Description: Green crystalline coating
Measured chemistry: (Pb_0.96_Zn_0.04_)_Î£=1_Cu_1.00_As_1.00_O_4_(OH); OH estimated by charge balance
Raman shift (cm-1)	intensity
165.374	0
168.267	80.9004
171.16	57.1379
174.052	133.803
176.945	120.747
179.838	124.995
182.73	148.691
185.623	134.528
188.516	117.093
191.408	109.856
194.301	83.9829
197.194	88.804
200.087	59.9387
202.979	46.0088
205.872	40.0891
208.765	21.7888
211.657	48.2988
214.55	9.08594
217.443	8.77026
220.335	17.5928
223.228	0.868896
226.121	5.8313
229.013	32.7632
231.906	30.6467
234.799	6.68823
237.692	2.24609
240.584	22.4014
243.477	8.20532
246.37	50.9326
249.262	2.97315
252.155	15.4717
255.048	19.6565
257.941	12.5359
260.833	28.5759
263.726	63.2717
266.619	70.1021
269.511	124.397
272.404	134.531
275.297	139.961
278.19	224.76
281.082	248.387
283.975	333.372
286.868	431.136
289.76	539.678
292.653	650.831
295.546	748.166
298.438	858.731
301.331	912.983
304.224	954.862
307.116	969.276
310.009	996.611
312.902	1011.23
315.795	1020.38
318.687	1077.63
321.58	1073.98
324.473	1070.12
327.365	1088.62
330.258	1089.81
333.151	1001.77
336.043	912.005
338.936	779.566
341.829	605.743
344.721	476.503
347.614	354.553
350.507	251.853
353.4	191.382
356.292	112.256
359.185	92.7827
362.078	43.9085
364.97	4.92603
367.863	4.7832
370.756	21.9697
373.649	5.00024
376.541	0.474609
379.434	23.1843
382.327	36.3655
385.219	2.93042
388.112	80.9714
391.005	53.7927
393.897	126.181
396.79	123.013
399.683	160.665
402.575	201.388
405.468	210.72
408.361	169.172
411.254	189.541
414.146	160
417.039	167.891
419.932	178.22
422.824	172.287
425.717	225.355
428.61	238.898
431.502	266.934
434.395	335.089
437.288	355.385
440.181	314.935
443.073	306.667
445.966	283.908
448.859	281.72
451.751	289.385
454.644	315.112
457.537	316.613
460.43	278.706
463.322	270.399
466.215	213.265
469.108	157.018
472	108.138
474.893	72.1421
477.786	52.5459
480.678	35.3438
483.571	9.81519
486.464	1.59522
489.356	18.8533
492.249	6.36353
495.142	13.51
498.035	30.469
500.927	16.7981
503.82	13.9692
506.713	23.8225
509.605	33.5066
512.498	63.3953
515.391	84.3635
518.284	97.9102
521.176	101.159
524.069	60.7144
526.962	75.9746
529.854	41.1289
532.747	85.7842
535.64	52.2329
538.533	29.9094
541.425	40.2866
544.318	55.7595
547.211	50.2556
550.103	37.5168
552.996	61.5791
555.889	45.0505
558.781	41.2842
561.674	6.41528
564.567	24.6697
567.459	12.6929
570.352	41.8667
573.245	4.68823
576.138	45.47
579.03	50.8474
581.923	29.7793
584.816	12.6023
587.708	6.2605
590.601	36.3455
593.494	29.6235
596.386	20.0996
599.279	68.6728
602.172	43.4297
605.064	54.4182
607.957	10.7109
610.85	41.4668
613.743	34.3875
616.635	50.5493
619.528	8.53247
622.421	36.5923
625.313	53.7925
628.206	55.3787
631.099	30.9492
633.991	64.0078
636.884	38.5896
639.777	67.5439
642.67	31.491
645.562	44.5527
648.455	57.5464
651.348	52.0203
654.24	52.7073
657.133	70.8972
660.026	65.2905
662.918	23.3093
665.811	47.3921
668.704	45.6397
671.597	24.3125
674.489	36.5449
677.382	31.0317
680.275	34.5168
683.167	12.2502
686.06	18.501
688.953	24.3748
691.846	6.07959
694.738	1.22656
697.631	8.54077
700.524	11.0078
703.416	16.0393
706.309	8.7439
709.202	3.59888
712.094	3.5061
714.987	33.2249
717.88	2.00391
720.773	18.0767
723.665	3.39624
726.558	18.2336
729.451	13.3005
732.343	40.7976
735.236	12.4692
738.129	42.4397
741.021	30.8716
743.914	46.0066
746.807	51.7109
749.699	103.938
752.592	109.661
755.485	187.465
758.378	253.499
761.27	303.195
764.163	323.148
767.056	382.281
769.948	460.096
772.841	462.705
775.734	559.558
778.626	676.641
781.519	880.062
784.412	1044.74
787.305	1291.83
790.197	1559.64
793.09	1743.45
795.983	1983.59
798.875	2132.89
801.768	2279.78
804.661	2402.91
807.553	2653.43
810.446	3047.88
813.339	3580.85
816.232	4181.35
819.124	4763.01
822.017	4882.47
824.91	4307.85
827.802	3516.02
830.695	2553.49
833.588	1797.56
836.481	1217.14
839.373	842.327
842.266	585.373
845.159	423.131
848.051	264.934
850.944	205.6
853.837	129.561
856.729	33.9131
859.622	48.2822
862.515	5.96216
865.408	2.8999
868.3	6.53174
871.193	11.7026
874.086	11.9722
876.978	37.51
879.871	23.2205
882.764	10.9092
885.656	43.7041
888.549	57.6333
891.442	70.6728
894.335	70.2537
897.227	30.6951
900.12	25.426
903.013	22.4929
905.905	32.648
908.798	27.6499
911.691	2.97388
914.583	30.2947
917.476	2.4209
920.369	26.0725
923.261	9.26758
926.154	16.8652
929.047	30.6155
931.94	14.8799
934.832	2.28931
937.725	30.8972
940.618	45.1123
943.51	24.8325
946.403	65.95
949.296	42.6926
952.188	79.179
955.081	45.8242
957.974	40.5437
960.867	57.8235
963.759	61.1589
966.652	26.9934
969.545	17.6321
972.437	9.36352
975.33	44.2788
978.223	26.2749
981.115	32.8518
984.008	53.8091
986.901	23.4363
989.794	26.0559
992.686	35.2883
995.579	45.9961
998.472	12.5327
1001.36	12.6633
1004.26	24.5499
1007.15	12.6867
1010.04	54.2338
1012.93	25.9408
1015.83	19.8091
1018.72	17.5068
1021.61	11.1783
1024.51	35.8254
1027.4	42.0172
1030.29	41.7871
1033.18	34.1356
1036.08	49.1392
1038.97	66.2756
1041.86	65.5068
1044.76	16.8345
1047.65	47.2743
1050.54	47.7522
1053.43	24.6377
1056.33	15.8954
1059.22	8.12329
1062.11	42.5066
1065	30.9672
1067.9	24.4666
1070.79	21.2281
1073.68	35.1669
1076.58	35.1953
1079.47	61.3677
1082.36	34.3245
1085.25	1.1842
1088.14	14.0848
1091.04	8.76941
1093.93	47.0343
1096.82	32.609
1099.72	39.658
1102.61	57.4747
1105.5	21.6696
1108.39	49.9769
1111.29	5.89368
1114.18	0.065308
1117.07	38.5175
1119.96	34.3728
1122.86	13.8451
1125.75	0.881836
1128.64	31.6908
1131.54	15.588
1134.43	37.1395
1137.32	59.2822
1140.21	52.0781
1143.11	39.2968
1146	13.229
1148.89	41.7937
1151.79	46.8999
1154.68	35.1591
1157.57	10.083
1160.46	22.4507
1163.36	22.9801
1166.25	24.858
1169.14	10.9796
1172.03	24.545
1174.93	30.4923
1177.82	33.8973
1180.71	35.4866
1183.6	38.9893
1186.5	52.489
1189.39	16.3224
1192.28	47.0178
1195.17	53.5026
1198.07	43.2367
1200.96	22.7941
1203.85	33.7438
1206.75	56.053
1209.64	38.5153
1212.53	31.3359
1215.42	4.17236
1218.32	31.4281
1221.21	26.6846
1224.1	34.5409
1226.99	38.839
1229.89	19.8707
1232.78	4.01831
1235.67	0.09082
