Measurement: Raman, 785 nm, unoriented, Raman Data Processed
Mineral: Duftite
Rruff sample: R070474
Ideal chemistry: Pb^2+^Cu^2+^As^5+^O_4_(OH)
Locality: Black Pine mine, Phillipsburg, Montana, USA
Source: Bob Jenkins
Description: Light green to blackish-green psuedo-octahedral crystals associated with acicular malachite and quartz. The cell parameters are small for duftite.
Raman shift (cm-1)	intensity
131.042	0
133.935	23.5672
136.827	16.8734
139.72	69.0898
142.613	221.836
145.506	393.496
148.398	631.201
151.291	837.937
154.184	897.234
157.076	888.134
159.969	924.393
162.862	871.516
165.755	743.14
168.647	583.068
171.54	487.982
174.433	409.437
177.325	330.783
180.218	347.835
183.111	304.503
186.003	276.881
188.896	240.24
191.789	198.231
194.681	195.649
197.574	163.986
200.467	138.587
203.36	120.362
206.252	105.479
209.145	104.465
212.038	78.2598
214.93	66.3772
217.823	57.2839
220.716	49.8192
223.608	44.2269
226.501	7.86151
229.394	9.79736
232.287	17.0478
235.179	9.92639
238.072	4.34027
240.965	3.5257
243.857	4.98547
246.75	17.0244
249.643	7.79535
252.536	7.68823
255.428	7.81537
258.321	12.171
261.214	4.99518
264.106	23.0322
266.999	5.35046
269.892	59.1479
272.784	37.7596
275.677	117.445
278.57	149.199
281.462	196.515
284.355	320.414
287.248	462.122
290.141	601.566
293.033	803.462
295.926	930.756
298.819	1128.73
301.711	1228.98
304.604	1235.91
307.497	1222.19
310.389	1130.73
313.282	1196.13
316.175	1274.56
319.068	1398.34
321.96	1513.52
324.853	1640.47
327.746	1549.19
330.638	1379.89
333.531	1182.22
336.424	1019.56
339.317	903.306
342.209	798.869
345.102	646.842
347.995	568.122
350.887	427.342
353.78	338.207
356.673	277.603
359.565	199.515
362.458	160.843
365.351	97.7685
368.243	66.5232
371.136	46.2807
374.029	32.5911
376.922	45.2051
379.814	51.3916
382.707	81.9385
385.6	130.717
388.492	149.517
391.385	177.242
394.278	193.312
397.171	198.232
400.063	180.625
402.956	152.497
405.849	130.68
408.741	91.2083
411.634	60.7457
414.527	33.5074
417.419	1.22406
420.312	6.28003
423.205	7.99429
426.098	30.7251
428.99	4.65488
431.883	6.11459
434.776	31.8645
437.668	58.673
440.561	75.3928
443.454	97.5421
446.346	125.681
449.239	156.565
452.132	164.455
455.024	141.369
457.917	109.897
460.81	67.1916
463.703	49.821
466.595	28.7723
469.488	19.1482
472.381	7.76007
475.273	29.3932
478.166	35.6007
481.059	29.3804
483.952	21.3422
486.844	14.0514
489.737	13.3931
492.63	11.7441
495.522	5.77502
498.415	17.9997
501.308	5.07025
504.2	3.66888
507.093	17.4257
509.986	15.8736
512.879	22.3116
515.771	19.1939
518.664	20.5805
521.557	38.6258
524.449	45.8558
527.342	25.3138
530.235	43.7647
533.127	37.2868
536.02	25.9868
538.913	30.7641
541.806	53.0698
544.698	30.862
547.591	39.3148
550.484	21.4128
553.376	27.4393
556.269	22.3343
559.162	33.2496
562.054	18.3504
564.947	15.7896
567.84	21.7958
570.732	20.5203
573.625	6.15973
576.518	16.5549
579.411	22.9119
582.303	2.75867
585.196	22.1277
588.089	17.2997
590.981	10.3492
593.874	27.329
596.767	18.9536
599.66	19.9842
602.552	9.84473
605.445	19.7555
608.338	10.1171
611.23	14.0369
614.123	28.7257
617.016	24.5605
619.909	31.7809
622.801	32.2473
625.694	42.1592
628.587	32.8998
631.479	20.5796
634.372	41.8077
637.265	39.3304
640.157	37.8713
643.05	31.5424
645.943	33.3
648.836	24.0808
651.728	24.914
654.621	32.5059
657.514	15.9629
660.406	22.7056
663.299	28.2877
666.192	0.653015
669.084	26.7171
671.977	20.3184
674.87	0.73999
677.763	6.09656
680.655	1.46576
683.548	1.08957
686.441	4.54691
689.333	7.50186
692.226	9.75357
695.119	2.69022
698.011	11.4375
700.904	0.802673
703.797	0.785217
706.689	4.64554
709.582	14.2165
712.475	20.8752
715.368	50.296
718.26	89.6644
721.153	151.998
724.046	194.508
726.938	324.005
729.831	476.505
732.724	687.361
735.616	895.246
738.509	1128.73
741.402	1310.41
744.295	1373.76
747.187	1223.52
750.08	984.426
752.973	765.379
755.865	573.218
758.758	418.701
761.651	329.552
764.543	257.86
767.436	171.759
770.329	152.097
773.222	142.509
776.114	149.684
779.007	168.248
781.9	242.312
784.792	352.104
787.685	510.61
790.578	768.951
793.471	1175.32
796.363	1750.76
799.256	2585.17
802.149	3688.89
805.041	4850.16
807.934	5735.04
810.827	5162.43
813.719	3441.2
816.612	2082.63
819.505	1360.4
822.398	910.932
825.29	638.399
828.183	467.878
831.076	327.504
833.968	245.387
836.861	163.965
839.754	122.644
842.646	73.5846
845.539	54.0204
848.432	33.2875
851.324	2.28006
854.217	2.87033
857.11	2.2305
860.003	14.1363
862.895	11.8619
865.788	8.92334
868.681	10.03
871.573	10.7875
874.466	12.9076
877.359	33.2734
880.251	38.3122
883.144	64.34
886.037	111.104
888.93	156.011
891.822	231.397
894.715	271.981
897.608	266.708
900.5	223.309
903.393	175.18
906.286	158.393
909.178	146.361
912.071	131.994
914.964	120.818
917.857	76.012
920.749	54.6855
923.642	47.1978
926.535	41.7586
929.428	22.0603
932.32	16.1556
935.213	14.5813
938.106	2.73135
940.998	5.422
943.891	4.14795
946.784	1.09659
949.676	6.50385
952.569	4.50873
955.462	0.112305
958.355	17.2524
961.247	27.2269
964.14	12.1096
967.033	28.8013
969.925	19.6162
972.818	31.9175
975.711	39.877
978.603	29.2498
981.496	26.3766
984.389	21.3615
987.282	28.2136
990.174	30.6482
993.067	22.3075
995.96	17.1354
998.852	29.9755
1001.75	16.0078
1004.64	25.5629
1007.53	25.0723
1010.42	15.2266
1013.32	33.0749
1016.21	27.5624
1019.1	15.8539
1021.99	10.3697
1024.89	9.48929
1027.78	2.68765
1030.67	19.9358
1033.57	9.67604
1036.46	11.5734
1039.35	5.41914
1042.24	16.8353
1045.13	3.41086
1048.03	2.44821
1050.92	7.30986
1053.81	9.17093
1056.71	14.6042
1059.6	9.1929
1062.49	1.64319
1065.38	0.999802
1068.28	9.54804
1071.17	20.1913
1074.06	34.2424
1076.95	11.5457
1079.85	15.8545
1082.74	20.5713
1085.63	20.0628
1088.53	14.0737
1091.42	20.3896
1094.31	19.4758
1097.2	0.070038
1100.1	13.4819
1102.99	16.0581
1105.88	5.17894
1108.78	18.1547
1111.67	13.8197
1114.56	21.1791
1117.45	19.2048
1120.35	29.0905
1123.24	28.4184
1126.13	15.096
1129.02	21.6887
1131.92	1.4807
1134.81	27.3025
1137.7	18.8831
1140.6	7.784
1143.49	8.92708
1146.38	21.8265
1149.27	5.94041
1152.16	14.5069
1155.06	13.5747
1157.95	17.7826
1160.84	13.8423
1163.74	12.6599
1166.63	19.7499
1169.52	18.4344
1172.41	25.4785
1175.31	17.621
1178.2	12.8328
1181.09	15.4267
1183.98	9.18532
1186.88	9.51761
1189.77	7.52312
1192.66	2.14401
1195.56	4.98881
1198.45	18.3546
1201.34	8.72522
1204.23	6.23137
1207.13	0.42836
1210.02	18.363
1212.91	1.10536
1215.81	17.7337
1218.7	23.2809
1221.59	12.136
1224.48	13.3446
1227.38	14.8411
1230.27	10.7326
1233.16	21.2128
1236.05	17.7054
1238.95	12.2256
1241.84	13.8633
1244.73	14.1639
1247.62	12.2593
1250.52	10.4036
1253.41	10.6009
1256.3	11.555
1259.19	16.5824
1262.09	4.86818
