Measurement: Raman, 780 nm, unoriented, Raman Data Processed
Mineral: Dugganite
Rruff sample: R060498
Ideal chemistry: Pb^2+^_3_Zn^2+^_3_(Te^6+^O_6_)(As^5+^O_4_)_2_
Locality: 400' level, Empire mine, Tombstone, Cochise County, Arizona, USA
Source: Michael Scott
Description: Green colored druse of prismatic crystals
Raman shift (cm-1)	intensity
93.9705	0
97.3453	42.1799
100.72	27.6099
104.095	3.14087
107.47	1.98169
110.845	5.42554
114.219	12.8247
117.594	22.3767
120.969	9.9165
124.344	22.9927
127.719	22.4946
131.094	31.833
134.468	32.3145
137.843	34.3887
141.218	41.5608
144.593	28.6594
147.968	26.9966
151.342	20.5794
154.717	40.6074
158.092	47.6633
161.467	41.4358
164.842	48.4775
168.216	43.374
171.591	35.6252
174.966	22.2693
178.341	10.1104
181.716	0.175415
185.09	1.49219
188.465	0.150146
191.84	0.119751
195.215	3.2229
198.59	2.42468
201.965	5.67493
205.339	10.5491
208.714	15.7377
212.089	22.0869
215.464	37.2101
218.839	43.5876
222.214	48.6768
225.588	56.2223
228.963	59.1427
232.338	59.5514
235.713	53.9634
239.088	55.8331
242.462	46.8611
245.837	37.8447
249.212	33.9786
252.587	21.8827
255.962	10.376
259.336	4.63733
262.711	2.33813
266.086	1.31592
269.461	4.98169
272.836	1.00598
276.211	4.21045
279.585	7.39954
282.96	4.71545
286.335	5.4469
289.71	3.26355
293.085	1.21765
296.459	1.68494
299.834	4.43994
303.209	4.8197
306.584	12.3439
309.959	20.4504
313.334	32.6338
316.708	56.1224
320.083	74.1544
323.458	81.5022
326.833	86.2793
330.207	82.2444
333.582	74.7518
336.957	77.485
340.332	78.7518
343.707	84.551
347.082	90.4685
350.456	90.0917
353.831	84.6755
357.206	83.4296
360.581	68.1283
363.956	56.8174
367.33	41.3029
370.705	33.8453
374.08	19.2173
377.455	14.183
380.83	10.0137
384.205	5.56348
387.579	3.3916
390.954	1.82617
394.329	6.10425
397.704	2.06714
401.079	5.15039
404.453	0.540405
407.828	0.888184
411.203	0.875244
414.578	6.97961
417.953	1.49731
421.327	10.5924
424.702	17.5303
428.077	18.7085
431.452	21.1995
434.827	25.6775
438.202	29.062
441.576	27.6836
444.951	33.581
448.326	31.6545
451.701	40.3597
455.076	40.8911
458.45	42.777
461.825	42.5422
465.2	40.5471
468.575	46.1136
471.95	34.6871
475.325	27.994
478.699	16.348
482.074	16.4669
485.449	8.79016
488.824	8.98901
492.199	6.47241
495.573	2.34839
498.948	0.239624
502.323	1.7157
505.698	1.89673
509.073	1.71765
512.447	6.56226
515.822	9.79553
519.197	11.0366
522.572	10.8951
525.947	16.6036
529.322	15.8776
532.696	18.1473
536.071	18.592
539.446	18.5255
542.821	15.3619
546.196	16.3683
549.57	13.3816
552.945	17.4086
556.32	13.6696
559.695	8.96082
563.07	6.88403
566.444	5.51562
569.819	0.900391
573.194	3.48291
576.569	3.95459
579.944	3.84631
583.319	1.67737
586.693	2.76416
590.068	0.729126
593.443	1.18799
596.818	8.58679
600.193	7.68408
603.567	6.91785
606.942	4.38904
610.317	0.886353
613.692	0.758423
617.067	2.11487
620.442	3.32007
623.816	3.2865
627.191	1.29382
630.566	1.99866
633.941	3.29126
637.316	1.05737
640.69	2.82007
644.065	2.22034
647.44	0.423706
650.815	1.39673
654.19	0.309204
657.564	6.35779
660.939	9.1554
664.314	7.96838
667.689	14.9196
671.064	14.5453
674.439	22.2794
677.813	27.8269
681.188	28.3578
684.563	37.3862
687.938	47.1329
691.313	55.7087
694.688	63.5314
698.062	73.1711
701.437	90.7369
704.812	98.4399
708.187	124.624
711.562	156.957
714.936	187.885
718.311	223.292
721.686	245.056
725.061	240.889
728.436	209.933
731.81	170.636
735.185	127.855
738.56	95.8445
741.935	64.4097
745.31	42.5095
748.684	26.1544
752.059	21.6118
755.434	14.6304
758.809	7.35791
762.184	0.356079
765.559	2.02283
768.933	3.31836
772.308	1.8645
775.683	1.67322
779.058	3.74805
782.433	3.52624
785.808	7.24841
789.182	12.6901
792.557	22.3541
795.932	38.3982
799.307	53.1267
802.682	67.9828
806.056	97.8771
809.431	126.885
812.806	161.401
816.181	203.174
819.556	244.867
822.93	274.578
826.305	274.295
829.68	245.469
833.055	210.554
836.43	168.964
839.804	139.614
843.179	118.758
846.554	116.114
849.929	104.433
853.304	92.6481
856.679	77.2802
860.053	64.5941
863.428	47.5613
866.803	40.5829
870.178	29.8916
873.553	19.8986
876.927	11.092
880.302	5.96436
883.677	13.8342
887.052	7.69897
890.427	2.49121
893.802	2.16711
897.176	1.08533
900.551	0.138672
903.926	1.34009
907.301	0.248657
910.676	3.46155
914.05	0.07666
917.425	2.06372
920.8	0.022827
924.175	1.86279
927.55	5.44861
930.924	5.25427
934.299	7.19836
937.674	12.9335
941.049	17.3779
944.424	22.3573
947.799	31.92
951.173	34.4519
954.548	35.4656
957.923	31.1965
961.298	18.8605
964.673	12.7203
968.047	8.91638
971.422	3.02624
974.797	2.2616
978.172	0.469727
981.547	1.8822
984.922	1.12622
988.296	0.91626
991.671	0.717896
995.046	2.51233
998.421	1.10547
1001.8	1.72449
1005.17	4.14563
1008.54	5.3949
1011.92	5.39099
1015.29	2.44031
1018.67	0.964233
1022.04	3.06751
1025.42	3.60889
1028.79	3.98144
1032.17	2.81543
1035.54	6.62036
1038.92	13.8005
1042.29	9.30676
1045.67	13.0437
1049.04	14.7025
1052.42	20.3368
1055.79	23.2208
1059.17	19.6422
1062.54	22.3149
1065.92	22.4491
1069.29	21.6364
1072.67	14.0659
1076.04	12.6354
1079.42	9.52368
1082.79	7.69739
1086.17	6.55945
1089.54	3.68787
1092.92	6.17566
1096.29	1.39795
1099.66	0.758423
1103.04	2.3147
1106.41	2.96289
1109.79	3.16089
1113.16	3.25281
1116.54	0.77124
1119.91	1.20728
1123.29	1.28992
1126.66	0.342285
1130.04	1.81616
1133.41	3.06445
1136.79	1.948
1140.16	4.94104
1143.54	3.15527
1146.91	6.10547
1150.29	1.41882
1153.66	0.31311
1157.04	4.24158
1160.41	3.21021
1163.79	3.35486
1167.16	2.4978
1170.54	5.42798
1173.91	5.79236
1177.29	8.44324
1180.66	7.99756
1184.04	4.896
1187.41	4.10974
1190.79	7.93384
1194.16	5.62683
1197.54	9.78394
1200.91	8.35034
1204.28	8.73108
1207.66	7.08325
1211.03	7.0824
1214.41	9.06641
1217.78	1.80225
1221.16	0.096436
1224.53	2.34973
1227.91	9.46204
1231.28	1.27649
1234.66	2.04529
1238.03	1.76001
1241.41	1.1156
1244.78	3.51404
1248.16	2.38611
1251.53	4.13855
1254.91	5.04089
1258.28	3.66187
1261.66	4.99451
1265.03	2.48169
1268.41	4.74292
1271.78	8.6792
1275.16	0.137085
1278.53	2.83801
1281.9	0.784058
