Measurement: Raman, 532 nm, unoriented, Raman Data Processed
Mineral: Dugganite
Rruff sample: R060498
Ideal chemistry: Pb^2+^_3_Zn^2+^_3_(Te^6+^O_6_)(As^5+^O_4_)_2_
Locality: 400' level, Empire mine, Tombstone, Cochise County, Arizona, USA
Source: Michael Scott
Description: Green colored druse of prismatic crystals
Raman shift (cm-1)	intensity
89.7832	0
93.158	582.698
96.5328	463.234
99.9077	285.705
103.282	6.94336
106.657	9.96924
110.032	270.063
113.407	503.317
116.782	777.77
120.157	893.097
123.531	975.407
126.906	1068.29
130.281	1089.92
133.656	1085.46
137.031	1043.72
140.405	1008.66
143.78	904.455
147.155	853.194
150.53	886.636
153.905	951.766
157.28	949.75
160.654	898.481
164.029	824.938
167.404	755.681
170.779	673.615
174.154	558.877
177.528	379.023
180.903	190.673
184.278	68.9141
187.653	18.8184
191.028	17.5952
194.403	14.0327
197.777	20.2007
201.152	4.66553
204.527	22.2534
207.902	4.92529
211.277	13.3979
214.651	60.1274
218.026	106.669
221.401	145.13
224.776	188.83
228.151	221.151
231.525	217.178
234.9	210.174
238.275	227.362
241.65	241.401
245.025	212.419
248.4	161.686
251.774	110.516
255.149	69.0469
258.524	42.0532
261.899	5.90576
265.274	8.71973
268.649	7.86328
272.023	29.998
275.398	58.5063
278.773	105.196
282.148	116.603
285.523	91.5156
288.897	45.835
292.272	1.68848
295.647	15.6035
299.022	23.4785
302.397	6.40918
305.772	76.7353
309.146	167.151
312.521	296.108
315.896	442.554
319.271	590.901
322.646	730.588
326.02	800.058
329.395	772.991
332.77	733.315
336.145	729.05
339.52	762.993
342.894	807.509
346.269	866.46
349.644	863.772
353.019	821.68
356.394	727.039
359.769	596.796
363.143	457.396
366.518	317.613
369.893	189.541
373.268	103.091
376.643	54.7339
380.017	33.9629
383.392	9.479
386.767	8.56055
390.142	9.88574
393.517	15.085
396.892	19.8716
400.266	59.0259
403.641	117.081
407.016	133.102
410.391	157.546
413.766	195.652
417.14	215.702
420.515	263.948
423.89	283.671
427.265	306.805
430.64	324.808
434.014	350.223
437.389	360.002
440.764	392.472
444.139	393.047
447.514	395.309
450.889	403.559
454.263	432.062
457.638	488.079
461.013	523.948
464.388	550.579
467.763	528.295
471.137	473.07
474.512	367.78
477.887	243.743
481.262	144.416
484.637	92.8911
488.012	48.5684
491.386	17.3784
494.761	14.7715
498.136	16.3711
501.511	17.5952
504.886	9.63184
508.26	23.5796
511.635	71.6846
515.01	120.484
518.385	157.995
521.76	228.229
525.135	300.597
528.509	340.434
531.884	386.975
535.259	398.257
538.634	397.17
542.009	381.987
545.384	382.308
548.758	387.124
552.133	348.487
555.508	307.591
558.883	257.319
562.258	230.471
565.632	182.909
569.007	137.991
572.382	99.3364
575.757	76.5962
579.132	58.9629
582.506	37.167
585.881	49.1641
589.256	26.2656
592.631	43.2715
596.006	46.4717
599.381	56.2363
602.755	30.749
606.13	21.8882
609.505	6.62402
612.88	2.57471
616.255	5.39551
619.63	4.95996
623.004	10.8745
626.379	8.19092
629.754	2.27734
633.129	7.22217
636.504	4.86475
639.878	8.98193
643.253	4.50342
646.628	7.22559
650.003	7.45606
653.378	44.2495
656.752	52.54
660.127	80.3745
663.502	119.019
666.877	176.895
670.252	238.632
673.626	301.611
677.001	364.16
680.376	473.927
683.751	576.143
687.126	694.958
690.501	856.071
693.875	1003
697.25	1180.77
700.625	1354.65
704	1587.73
707.375	1900.93
710.75	2319.77
714.124	2947.21
717.499	3755.26
720.874	4675.4
724.249	5392.47
727.624	5504.38
730.998	4801.95
734.373	3695.51
737.748	2639.39
741.123	1818.44
744.498	1233.31
747.872	815.781
751.247	550.207
754.622	334.957
757.997	183.634
761.372	96.0435
764.747	38.3726
768.121	24.3516
771.496	39.8672
774.871	37.6602
778.246	33.7441
781.621	16.5483
784.995	133.278
788.37	255.808
791.745	439.864
795.12	678.676
798.495	956.746
801.87	1369.98
805.244	1885.42
808.619	2524.9
811.994	3313.43
815.369	4257.4
818.744	5270.54
822.119	6077.6
825.493	6378.38
828.868	6076.99
832.243	5311.17
835.618	4412.96
838.993	3717.46
842.367	3252.4
845.742	2996.42
849.117	2762.91
852.492	2457.76
855.867	2062.09
859.241	1643.01
862.616	1230.21
865.991	871.316
869.366	625.153
872.741	447.154
876.115	302.856
879.49	220.295
882.865	145.982
886.24	93.479
889.615	64.355
892.99	47.1494
896.364	11.0249
899.739	4.39062
903.114	12.6479
906.489	9.7583
909.864	0.088379
913.239	14.1958
916.613	1.68506
919.988	2.62451
923.363	6.98144
926.738	12.0898
930.113	30.1919
933.487	81.915
936.862	165.116
940.237	276.078
943.612	420.924
946.987	570.074
950.361	721.218
953.736	780.966
957.111	656.641
960.486	411.88
963.861	211.747
967.236	106.088
970.61	45.7105
973.985	21.8101
977.36	1.28955
980.735	3.53857
984.11	11.6709
987.485	28.8638
990.859	6.24316
994.234	25.7573
997.609	11.2944
1000.98	8.3042
1004.36	11.2339
1007.73	6.77295
1011.11	11.9062
1014.48	20.5679
1017.86	11.0332
1021.23	6.04785
1024.61	9.46045
1027.98	21.4185
1031.36	20.8066
1034.73	43.7051
1038.11	66.2319
1041.48	106.114
1044.86	151.983
1048.23	215.493
1051.61	279.899
1054.98	332.203
1058.36	339.5
1061.73	314.986
1065.11	279.78
1068.48	242.341
1071.86	205.662
1075.23	174.875
1078.6	129.05
1081.98	85.4473
1085.35	53.0727
1088.73	39.3227
1092.1	25.832
1095.48	14.3252
1098.85	8.51318
1102.23	1.50684
1105.6	8.52246
1108.98	9.12598
1112.35	3.77734
1115.73	14.2046
1119.1	25.8867
1122.48	27.852
1125.85	4.03711
1129.23	0.598633
1132.6	16.1094
1135.98	9.07666
1139.35	16.8765
1142.73	25.6602
1146.1	10.4199
1149.48	15.4976
1152.85	31.2383
1156.22	37.8682
1159.6	53.9863
1162.97	17.7944
1166.35	20.853
1169.72	12.4863
1173.1	25.3564
1176.47	39.2602
1179.85	36.2798
1183.22	32.8042
1186.6	46.0815
1189.97	35.9692
1193.35	40.5395
1196.72	29.9727
1200.1	32.2036
1203.47	12.7988
1206.85	37.5147
1210.22	30.3955
1213.6	19.3467
1216.97	24.8276
1220.35	35.8599
1223.72	23.2217
1227.1	12.0718
1230.47	1.61377
1233.85	17.1787
1237.22	14.5034
1240.6	7.14062
1243.97	23.8052
1247.35	14.5264
1250.72	21.5928
1254.1	23.9727
1257.47	44.7705
1260.85	24.314
1264.22	8.61279
1267.59	3.63428
1270.97	5.38379
1274.34	9.29736
1277.72	14.4556
1281.09	7.00439
1284.47	8.20264
1287.84	24.29
1291.22	11.3203
1294.59	28.5322
1297.97	22.0225
1301.34	2.38428
