Measurement: Raman, 532 nm, unoriented, Raman Data Processed
Mineral: Dukeite
Rruff sample: R070441
Ideal chemistry: Bi^3+^_24_Cr^6+^_8_O_57_(OH)_6_3H_2_O
Locality: Posse mine (Posse Farm), São José de Brejaúba, Conceição do Mato Dentro, Minas Gerais, Brazil
Source: Michael Scott
Description: Bright yellow massive, co-type sample, associated with light brown pucherite
Raman shift (cm-1)	intensity
140.031	0
143.406	426.64
146.78	1876.88
150.155	3742.42
153.53	6240
156.905	9523.65
160.28	11722
163.655	10965.3
167.029	7021.17
170.404	3619.9
173.779	1643.44
177.154	755.016
180.529	217.294
183.904	12.6367
187.278	19.5239
190.653	136.401
194.028	471.233
197.403	637.744
200.778	964.737
204.152	1390.16
207.527	1724.35
210.902	2026.58
214.277	2126.33
217.652	1846.24
221.026	1411.27
224.401	824.521
227.776	421.134
231.151	155.147
234.526	13.206
237.901	105.729
241.275	143.631
244.65	64.6206
248.025	73.8184
251.4	34.8491
254.775	14.0679
258.149	50.4131
261.524	4.92285
264.899	85.0772
268.274	113.103
271.649	173.844
275.024	158.489
278.398	175.552
281.773	290.373
285.148	335.199
288.523	434.024
291.898	508.698
295.272	656.929
298.647	835.872
302.022	1049.17
305.397	1529.72
308.772	2502.79
312.147	4198.16
315.521	6990.41
318.896	11195.5
322.271	16601.6
325.646	22052.9
329.021	24612.1
332.395	21931.1
335.77	15891.6
339.145	10092.3
342.52	6097.02
345.895	3425.85
349.27	1991.3
352.644	1232.46
356.019	838.621
359.394	902.083
362.769	1159.58
366.144	1851.99
369.519	2938.74
372.893	4259.35
376.268	5618.44
379.643	6757.73
383.018	7368.84
386.392	6612.43
389.767	5454.53
393.142	3919.36
396.517	2790.01
399.892	1644.54
403.267	685.812
406.641	384.651
410.016	135.069
413.391	83.8184
416.766	34.5503
420.141	43.5283
423.515	15.1577
426.89	35.6577
430.265	60.4585
433.64	52.6924
437.015	21.7354
440.39	43.4971
443.764	63.5
447.139	1.57764
450.514	73.8623
453.889	118.689
457.264	178.37
460.639	226.797
464.013	205.747
467.388	297.957
470.763	226.617
474.138	253.343
477.513	304.386
480.887	291.394
484.262	305.575
487.637	264.204
491.012	213.626
494.387	90.9775
497.762	77.6738
501.136	81.3037
504.511	9.2334
507.886	25.1182
511.261	47.9351
514.636	33.1709
518.01	41.7339
521.385	25.7998
524.76	9.66943
528.135	4.07129
531.51	56.0649
534.885	46.0312
538.259	3.66065
541.634	35.687
545.009	59.9099
548.384	14.5486
551.759	21.271
555.133	31.0889
558.508	16.989
561.883	6.34863
565.258	29.582
568.633	39.4067
572.007	55.5566
575.382	37.814
578.757	53.8506
582.132	50.5566
585.507	49.4514
588.882	35.654
592.256	103.528
595.631	124.532
599.006	149.099
602.381	149.477
605.756	210.246
609.13	208.481
612.505	213.887
615.88	251.049
619.255	195.603
622.63	175.754
626.005	140.219
629.379	113.149
632.754	94.1743
636.129	116.353
639.504	100.888
642.879	124.156
646.254	107.126
649.628	142.553
653.003	212.08
656.378	218.417
659.753	244.409
663.128	253.877
666.502	277.592
669.877	284.534
673.252	311.503
676.627	259.028
680.002	249.081
683.376	279.379
686.751	224.482
690.126	272.115
693.501	271.234
696.876	335.346
700.25	282.641
703.625	354.891
707	300.759
710.375	251.797
713.75	247.762
717.125	259.813
720.5	174.674
723.874	101.94
727.249	91.6206
730.624	127.166
733.999	63.6938
737.374	23.3657
740.748	1.57715
744.123	34.8242
747.498	25.977
750.873	105.107
754.248	143.196
757.622	110.766
760.997	114.481
764.372	85.2398
767.747	44.3677
771.122	79.1636
774.496	302.547
777.871	460.52
781.246	827.971
784.621	1284.44
787.996	1890.93
791.371	2793.49
794.745	4005.02
798.12	5681.89
801.495	8036.73
804.87	11237.9
808.245	15150.6
811.62	19904.3
814.994	24994.8
818.369	29809.4
821.744	33130.7
825.119	33425.3
828.494	29247.5
831.868	21126
835.243	14985.6
838.618	12787.9
841.993	11992
845.368	11057.9
848.742	10041.4
852.117	9226.9
855.492	8144.4
858.867	7122.01
862.242	6145.4
865.617	5515.05
868.991	5191.18
872.366	5211.77
875.741	5114.65
879.116	4727.51
882.491	4051.57
885.865	3315.54
889.24	2548.12
892.615	1978.69
895.99	1459.31
899.365	1019.98
902.74	642.318
906.114	363.627
909.489	96.374
912.864	99.1875
916.239	111.401
919.614	132.601
922.989	120.674
926.363	127.031
929.738	57.7246
933.113	18.2031
936.488	9.59619
939.862	97.231
943.237	122.471
946.612	167.648
949.987	213.305
953.362	263.342
956.737	307.734
960.111	326.711
963.486	363.464
966.861	375.406
970.236	435.519
973.611	422.226
976.986	440.463
980.36	412.575
983.735	303.232
987.11	352.019
990.485	325.945
993.86	276.91
997.234	226.639
1000.61	230.397
1003.98	225.257
1007.36	178.282
1010.73	212.029
1014.11	238.89
1017.48	164.485
1020.86	170.499
1024.23	123.68
1027.61	160.052
1030.98	176.062
1034.36	175.94
1037.73	146.677
1041.11	110.576
1044.48	178.117
1047.86	200.266
1051.23	141.31
1054.61	139.614
1057.98	145.459
1061.36	154.788
1064.73	150.081
1068.11	152.181
1071.48	129.857
1074.86	92.5942
1078.23	45.8757
1081.61	42.187
1084.98	42.0955
1088.35	18.0925
1091.73	24.7105
1095.1	37.4175
1098.48	20.9446
1101.85	31.3562
1105.23	9.19019
1108.6	35.9153
1111.98	8.68433
1115.35	7.60962
1118.73	25.5237
1122.1	19.3665
1125.48	2.14087
1128.85	44.5232
1132.23	17.531
1135.6	60.5681
1138.98	80.6492
1142.35	124.171
1145.73	76.2192
1149.1	92.2163
1152.48	123.333
1155.85	128.035
1159.23	55.7117
1162.6	87.4727
1165.97	64.9412
1169.35	37.0757
1172.72	2.89111
1176.1	35.0181
1179.47	76.3098
1182.85	17.3049
1186.22	56.3452
1189.6	38.7229
1192.97	31.0566
1196.35	4.35791
1199.72	40.0557
1203.1	3.3584
1206.47	2.13037
1209.85	67.125
1213.22	59.0776
1216.6	86.0972
1219.97	111.672
1223.35	119.51
1226.72	106.614
1230.1	84.0269
1233.47	99.7759
1236.85	114.415
1240.22	107.897
1243.6	102.525
1246.97	94.8286
1250.35	92.0195
1253.72	86.2563
1257.1	59.7598
1260.47	87.9629
1263.85	45.5708
1267.22	55.6411
1270.6	78.1831
1273.97	5.62598
1277.34	45.8418
1280.72	68.4458
1284.09	8.58447
1287.47	48.3496
1290.84	11.0337
1294.22	11.0552
