Measurement: Raman, 780 nm, unoriented, Raman Data Processed
Mineral: Dukeite
Rruff sample: R070441
Ideal chemistry: Bi^3+^_24_Cr^6+^_8_O_57_(OH)_6_3H_2_O
Locality: Posse mine (Posse Farm), São José de Brejaúba, Conceição do Mato Dentro, Minas Gerais, Brazil
Source: Michael Scott
Description: Bright yellow massive, co-type sample, associated with light brown pucherite
Raman shift (cm-1)	intensity
117.113	0
120.488	24.043
123.862	433.469
127.237	843.019
130.612	1456.97
133.987	1931.69
137.362	2850.21
140.737	3936.42
144.111	5148.28
147.486	7268.02
150.861	10245.8
154.236	14146.4
157.611	17576.2
160.986	21392.8
164.36	24102.3
167.735	20759.7
171.11	13469.6
174.485	7849.54
177.859	4781.56
181.234	3089.82
184.609	2181.22
187.984	1682.85
191.359	1357.24
194.734	1272.67
198.108	1463.37
201.483	1409.52
204.858	1633.41
208.233	1683.9
211.608	1682.28
214.982	1761.29
218.357	1707.26
221.732	1192.4
225.107	706.887
228.482	376.768
231.857	45.0391
235.231	14.3789
238.606	143.477
241.981	172.346
245.356	93.8301
248.731	84.0312
252.106	13.502
255.48	127.562
258.855	55.3945
262.23	117.836
265.605	183.863
268.98	357.482
272.354	359.865
275.729	597.896
279.104	568.557
282.479	484.334
285.854	377.647
289.228	509.859
292.603	551.926
295.978	570.516
299.353	766.779
302.728	1049.3
306.103	1618.25
309.477	2608.38
312.852	4528.44
316.227	8002.89
319.602	13082.6
322.977	20009.8
326.351	27905.8
329.726	34279.6
333.101	32702.7
336.476	24230.9
339.851	15472.9
343.226	9281.66
346.6	5340.31
349.975	2967.15
353.35	1735.06
356.725	1158.18
360.1	1024.54
363.474	1142.62
366.849	1568.29
370.224	2357.68
373.599	3608.95
376.974	4944.87
380.349	6639.16
383.723	7936.41
387.098	7401.9
390.473	5943.16
393.848	4413.63
397.223	3239.17
400.597	1899.59
403.972	832.789
407.347	387.789
410.722	157.928
414.097	100.441
417.471	148.81
420.846	38.4082
424.221	27.8984
427.596	106.926
430.971	78.1797
434.346	17.7129
437.72	10.2617
441.095	28.166
444.47	29.7656
447.845	73.7363
451.22	91.9434
454.594	1.68555
457.969	91.9512
461.344	74.5898
464.719	128.15
468.094	248.102
471.469	247.893
474.843	273.99
478.218	364.426
481.593	378.922
484.968	338.356
488.343	370.418
491.717	394.867
495.092	367.84
498.467	394.887
501.842	411.873
505.217	286.793
508.592	276.315
511.966	188.301
515.341	197.164
518.716	181.762
522.091	248.191
525.466	246.912
528.841	294.199
532.215	338.746
535.59	360.657
538.965	321.406
542.34	189.678
545.715	160.856
549.089	84.7871
552.464	117.881
555.839	42.1582
559.214	12.8389
562.589	16.875
565.963	59.9688
569.338	69.3057
572.713	33.794
576.088	23.9473
579.463	39.8877
582.837	14.6631
586.212	108.257
589.587	76.7012
592.962	94.6894
596.337	48.502
599.712	218.589
603.086	230.996
606.461	238.935
609.836	305.248
613.211	208.99
616.586	263.138
619.961	232.101
623.335	156.381
626.71	103.791
630.085	113.2
633.46	110.487
636.835	67.5107
640.209	72.7051
643.584	1.73535
646.959	3.1084
650.334	103.403
653.709	75.4736
657.083	51.2607
660.458	170.081
663.833	316.583
667.208	353.958
670.583	317.464
673.958	78.9883
677.332	234.515
680.707	173.388
684.082	96.0918
687.457	156.874
690.832	196.517
694.207	234.268
697.581	161.654
700.956	184.351
704.331	167.795
707.706	189.763
711.081	223.901
714.455	262.373
717.83	167.722
721.205	165.576
724.58	174.248
727.955	47.3633
731.33	99.2305
734.704	8.03711
738.079	57.749
741.454	51.0977
744.829	61.2705
748.204	3.66309
751.578	122.733
754.953	46.6309
758.328	58.5859
761.703	2.16113
765.078	26.3066
768.452	7.47461
771.827	5.34668
775.202	76.5684
778.577	136.735
781.952	211.258
785.327	508.72
788.701	788.525
792.076	1069.32
795.451	1552.83
798.826	2227.47
802.201	3289.88
805.575	4458.73
808.95	6268.63
812.325	8043.57
815.7	10202.6
819.075	12499.2
822.449	14326.7
825.824	15493.3
829.199	14135
832.574	10227.8
835.949	6958.35
839.323	5874.9
842.698	5671.47
846.073	5251.8
849.448	4759.85
852.823	4456.27
856.198	4056.65
859.572	3460.9
862.947	3022.07
866.322	2598.93
869.697	2439.12
873.072	2420
876.447	2424.58
879.821	2216.37
883.196	1971.72
886.571	1602.03
889.946	1256.59
893.321	1066.5
896.695	832.557
900.07	560.981
903.445	435.538
906.82	280.115
910.195	102.049
913.569	79.5772
916.944	52.082
920.319	14.3027
923.694	12.1504
927.069	85.1543
930.444	78.874
933.818	17.5674
937.193	38.627
940.568	4.71875
943.943	8.71387
947.318	39.7275
950.692	70.0459
954.067	101.318
957.442	134.693
960.817	119.315
964.192	210.821
967.567	219.495
970.941	105.186
974.316	178.194
977.691	156.827
981.066	160.35
984.441	173.207
987.816	79.3203
991.19	104.994
994.565	102.444
997.94	89.0752
1001.32	81.6318
1004.69	72.6201
1008.06	121.565
1011.44	20.1426
1014.81	60.6855
1018.19	55.9238
1021.56	57.5508
1024.94	50.2949
1028.31	128.293
1031.69	104.445
1035.06	70
1038.44	64.0713
1041.81	149.561
1045.19	163.423
1048.56	209.534
1051.94	335.338
1055.31	431.97
1058.69	656.661
1062.06	959.996
1065.44	1385.9
1068.81	1328.66
1072.19	959.709
1075.56	374.875
1078.94	199.141
1082.31	105.684
1085.68	98.082
1089.06	61.1973
1092.43	50.2295
1095.81	43.3565
1099.18	4.47852
1102.56	43.6934
1105.93	5.81641
1109.31	26.7139
1112.68	28.9004
1116.06	17.9277
1119.43	69.1279
1122.81	64.3633
1126.18	72.6133
1129.56	86.3955
1132.93	98.8223
1136.31	47.0645
1139.68	71.9258
1143.06	50.0605
1146.43	145.418
1149.81	82.9092
1153.18	103.77
1156.56	118.486
1159.93	142.334
1163.31	131.661
1166.68	129.02
1170.06	146.489
1173.43	46.0254
1176.81	216.606
1180.18	129.97
1183.56	94.0908
1186.93	107.741
1190.3	72.2744
1193.68	42.4522
1197.05	90.0088
1200.43	75.6455
1203.8	121.695
1207.18	100.281
1210.55	59.2383
1213.93	27.543
1217.3	50.9209
1220.68	93.0606
1224.05	46.9473
1227.43	67.9512
1230.8	25.4834
1234.18	64.9062
1237.55	59.5977
1240.93	25.1211
1244.3	68.1973
1247.68	58.4805
1251.05	56.5957
1254.43	44.8164
1257.8	70.9863
1261.18	19.5059
1264.55	84.0664
1267.92	72.1924
1271.3	58.5605
1274.67	0
