Measurement: Raman, 780 nm, unoriented, Raman Data Processed
Mineral: Dumortierite
Rruff sample: R050628
Ideal chemistry: AlAl_6_BSi_3_O_18_
Locality: Minas Gerais, Brazil
Source: Gemological Center
Description: Blue cut gemstone
Measured chemistry: Al_7.00_(B_1.00_O_3_)(Si_1.00_O_4_)_3_O_3_
Raman shift (cm-1)	intensity
149.919	0
152.812	4.20035
155.705	5.84766
158.597	5.7121
161.49	18.975
164.383	48.8249
167.276	60.9485
170.168	41.3749
173.061	10.9064
175.954	1.04452
178.846	2.72748
181.739	6.05533
184.632	20.8765
187.524	46.8519
190.417	87.6698
193.31	141.424
196.203	142.466
199.095	166.778
201.988	236.097
204.881	317.09
207.773	266.181
210.666	191.393
213.559	147.805
216.451	94.7732
219.344	55.6348
222.237	42.1685
225.13	25.1396
228.022	14.0105
230.915	12.2837
233.808	7.8266
236.7	3.65033
239.593	3.95331
242.486	1.7511
245.378	1.63791
248.271	2.19794
251.164	2.33353
254.056	9.492
256.949	9.11609
259.842	12.3984
262.735	16.2568
265.627	19.4506
268.52	22.9723
271.413	27.547
274.305	32.7594
277.198	32.1928
280.091	34.6796
282.983	31.4504
285.876	29.7213
288.769	34.9888
291.662	33.9085
294.554	34.4573
297.447	38.0401
300.34	35.403
303.232	30.815
306.125	25.1419
309.018	14.5455
311.911	5.62582
314.803	1.23169
317.696	3.90122
320.589	4.42554
323.481	0.086548
326.374	1.36838
329.267	5.07971
332.159	13.18
335.052	21.6617
337.945	31.1347
340.837	38.2895
343.73	46.1274
346.623	49.5257
349.516	50.8593
352.408	59.5846
355.301	52.027
358.194	36.3257
361.086	29.7879
363.979	23.8618
366.872	22.165
369.764	22.2053
372.657	24.315
375.55	24.6848
378.442	22.4548
381.335	23.3964
384.228	30.3032
387.121	38.4926
390.013	49.9159
392.906	59.3301
395.799	67.9872
398.691	69.3758
401.584	61.8541
404.477	53.1846
407.37	46.5928
410.262	47.7485
413.155	47.0538
416.048	45.5253
418.94	47.4407
421.833	42.4625
424.726	31.7878
427.618	20.9128
430.511	12.1592
433.404	4.10109
436.296	3.78252
439.189	4.39871
442.082	1.66269
444.975	0.092896
447.867	0.527008
450.76	2.31596
453.653	0.687073
456.545	3.12071
459.438	0.831635
462.331	2.2657
465.224	0.937668
468.116	2.98328
471.009	11.6032
473.902	21.91
476.794	32.7967
479.687	42.4222
482.58	54.945
485.472	68.5843
488.365	87.5265
491.258	113.726
494.151	135.844
497.043	146.37
499.936	129.5
502.829	139.988
505.721	160.053
508.614	168.688
511.507	137.148
514.399	86.1228
517.292	47.614
520.185	27.2833
523.077	12.9101
525.97	6.66324
528.863	3.90364
531.756	0.779556
534.648	1.40212
537.541	8.48441
540.434	11.2214
543.326	14.4281
546.219	18.5798
549.112	21.9968
552.004	23.5405
554.897	24.6903
557.79	27.9525
560.683	24.3879
563.575	24.4827
566.468	26.538
569.361	22.2969
572.253	17.0826
575.146	14.8866
578.039	10.7981
580.931	7.31261
583.824	7.88919
586.717	5.13826
589.61	6.38171
592.502	0.09668
595.395	1.4314
598.288	0.830231
601.18	0.015671
604.073	3.86359
606.966	9.15715
609.858	14.5182
612.751	18.3511
615.644	14.7351
618.537	7.87833
621.429	1.62474
624.322	1.94377
627.215	3.93639
630.107	7.5522
633	17.525
635.893	36.9793
638.785	80.9247
641.678	60.6047
644.571	29.8353
647.463	19.7371
650.356	19.9481
653.249	18.3034
656.141	15.6798
659.034	10.2964
661.927	10.1587
664.82	16.3712
667.712	18.2814
670.605	20.3137
673.498	16.7307
676.39	14.6878
679.283	12.2195
682.176	10.7215
685.068	10.7094
687.961	8.03458
690.854	9.25148
693.747	7.37402
696.639	4.67729
699.532	6.53571
702.425	3.327
705.317	2.13509
708.21	1.21794
711.103	0.85556
713.995	0.253937
716.888	1.06871
719.781	2.75728
722.674	6.29123
725.566	8.58521
728.459	16.0403
731.352	15.789
734.244	23.1626
737.137	25.5194
740.03	17.5908
742.923	10.3653
745.815	6.99817
748.708	7.09499
751.601	5.12637
754.493	7.41357
757.386	8.97098
760.279	6.68414
763.171	9.0457
766.064	4.00311
768.957	5.41519
771.85	1.43237
774.742	0.545685
777.635	3.40491
780.528	0.424469
783.42	1.83328
786.313	0.116043
789.206	1.0124
792.098	9.22711
794.991	12.0515
797.884	24.8287
800.776	38.1889
803.669	60.2409
806.562	84.6041
809.455	104.502
812.347	103.859
815.24	91.7989
818.133	94.4895
821.025	95.5062
823.918	91.93
826.811	83.4575
829.703	82.1589
832.596	83.0293
835.489	92.5375
838.381	99.3991
841.274	98.0525
844.167	94.8283
847.06	83.6193
849.952	68.5147
852.845	55.1578
855.738	42.3454
858.63	34.0592
861.523	22.4648
864.416	16.8698
867.308	9.56
870.201	7.90752
873.094	5.55702
875.987	2.71455
878.879	0.114517
881.772	0.222366
884.665	1.03181
887.557	4.14398
890.45	1.08899
893.343	6.46303
896.236	9.14163
899.128	13.8812
902.021	16.8454
904.914	18.875
907.806	23.2973
910.699	32.636
913.592	39.4358
916.484	42.1903
919.377	41.0143
922.27	42.8067
925.163	44.3315
928.055	54.0236
930.948	64.227
933.841	74.6576
936.733	87.555
939.626	92.1368
942.519	98.0063
945.411	97.1256
948.304	94.034
951.197	88.553
954.09	78.1752
956.982	69.2365
959.875	62.1308
962.768	53.4125
965.66	49.8874
968.553	38.9973
971.446	31.6302
974.338	20.5901
977.231	14.637
980.124	11.4783
983.016	8.0667
985.909	5.5204
988.802	1.0516
991.694	1.52112
994.587	1.03169
997.48	0.647995
1000.37	3.75412
1003.26	0.713318
1006.16	0.455521
1009.05	0.549469
1011.94	2.99603
1014.84	4.73622
1017.73	3.97397
1020.62	2.40642
1023.51	1.32472
1026.41	0.167725
1029.3	3.73343
1032.19	11.0671
1035.09	14.9949
1037.98	28.8565
1040.87	33.5362
1043.76	25.8951
1046.66	19.5269
1049.55	17.1363
1052.44	19.5373
1055.33	19.3097
1058.23	21.8461
1061.12	26.157
1064.01	25.8109
1066.9	35.1433
1069.8	35.068
1072.69	40.4388
1075.58	37.2719
1078.47	34.1019
1081.37	28.8637
1084.26	29.707
1087.15	28.478
1090.05	21.3221
1092.94	18.0431
1095.83	14.7189
1098.72	22.5417
1101.62	23.3898
1104.51	32.6518
1107.4	47.6149
1110.3	69.8712
1113.19	85.2019
1116.08	69.6384
1118.97	41.2313
1121.87	21.2319
1124.76	16.998
1127.65	12.51
1130.54	7.57039
1133.44	0.596596
1136.33	1.29594
1139.22	1.20579
1142.12	3.42843
1145.01	4.36702
1147.9	5.57527
1150.79	1.12585
1153.69	0.951241
1156.58	1.31233
1159.47	2.03033
1162.36	3.05457
1165.26	3.56172
1168.15	3.36925
1171.04	3.96898
1173.93	2.06362
1176.83	10.5371
1179.72	22.1834
1182.61	37.4913
1185.51	47.3834
1188.4	42.321
1191.29	29.683
1194.18	14.1994
1197.08	0.601654
1199.97	3.51376
1202.86	1.8208
1205.75	1.64183
1208.65	2.55173
1211.54	10.8315
1214.43	18.8341
1217.33	21.6602
1220.22	26.0873
1223.11	31.8238
1226	38.7199
1228.9	36.2424
1231.79	36.1779
1234.68	30.2236
1237.57	27.1792
1240.47	22.9026
1243.36	19.9752
1246.25	19.7562
1249.14	20.8996
1252.04	17.9245
1254.93	18.8306
1257.82	17.3817
1260.71	13.4875
1263.61	8.29105
1266.5	4.67679
1269.39	2.29474
1272.29	0.138657
1275.18	4.00679
1278.07	3.83998
1280.96	3.7081
1283.86	0.253922
