Measurement: Raman, 532 nm, unoriented, Raman Data Processed
Mineral: Dumortierite
Rruff sample: R060069
Ideal chemistry: AlAl_6_BSi_3_O_18_
Locality: Dehesa, San Diego County, California, USA
Source: University of Arizona Mineral Museum
Description: Radial aggregate of purple acicular crystals
Measured chemistry: (Al_6.89_Ti_0.11_)_Σ=7_(BO_3_)(Si_2.89_Al_0.11_)_Σ=1_O_4_)_3_O_3_ ; B not measured but estimated by difference and charge balance
Raman shift (cm-1)	intensity
153.667	0
156.56	5.70007
159.453	1.60742
162.345	6.03931
165.238	7.65173
168.131	0.301025
171.023	6.64575
173.916	1.78357
176.809	2.64429
179.702	11.6625
182.594	14.486
185.487	25.5605
188.38	50.4487
191.272	70.9695
194.165	91.9752
197.058	105.535
199.95	106.144
202.843	112.935
205.736	111.566
208.629	105.69
211.521	85.6157
214.414	74.9718
217.307	64.2734
220.199	51.0579
223.092	39.3866
225.985	35.5559
228.877	35.8787
231.77	33.4399
234.663	32.0007
237.555	25.3271
240.448	20.8967
243.341	26.7351
246.234	23.7856
249.126	23.1426
252.019	26.6965
254.912	37.1833
257.804	53.1431
260.697	88.0813
263.59	98.1323
266.483	73.4927
269.375	101.022
272.268	116.473
275.161	120.839
278.053	128.958
280.946	130.302
283.839	127.886
286.731	121.895
289.624	110.388
292.517	96.7439
295.409	77.3523
298.302	70.7339
301.195	53.6836
304.088	34.8984
306.98	22.6716
309.873	22.054
312.766	10.4644
315.658	0.742188
318.551	2.88794
321.444	2.77905
324.337	2.73853
327.229	8.42969
330.122	2.0874
333.015	10.4873
335.907	21.3394
338.8	21.8257
341.693	25.2564
344.585	45.9793
347.478	55.77
350.371	61.6135
353.264	65.3982
356.156	76.0845
359.049	89.6465
361.942	98.5769
364.834	95.3662
367.727	98.6033
370.62	95.7915
373.512	84.1697
376.405	79.501
379.298	75.8198
382.19	76.6411
385.083	77.7708
387.976	71.8865
390.869	73.7517
393.761	72.9104
396.654	80.2454
399.547	81.1733
402.439	90.3857
405.332	82.9194
408.225	84.9622
411.118	83.3201
414.01	64.7666
416.903	56.804
419.796	37.3699
422.688	29.1125
425.581	14.8289
428.474	9.31934
431.366	3.31909
434.259	3.61865
437.152	8.96338
440.044	4.31885
442.937	0.706787
445.83	10.7466
448.723	6.36597
451.615	13.5896
454.508	16.5022
457.401	27.9988
460.293	29.8809
463.186	36.6511
466.079	38.7698
468.971	47.9312
471.864	52.9248
474.757	63.6765
477.649	69.8904
480.542	68.7505
483.435	76.8567
486.328	76.8972
489.22	85.4363
492.113	93.814
495.006	90.8704
497.898	93.4526
500.791	97.0303
503.684	106.708
506.577	118.049
509.469	112.183
512.362	94.3628
515.255	91.855
518.147	92.9258
521.04	76.4426
523.933	70.0332
526.825	63.4487
529.718	60.0552
532.611	47.6047
535.504	41.145
538.396	39.6609
541.289	42.9512
544.182	38.5481
547.074	43.3792
549.967	48.3862
552.86	56.907
555.752	49.5669
558.645	56.1262
561.538	55.5742
564.431	49.3862
567.323	39.8108
570.216	26.1382
573.109	21.8572
576.001	19.6726
578.894	15.6484
581.787	32.001
584.679	11.1001
587.572	1.48218
590.465	6.80029
593.357	4.26782
596.25	9.9978
599.143	6.37476
602.036	7.85156
604.928	9.55151
607.821	9.20508
610.714	11.627
613.606	14.3496
616.499	20.0291
619.392	25.1106
622.284	37.1516
625.177	40.655
628.07	37.1672
630.963	37.3013
633.855	36.7761
636.748	30.4558
639.641	28.7595
642.533	24.4021
645.426	25.96
648.319	30.73
651.212	37.7983
654.104	26.9868
656.997	32.4077
659.89	22.8745
662.782	21.8501
665.675	33.2407
668.568	25.1023
671.46	23.3123
674.353	12.3306
677.246	21.2737
680.139	16.4265
683.031	5.87329
685.924	4.20898
688.817	2.71802
691.709	4.6936
694.602	10.4651
697.495	14.8335
700.387	21.5725
703.28	27.4531
706.173	31.7749
709.066	35.6472
711.958	28.6113
714.851	10.2046
717.744	13.7856
720.636	13.4592
723.529	9.18335
726.422	11.0418
729.314	5.45947
732.207	20.8691
735.1	27.353
737.992	22.397
740.885	30.7786
743.778	35.3708
746.671	32.1873
749.563	36.9001
752.456	47.9692
755.349	48.7353
758.241	38.7253
761.134	38.5261
764.027	20.1746
766.919	16.6987
769.812	20.9343
772.705	12.0757
775.598	7.79956
778.49	0.612061
781.383	5.01685
784.276	2.63843
787.168	3.10644
790.061	11.6538
792.954	8.76636
795.846	5.86963
798.739	3.61523
801.632	2.53467
804.524	8.50171
807.417	7.88721
810.31	17.5024
813.203	9.68457
816.095	15.6096
818.988	9.55298
821.881	6.19946
824.773	16.1863
827.666	23.5847
830.559	24.5408
833.452	32.8391
836.344	31.575
839.237	39.2964
842.13	20.7209
845.022	17.5842
847.915	8.94507
850.808	5.1499
853.7	7.69311
856.593	0.523926
859.486	1.20435
862.379	4.88184
865.271	4.56567
868.164	3.96509
871.057	14.0835
873.949	0.918701
876.842	2.54981
879.735	3.55371
882.627	9.2915
885.52	7.00049
888.413	2.32642
891.306	8.23633
894.198	3.01636
897.091	1.57617
899.984	15.2559
902.876	20.3696
905.769	22.6875
908.662	25.2085
911.554	31.3689
914.447	40.0261
917.34	49.7966
920.232	64.6035
923.125	76.0794
926.018	87.0247
928.911	106.585
931.803	143.618
934.696	177.406
937.589	227.785
940.481	251.614
943.374	285.187
946.267	315.766
949.159	336.719
952.052	310.33
954.945	291.601
957.838	248.936
960.73	207.058
963.623	157.974
966.516	116.266
969.408	96.583
972.301	80.2681
975.194	60.0142
978.087	50.1484
980.979	50.3735
983.872	52.9092
986.765	64.574
989.657	80.0396
992.55	94.1277
995.443	80.3481
998.335	94.2974
1001.23	107.435
1004.12	107.98
1007.01	94.1345
1009.91	85.4021
1012.8	76.7449
1015.69	67.9321
1018.58	54.4333
1021.48	48.5884
1024.37	42.846
1027.26	38.8701
1030.15	25.499
1033.05	17.2053
1035.94	15.0273
1038.83	15.1035
1041.73	12.2849
1044.62	4.87109
1047.51	7.84375
1050.4	4.38354
1053.3	1.11914
1056.19	0.289551
1059.08	4.38769
1061.97	4.82007
1064.87	0.323975
1067.76	1.27808
1070.65	1.04712
1073.55	3.43897
1076.44	4.90015
1079.33	13.0501
1082.22	20.2703
1085.12	10.1748
1088.01	24.1516
1090.9	25.8218
1093.79	26.5618
1096.69	23.7251
1099.58	21.0364
1102.47	24.6997
1105.37	16.605
1108.26	24.0071
1111.15	28.864
1114.04	28.093
1116.94	9.67188
1119.83	12.7034
1122.72	9.86499
1125.61	17.6052
1128.51	3.14673
1131.4	6.49854
1134.29	4.3042
1137.18	0.764648
1140.08	5.21021
1142.97	10.419
1145.86	5.83154
1148.76	1.06519
1151.65	7.2124
1154.54	5.46777
1157.43	7.91577
1160.33	7.28027
1163.22	17.8003
1166.11	17.1372
1169.01	19.5493
1171.9	13.113
1174.79	18.844
1177.68	16.9009
1180.58	7.31079
1183.47	7.93164
1186.36	6.85767
1189.25	11.2422
1192.15	8.53442
1195.04	9.02588
1197.93	8.91846
1200.82	11.6113
1203.72	16.0339
1206.61	10.948
1209.5	14.7439
1212.39	0.234131
1215.29	3.9043
1218.18	9.625
1221.07	16.5444
1223.97	18.3044
1226.86	10.2729
1229.75	10.541
1232.64	16.9644
1235.54	14.7229
1238.43	0.428955
1241.32	1.08081
1244.21	11.3904
1247.11	15.679
1250	18.541
1252.89	10.1489
1255.79	5.18579
1258.68	0.939941
1261.57	0.42627
1264.46	3.30078
1267.36	6.30298
1270.25	3.00732
1273.14	0.67041
1276.04	2.57788
1278.93	2.68921
1281.82	10.0156
1284.71	14.1865
1287.61	1.16357
1290.5	6.55518
1293.39	0.082031
