Measurement: Raman, 532 nm, unoriented, Raman Data Processed
Mineral: Dumortierite
Rruff sample: R050628
Ideal chemistry: AlAl_6_BSi_3_O_18_
Locality: Minas Gerais, Brazil
Source: Gemological Center
Description: Blue cut gemstone
Measured chemistry: Al_7.00_(B_1.00_O_3_)(Si_1.00_O_4_)_3_O_3_
Raman shift (cm-1)	intensity
161.022	0
163.915	17.5286
166.808	56.7246
169.7	56.9568
172.593	14.3406
175.486	2.11963
178.379	0.711182
181.271	8.53882
184.164	35.206
187.057	81.0083
189.949	164.468
192.842	275.369
195.735	356.128
198.627	428.881
201.52	544.776
204.413	762.816
207.305	794.824
210.198	592.105
213.091	450.635
215.984	304.722
218.876	171.948
221.769	100.933
224.662	61.9487
227.554	31.9155
230.447	20.8757
233.34	10.1834
236.232	6.26196
239.125	7.66162
242.018	3.45361
244.911	4.29419
247.803	5.2207
250.696	9.22437
253.589	33.4028
256.481	27.8433
259.374	35.9778
262.267	43.3455
265.16	44.0168
268.052	54.7927
270.945	54.6624
273.838	69.324
276.73	77.6697
279.623	88.8508
282.516	98.6958
285.409	100.495
288.301	102.356
291.194	103.92
294.087	106.633
296.979	98.1646
299.872	109.764
302.765	94.2119
305.657	72.9326
308.55	57.8367
311.443	33.7676
314.336	13.2327
317.228	7.49316
320.121	3.44678
323.014	5.05689
325.906	5.5354
328.799	5.5874
331.692	17.2761
334.584	30.2615
337.477	45.167
340.37	64.0435
343.263	74.1277
346.155	84.6096
349.048	95.6406
351.941	104.293
354.833	108.409
357.726	76.4265
360.619	41.7764
363.512	38.1582
366.404	27.5935
369.297	22.855
372.19	17.5442
375.082	26.3015
377.975	24.9736
380.868	26.3105
383.76	34.9038
386.653	50.4463
389.546	64.3149
392.438	79.5125
395.331	105.095
398.224	110.418
401.117	117.907
404.009	120.728
406.902	120.577
409.795	114.335
412.688	121.335
415.58	123.614
418.473	132.342
421.366	125.102
424.258	91.03
427.151	59.5388
430.044	31.0732
432.936	9.60791
435.829	7.23877
438.722	8.96191
441.615	1.24487
444.507	0.60498
447.4	7.10742
450.293	4.00806
453.185	6.94434
456.078	0.468994
458.971	1.11792
461.863	6.51123
464.756	2.90649
467.649	12.2639
470.541	33.6145
473.434	51.1416
476.327	71.8323
479.22	99.4307
482.112	134.795
485.005	149.741
487.898	186.748
490.791	241.465
493.683	300.883
496.576	345.223
499.469	344.115
502.361	365.478
505.254	414.739
508.147	441.935
511.039	395.801
513.932	271.217
516.825	158.342
519.717	96.1489
522.61	45.687
525.503	30.4627
528.396	23.0154
531.288	9.99927
534.181	10.7205
537.074	21.4004
539.966	13.7664
542.859	23.0193
545.752	30.146
548.644	27.6057
551.537	26.0623
554.43	26.8923
557.323	27.7607
560.215	33.3977
563.108	22.9065
566.001	36.3506
568.894	38.5012
571.786	36.4067
574.679	27.3818
577.572	26.1421
580.464	16.8896
583.357	13.471
586.25	19.1267
589.142	10.906
592.035	12.4702
594.928	6.34766
597.821	1.22144
600.713	4.52344
603.606	3.18774
606.499	11.3101
609.391	5.92163
612.284	19.2964
615.177	12.9585
618.069	2.38965
620.962	6.53906
623.855	4.02661
626.748	2.40088
629.64	9.1394
632.533	3.59985
635.426	1.55811
638.318	26.4219
641.211	30.1909
644.104	13.8374
646.996	17.5176
649.889	12.416
652.782	11.77
655.675	17.9468
658.567	13.3081
661.46	11.8694
664.353	13.3569
667.245	20.2158
670.138	21.3286
673.031	24.5115
675.923	21.3774
678.816	15.5579
681.709	18.5244
684.602	17.7178
687.494	16.1982
690.387	16.1543
693.28	18.2483
696.172	5.75293
699.065	4.52393
701.958	14.5564
704.851	8.37378
707.743	14.1941
710.636	8.47632
713.529	9.09155
716.421	9.33472
719.314	6.84448
722.207	7.83496
725.1	8.72827
727.992	23.9392
730.885	27.1357
733.778	27.9529
736.67	27.0603
739.563	18.9334
742.456	14.2239
745.348	24.0967
748.241	15.1374
751.134	14.3235
754.027	15.1199
756.919	11.7021
759.812	10.8809
762.705	1.49902
765.597	2.18506
768.49	7.94922
771.383	12.7842
774.275	8.34009
777.168	3.40308
780.061	1.16553
782.954	0.154297
785.846	2.30298
788.739	0.381836
791.632	15.927
794.524	19.738
797.417	37.7227
800.31	66.814
803.202	108.691
806.095	149.444
808.988	185.275
811.881	181.402
814.773	164.352
817.666	133.228
820.559	111.546
823.451	100.004
826.344	83.8162
829.237	88.0359
832.13	98.6706
835.022	106.641
837.915	112.984
840.808	127.494
843.7	126.756
846.593	129.446
849.486	114.355
852.378	92.3921
855.271	74.4612
858.164	54.2605
861.057	32.4905
863.949	17.0579
866.842	8.66089
869.735	7.54126
872.627	2.09717
875.52	0.467285
878.413	12.5998
881.306	5.12207
884.198	9.35547
887.091	3.24097
889.984	15.9045
892.876	11.2275
895.769	32.47
898.662	34.2373
901.554	43.2793
904.447	51.4712
907.34	64.1638
910.232	79.5102
913.125	103.04
916.018	113.366
918.911	111.194
921.803	120.169
924.696	129.218
927.589	152.86
930.481	184.196
933.374	221.894
936.267	239.682
939.159	278.39
942.052	307.944
944.945	304.185
947.838	306.996
950.73	296.068
953.623	259.235
956.516	249.832
959.409	225.846
962.301	212.524
965.194	184.433
968.087	156.323
970.979	116.967
973.872	100.871
976.765	74.0757
979.657	59.5374
982.55	37.469
985.443	23.4416
988.336	30.2026
991.228	30.3113
994.121	20.8704
997.014	11.6711
999.906	13.2839
1002.8	4.29858
1005.69	0.322754
1008.58	9.86548
1011.48	8.10132
1014.37	11.4458
1017.26	8.7688
1020.15	2.22437
1023.05	3.48755
1025.94	11.0632
1028.83	7.69653
1031.73	5.76269
1034.62	20.1597
1037.51	12.623
1040.4	18.835
1043.3	19.8931
1046.19	21.4544
1049.08	35.1821
1051.97	33.1057
1054.87	40.353
1057.76	58.8789
1060.65	64.0727
1063.55	87.6677
1066.44	102.534
1069.33	116.657
1072.22	134.206
1075.12	151.378
1078.01	146.294
1080.9	135.054
1083.8	111.407
1086.69	82.365
1089.58	56.739
1092.47	48.9978
1095.37	51.3879
1098.26	47.3845
1101.15	60.8611
1104.04	69.5259
1106.94	73.7883
1109.83	85.3975
1112.72	100.333
1115.62	93.3025
1118.51	73.4092
1121.4	57.404
1124.29	39.3469
1127.18	26.929
1130.08	16.429
1132.97	8.29468
1135.86	11.4697
1138.76	11.3433
1141.65	10.1765
1144.54	2.35059
1147.43	8.1543
1150.33	5.39307
1153.22	1.97559
1156.11	0.624023
1159.01	5.99951
1161.9	0.950439
1164.79	0.927734
1167.68	0.60791
1170.58	1.28467
1173.47	8.80371
1176.36	19.7676
1179.25	19.4441
1182.15	26.9756
1185.04	38.2075
1187.93	32.5537
1190.83	12.7063
1193.72	10.2095
1196.61	6.95288
1199.5	5.80249
1202.4	0.630615
1205.29	1.52515
1208.18	0.686035
1211.07	10.0625
1213.97	18.9924
1216.86	22.5942
1219.75	23.3967
1222.64	28.999
1225.54	36.4028
1228.43	32.2766
1231.32	29.6912
1234.21	24.7371
1237.11	19.8562
1240	19.1523
1242.89	21.8464
1245.79	18.092
1248.68	25.481
1251.57	24.6133
1254.46	22.1523
1257.36	18.8401
1260.25	5.92432
1263.14	2.4331
1266.04	1.72217
1268.93	22.8579
1271.82	7.34619
1274.71	7.55396
1277.61	8.72241
1280.5	1.05469
1283.39	6.73193
1286.28	9.6355
1289.18	17.6316
1292.07	11.6086
1294.96	15.8601
1297.86	0.529297
1300.75	6.06421
