Measurement: Raman, 532 nm, unoriented, Raman Data Processed
Mineral: Dundasite
Rruff sample: R090038
Ideal chemistry: Pb^2+^Al_2_(CO_3_)_2_(OH)_4_H_2_O
Locality: Tsumeb, Namibia
Source: William W. Pinch
Description: Colorless acicular crystals in spherical aggregates on matrix.
Raman shift (cm-1)	intensity
131.131	0
134.506	6.88678
137.881	51.134
141.255	101.398
144.63	182.166
148.005	298.922
151.38	321.8
154.755	304.127
158.13	275.107
161.504	307.089
164.879	387.499
168.254	486.441
171.629	515.322
175.004	450.769
178.379	385.237
181.753	358.53
185.128	364.443
188.503	384.365
191.878	402.345
195.253	394.348
198.627	343.746
202.002	299.278
205.377	252.122
208.752	196.472
212.127	153.817
215.501	144.41
218.876	170.497
222.251	216.725
225.626	268.877
229.001	359.755
232.376	454.632
235.75	435.653
239.125	242.887
242.5	88.5198
245.875	25.9533
249.25	5.19235
252.625	12.3679
255.999	17.5173
259.374	10.4695
262.749	3.10678
266.124	19.7011
269.499	35.7996
272.873	50.5132
276.248	67.6927
279.623	89.0912
282.998	106.615
286.373	119.484
289.748	142.584
293.122	168.131
296.497	173.66
299.872	154.197
303.247	133.67
306.622	126.985
309.997	137.101
313.371	134.877
316.746	122.659
320.121	99.1396
323.496	50.6618
326.871	14.1744
330.245	0.479675
333.62	5.28159
336.995	1.52097
340.37	1.88126
343.745	6.85608
347.12	13.7669
350.494	22.3959
353.869	25.6799
357.244	18.0271
360.619	22.3491
363.994	22.5848
367.368	24.9411
370.743	26.0415
374.118	24.9178
377.493	21.3325
380.868	18.5752
384.243	13.0032
387.617	15.6431
390.992	17.4095
394.367	18.8732
397.742	18.5666
401.117	21.3583
404.491	9.92313
407.866	10.7103
411.241	6.98294
414.616	11.5072
417.991	24.0997
421.366	35.0648
424.74	51.6989
428.115	72.3825
431.49	76.3366
434.865	79.6779
438.24	65.5412
441.615	47.8316
444.989	30.3831
448.364	14.2761
451.739	9.36072
455.114	2.93552
458.489	6.59525
461.863	6.29453
465.238	10.6765
468.613	11.5885
471.988	18.108
475.363	21.6621
478.738	22.3133
482.112	10.4709
485.487	6.41367
488.862	0.239594
492.237	3.87521
495.612	4.85107
498.986	1.33295
502.361	1.79391
505.736	3.64148
509.111	3.71262
512.486	2.64062
515.861	6.02875
519.235	9.86343
522.61	12.3089
525.985	16.6124
529.36	27.2806
532.735	32.2928
536.11	46.1408
539.484	60.4261
542.859	80.5427
546.234	91.0027
549.609	107.076
552.984	115.622
556.358	130.067
559.733	147.985
563.108	157.304
566.483	161.519
569.858	162.145
573.232	147.262
576.607	124.295
579.982	99.2006
583.357	77.2595
586.732	52.4165
590.107	37.0414
593.481	24.9469
596.856	16.8183
600.231	12.4301
603.606	6.00552
606.981	5.93085
610.356	2.98575
613.73	1.62613
617.105	1.32385
620.48	1.53845
623.855	3.04895
627.23	0.555511
630.605	3.32358
633.979	5.20407
637.354	9.99945
640.729	17.0831
644.104	27.7597
647.479	32.2656
650.853	31.0132
654.228	23.0733
657.603	17.6247
660.978	7.46954
664.353	5.3324
667.727	1.38275
671.102	2.77847
674.477	0.269379
677.852	0.501129
681.227	0.103394
684.602	0.706665
687.976	8.00397
691.351	12.118
694.726	13.315
698.101	27.3368
701.476	36.0293
704.851	44.5456
708.225	53.1008
711.6	61.5808
714.975	62.0507
718.35	65.2901
721.725	63.6668
725.1	65.4971
728.474	69.063
731.849	67.9111
735.224	56.366
738.599	40.4616
741.974	31.9299
745.348	29.95
748.723	28.2715
752.098	27.0629
755.473	32.2059
758.848	29.0842
762.222	20.8025
765.597	9.33832
768.972	9.58572
772.347	4.16943
775.722	0.079407
779.097	0.236633
782.471	0.899445
785.846	4.38837
789.221	0.60498
792.596	1.91547
795.971	0.521179
799.346	0.598206
802.72	0.325104
806.095	0.267487
809.47	4.89011
812.845	3.57745
816.22	8.67288
819.595	11.5037
822.969	14.2263
826.344	9.17026
829.719	15.255
833.094	14.0504
836.469	13.993
839.843	16.7318
843.218	21.3272
846.593	18.662
849.968	10.814
853.343	7.48383
856.717	4.39203
860.092	3.77655
863.467	5.98285
866.842	6.24976
870.217	10.6016
873.592	9.0253
876.966	12.4102
880.341	16.3716
883.716	16.4546
887.091	19.9713
890.466	18.7483
893.841	23.8332
897.215	23.9134
900.59	29.9591
903.965	30.7866
907.34	27.0102
910.715	26.5396
914.09	22.2933
917.464	19.753
920.839	18.7248
924.214	9.03796
927.589	4.65186
930.964	5.75366
934.338	7.07092
937.713	5.8736
941.088	5.90002
944.463	4.22348
947.838	3.49377
951.212	6.04083
954.587	5.0567
957.962	2.72647
961.337	0.147736
964.712	1.04547
968.087	4.01538
971.461	9.04114
974.836	6.96152
978.211	0.075195
981.586	0.317841
984.961	1.93146
988.336	0.976227
991.71	4.49875
995.085	2.08469
998.46	0.526611
1001.84	3.02225
1005.21	0.831024
1008.58	0.299622
1011.96	2.18979
1015.33	7.15167
1018.71	11.2155
1022.08	12.7394
1025.46	14.4652
1028.83	15.6939
1032.21	11.0428
1035.58	12.4396
1038.96	13.5327
1042.33	19.986
1045.71	23.3767
1049.08	30.9882
1052.46	39.8833
1055.83	52.0904
1059.21	69.6779
1062.58	90.1349
1065.96	124.198
1069.33	181.52
1072.71	259.88
1076.08	381.168
1079.46	547.314
1082.83	754.454
1086.2	962.598
1089.58	1056.01
1092.95	985.032
1096.33	759.315
1099.7	503.203
1103.08	311.42
1106.45	202.229
1109.83	139.743
1113.2	107.659
1116.58	91.8212
1119.95	77.5529
1123.33	57.487
1126.7	45.1928
1130.08	22.372
1133.45	18.7898
1136.83	11.265
1140.2	13.0894
1143.58	3.44281
1146.95	7.54694
1150.33	1.31455
1153.7	3.06784
1157.08	1.04614
1160.45	0.807343
1163.83	2.33679
1167.2	1.1763
1170.58	0.98053
1173.95	0.906311
1177.33	2.9118
1180.7	3.97595
1184.08	1.07077
1187.45	1.78851
1190.83	6.41657
1194.2	2.28085
1197.57	2.10831
1200.95	5.53235
1204.32	6.21109
1207.7	10.8065
1211.07	6.28104
1214.45	5.63556
1217.82	3.94888
1221.2	7.54596
1224.57	6.5549
1227.95	2.78897
1231.32	2.16894
1234.7	4.07257
1238.07	3.54144
1241.45	3.33203
1244.82	2.4458
1248.2	5.60388
1251.57	4.84015
1254.95	4.82996
1258.32	2.98853
1261.7	5.233
1265.07	3.09427
1268.45	4.00232
1271.82	5.29608
1275.19	4.75613
1278.57	5.68503
1281.94	6.5043
1285.32	4.76938
1288.69	5.50687
1292.07	3.3692
1295.44	3.24756
1298.82	2.43811
1302.19	0.620911
