Measurement: Raman, 780 nm, unoriented, Raman Data Processed
Mineral: Durangite
Rruff sample: R120118
Ideal chemistry: NaAlAs^5+^O_4_F
Locality: Barranca mine, Coneto de Comonfort, Durango, Mexico
Source: Michael Shannon
Description: Single orange crystal fragment, used in the Downs et al (2012) study
Measured chemistry: (Na_0.95_Li_0.05_)(Al_0.91_Fe^3+^_0.07_Mn^3+^_0.02_)(As_1.0_O_4_)(F_0.73_(OH)_0.27_); Li and H by charge balance and difference
Raman shift (cm-1)	intensity
147.047	0
149.94	2.18266
152.832	9.00949
155.725	21.6353
158.618	37.7941
161.51	59.0086
164.403	80.056
167.296	74.9444
170.189	44.1812
173.081	19.2089
175.974	8.02926
178.867	1.76778
181.759	0.898071
184.652	1.04511
187.545	3.62471
190.437	2.57827
193.33	5.65863
196.223	5.44915
199.115	9.56608
202.008	16.1893
204.901	24.7774
207.794	25.9401
210.686	10.0802
213.579	3.53785
216.472	1.5243
219.364	1.08874
222.257	2.01754
225.15	1.32272
228.042	1.56499
230.935	0.899643
233.828	2.34753
236.721	4.24183
239.613	8.70992
242.506	13.9904
245.399	23.645
248.291	35.448
251.184	38.6092
254.077	32.4982
256.969	33.8057
259.862	46.7372
262.755	72.6246
265.648	105.291
268.54	96.7512
271.433	60.8384
274.326	36.251
277.218	26.5197
280.111	18.08
283.004	6.26167
285.897	1.26566
288.789	1.51682
291.682	0.894718
294.575	0.531914
297.467	4.06119
300.36	12.0803
303.253	24.8441
306.145	45.2054
309.038	69.1195
311.931	95.2183
314.824	147.559
317.716	256.482
320.609	454.532
323.502	718.161
326.394	697.349
329.287	365.174
332.18	175.708
335.072	95.482
337.965	56.0266
340.858	34.5514
343.75	21.3577
346.643	16.9744
349.536	15.1968
352.429	15.5385
355.321	19.1132
358.214	25.3241
361.107	35.5976
364	51.8331
366.892	80.621
369.785	132.458
372.678	200.467
375.57	257.479
378.463	222.701
381.356	127.344
384.248	62.1761
387.141	29.949
390.034	14.2518
392.926	7.35646
395.819	3.06548
398.712	0.325199
401.605	1.50327
404.497	3.10474
407.39	2.58549
410.283	3.23618
413.175	1.4383
416.068	0.295105
418.961	2.52974
421.853	8.23555
424.746	15.6008
427.639	25.3016
430.532	31.3496
433.424	25.0843
436.317	14.7723
439.21	11.9039
442.102	14.9721
444.995	21.6932
447.888	35.291
450.781	60.0204
453.673	106.306
456.566	178.521
459.459	252.365
462.351	252.301
465.244	200.322
468.137	137.69
471.029	92.6554
473.922	85.2475
476.815	93.8916
479.707	120.882
482.6	163.384
485.493	234.106
488.386	349.264
491.278	534.026
494.171	781.17
497.064	952.62
499.956	789.59
502.849	473.363
505.742	257.542
508.635	147.49
511.527	92.5759
514.42	59.7353
517.313	40.9887
520.205	29.7014
523.098	19.3604
525.991	14.967
528.883	13.1866
531.776	12.5196
534.669	15.5162
537.562	20.0944
540.454	23.9805
543.347	16.5514
546.24	9.24718
549.132	4.2637
552.025	0.002758
554.918	0.725815
557.81	1.37181
560.703	0.942356
563.596	1.34
566.489	2.94418
569.381	0.699772
572.274	0.293068
575.167	0.135174
578.059	1.41638
580.952	2.77409
583.845	2.31266
586.737	4.90881
589.63	4.74743
592.523	6.47275
595.415	6.8457
598.308	9.10671
601.201	9.66734
604.094	10.2618
606.986	11.7637
609.879	11.9487
612.772	12.1371
615.664	11.5698
618.557	12.2057
621.45	10.4877
624.342	6.01387
627.235	5.58131
630.128	2.59855
633.021	2.03467
635.913	0.817528
638.806	1.8895
641.699	1.59477
644.591	0.566196
647.484	0.418383
650.377	1.7588
653.269	1.32612
656.162	0.776731
659.055	1.69331
661.948	2.8068
664.84	3.31017
667.733	2.39819
670.626	2.80921
673.518	2.64577
676.411	2.49243
679.304	3.11308
682.197	4.68856
685.089	4.69095
687.982	4.44374
690.875	4.46583
693.767	4.03538
696.66	5.5254
699.553	4.93213
702.445	4.59623
705.338	5.66156
708.231	4.64645
711.124	6.14141
714.016	4.74349
716.909	4.51178
719.802	4.80289
722.694	4.91002
725.587	3.95913
728.48	3.22776
731.372	4.04748
734.265	2.17724
737.158	1.72332
740.051	1.77693
742.943	1.36606
745.836	1.12968
748.729	1.639
751.621	0.324717
754.514	0.444159
757.407	0.659082
760.299	0.275459
763.192	0.14127
766.085	0.602871
768.977	1.58804
771.87	0.565948
774.763	0.422871
777.656	0.781216
780.548	0.671444
783.441	0.546112
786.334	2.26756
789.226	5.64356
792.119	9.21241
795.012	12.901
797.904	16.715
800.797	26.8397
803.69	37.9694
806.583	54.6645
809.475	76.2356
812.368	102.333
815.261	145.877
818.153	215.514
821.046	322.806
823.939	478.234
826.832	687.219
829.724	904.521
832.617	977.495
835.51	801.902
838.402	540.268
841.295	345.305
844.188	220.461
847.08	144.745
849.973	94.775
852.866	61.6566
855.759	38.6537
858.651	22.2092
861.544	12.6013
864.437	6.95816
867.329	1.94639
870.222	0.209587
873.115	0.58503
876.007	0.227356
878.9	2.38499
881.793	4.95224
884.686	13.8258
887.578	23.6676
890.471	41.0404
893.364	66.9196
896.256	107.304
899.149	167.434
902.042	255.889
904.934	395.391
907.827	600.506
910.72	837.112
913.612	995.179
916.505	921.631
919.398	691.998
922.291	525.153
925.183	459.723
928.076	406.679
930.969	304.074
933.861	197.74
936.754	125.523
939.647	81.0006
942.539	53.8434
945.432	39.6987
948.325	29.8215
951.218	22.2303
954.11	17.1626
957.003	12.3555
959.896	6.41974
962.788	2.50715
965.681	0.592754
968.574	1.51431
971.466	2.00923
974.359	2.58557
977.252	1.74033
980.145	0.614361
983.037	3.08336
985.93	4.90321
988.823	5.67796
991.715	7.214
994.608	7.33569
997.501	6.24035
1000.39	3.67491
1003.29	3.86269
1006.18	2.30819
1009.07	1.19308
1011.96	1.97675
1014.86	2.34527
1017.75	2.58453
1020.64	3.50458
1023.53	3.80507
1026.43	3.27152
1029.32	3.332
1032.21	2.70608
1035.11	2.54556
1038	2.85665
1040.89	3.47077
1043.78	3.08328
1046.68	3.04056
1049.57	3.18741
1052.46	3.55081
1055.36	3.77906
1058.25	3.68087
1061.14	3.12098
1064.03	3.73253
1066.93	2.9744
1069.82	2.85828
1072.71	1.68091
1075.6	2.31134
1078.5	1.054
1081.39	1.38003
1084.28	0.914249
1087.17	0.882866
1090.07	0.46751
1092.96	0.486294
1095.85	0.597315
1098.74	0.210897
1101.64	0.246609
1104.53	0.539312
1107.42	0.205919
1110.32	1.11109
1113.21	0.923534
1116.1	0.226826
1118.99	0.249516
1121.89	0.347395
1124.78	0.68
1127.67	0.026291
1130.57	0.053253
1133.46	0.404545
1136.35	0.636908
1139.24	0.694199
1142.14	0.47975
1145.03	0.303322
1147.92	0.909843
1150.81	0.586725
1153.71	0.775177
1156.6	0.334663
1159.49	0.361361
1162.38	1.51949
1165.28	1.12766
1168.17	0.611795
1171.06	1.06224
1173.96	0.593115
1176.85	0.218729
1179.74	0.04192
1182.63	0.965382
1185.53	1.21485
1188.42	0.594183
1191.31	0.124844
1194.2	1.15384
1197.1	1.47454
1199.99	0.19598
1202.88	0.414274
1205.78	0.975067
1208.67	0.184179
1211.56	0.670881
1214.45	0.926105
1217.35	1.30799
1220.24	1.34369
1223.13	1.05745
1226.02	0.862867
1228.92	0.894972
1231.81	1.29729
1234.7	0.300051
1237.6	0.679159
1240.49	1.18464
1243.38	1.46662
1246.27	0.868353
1249.17	0.647345
1252.06	1.06326
1254.95	1.09495
1257.84	1.22883
1260.74	1.66677
1263.63	1.33234
1266.52	0.095072
1269.41	1.43787
1272.31	1.95192
1275.2	1.55255
1278.09	0.669397
1280.98	1.19687
1283.88	1.07786
