Measurement: Raman, 532 nm, unoriented, Raman Data Processed
Mineral: Durangite
Rruff sample: R120118
Ideal chemistry: NaAlAs^5+^O_4_F
Locality: Barranca mine, Coneto de Comonfort, Durango, Mexico
Source: Michael Shannon
Description: Single orange crystal fragment, used in the Downs et al (2012) study
Measured chemistry: (Na_0.95_Li_0.05_)(Al_0.91_Fe^3+^_0.07_Mn^3+^_0.02_)(As_1.0_O_4_)(F_0.73_(OH)_0.27_); Li and H by charge balance and difference
Raman shift (cm-1)	intensity
190.29	0
193.183	4.12653
196.076	9.83025
198.968	17.1953
201.861	17.0767
204.754	20.7736
207.647	20.0312
210.539	13.3013
213.432	10.4335
216.325	5.55606
219.217	3.46048
222.11	0.037537
225.003	0.146759
227.895	1.73831
230.788	1.66974
233.681	0.733124
236.573	1.60303
239.466	2.00403
242.359	1.07852
245.252	7.05157
248.144	13.4803
251.037	14.0023
253.93	9.81949
256.822	7.38019
259.715	13.2525
262.608	25.3438
265.5	46.4314
268.393	41.9656
271.286	22.6696
274.179	13.142
277.071	9.65414
279.964	3.41507
282.857	0.97403
285.75	2.29446
288.642	0.615784
291.535	3.43829
294.428	12.1741
297.32	25.585
300.213	51.3913
303.106	87.9384
305.998	151.429
308.891	247.165
311.784	368.291
314.676	537.855
317.569	800.233
320.462	1211.3
323.355	1628.76
326.247	1417.89
329.14	732.326
332.033	365.359
334.925	204.149
337.818	123.148
340.711	84.337
343.603	54.1349
346.496	38.8924
349.389	31.0149
352.281	34.6654
355.174	37.6621
358.067	46.0109
360.96	61.5763
363.852	83.97
366.745	122.51
369.638	177.06
372.53	248.295
375.423	292.828
378.316	240.584
381.209	131.94
384.101	61.7993
386.994	27.9508
389.887	12.0714
392.779	4.20017
395.672	0.524323
398.565	3.95853
401.457	4.52191
404.35	2.75684
407.243	2.27112
410.135	1.2468
413.028	5.38702
415.921	9.94083
418.814	14.105
421.706	22.1222
424.599	33.8342
427.492	46.0252
430.384	54.3353
433.277	31.4416
436.17	14.4609
439.062	12.3897
441.955	16.7021
444.848	24.2077
447.741	37.5416
450.633	57.9797
453.526	89.4631
456.419	134.299
459.311	173.422
462.204	171.056
465.097	148.885
467.99	147.983
470.882	137.7
473.775	171.61
476.668	233.322
479.56	334.293
482.453	492.612
485.346	702.65
488.238	973.756
491.131	1333.2
494.024	1751.56
496.916	1924.69
499.809	1499.35
502.702	878.668
505.595	487.352
508.487	283.135
511.38	176.89
514.273	113.761
517.165	74.8525
520.058	50.7459
522.951	34.8799
525.844	23.846
528.736	18.1702
531.629	11.923
534.522	8.47391
537.414	6.99554
540.307	6.83768
543.2	4.6568
546.092	3.5271
548.985	2.96997
551.878	4.41968
554.771	1.68506
557.663	1.86908
560.556	1.89719
563.449	3.01352
566.341	8.75815
569.234	16.6029
572.127	17.7664
575.019	21.6115
577.912	28.4481
580.805	34.8219
583.697	35.0793
586.59	35.2994
589.483	33.8731
592.376	34.7457
595.268	32.5397
598.161	29.5513
601.054	32.7336
603.946	33.1976
606.839	41.9316
609.732	48.0297
612.625	59.0056
615.517	62.1979
618.41	61.3499
621.303	52.8997
624.195	36.9529
627.088	23.9909
629.981	14.0719
632.873	7.58469
635.766	4.48941
638.659	3.43564
641.552	1.52231
644.444	0.279633
647.337	0.463348
650.23	0.876434
653.122	2.22378
656.015	1.02606
658.908	2.30426
661.8	4.49509
664.693	0.466156
667.586	0.334442
670.479	4.19904
673.371	3.48462
676.264	3.0925
679.157	9.53577
682.049	11.3745
684.942	9.43048
687.835	15.3794
690.727	11.9565
693.62	15.1438
696.513	14.281
699.405	15.7265
702.298	11.8885
705.191	9.8074
708.084	10.6993
710.976	10.3482
713.869	9.13718
716.762	7.30368
719.654	4.66437
722.547	3.12448
725.44	4.07196
728.332	4.56262
731.225	1.76431
734.118	3.04974
737.011	0.328094
739.903	0.537689
742.796	1.38123
745.689	1.96036
748.581	1.23795
751.474	1.73306
754.367	0.879303
757.26	3.77567
760.152	3.0799
763.045	2.7464
765.938	5.27612
768.83	4.21805
771.723	3.88681
774.616	3.63315
777.508	1.38464
780.401	2.1521
783.294	0.075653
786.187	4.18329
789.079	5.37707
791.972	16.0512
794.865	26.1318
797.757	39.6431
800.65	58.6275
803.543	89.2699
806.435	126.872
809.328	180.974
812.221	243.329
815.114	343.92
818.006	503.849
820.899	735.034
823.792	1042.11
826.684	1393.07
829.577	1717.77
832.47	1772.61
835.362	1438.94
838.255	974.207
841.148	628.282
844.04	406.061
846.933	264.947
849.826	176.585
852.719	116.659
855.611	74.5164
858.504	43.3656
861.397	25.0411
864.289	11.031
867.182	1.3255
870.075	1.78296
872.967	3.05774
875.86	3.42603
878.753	0.000793
881.646	5.23059
884.538	17.8717
887.431	38.5715
890.324	73.674
893.216	121.46
896.109	196.333
899.002	308.795
901.894	478.699
904.787	723.415
907.68	1032.1
910.573	1354.04
913.465	1519.01
916.358	1336.05
919.251	953.015
922.143	662.629
925.036	506.297
927.929	397.791
930.822	295.449
933.714	198.795
936.607	136.289
939.5	91.7005
942.392	64.6585
945.285	52.4078
948.178	41.4905
951.07	32.032
953.963	23.693
956.856	14.3469
959.749	7.95075
962.641	3.40994
965.534	1.46909
968.427	2.64005
971.319	4.98697
974.212	2.38162
977.105	1.06461
979.997	10.5528
982.89	11.0157
985.783	19.5115
988.676	21.3091
991.568	22.6455
994.461	22.192
997.354	21.1711
1000.25	11.1615
1003.14	7.35577
1006.03	5.71936
1008.92	3.8259
1011.82	5.57718
1014.71	3.53626
1017.6	4.54221
1020.5	6.93543
1023.39	5.19345
1026.28	6.88629
1029.17	5.20215
1032.07	4.71701
1034.96	6.43375
1037.85	4.82465
1040.74	5.83621
1043.64	4.03693
1046.53	5.48645
1049.42	5.30994
1052.32	6.90414
1055.21	7.17276
1058.1	8.54816
1060.99	8.22748
1063.89	8.68604
1066.78	7.77518
1069.67	5.73062
1072.56	3.82422
1075.46	2.85703
1078.35	2.24539
1081.24	1.43793
1084.13	2.14883
1087.03	0.100586
1089.92	0.789764
1092.81	1.30328
1095.7	0.403442
1098.6	0.495544
1101.49	4.41403
1104.38	1.10998
1107.28	0.475311
1110.17	0.448822
1113.06	1.20392
1115.95	2.20966
1118.85	2.53738
1121.74	2.4509
1124.63	0.918457
1127.53	1.18124
1130.42	1.92191
1133.31	1.66022
1136.2	0.449951
1139.1	0.011627
1141.99	0.025574
1144.88	1.31558
1147.77	0.21109
1150.67	1.1163
1153.56	0.90567
1156.45	0.436493
1159.35	0.742523
1162.24	0.663574
1165.13	1.06027
1168.02	0.062866
1170.92	1.51645
1173.81	0.052368
1176.7	1.71216
1179.59	0.584076
1182.49	0.739838
1185.38	1.24875
1188.27	2.71317
1191.16	1.21439
1194.06	0.74585
1196.95	2.48694
1199.84	3.53287
1202.73	2.24573
1205.63	3.77087
1208.52	2.76492
1211.41	3.73654
1214.31	2.84305
1217.2	0.353271
1220.09	1.48087
1222.98	2.30252
1225.88	2.95883
1228.77	2.99533
1231.66	3.23062
1234.56	1.9602
1237.45	0.911346
1240.34	0.817108
1243.23	3.42035
1246.13	4.60086
1249.02	2.77066
1251.91	1.77911
1254.8	1.00183
1257.7	7.25058
1260.59	4.20758
1263.48	3.84348
1266.38	2.1525
1269.27	4.92676
1272.16	0.504944
1275.05	1.11823
1277.95	2.00629
1280.84	3.44836
1283.73	4.04233
1286.62	4.0723
1289.52	1.69385
1292.41	2.39987
1295.3	3.76096
1298.19	3.95102
1301.09	2.03644
