Measurement: Raman, 532 nm, unoriented, Raman Data Processed
Mineral: Durangite
Rruff sample: R060889
Ideal chemistry: NaAlAs^5+^O_4_F
Locality: northern end Thomas Range, Juab County, Utah, USA
Source: Bob Jenkins
Description: Equant red crystals with a dusting of white powder
Measured chemistry: (Na_0.80_Li_0.18_Ca_0.02_)_Σ=1_(Al_0.78_Fe^3+^_0.20_Mn_0.02_)_Σ=1_As_1.00_O_4_(F_0.60_(OH)_0.40_)_Σ=1_ ; Li estimated by difference; OH estimated by charge balance
Raman shift (cm-1)	intensity
142.254	0
145.147	52.7461
148.039	82.2695
150.932	153.163
153.825	215.897
156.718	259.56
159.61	368.455
162.503	430.468
165.396	329.839
168.288	174.009
171.181	91.5435
174.074	31.6255
176.966	33.4072
179.859	56.813
182.752	127.727
185.644	140.378
188.537	115.84
191.43	205.678
194.323	167.737
197.215	187.432
200.108	196.952
203.001	193.365
205.893	112.376
208.786	112.001
211.679	6.27246
214.571	27.2852
217.464	30.564
220.357	61.6777
223.25	52.4399
226.142	6.10742
229.035	19.9575
231.928	45.7256
234.82	113.079
237.713	145.214
240.606	239.803
243.498	389.148
246.391	434.66
249.284	571.957
252.177	685.668
255.069	914.648
257.962	1388.79
260.855	1850.11
263.747	2245.55
266.64	1894.09
269.533	1231.42
272.425	799.174
275.318	514.495
278.211	314.694
281.103	221.725
283.996	121.722
286.889	109.41
289.782	63.0884
292.674	70.0933
295.567	44.269
298.46	72.6509
301.352	239.105
304.245	421.606
307.138	662.847
310.031	1042.74
312.923	1672.72
315.816	2278.28
318.709	3009.04
321.601	3273.35
324.494	2857.5
327.387	1897.6
330.279	1161.85
333.172	736.587
336.065	487.725
338.957	311.518
341.85	271.512
344.743	273.14
347.635	292.399
350.528	405.201
353.421	525.601
356.314	539.219
359.206	704.357
362.099	830.904
364.992	963.606
367.884	1102.13
370.777	1090.73
373.67	934.589
376.562	816.209
379.455	499.089
382.348	238.469
385.241	140.468
388.133	80.2783
391.026	64.8657
393.919	62.8379
396.811	9.44629
399.704	25.5566
402.597	34.2173
405.49	47.9692
408.382	61.3086
411.275	7.80078
414.168	12.5718
417.06	63.6499
419.953	145.807
422.846	117.391
425.738	104.08
428.631	79.7056
431.524	165.306
434.416	171.481
437.309	279.717
440.202	427.014
443.094	567.644
445.987	826.734
448.88	1060.54
451.773	1293.52
454.665	1596.67
457.558	1729.57
460.451	1720.08
463.343	1484.88
466.236	1214.92
469.129	1041.7
472.022	1005.07
474.914	1275.13
477.807	1477.94
480.7	1809.05
483.592	2232.45
486.485	2727.58
489.378	2899.8
492.27	2998.44
495.163	2716.12
498.056	2053.18
500.949	1291.11
503.841	783.251
506.734	376.478
509.627	185.702
512.519	56.4302
515.412	7.75244
518.305	15.1201
521.197	46.5508
524.09	44.1216
526.983	105.721
529.875	104.59
532.768	150.8
535.661	183.18
538.554	169.475
541.446	137.455
544.339	109.22
547.232	210.144
550.124	178.81
553.017	208.972
555.91	244.458
558.802	253.837
561.695	330.114
564.588	378.956
567.481	394.627
570.373	491.674
573.266	409.612
576.159	423.368
579.051	440.612
581.944	415.25
584.837	493.519
587.729	517.424
590.622	422.467
593.515	466.703
596.408	420.178
599.3	476.598
602.193	461.603
605.086	520.734
607.978	492.525
610.871	503.171
613.764	436.764
616.656	316.9
619.549	248.555
622.442	141.711
625.335	106.586
628.227	68.0132
631.12	43.2856
634.013	23.397
636.905	65.313
639.798	48.3516
642.691	4.97705
645.583	30.6352
648.476	77.2207
651.369	58.0762
654.261	123.048
657.154	191.107
660.047	90.2437
662.94	139.845
665.832	171.356
668.725	122.929
671.618	227.045
674.51	167.709
677.403	130.354
680.296	135.487
683.188	121.955
686.081	188.474
688.974	199.659
691.866	248.477
694.759	143.718
697.652	116.179
700.545	114.631
703.437	81.9248
706.33	71.77
709.223	5.27832
712.115	35.7012
715.008	20.0771
717.901	50.8965
720.793	134.633
723.686	176.066
726.579	162.54
729.472	224.255
732.364	253.941
735.257	279.072
738.15	307.106
741.042	337.115
743.935	428.066
746.828	480.5
749.721	426.612
752.613	372.649
755.506	324.095
758.399	247.682
761.291	141.238
764.184	71.4125
767.077	9.55664
769.969	12.9033
772.862	11.8154
775.755	52.6465
778.648	82.7832
781.54	79.8848
784.433	63.1123
787.326	146.012
790.218	188.691
793.111	269.61
796.004	467.442
798.896	648.097
801.789	871.084
804.682	1337.21
807.574	1799.36
810.467	2463.05
813.36	3249.12
816.253	3904.37
819.145	4574.74
822.038	5151.98
824.931	5220.05
827.823	4838.51
830.716	4164.55
833.609	3008.77
836.501	2067.64
839.394	1448.93
842.287	945.033
845.179	552.572
848.072	367.902
850.965	174.143
853.858	57.1738
856.75	98.8037
859.643	33.293
862.536	52.5088
865.428	45.5723
868.321	159.003
871.214	340.232
874.106	500.295
876.999	831.928
879.892	1288.83
882.784	1728.1
885.677	2417.61
888.57	3074.6
891.463	4066.53
894.355	5269.5
897.248	6421.39
900.141	7458.81
903.033	8536.48
905.926	8965.01
908.819	8986.83
911.712	8423.14
914.604	7469.87
917.497	6559.23
920.39	5572.33
923.282	4583.08
926.175	3585.41
929.068	2602.28
931.96	1845.64
934.853	1519.8
937.746	1257.01
940.639	1073.66
943.531	832.991
946.424	692.362
949.317	525.218
952.209	392.148
955.102	203.337
957.995	95.1348
960.887	84.6133
963.78	15.7422
966.673	27.0508
969.566	4.15723
972.458	100.046
975.351	3.36133
978.244	17.541
981.136	13.2412
984.029	6.33887
986.922	5.63574
989.814	12.3887
992.707	103.161
995.6	34.958
998.492	73.293
1001.38	154.035
1004.28	126.062
1007.17	96.9561
1010.06	93.5723
1012.96	84.8672
1015.85	191.423
1018.74	213.992
1021.63	134.321
1024.53	212.885
1027.42	245.415
1030.31	223.262
1033.2	261.806
1036.1	188.48
1038.99	174.918
1041.88	188.38
1044.78	99.4658
1047.67	158.678
1050.56	144.525
1053.45	113.756
1056.35	239.807
1059.24	172.981
1062.13	83.4717
1065.03	75.791
1067.92	50.9092
1070.81	111.293
1073.7	49.7676
1076.6	162.013
1079.49	30.1201
1082.38	59.6465
1085.27	27.5244
1088.17	139.841
1091.06	77.2822
1093.95	138.335
1096.84	72.1475
1099.74	137.087
1102.63	84.1172
1105.52	165.657
1108.41	114.215
1111.31	45.835
1114.2	57.5498
1117.09	65.7764
1119.99	34.8213
1122.88	0.210938
1125.77	67.3008
1128.66	101.913
1131.56	226.836
1134.45	135.987
1137.34	77.1338
1140.23	48.7422
1143.13	31.7119
1146.02	16.4521
1148.91	40.9961
1151.81	58.0371
1154.7	101.531
1157.59	118.173
1160.48	105.055
1163.38	18.96
1166.27	34.0918
1169.16	3.75586
1172.05	27.9521
1174.95	78.0625
1177.84	69.667
1180.73	65.4932
1183.62	154.923
1186.52	100.109
1189.41	128.102
1192.3	147.554
1195.2	44.5879
1198.09	14.0889
1200.98	84.4043
1203.87	98.749
1206.77	49.0645
1209.66	41.8525
1212.55	95.8086
1215.44	163.279
1218.34	71.1006
1221.23	124.683
1224.12	70.3096
1227.02	125.066
1229.91	153.163
1232.8	63.3467
1235.69	198.51
1238.59	168.812
1241.48	86.0596
1244.37	45.3457
1247.26	141.314
1250.16	123.549
1253.05	157.892
1255.94	112.322
1258.84	93.5801
1261.73	80.3496
1264.62	6.11231
1267.51	9.36426
1270.41	94.4688
1273.3	135.625
1276.19	185.928
1279.08	43.0762
1281.98	80.3311
1284.87	22.7295
1287.76	17.6885
