Measurement: Raman, 785 nm, unoriented, Raman Data Processed
Mineral: Durangite
Rruff sample: R060889
Ideal chemistry: NaAlAs^5+^O_4_F
Locality: northern end Thomas Range, Juab County, Utah, USA
Source: Bob Jenkins
Description: Equant red crystals with a dusting of white powder
Measured chemistry: (Na_0.80_Li_0.18_Ca_0.02_)_Σ=1_(Al_0.78_Fe^3+^_0.20_Mn_0.02_)_Σ=1_As_1.00_O_4_(F_0.60_(OH)_0.40_)_Σ=1_ ; Li estimated by difference; OH estimated by charge balance
Raman shift (cm-1)	intensity
182.274	0
185.167	23.7178
188.06	12.8037
190.952	129.992
193.845	110.153
196.738	202.102
199.63	227.927
202.523	191.712
205.416	115.799
208.308	62.8838
211.201	22.1377
214.094	29.4189
216.987	50.8057
219.879	92.7432
222.772	16.1621
225.665	87.5459
228.557	114.242
231.45	95.9365
234.343	168.305
237.235	410.576
240.128	386.516
243.021	470.641
245.913	530.599
248.806	547.843
251.699	577.495
254.592	925.12
257.484	1418.28
260.377	2021.25
263.27	2458.06
266.162	2128.45
269.055	1427.4
271.948	873.489
274.841	478.122
277.733	249.721
280.626	180.962
283.519	122.712
286.411	129.897
289.304	93.874
292.197	8.98926
295.089	13.1309
297.982	194.493
300.875	322.621
303.767	610.51
306.66	882.182
309.553	1376.69
312.446	2110.88
315.338	3173.6
318.231	4594.07
321.124	5428.66
324.016	4777.21
326.909	3235.55
329.802	2095.85
332.695	1328.23
335.587	907.837
338.48	610.082
341.373	415.875
344.265	398.64
347.158	401.425
350.051	400.31
352.943	490.28
355.836	590.67
358.729	628.856
361.622	825.3
364.514	960.564
367.407	1220.75
370.3	1416.89
373.192	1297.87
376.085	930.504
378.978	574.513
381.87	313.168
384.763	74.2041
387.656	21.5664
390.549	15.0049
393.441	41.8105
396.334	15.4697
399.227	56.9902
402.119	31.1377
405.012	10.2148
407.905	30.9658
410.798	44.6406
413.69	54.1152
416.583	163.991
419.476	196.989
422.368	184.85
425.261	206.834
428.154	164.033
431.046	141.663
433.939	65.667
436.832	142.148
439.724	295.376
442.617	486.79
445.51	708.558
448.403	991.003
451.295	1229.64
454.188	1495.15
457.081	1742.72
459.973	1919.97
462.866	1741.93
465.759	1498.84
468.651	1269.42
471.544	1376.2
474.437	1480.26
477.33	1827.45
480.222	2237.27
483.115	2751.6
486.008	3407.02
488.9	3962.85
491.793	4218.39
494.686	3892.46
497.579	3035.83
500.471	2036.61
503.364	1269.05
506.257	820.539
509.149	412.445
512.042	317.413
514.935	182.878
517.827	160.999
520.72	143.156
523.613	185.696
526.505	108.467
529.398	224.305
532.291	264.273
535.184	269.781
538.076	205.143
540.969	225.955
543.862	85.2647
546.754	44.2705
549.647	16.8452
552.54	45.2871
555.433	12.7407
558.325	23.0273
561.218	13.9155
564.111	73.2944
567.003	22.0273
569.896	47.6108
572.789	24.3579
575.681	11.7769
578.574	86.4976
581.467	51.874
584.36	82.9829
587.252	55.1284
590.145	20.188
593.038	61.1221
595.93	61.5244
598.823	56.5337
601.716	116.044
604.609	156.878
607.501	113.442
610.394	114.229
613.287	70.1768
616.179	35.6167
619.072	100.275
621.965	27.8589
624.857	36.7402
627.75	14.1807
630.643	48.5693
633.535	38.9849
636.428	51.8013
639.321	14.1372
642.214	16.687
645.106	30.5689
647.999	13.2144
650.892	89.0825
653.784	107.228
656.677	134.662
659.57	115.161
662.462	74.624
665.355	55.0312
668.248	75.6118
671.141	160.722
674.033	201.823
676.926	181.298
679.819	131.383
682.711	145.313
685.604	149.666
688.497	149.487
691.389	105.888
694.282	128.414
697.175	149.197
700.068	136.502
702.96	159.456
705.853	85.8848
708.746	73.5337
711.638	150.322
714.531	81.6611
717.424	91.9087
720.317	105.891
723.209	151.695
726.102	80.1128
728.995	115.608
731.887	93.6006
734.78	60.6597
737.673	91.5137
740.565	77.0537
743.458	90.6352
746.351	23.6138
749.244	94.9785
752.136	16.4165
755.029	27.5713
757.922	14.9448
760.814	25.3369
763.707	0.041016
766.6	28.4277
769.492	31.77
772.385	18.7041
775.278	39.2944
778.17	21.125
781.063	35.1431
783.956	88.02
786.849	181.48
789.741	216.956
792.634	243.775
795.527	391.391
798.419	482.752
801.312	671.287
804.205	916.735
807.097	1257.33
809.99	1731.5
812.883	2323.48
815.776	2836.04
818.668	3459.77
821.561	4017.15
824.454	4276.94
827.346	4224.55
830.239	3530.05
833.132	2755.9
836.024	1980.93
838.917	1300.67
841.81	920.394
844.703	584.761
847.595	377.82
850.488	252.932
853.381	109.967
856.273	45.5708
859.166	48.918
862.059	34.4165
864.952	10.3604
867.844	93.3008
870.737	139.416
873.63	346.232
876.522	536.356
879.415	807.399
882.308	1098.53
885.2	1489.52
888.093	1996.23
890.986	2621.2
893.879	3336.38
896.771	4115.7
899.664	4898.1
902.557	5623.91
905.449	6054.08
908.342	6040.02
911.235	5514.84
914.127	4703.29
917.02	3923.35
919.913	3278.24
922.806	2681.82
925.698	1963.55
928.591	1353.8
931.484	936.095
934.376	697.198
937.269	463.635
940.162	338.707
943.054	284.618
945.947	237.868
948.84	157.923
951.732	151.152
954.625	95.1885
957.518	39.4336
960.411	24.1108
963.303	32.6318
966.196	16.3691
969.089	31.9477
971.981	4.72852
974.874	34.8179
977.767	2.94922
980.659	4.63721
983.552	42.4756
986.445	78.5513
989.338	31.8936
992.23	8.83838
995.123	14.0391
998.016	51.1238
1000.91	91.064
1003.8	91.5435
1006.69	125.339
1009.59	112.025
1012.48	111.585
1015.37	146.358
1018.26	124.308
1021.16	123.179
1024.05	109.073
1026.94	125.038
1029.84	110.102
1032.73	169.573
1035.62	105.979
1038.51	122.137
1041.41	141.225
1044.3	123.153
1047.19	114.765
1050.08	112.436
1052.98	188.616
1055.87	94.3674
1058.76	110.42
1061.65	88.3345
1064.55	105.753
1067.44	82.3499
1070.33	127.253
1073.23	104.668
1076.12	124.586
1079.01	94.1196
1081.9	80.4275
1084.8	104.111
1087.69	43.9429
1090.58	86.5681
1093.47	106.037
1096.37	100.19
1099.26	54.9736
1102.15	44.9673
1105.05	3.81812
1107.94	62.0386
1110.83	28.8081
1113.72	65.0459
1116.62	62.7656
1119.51	88.4302
1122.4	14.4253
1125.3	13.7319
1128.19	34.9883
1131.08	44.3403
1133.97	12.0659
1136.87	7.32178
1139.76	5.50195
1142.65	8.04736
1145.54	46.4824
1148.44	42.7139
1151.33	19.126
1154.22	11.6138
1157.11	58.459
1160.01	93.4287
1162.9	29.8633
1165.79	47.4619
1168.68	63.2017
1171.58	101.111
1174.47	65.3726
1177.36	98.7602
1180.26	112.561
1183.15	91.1338
1186.04	175.067
1188.93	138.364
1191.83	164.13
1194.72	131.017
1197.61	136.263
1200.51	109.566
1203.4	86.689
1206.29	76.2217
1209.18	44.9614
1212.08	26.6006
1214.97	41.7539
1217.86	57.0102
1220.75	22.2393
1223.65	74.8667
1226.54	40.3218
1229.43	72.9805
1232.32	105.079
1235.22	92.1699
1238.11	86.2676
