Measurement: Raman, 785 nm, unoriented, Raman Data Processed
Mineral: Dussertite
Rruff sample: R070486
Ideal chemistry: BaFe^3+^_3_(As^5+^O_4_)(As^5+^O_3_OH)(OH)_6_
Locality: Clara mine, Rankach Valley, Oberwolfach, Wolfach, Black Forest, Baden-WÃ¼rttemberg, Germany
Source: Bob Jenkins
Description: Light green hexagonal plates lining vug associated with quartz and pharmacosiderite
Raman shift (cm-1)	intensity
119.953	0
122.846	109.499
125.738	946.082
128.631	2948.61
131.524	6868.26
134.417	10059
137.309	5609.33
140.202	2011.8
143.095	733.952
145.987	467.405
148.88	420.851
151.773	171.176
154.665	123.844
157.558	165.848
160.451	118.078
163.344	225.612
166.236	540.704
169.129	1167.9
172.022	2492.05
174.914	5314.87
177.807	9422.4
180.7	14478.7
183.592	20374
186.485	28567.3
189.378	38374
192.27	44210.9
195.163	40376
198.056	29369.1
200.949	18827.2
203.841	11723.7
206.734	7613.43
209.627	4958.72
212.519	3222.76
215.412	2173.3
218.305	1342.06
221.197	732.905
224.09	339.774
226.983	62.1299
229.876	67.8506
232.768	34.9043
235.661	307.817
238.554	687.223
241.446	1321.22
244.339	1843.07
247.232	2449.14
250.125	2999.51
253.017	3372.49
255.91	3467.43
258.803	3175.84
261.695	2736.98
264.588	2158.53
267.481	1708.54
270.373	1667.13
273.266	2096.09
276.159	2689.99
279.051	3364.93
281.944	4068.5
284.837	5056.81
287.73	6007.1
290.622	6984.2
293.515	7642.43
296.408	7872.4
299.3	7564.61
302.193	7021.25
305.086	6215.23
307.978	5219.78
310.871	4183.48
313.764	3065.95
316.657	2170.73
319.549	1328.93
322.442	743.302
325.335	306.466
328.227	34.1216
331.12	119.889
334.013	132.561
336.906	125.8
339.798	37.1758
342.691	34.1934
345.584	126.349
348.476	21.4917
351.369	55.5518
354.262	327.916
357.154	689.589
360.047	941.29
362.94	1061.21
365.832	1270.31
368.725	1606.75
371.618	1709.25
374.511	1304.77
377.403	673.101
380.296	313.245
383.189	465.133
386.081	988.57
388.974	1809.98
391.867	3004.74
394.76	4392.34
397.652	6019.79
400.545	7526.61
403.438	8678.44
406.33	8923.71
409.223	8235.15
412.116	6821.77
415.008	5301.89
417.901	3892.63
420.794	2897.85
423.687	2154.43
426.579	1607.23
429.472	1222.38
432.365	943.399
435.257	745.527
438.15	601.221
441.043	537.762
443.935	506.413
446.828	597.587
449.721	827.696
452.613	1185.61
455.506	1914.28
458.399	2873.61
461.292	4358.18
464.184	6060.32
467.077	7921.08
469.97	10000.6
472.862	11296.7
475.755	10826.4
478.648	8460.07
481.541	5845.23
484.433	3958.42
487.326	2745.47
490.219	1945.97
493.111	1349.64
496.004	875.833
498.897	473.685
501.789	238.578
504.682	62.4883
507.575	32.3738
510.467	74.7583
513.36	131.181
516.253	126.705
519.146	69.2412
522.038	19.9158
524.931	66.4954
527.824	220.612
530.716	383.185
533.609	582.873
536.502	815.181
539.394	1095.41
542.287	1410.58
545.18	1809.13
548.073	2301.17
550.965	2794.98
553.858	3342.11
556.751	3849.48
559.643	4064.59
562.536	4054.74
565.429	3945.38
568.322	3552.49
571.214	3072.23
574.107	2621.84
577	2104.03
579.892	1706.21
582.785	1335.07
585.678	1049.24
588.57	806.899
591.463	606.647
594.356	421.638
597.249	334.207
600.141	254.756
603.034	183.736
605.927	126.766
608.819	83.3512
611.712	32.4175
614.605	18.2983
617.497	31.2972
620.39	10.0746
623.283	4.29736
626.176	21.9135
629.068	31.4246
631.961	17.8452
634.854	27.5254
637.746	15.5303
640.639	14.6383
643.532	30.8705
646.424	89.4326
649.317	138.311
652.21	156.494
655.102	192.286
657.995	259.981
660.888	293.882
663.781	400.648
666.673	445.822
669.566	494.672
672.459	540.666
675.351	573.479
678.244	568.253
681.137	687.997
684.029	848.409
686.922	988.645
689.815	1376.79
692.708	1923.41
695.6	2808.98
698.493	3980.88
701.386	5365.19
704.278	6755.72
707.171	7796.13
710.064	8244.7
712.957	8024.84
715.849	7376.86
718.742	6743.74
721.635	6251
724.527	5626.17
727.42	4981.54
730.313	4213.17
733.205	3442.21
736.098	2665.38
738.991	2049.33
741.884	1553.7
744.776	1100.5
747.669	700.493
750.562	452.101
753.454	272.971
756.347	109.132
759.24	79.1488
762.132	126.626
765.025	168.037
767.918	164.464
770.811	104.052
773.703	18.7961
776.596	108.928
779.489	319.351
782.381	540.648
785.274	777.389
788.167	1099.26
791.059	1408.44
793.952	1861.98
796.845	2251.6
799.737	2599.69
802.63	2914.94
805.523	3242.96
808.416	3454.9
811.308	3669.94
814.201	3831.01
817.094	4096.27
819.986	4445.62
822.879	4703.14
825.772	4902.39
828.664	5137.28
831.557	5162.65
834.45	5348.38
837.343	5514.21
840.235	5893.79
843.128	6408.98
846.021	6834.55
848.913	7217.4
851.806	7688.54
854.699	8166.88
857.591	8879.29
860.484	9327.7
863.377	9369.58
866.27	9132.57
869.162	8497.89
872.055	7545.4
874.948	6537.38
877.84	5377.69
880.733	4309.1
883.626	3432.67
886.519	2772.61
889.411	2244.3
892.304	1884.21
895.197	1585.36
898.089	1331.8
900.982	1034.12
903.875	790.006
906.767	528.787
909.66	355.446
912.553	216.997
915.446	96.9824
918.338	34.703
921.231	22.5632
924.124	55.9254
927.016	94.1728
929.909	77.2009
932.802	82.9058
935.694	65.8583
938.587	41.9767
941.48	22.6361
944.372	19.9994
947.265	7.232
950.158	18.7001
953.051	50.2377
955.943	45.1529
958.836	68.0154
961.729	102.722
964.621	148.853
967.514	126.305
970.407	194.366
973.299	198.165
976.192	226.867
979.085	254.26
981.978	271.248
984.87	277.869
987.763	284.92
990.656	286.021
993.548	270.003
996.441	244.751
999.334	251.237
1002.23	245.504
1005.12	215.411
1008.01	242.426
1010.9	214.254
1013.8	202.511
1016.69	184.825
1019.58	167.395
1022.48	105.808
1025.37	113.691
1028.26	104.495
1031.15	73.6796
1034.05	53.9907
1036.94	46.1056
1039.83	51.1341
1042.72	35.128
1045.62	57.7628
1048.51	30.358
1051.4	46.692
1054.3	51.1263
1057.19	69.1466
1060.08	94.4039
1062.97	110.707
1065.87	119.979
1068.76	165.806
1071.65	166.492
1074.54	164.24
1077.44	180.314
1080.33	207.979
1083.22	209.775
1086.12	211.902
1089.01	211.067
1091.9	187.991
1094.79	206.964
1097.69	156.246
1100.58	145.245
1103.47	129.942
1106.36	116.504
1109.26	131.55
1112.15	93.9977
1115.04	74.1896
1117.93	60.5626
1120.83	50.3596
1123.72	62.2267
1126.61	47.4444
1129.51	28.0145
1132.4	12.2541
1135.29	14.2565
1138.18	8.4939
1141.08	7.97443
1143.97	6.46149
1146.86	20.6129
1149.75	5.85175
1152.65	0.996643
1155.54	7.91589
1158.43	8.93927
1161.33	2.45819
1164.22	7.98785
1167.11	3.64618
1170	2.47827
1172.9	201.302
1175.79	1.14911
1178.68	9.79968
1181.57	16.8861
1184.47	12.0612
1187.36	31.7034
1190.25	11.0307
1193.14	2.1355
1196.04	9.89233
1198.93	15.6304
1201.82	38.55
1204.71	2.43036
1207.61	17.6328
1210.5	24.2493
1213.39	38.5671
1216.29	32.441
1219.18	43.1054
1222.07	46.8442
1224.96	46.834
1227.86	47.5984
1230.75	35.1159
1233.64	32.3188
1236.54	21.7307
1239.43	29.7684
1242.32	45.437
1245.21	40.8176
1248.11	18.0596
1251	18.083
1253.89	2.19403
1256.78	7.06842
1259.68	8.34973
1262.57	19.1129
1265.46	0
