Measurement: Raman, 780 nm, unoriented, Raman Data Processed
Mineral: Dussertite
Rruff sample: R060398
Ideal chemistry: BaFe^3+^_3_(As^5+^O_4_)(As^5+^O_3_OH)(OH)_6_
Locality: Constantine, Algeria
Source: American Museum of Natural History
Description: Green granular aggregate
Measured chemistry: (Ba_0.99_Ca_0.01_)_Σ=1_(Fe^3+^_2.85_Al_0.15_)_Σ=3_(As_1.00_O_4_)(As_1.00_O_3_OH)((OH)_5.93_F_0.07_)_Σ=6_ ; (OH) estimated by difference and charge balance
Raman shift (cm-1)	intensity
101.694	0
105.069	3.99176
108.444	71.9739
111.819	224.262
115.193	363.088
118.568	454.834
121.943	581.341
125.318	762.939
128.693	1083.83
132.067	1350.27
135.442	936.342
138.817	413.692
142.192	173.635
145.567	58.7401
148.941	5.90753
152.316	14.0895
155.691	13.6264
159.066	3.82752
162.441	27.3882
165.816	102.596
169.19	222.902
172.565	342.887
175.94	435.194
179.315	546.993
182.69	703.408
186.065	940.031
189.439	1087.19
192.814	854.076
196.189	501.816
199.564	285.37
202.939	183.746
206.313	130.925
209.688	92.818
213.063	59.3096
216.438	27.6845
219.813	12.5804
223.188	1.69977
226.562	4.15375
229.937	10.1685
233.312	25.7852
236.687	49.1865
240.061	74.9549
243.436	99.3287
246.811	128.526
250.186	159.466
253.561	174.791
256.936	163.96
260.31	153.716
263.685	144.534
267.06	147.566
270.435	167.644
273.81	195.668
277.185	222.976
280.559	254.311
283.934	287.399
287.309	313.52
290.684	343.255
294.059	357.336
297.433	367.122
300.808	350.217
304.183	299.224
307.558	230.111
310.933	158.125
314.308	102.423
317.682	61.0932
321.057	34.1407
324.432	6.4462
327.807	5.13388
331.182	11.1655
334.556	12.454
337.931	10.5758
341.306	4.34814
344.681	6.34405
348.056	19.2124
351.43	32.3811
354.805	45.5057
358.18	64.4036
361.555	71.4321
364.93	74.8576
368.305	88.912
371.679	87.6046
375.054	62.6386
378.429	46.3396
381.804	61.5558
385.179	85.2416
388.553	122.939
391.928	163.812
395.303	213.558
398.678	262.526
402.053	307.659
405.427	330.228
408.802	311.013
412.177	250.348
415.552	186.061
418.927	128.556
422.301	91.8521
425.676	65.2709
429.051	51.4781
432.426	42.5914
435.801	41.0926
439.176	43.5407
442.55	57.7679
445.925	77.1301
449.3	121.814
452.675	183.756
456.05	266.113
459.425	352.956
462.799	437.211
466.174	530.764
469.549	625.889
472.924	621.35
476.299	489.861
479.673	321.621
483.048	197.217
486.423	118.383
489.798	65.6938
493.173	34.529
496.547	12.5332
499.922	0.368256
503.297	2.21649
506.672	7.79578
510.047	5.90494
513.422	3.09769
516.796	0.078094
520.171	4.78491
523.546	10.4688
526.921	20.7108
530.296	31.4602
533.67	47.9137
537.045	62.8082
540.42	86.7052
543.795	107.492
547.17	133.473
550.544	157.056
553.919	173.788
557.294	178.199
560.669	163.956
564.044	142.011
567.418	120.943
570.793	90.1423
574.168	70.0111
577.543	53.2011
580.918	39.0544
584.293	29.5214
587.667	20.7464
591.042	15.3777
594.417	9.48074
597.792	9.11357
601.167	6.28743
604.542	5.07358
607.916	4.27647
611.291	2.11749
614.666	1.70018
618.041	0.241241
621.416	3.90204
624.79	1.58373
628.165	1.1414
631.54	1.94423
634.915	0.820358
638.29	0.36644
641.664	0.874237
645.039	0.924042
648.414	3.22386
651.789	4.92267
655.164	6.04683
658.538	8.74025
661.913	8.58051
665.288	10.7156
668.663	10.0483
672.038	10.8324
675.413	10.7954
678.787	11.7245
682.162	15.0467
685.537	15.1041
688.912	21.6909
692.287	26.5239
695.662	34.4252
699.036	52.5317
702.411	82.5434
705.786	117.115
709.161	156.253
712.535	195.541
715.91	231.751
719.285	257.944
722.66	255.324
726.035	222.924
729.41	177.989
732.784	133.159
736.159	94.6792
739.534	61.5369
742.909	36.9277
746.284	22.5199
749.659	8.66826
753.033	1.08986
756.408	5.28697
759.783	8.72224
763.158	8.91657
766.533	3.9171
769.907	2.6073
773.282	9.62236
776.657	20.938
780.032	39.0937
783.407	51.8133
786.782	65.6662
790.156	80.6058
793.531	92.7228
796.906	104.851
800.281	116.233
803.655	121.594
807.03	134.466
810.405	143.745
813.78	158.444
817.155	174.533
820.53	194.55
823.904	216.388
827.279	234.985
830.654	256.789
834.029	279.89
837.404	309.582
840.779	349.973
844.153	380.977
847.528	409.064
850.903	426.721
854.278	438.163
857.653	438.514
861.027	416.287
864.402	378.905
867.777	331.848
871.152	277.694
874.527	230.123
877.901	186.657
881.276	146.605
884.651	121.934
888.026	101.939
891.401	78.8401
894.775	63.3461
898.15	45.4343
901.525	28.3397
904.9	17.0695
908.275	8.87058
911.65	3.04008
915.024	0.938583
918.399	2.98892
921.774	3.38565
925.149	4.06661
928.524	5.74265
931.899	4.17732
935.273	0.650192
938.648	0.532166
942.023	1.51912
945.398	0.55468
948.773	0.945488
952.147	3.1503
955.522	3.33035
958.897	2.80749
962.272	6.99329
965.647	8.73791
969.021	9.65123
972.396	11.2497
975.771	9.8806
979.146	12.8812
982.521	10.8438
985.895	12.7361
989.27	12.3969
992.645	13.1736
996.02	11.6412
999.395	13.1405
1002.77	9.51601
1006.14	11.5303
1009.52	11.4763
1012.89	10.3493
1016.27	7.07194
1019.64	6.23655
1023.02	6.22189
1026.39	6.73545
1029.77	5.97945
1033.14	3.9987
1036.52	6.30674
1039.89	6.79869
1043.27	4.20365
1046.64	4.49078
1050.02	6.80392
1053.39	5.85593
1056.77	7.11137
1060.14	6.84258
1063.52	4.91432
1066.89	8.06245
1070.27	7.77483
1073.64	8.94323
1077.02	6.20436
1080.39	9.19919
1083.77	9.94601
1087.14	9.55936
1090.52	6.9685
1093.89	6.21913
1097.26	7.83303
1100.64	7.21008
1104.01	6.70609
1107.39	5.22624
1110.76	4.59891
1114.14	5.54122
1117.51	0.256485
1120.89	1.15582
1124.26	2.52389
1127.64	2.75742
1131.01	0.057793
1134.39	1.11726
1137.76	0.421211
1141.14	0.506294
1144.51	0.576866
1147.89	0.056786
1151.26	0.356247
1154.64	1.37295
1158.01	1.84316
1161.39	2.65935
1164.76	2.75006
1168.13	0.202362
1171.51	1.80432
1174.88	3.57554
1178.26	1.56168
1181.63	2.41594
1185.01	2.6553
1188.38	1.41775
1191.76	3.60103
1195.13	2.99503
1198.51	3.93316
1201.88	4.56303
1205.26	2.10816
1208.63	4.14451
1212.01	4.38441
1215.38	4.47841
1218.76	4.59266
1222.13	6.01701
1225.51	3.7692
1228.88	4.79154
1232.26	5.8985
1235.63	3.34735
1239.01	5.03355
1242.38	3.28683
1245.76	4.79731
1249.13	1.46555
1252.51	3.51936
1255.88	3.13438
1259.26	1.27622
1262.63	3.59882
1266.01	5.27398
1269.38	3.11274
1272.76	1.88815
1276.13	2.31244
1279.5	1.91933
1282.88	0.024605
