Measurement: Raman, 532 nm, unoriented, Raman Data Processed
Mineral: Dussertite
Rruff sample: R070486
Ideal chemistry: BaFe^3+^_3_(As^5+^O_4_)(As^5+^O_3_OH)(OH)_6_
Locality: Clara mine, Rankach Valley, Oberwolfach, Wolfach, Black Forest, Baden-WÃ¼rttemberg, Germany
Source: Bob Jenkins
Description: Light green hexagonal plates lining vug associated with quartz and pharmacosiderite
Raman shift (cm-1)	intensity
130.389	0
133.763	2127.01
137.138	1784.42
140.513	881.115
143.888	709.054
147.263	221.981
150.637	92.4685
154.012	115.139
157.387	114.739
160.762	184.096
164.137	188.403
167.512	238.664
170.886	816.631
174.261	2485.63
177.636	5419.13
181.011	10117
184.386	17269.8
187.761	27302.7
191.135	34721.5
194.51	31370.6
197.885	20776.2
201.26	12209.4
204.635	7421.21
208.009	4806.46
211.384	3253.19
214.759	2210.21
218.134	1409.85
221.509	839.37
224.883	482.409
228.258	271.182
231.633	242.841
235.008	403.395
238.383	659.003
241.758	1091.49
245.132	1519.1
248.507	2058.67
251.882	2300.21
255.257	2330.37
258.632	1889.12
262.007	1420.76
265.381	903.427
268.756	732.314
272.131	851.323
275.506	1202.24
278.881	1650.11
282.255	2323.75
285.63	3227.78
289.005	4001.16
292.38	4575.5
295.755	4891.88
299.13	4775.1
302.504	4358.02
305.879	3701.89
309.254	2887.01
312.629	2177.1
316.004	1395.27
319.378	838.654
322.753	403.951
326.128	109.119
329.503	91.0444
332.878	94.2827
336.252	157.691
339.627	91.2405
343.002	99.1526
346.377	81.0317
349.752	34.3655
353.127	208.31
356.501	339.218
359.876	478.631
363.251	584.089
366.626	716.825
370.001	958.771
373.375	865.792
376.75	162.385
380.125	12.1838
383.5	198.732
386.875	775.237
390.25	1564.72
393.624	2799.3
396.999	4139.75
400.374	5399.54
403.749	6316.72
407.124	6347.54
410.498	5425.48
413.873	4096.31
417.248	2966.24
420.623	2091.9
423.998	1588.16
427.373	1227.09
430.747	989.638
434.122	828.08
437.497	821.769
440.872	1002.12
444.247	1214.32
447.622	1816.73
450.996	2696
454.371	4213.6
457.746	6673.57
461.121	10563.1
464.496	15408
467.87	20823
471.245	25145.2
474.62	24173.6
477.995	17963.4
481.37	11740.9
484.745	7496.11
488.119	4902.61
491.494	3196.93
494.869	2032.96
498.244	1111.21
501.619	546.662
504.993	219.894
508.368	62.8677
511.743	74.1148
515.118	125.369
518.493	131.449
521.867	49.8425
525.242	62.6748
528.617	206.479
531.992	533.623
535.367	825.361
538.742	1217.7
542.116	1635.91
545.491	2205.87
548.866	2945.81
552.241	3714.51
555.616	4333.71
558.99	4673.82
562.365	4785.99
565.74	4463.57
569.115	3930.76
572.49	3301.04
575.865	2648.9
579.239	2017.03
582.614	1509.32
585.989	1110.75
589.364	787.757
592.739	575.864
596.114	405.685
599.488	275.707
602.863	243.184
606.238	121.412
609.613	91.5535
612.987	12.7772
616.362	2.03711
619.737	34.681
623.112	38.9338
626.487	15.1417
629.862	26.6606
633.236	5.22888
636.611	11.6273
639.986	29.2767
643.361	85.9939
646.736	160.739
650.111	194.497
653.485	267.737
656.86	315.688
660.235	416.002
663.61	473.983
666.985	577.502
670.36	610.396
673.734	605.952
677.109	678.568
680.484	692.237
683.859	817.215
687.234	992.192
690.608	1344.58
693.983	1986.6
697.358	2963.3
700.733	4256.48
704.108	5653.05
707.482	6495.81
710.857	6639.22
714.232	6217.6
717.607	5642.4
720.982	5114.03
724.357	4570.15
727.731	3880.14
731.106	3072.13
734.481	2369.2
737.856	1672.36
741.231	1174.65
744.606	771.538
747.98	468.875
751.355	258.192
754.73	67.5549
758.105	53.752
761.48	150.333
764.854	195.931
768.229	188.843
771.604	104.826
774.979	70.4636
778.354	284.639
781.729	605.901
785.103	1000.47
788.478	1411.73
791.853	1874.08
795.228	2355.89
798.602	2845.74
801.977	3353.75
805.352	3715.87
808.727	4045.66
812.102	4283.96
815.477	4549.79
818.851	4870.69
822.226	5174.54
825.601	5323.36
828.976	5434.6
832.351	5404.32
835.726	5594.31
839.1	6080.21
842.475	6884.74
845.85	7667.92
849.225	8355.54
852.6	9181.11
855.975	10021.1
859.349	10969.4
862.724	11550.5
866.099	11386.1
869.474	10632.7
872.849	9260.5
876.223	7832.25
879.598	6324.04
882.973	5023.06
886.348	3997.75
889.723	3350.8
893.097	2862.44
896.472	2403.64
899.847	1866.88
903.222	1385.19
906.597	884.349
909.972	495.25
913.346	264.269
916.721	148.025
920.096	3.64282
923.471	42.6388
926.846	78.6847
930.221	89.7836
933.595	77.9517
936.97	64.5792
940.345	49.0725
943.72	40.0039
947.095	9.58899
950.469	2.3125
953.844	13.8705
957.219	54.8433
960.594	99.1929
963.969	127.282
967.343	161.231
970.718	176.423
974.093	259.544
977.468	256.212
980.843	305.1
984.217	337.832
987.592	373.085
990.967	375.699
994.342	324.793
997.717	330.864
1001.09	346.157
1004.47	325.327
1007.84	310.146
1011.22	286.885
1014.59	239.71
1017.97	217.995
1021.34	168.499
1024.71	129.504
1028.09	94.2514
1031.46	112.595
1034.84	92.3497
1038.21	53.3468
1041.59	69.5815
1044.96	53.5962
1048.34	65.3773
1051.71	77.224
1055.09	69.6525
1058.46	95.1679
1061.84	101.626
1065.21	153.736
1068.59	180.089
1071.96	173.991
1075.34	237.545
1078.71	223.7
1082.09	235.178
1085.46	243.546
1088.84	243.886
1092.21	249.361
1095.59	190.1
1098.96	185.58
1102.34	168.886
1105.71	131.527
1109.09	115.063
1112.46	102.174
1115.84	124.577
1119.21	89.0092
1122.59	71.5736
1125.96	24.582
1129.34	35.2946
1132.71	50.7433
1136.08	16.304
1139.46	31.5521
1142.83	28.5394
1146.21	19.4063
1149.58	28.9728
1152.96	22.8176
1156.33	4.50549
1159.71	0.549011
1163.08	19.5131
1166.46	10.6041
1169.83	7.74615
1173.21	1.55499
1176.58	4.29376
1179.96	4.82147
1183.33	2.31812
1186.71	1.02167
1190.08	1.46069
1193.46	12.1398
1196.83	5.11511
1200.21	3.27887
1203.58	12.9688
1206.96	21.9751
1210.33	3.8042
1213.7	18.183
1217.08	58.9357
1220.45	62.5566
1223.83	100.285
1227.2	68.4022
1230.58	77.9067
1233.95	76.4125
1237.33	76.4382
1240.7	52.8596
1244.08	69.5114
1247.45	30.4771
1250.83	50.2617
1254.2	3.34979
1257.58	18.2379
1260.95	24.3388
1264.33	19.0345
1267.7	26.1591
1271.08	19.7721
1274.45	25.5477
1277.83	24.4538
1281.2	26.0848
1284.58	37.3541
1287.95	6.78815
