Measurement: Raman, 532 nm, unoriented, Raman Data Processed
Mineral: Dussertite
Rruff sample: R060398
Ideal chemistry: BaFe^3+^_3_(As^5+^O_4_)(As^5+^O_3_OH)(OH)_6_
Locality: Constantine, Algeria
Source: American Museum of Natural History
Description: Green granular aggregate
Measured chemistry: (Ba_0.99_Ca_0.01_)_Σ=1_(Fe^3+^_2.85_Al_0.15_)_Σ=3_(As_1.00_O_4_)(As_1.00_O_3_OH)((OH)_5.93_F_0.07_)_Σ=6_ ; (OH) estimated by difference and charge balance
Raman shift (cm-1)	intensity
168.656	0
171.549	51.3946
174.441	247.566
177.334	490.206
180.227	774.304
183.119	1210.01
186.012	1926.12
188.905	2721.8
191.798	2718.18
194.69	1815.53
197.583	1020.72
200.476	597.363
203.369	369.962
206.261	247.94
209.154	163.292
212.047	96.1809
214.939	56.6274
217.832	19.7564
220.725	8.42853
223.617	19.3642
226.51	23.8679
229.403	26.181
232.296	8.42511
235.188	25.7203
238.081	71.8109
240.974	128.169
243.866	187.337
246.759	252.142
249.652	331.135
252.544	383.382
255.437	399.842
258.33	377.724
261.223	340.669
264.115	323.237
267.008	314.045
269.901	342.02
272.793	377.849
275.686	413.266
278.579	439.815
281.471	474.361
284.364	515.315
287.257	572.557
290.15	628.518
293.042	671.294
295.935	706.304
298.828	731.657
301.72	718.565
304.613	643.4
307.506	526.671
310.399	402.704
313.291	301.649
316.184	220.7
319.077	159.169
321.969	98.3919
324.862	52.7408
327.755	22.4318
330.647	2.50195
333.54	15.345
336.433	22.2089
339.325	18.0471
342.218	10.8935
345.111	2.1654
348.004	8.91901
350.896	30.0987
353.789	54.1865
356.682	82.0162
359.574	110.75
362.467	120.52
365.36	139.088
368.253	172.395
371.145	192.666
374.038	150.946
376.931	95.6425
379.823	62.0464
382.716	70.3928
385.609	101.578
388.502	146.038
391.394	207.49
394.287	284.159
397.18	377.233
400.072	481.749
402.965	584.031
405.858	642.815
408.75	626.016
411.643	533.236
414.536	412.972
417.428	310.305
420.321	223.506
423.214	162.453
426.107	120.062
428.999	94.2269
431.892	79.7543
434.785	71.9028
437.677	74.462
440.57	85.9623
443.463	103.596
446.356	139.779
449.248	205.206
452.141	298.865
455.034	442.548
457.926	632.173
460.819	875.136
463.712	1167.33
466.604	1535.38
469.497	1900.29
472.39	2050.7
475.283	1795.03
478.175	1312.66
481.068	868.104
483.961	570.533
486.853	365.252
489.746	228.305
492.639	142.016
495.531	84.2687
498.424	38.3904
501.317	15.6584
504.21	1.6247
507.102	10.7897
509.995	13.7668
512.888	16.0075
515.78	11.8675
518.673	5.78876
521.566	3.85583
524.458	16.5885
527.351	32.9722
530.244	55.7415
533.137	74.4404
536.029	103.111
538.922	138.351
541.815	182.809
544.707	233.139
547.6	293.358
550.493	354.459
553.386	413.765
556.278	446.731
559.171	455.584
562.064	428.269
564.956	384.725
567.849	328.694
570.742	272.083
573.635	218.724
576.527	169.977
579.42	132.391
582.313	103.419
585.205	81.5507
588.098	62.8546
590.991	49.9651
593.883	37.2614
596.776	28.5674
599.669	23.561
602.562	16.8625
605.454	12.9281
608.347	11.6602
611.24	6.2005
614.132	4.83435
617.025	5.70734
619.918	1.74231
622.81	2.11154
625.703	2.91452
628.596	1.85382
631.489	3.88095
634.381	1.78415
637.274	0.044708
640.167	0.132141
643.059	3.49808
645.952	7.03
648.845	8.60272
651.737	11.2664
654.63	15.5753
657.523	18.8704
660.416	23.0794
663.308	29.0397
666.201	30.5479
669.094	28.1718
671.986	32.6284
674.879	39.0149
677.772	33.7924
680.664	40.2672
683.557	44.3926
686.45	47.4239
689.343	53.7496
692.235	60.7579
695.128	67.669
698.021	89.7699
700.913	126.049
703.806	185.409
706.699	253.437
709.592	363.889
712.484	485.031
715.377	615.636
718.27	741.287
721.162	809.157
724.055	783.325
726.948	690.481
729.841	563.147
732.733	436.039
735.626	324.947
738.519	239.075
741.411	164.133
744.304	102.875
747.197	63.5879
750.089	32.9836
752.982	12.6523
755.875	7.07141
758.768	14.3868
761.66	16.1076
764.553	21.4838
767.446	16.9011
770.338	0.914429
773.231	19.9755
776.124	40.4426
779.016	73.4842
781.909	107.419
784.802	144.885
787.694	174.631
790.587	200.65
793.48	225.104
796.373	241.153
799.265	259.292
802.158	269.179
805.051	278.532
807.943	281.855
810.836	302.716
813.729	324.501
816.621	356.357
819.514	393.098
822.407	435.348
825.3	470.734
828.192	493.438
831.085	533.488
833.978	566.605
836.87	637.505
839.763	724.139
842.656	811.92
845.549	888.885
848.441	949.751
851.334	1028.33
854.227	1089.39
857.119	1120.7
860.012	1100.41
862.905	1029.35
865.798	933.027
868.69	807.461
871.583	694.557
874.476	582.004
877.368	485.433
880.261	394.837
883.154	327.433
886.046	273.973
888.939	236.022
891.832	205.535
894.725	170.123
897.617	132.853
900.51	98.7966
903.403	67.878
906.295	41.6149
909.188	23.0218
912.081	8.81116
914.973	1.50659
917.866	2.72125
920.759	4.1546
923.652	7.78332
926.544	9.78937
929.437	7.55298
932.33	5.13855
935.222	1.23755
938.115	1.79919
941.008	3.82752
943.9	3.13464
946.793	0.442627
949.686	3.34396
952.579	2.81534
955.471	5.47287
958.364	8.82898
961.257	9.51541
964.149	11.6987
967.042	13.6464
969.935	18.4463
972.827	18.6196
975.72	21.9763
978.613	28.8384
981.506	28.1833
984.398	29.2189
987.291	30.0035
990.184	32.6133
993.077	32.4983
995.969	31.8157
998.862	33.5388
1001.75	32.9257
1004.65	32.3807
1007.54	35.3806
1010.43	27.4312
1013.33	28.9034
1016.22	22.4486
1019.11	23.935
1022	19.4341
1024.9	15.501
1027.79	16.051
1030.68	10.131
1033.57	14.2335
1036.47	12.6224
1039.36	11.3661
1042.25	12.6713
1045.14	9.71628
1048.04	10.0978
1050.93	9.82761
1053.82	11.5967
1056.72	11.17
1059.61	11.8233
1062.5	12.9911
1065.39	12.5241
1068.29	16.9214
1071.18	17.3641
1074.07	20.7685
1076.96	20.8762
1079.86	22.1147
1082.75	24.0102
1085.64	25.0316
1088.54	19.1859
1091.43	22.5893
1094.32	23.5746
1097.21	17.7113
1100.11	18.5173
1103	15.8289
1105.89	11.7063
1108.79	12.4828
1111.68	12.0979
1114.57	7.57681
1117.46	5.25534
1120.36	4.43613
1123.25	3.55219
1126.14	2.46097
1129.03	2.98853
1131.93	0.043396
1134.82	1.95825
1137.71	0.154724
1140.6	0.348389
1143.5	0.323486
1146.39	0.441223
1149.28	3.19849
1152.17	0.596924
1155.07	0.089203
1157.96	0.970978
1160.85	0.95285
1163.75	4.69122
1166.64	5.40448
1169.53	3.16092
1172.42	3.04297
1175.32	0.839722
1178.21	0.952423
1181.1	1.28714
1183.99	0.137878
1186.89	1.45776
1189.78	2.39474
1192.67	1.27274
1195.57	0.022766
1198.46	0.781403
1201.35	1.02942
1204.24	1.60596
1207.14	2.07401
1210.03	4.88461
1212.92	7.93778
1215.82	6.42682
1218.71	6.7435
1221.6	11.0328
1224.49	8.32852
1227.38	11.8089
1230.28	9.7515
1233.17	10.7616
1236.06	11.5978
1238.96	11.3933
1241.85	9.7279
1244.74	6.42111
1247.63	8.04681
1250.53	5.15735
1253.42	6.55646
1256.31	5.56671
1259.2	2.33832
1262.1	4.57864
1264.99	1.68372
1267.88	3.72687
1270.78	2.96042
1273.67	4.14377
1276.56	1.88318
1279.45	7.87366
1282.35	4.75827
1285.24	0.429382
1288.13	0.026581
1291.03	4.56207
1293.92	1.79144
1296.81	3.25046
1299.7	0.340668
1302.6	0
