Measurement: Raman, 532 nm, unoriented, Raman Data Processed
Mineral: Eakerite
Rruff sample: R060319
Ideal chemistry: Ca_2_Sn^4+^Al_2_Si_6_O_18_(OH)_2_2H_2_O
Locality: Foote Mineral Company mine, Kings Mountain, North Carolina, USA
Source: Michael Scott
Description: Transparent colorless bladed single crystals
Measured chemistry: Ca_2.00_Sn^4+^_1.00_Al_2.00_Si_6_O_18_(OH)_2_Â·2H_2_O
Raman shift (cm-1)	intensity
158.471	0
161.363	3.01941
164.256	55.0931
167.149	91.0709
170.041	155.332
172.934	147.827
175.827	111.563
178.72	123.777
181.612	126.145
184.505	151.132
187.398	175.219
190.29	210.203
193.183	214.545
196.076	193.139
198.968	123.67
201.861	104.182
204.754	101.043
207.647	98.009
210.539	96.946
213.432	103.133
216.325	118.01
219.217	133.729
222.11	135.299
225.003	147.516
227.895	186.038
230.788	257.163
233.681	307.283
236.573	261.479
239.466	220.478
242.359	218.199
245.252	198.057
248.144	124.438
251.037	67.1054
253.93	36.4121
256.822	29.5206
259.715	33.9103
262.608	35.8695
265.5	42.5118
268.393	67.4445
271.286	97.9471
274.179	155.639
277.071	165.798
279.964	91.0902
282.857	67.1494
285.75	76.6844
288.642	39.6221
291.535	7.21741
294.428	4.09546
297.32	16.3745
300.213	4.48035
303.106	13.9065
305.998	4.22717
308.891	6.05225
311.784	15.9689
314.676	20.9829
317.569	40.3229
320.462	66.7457
323.355	78.7784
326.247	92.6543
329.14	140.615
332.033	226.896
334.925	330.13
337.818	362.607
340.711	285.671
343.603	272.66
346.496	321.751
349.389	405.459
352.281	308.347
355.174	144.219
358.067	73.7225
360.96	43.3839
363.852	38.343
366.745	27.8623
369.638	11.0763
372.53	2.86401
375.423	10.3804
378.316	0.075806
381.209	9.76721
384.101	27.9166
386.994	58.0055
389.887	106.258
392.779	163.848
395.672	111.42
398.565	55.8645
401.457	56.1649
404.35	67.3467
407.243	89.7168
410.135	136.876
413.028	224.654
415.921	330.172
418.814	378.04
421.706	269.993
424.599	155.214
427.492	116.654
430.384	120.398
433.277	143.817
436.17	186.668
439.062	258.849
441.955	323.72
444.848	294.493
447.741	162.188
450.633	77.2455
453.526	37.1085
456.419	20.9685
459.311	18.1075
462.204	27.4299
465.097	37.6442
467.99	57.5231
470.882	86.4847
473.775	120.638
476.668	146.044
479.56	105.927
482.453	43.6574
485.346	9.18164
488.238	5.55615
491.131	8.06067
494.024	10.7604
496.916	4.68762
499.809	4.02234
502.702	9.43433
505.595	17.7058
508.487	18.7763
511.38	29.773
514.273	45.9438
517.165	46.1582
520.058	54.1726
522.951	58.1561
525.844	64.6533
528.736	76.0444
531.629	95.5519
534.522	114.204
537.414	157.916
540.307	218.946
543.2	296.166
546.092	370.767
548.985	382.111
551.878	346.105
554.771	334.581
557.663	369.151
560.556	435.476
563.449	542.996
566.341	664.003
569.234	726.72
572.127	583.015
575.019	354.305
577.912	203.722
580.805	124.978
583.697	89.8314
586.59	69.4814
589.483	46.384
592.376	33.5223
595.268	36.1024
598.161	16.8344
601.054	10.3817
603.946	7.31238
606.839	6.59473
609.732	3.19275
612.625	2.47925
615.517	0.066895
618.41	2.9364
621.303	4.57422
624.195	4.23731
627.088	0.865356
629.981	3.01184
632.873	3.54443
635.766	6.69153
638.659	17.0366
641.552	10.7864
644.444	7.59912
647.337	10.1285
650.23	17.5715
653.122	22.3008
656.015	13.2784
658.908	14.5082
661.8	14.896
664.693	16.9137
667.586	19.4493
670.479	22.2992
673.371	23.3295
676.264	22.7661
679.157	22.0989
682.049	10.6592
684.942	5.79602
687.835	2.78967
690.727	5.39404
693.62	6.23743
696.513	7.0636
699.405	6.63257
702.298	2.84631
705.191	3.76465
708.084	0.604004
710.976	4.85535
713.869	0.68689
716.762	7.21826
719.654	0.305786
722.547	2.06921
725.44	11.2941
728.332	15.0142
731.225	23.5178
734.118	37.7389
737.011	52.0706
739.903	55.9369
742.796	61.3368
745.689	66.6089
748.581	58.6129
751.474	53.6593
754.367	25.5973
757.26	12.9448
760.152	3.35193
763.045	4.61426
765.938	2.08789
768.83	1.2699
771.723	2.43005
774.616	3.64148
777.508	11.4989
780.401	25.6829
783.294	21.7331
786.187	39.317
789.079	55.8734
791.972	65.3567
794.865	66.9497
797.757	58.406
800.65	61.4015
803.543	44.5668
806.435	32.3645
809.328	18.9977
812.221	16.5592
815.114	12.9823
818.006	7.79529
820.899	9.55859
823.792	11.6737
826.684	0.859863
829.577	4.52527
832.47	6.23377
835.362	5.54248
838.255	1.85962
841.148	4.51404
844.04	2.31079
846.933	4.67725
849.826	12.9331
852.719	8.35205
855.611	1.69629
858.504	6.61047
861.397	5.15051
864.289	4.5929
867.182	1.7334
870.075	1.99963
872.967	2.82727
875.86	3.36829
878.753	1.70215
881.646	3.8346
884.538	5.43945
887.431	1.67065
890.324	0.134399
893.216	4.1471
896.109	8.25537
899.002	10.2355
901.894	4.53259
904.787	6.74817
907.68	4.17578
910.573	5.44995
913.465	10.0925
916.358	17.2136
919.251	23.9529
922.143	24.9531
925.036	25.7124
927.929	22.1948
930.822	16.5553
933.714	11.7938
936.607	9.07398
939.5	16.7181
942.392	11.2112
945.285	14.2004
948.178	16.1464
951.07	12.0515
953.963	11.5996
956.856	9.6521
959.749	4.8999
962.641	14.3547
965.534	23.7371
968.427	22.7938
971.319	32.2905
974.212	36.3049
977.105	31.5751
979.997	14.0673
982.89	11.3041
985.783	6.70544
988.676	14.6711
991.568	20.7485
994.461	26.264
997.354	24.0217
1000.25	24.0437
1003.14	14.3441
1006.03	12.04
1008.92	18.9059
1011.82	16.6632
1014.71	25.0607
1017.6	27.7199
1020.5	44.8204
1023.39	56.5725
1026.28	55.5643
1029.17	29.0065
1032.07	16.7361
1034.96	6.02686
1037.85	6.36877
1040.74	1.49158
1043.64	3.63745
1046.53	2.26038
1049.42	7.46008
1052.32	9.89477
1055.21	6.27307
1058.1	7.43872
1060.99	8.40283
1063.89	5.98083
1066.78	2.88098
1069.67	1.34717
1072.56	12.4232
1075.46	26.3408
1078.35	34.9043
1081.24	46.2423
1084.13	50.2103
1087.03	46.2615
1089.92	38.9694
1092.81	23.6046
1095.7	13.6752
1098.6	5.90039
1101.49	7.56775
1104.38	7.76453
1107.28	8.74353
1110.17	5.88074
1113.06	8.47986
1115.95	0.869873
1118.85	5.09863
1121.74	8.9585
1124.63	4.81396
1127.53	1.74915
1130.42	3.68176
1133.31	7.73755
1136.2	5.2074
1139.1	5.68982
1141.99	7.07776
1144.88	5.71619
1147.77	0.436157
1150.67	4.69421
1153.56	7.28906
1156.45	10.8055
1159.35	0.737061
1162.24	2.97974
1165.13	3.33301
1168.02	7.38293
1170.92	8.83569
1173.81	7.51306
1176.7	6.91919
1179.59	0.468384
1182.49	4.58936
1185.38	5.85962
1188.27	3.31958
1191.16	4.13098
1194.06	4.55493
1196.95	6.36292
1199.84	2.90478
1202.73	7.95227
1205.63	5.53137
1208.52	5.28345
1211.41	8.39539
1214.31	16.9292
1217.2	9.55994
1220.09	8.58569
1222.98	5.7251
1225.88	4.96252
1228.77	6.97412
1231.66	10.623
1234.56	3.20093
1237.45	2.97009
1240.34	3.84277
1243.23	1.36658
1246.13	3.88757
1249.02	8.87585
1251.91	11.5056
1254.8	9.98377
1257.7	4.88538
1260.59	3.79443
1263.48	7.92627
1266.38	7.23315
1269.27	11.8254
1272.16	6.4469
1275.05	5.88769
1277.95	8.67102
1280.84	1.08118
1283.73	0.655762
1286.62	2.04858
1289.52	2.00854
1292.41	0.398315
1295.3	6.04456
1298.19	8.27539
1301.09	3.43603
