Measurement: Raman, 780 nm, unoriented, Raman Data Processed
Mineral: Eakerite
Rruff sample: R060319
Ideal chemistry: Ca_2_Sn^4+^Al_2_Si_6_O_18_(OH)_2_2H_2_O
Locality: Foote Mineral Company mine, Kings Mountain, North Carolina, USA
Source: Michael Scott
Description: Transparent colorless bladed single crystals
Measured chemistry: Ca_2.00_Sn^4+^_1.00_Al_2.00_Si_6_O_18_(OH)_2_Â·2H_2_O
Raman shift (cm-1)	intensity
112.746	0
116.121	4.7366
119.496	6.98167
122.871	7.45207
126.246	14.6952
129.62	24.1918
132.995	11.0965
136.37	2.5139
139.745	2.59143
143.12	0.760818
146.494	3.68787
149.869	4.33719
153.244	4.43256
156.619	3.07417
159.994	0.033752
163.369	0.833282
166.743	4.66988
170.118	8.58815
173.493	4.66324
176.868	4.79314
180.243	9.34344
183.618	20.8535
186.992	28.0042
190.367	33.4804
193.742	35.254
197.117	16.7168
200.492	3.14319
203.866	1.89082
207.241	1.25028
210.616	0.937622
213.991	4.34146
217.366	5.69844
220.74	8.98181
224.115	11.6662
227.49	15.2554
230.865	21.7841
234.24	20.0551
237.615	19.3609
240.989	24.8593
244.364	23.0347
247.739	11.3274
251.114	4.65414
254.489	2.98692
257.863	1.51562
261.238	5.24908
264.613	8.30289
267.988	10.953
271.363	15.6186
274.738	19.5152
278.112	10.3352
281.487	9.79929
284.862	9.6568
288.237	8.18503
291.612	2.95883
294.986	2.08621
298.361	0.391876
301.736	0.050491
305.111	0.819778
308.486	2.19998
311.861	6.12981
315.235	5.68649
318.61	10.4753
321.985	10.4769
325.36	12.672
328.735	18.627
332.109	28.1899
335.484	33.7145
338.859	29.0802
342.234	25.442
345.609	28.3906
348.984	32.1969
352.358	15.1077
355.733	8.50873
359.108	5.82658
362.483	3.32842
365.858	3.40939
369.233	2.019
372.607	0.420731
375.982	2.57185
379.357	0.887878
382.732	3.00928
386.106	3.17445
389.481	7.06622
392.856	9.78523
396.231	8.94136
399.606	16.5384
402.981	20.0431
406.355	22.4586
409.73	27.3581
413.105	38.8664
416.48	48.3908
419.855	36.8661
423.229	21.5634
426.604	16.9541
429.979	16.787
433.354	23.8895
436.729	25.2945
440.104	33.8796
443.478	29.8848
446.853	19.0811
450.228	8.71198
453.603	5.55165
456.978	5.21745
460.353	6.78148
463.727	12.1044
467.102	14.7631
470.477	19.8025
473.852	23.3551
477.227	22.9597
480.601	8.57076
483.976	3.49481
487.351	0.09935
490.726	1.64056
494.101	0.433609
497.476	1.44311
500.85	2.22424
504.225	0.997803
507.6	2.29279
510.975	3.41104
514.35	5.97704
517.724	5.25674
521.099	6.14069
524.474	8.72226
527.849	14.3041
531.224	20.3312
534.598	29.9269
537.973	40.3931
541.348	50.6521
544.723	59.8697
548.098	59.491
551.472	55.3315
554.847	61.7934
558.222	68.9044
561.597	78.8942
564.972	91.9418
568.347	94.3663
571.721	66.3697
575.096	34.3944
578.471	18.8234
581.846	13.5762
585.221	9.7121
588.596	2.80263
591.97	5.02861
595.345	2.45354
598.72	4.74141
602.095	2.53484
605.47	0.095917
608.845	1.84686
612.219	0.971893
615.594	1.17258
618.969	1.37541
622.344	0.6474
625.719	2.72052
629.093	1.85361
632.468	1.38957
635.843	4.0761
639.218	2.31537
642.593	0.090591
645.967	2.7993
649.342	2.45274
652.717	2.65393
656.092	3.07988
659.467	4.38016
662.842	5.29559
666.216	8.64577
669.591	6.08546
672.966	9.5463
676.341	6.94075
679.716	2.65933
683.091	2.94461
686.465	2.23558
689.84	4.23048
693.215	4.3772
696.59	2.22987
699.965	1.52168
703.339	2.7399
706.714	2.64996
710.089	1.36363
713.464	0.442917
716.839	0.938812
720.213	0.419632
723.588	2.35823
726.963	0.105499
730.338	1.37727
733.713	3.29651
737.087	2.73148
740.462	2.32172
743.837	1.41548
747.212	2.06451
750.587	2.62267
753.962	2.65874
757.336	0.359985
760.711	0.97493
764.086	1.38699
767.461	0.805679
770.836	0.552231
774.211	2.47829
777.585	4.44046
780.96	5.90736
784.335	7.54768
787.71	9.19905
791.085	11.4425
794.459	8.63069
797.834	6.81485
801.209	5.25072
804.584	3.59825
807.959	4.01021
811.333	0.306335
814.708	4.47668
818.083	3.55667
821.458	0.979019
824.833	1.92964
828.208	2.36427
831.582	1.3887
834.957	2.22771
838.332	0.809891
841.707	3.35451
845.082	2.20334
848.457	1.7128
851.831	1.12701
855.206	1.13014
858.581	2.36684
861.956	0.17308
865.331	0.637161
868.705	1.69591
872.08	0.723236
875.455	1.57835
878.83	1.61536
882.205	0.0858
885.58	0.112
888.954	0.485275
892.329	1.0737
895.704	1.56667
899.079	1.30966
902.454	0.161789
905.828	0.159241
909.203	2.56421
912.578	1.19455
915.953	1.90579
919.328	3.90947
922.702	2.80795
926.077	3.09146
929.452	4.78197
932.827	2.70344
936.202	0.474625
939.577	2.08144
942.951	3.69461
946.326	3.46626
949.701	3.38086
953.076	0.678696
956.451	2.35786
959.825	2.80626
963.2	4.35358
966.575	3.52336
969.95	5.34004
973.325	4.09647
976.699	3.49849
980.074	0.174744
983.449	1.01425
986.824	1.74162
990.199	0.846573
993.574	0.967102
996.948	2.69051
1000.32	2.09372
1003.7	0.580887
1007.07	0.658936
1010.45	1.74092
1013.82	4.69859
1017.2	7.1951
1020.57	6.895
1023.95	6.98155
1027.32	5.38393
1030.7	4.08401
1034.07	2.4252
1037.45	1.92558
1040.82	2.72145
1044.2	0.572479
1047.57	4.42781
1050.94	2.05185
1054.32	0.632721
1057.69	1.76891
1061.07	2.76065
1064.44	3.23677
1067.82	1.60394
1071.19	6.58839
1074.57	4.57899
1077.94	5.9239
1081.32	5.65805
1084.69	7.49854
1088.07	5.25035
1091.44	4.51842
1094.82	1.12153
1098.19	0.586441
1101.57	0.597458
1104.94	0.904541
1108.32	2.29391
1111.69	0.579155
1115.07	1.31858
1118.44	0.367401
1121.82	0.403648
1125.19	5.11305
1128.57	2.02913
1131.94	2.545
1135.32	0.420952
1138.69	0.97905
1142.07	1.88548
1145.44	0.958107
1148.82	0.229286
1152.19	0.744217
1155.57	2.60438
1158.94	1.0937
1162.31	2.51797
1165.69	1.79536
1169.06	2.87527
1172.44	0.291138
1175.81	0.569099
1179.19	0.230019
1182.56	1.49532
1185.94	0.844574
1189.31	2.43378
1192.69	4.27937
1196.06	2.28339
1199.44	0.049377
1202.81	2.04215
1206.19	1.58135
1209.56	2.65829
1212.94	0.94046
1216.31	1.38371
1219.69	1.59123
1223.06	1.44876
1226.44	0.529892
1229.81	2.84184
1233.19	1.52371
1236.56	1.64477
1239.93	1.37428
1243.31	1.60136
1246.68	0.990791
1250.06	1.72472
1253.43	0.424194
1256.81	1.0647
1260.18	1.3933
1263.56	0.842438
1266.93	1.71114
1270.31	1.35494
1273.68	1.46889
1277.06	1.39008
1280.43	1.28818
1283.81	0.288307
