Measurement: Raman, 780 nm, unoriented, Raman Data Processed
Mineral: Earlshannonite
Rruff sample: R100095
Ideal chemistry: Mn^2+^Fe^3+^_2_(PO_4_)_2_(OH)_2_4H_2_O
Locality: Foote mine, Kings Mountain, North Carolina
Description: Orange to brown spherical aggregates on matrix
Raman shift (cm-1)	intensity
119.978	0
123.353	0.549088
126.728	2.70332
130.102	0.860672
133.477	5.89137
136.852	7.13464
140.227	8.14162
143.602	13.9854
146.977	16.755
150.351	21.8378
153.726	20.008
157.101	15.3154
160.476	10.6905
163.851	10.6008
167.226	8.83853
170.6	5.55884
173.975	7.72047
177.35	10.1042
180.725	19.1555
184.1	25.108
187.474	24.3413
190.849	22.9831
194.224	16.8562
197.599	8.75215
200.974	2.5488
204.349	0.495667
207.723	0.211578
211.098	3.27548
214.473	1.57075
217.848	2.10727
221.223	7.94582
224.597	16.2497
227.972	25.2664
231.347	36.1735
234.722	48.3885
238.097	62.4472
241.471	74.206
244.846	80.2454
248.221	71.4434
251.596	58.5956
254.971	48.0035
258.346	40.6715
261.72	34.6887
265.095	34.4928
268.47	32.49
271.845	33.733
275.22	35.5669
278.594	40.5778
281.969	41.1329
285.344	48.4074
288.719	55.9166
292.094	62.0198
295.469	66.7389
298.843	72.7479
302.218	75.963
305.593	71.8288
308.968	67.3212
312.343	57.8283
315.717	44.9889
319.092	35.3188
322.467	30.0019
325.842	21.4908
329.217	16.1822
332.592	9.50674
335.966	6.27354
339.341	2.02698
342.716	1.85285
346.091	1.72684
349.466	0.308319
352.841	1.4872
356.215	1.28951
359.59	0.71479
362.965	2.96461
366.34	4.00533
369.715	5.48567
373.089	7.16688
376.464	10.3619
379.839	11.8517
383.214	11.8168
386.589	14.504
389.964	19.0384
393.338	24.6944
396.713	27.8434
400.088	32.2839
403.463	36.8999
406.838	42.57
410.212	44.2919
413.587	46.5989
416.962	47.7491
420.337	49.6593
423.712	53.6801
427.087	56.2744
430.461	60.6064
433.836	62.9937
437.211	66.0161
440.586	64.4643
443.961	56.4203
447.335	50.2501
450.71	43.3569
454.085	39.789
457.46	34.3776
460.835	28.3798
464.209	24.2112
467.584	20.1444
470.959	18.2377
474.334	13.2467
477.709	11.0524
481.084	7.95957
484.458	7.4993
487.833	3.61129
491.208	3.5663
494.583	1.45651
497.958	0.454468
501.332	1.22123
504.707	0.565628
508.082	0.809174
511.457	1.04692
514.832	1.80904
518.207	0.274681
521.581	0.992844
524.956	2.64963
528.331	3.66169
531.706	6.72208
535.081	8.60504
538.455	13.7684
541.83	17.1833
545.205	20.579
548.58	22.5066
551.955	25.6727
555.33	26.0181
558.704	29.185
562.079	33.5318
565.454	32.0209
568.829	30.9753
572.204	28.1705
575.578	27.7962
578.953	28.4824
582.328	27.4184
585.703	26.1151
589.078	26.2904
592.452	26.2883
595.827	23.4549
599.202	20.2557
602.577	18.3436
605.952	16.7963
609.327	15.9603
612.701	13.7969
616.076	12.4873
619.451	9.55613
622.826	7.97718
626.201	5.50431
629.576	3.17636
632.95	3.14456
636.325	2.23762
639.7	0.830414
643.075	2.24415
646.45	0.105022
649.824	0.94635
653.199	0.2934
656.574	0.019012
659.949	0.203873
663.324	0.513477
666.698	0.224415
670.073	0.311295
673.448	0.059963
676.823	1.40379
680.198	1.36993
683.573	2.31321
686.947	0.214054
690.322	1.49393
693.697	1.24332
697.072	0.028835
700.447	2.41397
703.822	1.30325
707.196	3.43947
710.571	0.453991
713.946	1.68894
717.321	2.4389
720.696	1.59428
724.07	0.841595
727.445	0.371513
730.82	1.25541
734.195	2.00128
737.57	1.13746
740.944	1.06499
744.319	1.26814
747.694	0.370476
751.069	1.14863
754.444	1.38535
757.818	2.15495
761.193	0.213528
764.568	0.243313
767.943	0.935184
771.318	1.10877
774.693	1.2371
778.067	0.353809
781.442	2.10351
784.817	2.49467
788.192	2.04967
791.567	2.2158
794.942	0.207241
798.316	2.37163
801.691	0.864384
805.066	2.41444
808.441	1.61343
811.816	1.12025
815.19	1.38842
818.565	1.66632
821.94	0.664021
825.315	0.994621
828.69	0.950443
832.064	0.673092
835.439	0.773483
838.814	0.688686
842.189	2.39757
845.564	2.77583
848.939	2.01794
852.313	0.14999
855.688	1.98015
859.063	1.42626
862.438	0.281265
865.813	1.66024
869.188	1.82522
872.562	1.94068
875.937	2.54835
879.312	0.697689
882.687	1.05693
886.062	0.212708
889.436	0.978188
892.811	0.177567
896.186	0.708099
899.561	0.006027
902.936	0.907261
906.311	1.28892
909.685	1.06812
913.06	0.304699
916.435	2.52642
919.81	5.39945
923.185	9.31378
926.559	13.4313
929.934	18.8723
933.309	22.7687
936.684	23.7257
940.059	21.8532
943.433	19.2645
946.808	17.8972
950.183	16.9926
953.558	17.6319
956.933	22.4939
960.308	27.3063
963.682	35.4868
967.057	42.4933
970.432	44.3135
973.807	39.5251
977.182	33.4749
980.557	27.5227
983.931	22.238
987.306	18.3468
990.681	15.7946
994.056	13.9515
997.431	10.2612
1000.8	8.84859
1004.18	7.43881
1007.55	7.17325
1010.93	5.42882
1014.3	6.63824
1017.68	8.52785
1021.05	8.87529
1024.43	10.5307
1027.8	11.6154
1031.18	12.3707
1034.55	8.33598
1037.93	9.25987
1041.3	7.90684
1044.68	5.1622
1048.05	4.42298
1051.43	2.81552
1054.8	1.59439
1058.18	0.232609
1061.55	0.137226
1064.93	1.08185
1068.3	1.2896
1071.68	0.463707
1075.05	0.029045
1078.43	0.70668
1081.8	1.97967
1085.18	1.22666
1088.55	0.428284
1091.92	1.44025
1095.3	0.220257
1098.67	1.10666
1102.05	0.260639
1105.42	1.65482
1108.8	1.16891
1112.17	1.32107
1115.55	0.789833
1118.92	4.20716
1122.3	3.96667
1125.67	5.27443
1129.05	6.43901
1132.42	6.50428
1135.8	8.93358
1139.17	10.0438
1142.55	10.5877
1145.92	10.8851
1149.3	10.471
1152.67	9.03308
1156.05	7.22068
1159.42	6.11069
1162.8	6.55665
1166.17	4.67559
1169.55	4.7617
1172.92	3.53857
1176.3	2.92572
1179.67	0.906773
1183.05	1.54578
1186.42	0.042229
1189.8	1.74751
1193.17	0.090164
1196.55	0.245119
1199.92	0.191469
1203.29	1.45893
1206.67	1.06681
1210.04	1.21451
1213.42	1.23277
1216.79	0.936077
1220.17	0.901657
1223.54	0.29653
1226.92	1.63462
1230.29	1.129
1233.67	0.598412
1237.04	2.13339
1240.42	1.86088
1243.79	1.45033
1247.17	1.19286
1250.54	1.59297
1253.92	1.26225
1257.29	0.404404
1260.67	1.66642
1264.04	1.31873
1267.42	0.818113
1270.79	1.5127
1274.17	0.505123
1277.54	0.698402
1280.91	0.48892
1284.29	0.572233
