Measurement: Raman, 532 nm, unoriented, Raman Data Processed
Mineral: Earlshannonite
Rruff sample: R100095
Ideal chemistry: Mn^2+^Fe^3+^_2_(PO_4_)_2_(OH)_2_4H_2_O
Locality: Foote mine, Kings Mountain, North Carolina
Description: Orange to brown spherical aggregates on matrix
Raman shift (cm-1)	intensity
166.667	0
169.559	12.6351
172.452	10.5502
175.345	3.21381
178.237	11.0588
181.13	14.8244
184.023	26.4006
186.916	30.8722
189.808	42.181
192.701	34.538
195.594	26.6887
198.486	12.2137
201.379	8.82471
204.272	6.97168
207.164	1.77167
210.057	4.1886
212.95	3.31238
215.843	1.77985
218.735	4.27753
221.628	10.0846
224.521	20.2154
227.413	30.1291
230.306	45.8063
233.199	70.4201
236.091	81.8416
238.984	102.101
241.877	115.785
244.769	121.963
247.662	117.893
250.555	107.607
253.448	89.5709
256.34	82.3381
259.233	70.6755
262.126	68.1534
265.018	65.4831
267.911	62.6243
270.804	61.4177
273.697	64.9617
276.589	71.6132
279.482	76.4534
282.375	84.0969
285.267	94.3596
288.16	101.775
291.053	118.103
293.945	126.697
296.838	136.856
299.731	147.999
302.623	156.148
305.516	153.34
308.409	149.237
311.302	138.605
314.194	116.388
317.087	102.2
319.98	87.1442
322.872	69.5185
325.765	56.0681
328.658	42.6937
331.55	32.2947
334.443	21.6858
337.336	13.5059
340.229	9.20172
343.121	2.50299
346.014	0.533691
348.907	2.63043
351.799	5.18268
354.692	3.73615
357.585	3.55371
360.478	1.72089
363.37	5.89093
366.263	8.62274
369.156	6.08246
372.048	5.21118
374.941	10.7683
377.834	16.5541
380.726	20.156
383.619	18.3824
386.512	22.5778
389.404	26.0619
392.297	34.2217
395.19	43.5472
398.083	56.8835
400.975	66.7147
403.868	78.1026
406.761	87.9158
409.653	96.2557
412.546	102.423
415.439	101.581
418.332	107.275
421.224	105.953
424.117	115.544
427.01	126.044
429.902	135.934
432.795	140.9
435.688	148.488
438.58	152.413
441.473	143.19
444.366	123.783
447.259	112.727
450.151	98.3433
453.044	93.3508
455.937	84.3342
458.829	76.4376
461.722	69.7537
464.615	59.8437
467.507	50.6703
470.4	43.6806
473.293	36.3668
476.185	30.5065
479.078	23.4668
481.971	19.4124
484.864	21.7269
487.756	14.6878
490.649	10.1128
493.542	7.26312
496.434	1.66718
499.327	1.81635
502.22	1.25104
505.113	0.416199
508.005	3.29858
510.898	3.4848
513.791	0.103271
516.683	1.8678
519.576	1.11939
522.469	2.17377
525.361	6.74219
528.254	10.9819
531.147	13.081
534.04	20.4694
536.932	24.5879
539.825	32.3528
542.718	44.2478
545.61	53.1259
548.503	57.8237
551.396	67.6207
554.288	73.9126
557.181	69.1093
560.074	76.6697
562.967	85.0479
565.859	83.864
568.752	85.9558
571.645	86.3353
574.537	83.204
577.43	77.9337
580.323	81.4108
583.216	78.6939
586.108	81.2511
589.001	82.3091
591.894	75.7666
594.786	78.4542
597.679	68.9316
600.572	66.4917
603.464	57.5635
606.357	54.7667
609.25	49.5815
612.142	45.0718
615.035	44.35
617.928	40.7855
620.821	29.6234
623.713	27.0937
626.606	22.2374
629.499	20.087
632.391	15.6063
635.284	10.5356
638.177	8.37506
641.069	3.59204
643.962	1.33814
646.855	4.23456
649.747	0.019775
652.64	2.10388
655.533	0.749817
658.426	1.88434
661.318	1.59985
664.211	0.899353
667.104	1.96417
669.996	2.96136
672.889	1.57733
675.782	2.1438
678.674	3.36462
681.567	2.89667
684.46	3.44757
687.353	7.25458
690.245	3.29865
693.138	10.0065
696.031	4.06055
698.923	8.96539
701.816	6.16919
704.709	8.12036
707.601	7.50861
710.494	11.6192
713.387	6.43536
716.28	9.97009
719.172	4.76117
722.065	3.7691
724.958	5.91565
727.85	3.12353
730.743	1.79248
733.636	5.80597
736.529	1.69983
739.421	0.763489
742.314	4.0849
745.207	2.78052
748.099	3.34741
750.992	3.11456
753.885	3.0921
756.777	4.67053
759.67	3.48523
762.563	7.54114
765.456	0.37439
768.348	5.06848
771.241	1.72241
774.134	4.96497
777.026	5.18213
779.919	6.73401
782.812	3.29602
785.704	6.46381
788.597	3.99432
791.49	4.95734
794.383	5.39868
797.275	1.57227
800.168	2.36237
803.061	6.10535
805.953	1.86206
808.846	4.34332
811.739	1.86737
814.631	2.54071
817.524	4.39771
820.417	1.11005
823.309	1.5058
826.202	2.30548
829.095	2.73236
831.988	0.65979
834.88	1.61676
837.773	0.137756
840.666	1.9892
843.558	1.31818
846.451	3.03986
849.344	1.99603
852.236	0.799255
855.129	6.31104
858.022	2.3493
860.915	1.71851
863.807	0.731506
866.7	1.34753
869.593	2.50293
872.485	2.29828
875.378	2.97626
878.271	2.99591
881.163	3.6944
884.056	0.271484
886.949	0.196838
889.842	4.37445
892.734	2.07898
895.627	0.6026
898.52	1.67206
901.412	2.20483
904.305	0.351624
907.198	1.69501
910.091	2.61877
912.983	0.215698
915.876	4.5614
918.769	6.84375
921.661	14.9246
924.554	27.3601
927.447	36.9451
930.339	48.7556
933.232	56.7103
936.125	63.7763
939.018	65.9774
941.91	58.269
944.803	51.1518
947.696	44.992
950.588	40.9574
953.481	43.2399
956.374	49.1339
959.266	58.0563
962.159	69.0899
965.052	90.796
967.944	99.133
970.837	107.279
973.73	100.952
976.623	90.8808
979.515	79.8341
982.408	73.0836
985.301	62.799
988.193	55.7754
991.086	47.1945
993.979	39.42
996.871	34.1119
999.764	26.0111
1002.66	23.463
1005.55	22.4949
1008.44	21.0409
1011.34	25.3623
1014.23	23.7112
1017.12	27.5775
1020.01	25.3341
1022.91	30.3919
1025.8	29.8902
1028.69	35.0914
1031.58	33.4373
1034.48	29.1457
1037.37	31.6439
1040.26	25.2929
1043.15	15.5049
1046.05	12.7349
1048.94	5.82922
1051.83	5.8147
1054.73	4.41498
1057.62	1.30261
1060.51	2.60175
1063.4	2.78583
1066.3	0.286499
1069.19	3.04254
1072.08	0.204834
1074.97	0.666992
1077.87	1.47113
1080.76	1.97064
1083.65	4.49811
1086.55	6.0658
1089.44	0.067261
1092.33	7.05786
1095.22	4.29694
1098.12	4.44116
1101.01	4.61792
1103.9	9.79425
1106.79	9.25372
1109.69	12.6873
1112.58	16.1466
1115.47	10.6736
1118.37	13.566
1121.26	19.4902
1124.15	20.5555
1127.04	22.2596
1129.94	26.6127
1132.83	35.5243
1135.72	42.3267
1138.61	45.4918
1141.51	52.9821
1144.4	55.1301
1147.29	50.0138
1150.18	46.4833
1153.08	41.3715
1155.97	37.3524
1158.86	29.1139
1161.76	28.2096
1164.65	21.7658
1167.54	19.3749
1170.43	13.9988
1173.33	11.4515
1176.22	8.94873
1179.11	5.00995
1182	4.71265
1184.9	4.46576
1187.79	2.01569
1190.68	0.939026
1193.58	1.82471
1196.47	1.94281
1199.36	1.14984
1202.25	3.50171
1205.15	1.57764
1208.04	0.460999
1210.93	2.51862
1213.82	6.53461
1216.72	2.57239
1219.61	4.06128
1222.5	1.14221
1225.39	6.0304
1228.29	7.47211
1231.18	5.08636
1234.07	5.33868
1236.97	4.20642
1239.86	3.31946
1242.75	5.49896
1245.64	4.30975
1248.54	7.25
1251.43	8.49249
1254.32	10.3977
1257.21	1.27899
1260.11	5.43732
1263	5.15735
1265.89	1.80981
1268.79	5.73425
1271.68	5.86737
1274.57	1.34833
1277.46	5.20331
1280.36	5.16022
1283.25	1.68146
1286.14	3.43915
1289.03	2.15839
1291.93	0.197144
1294.82	1.02008
1297.71	0.581482
1300.61	3.3515
