Measurement: Raman, 780 nm, unoriented, Raman Data Processed
Mineral: Eastonite
Rruff sample: R100078
Ideal chemistry: KAlMg_2_(Si_2_Al_2_)O_10_(OH)_2_
Locality: C.K. Williams & Co. quarry, Northampton County, Pennsylvania, USA
Source: Jeff Weissman
Description: Yellowish-green platy
Raman shift (cm-1)	intensity
109.854	0
113.228	0.551758
116.603	15.3389
119.978	7.04053
123.353	17.5476
126.728	34.1531
130.102	79.488
133.477	30.8828
136.852	13.1768
140.227	10.2393
143.602	8.23682
146.977	5.10791
150.351	0.332031
153.726	1.99658
157.101	0.218506
160.476	5.06958
163.851	18.304
167.226	24.7476
170.6	21.7676
173.975	37.366
177.35	57.8098
180.725	72.1526
184.1	122.593
187.474	198.188
190.849	349.181
194.224	418.943
197.599	224.736
200.974	98.2407
204.349	63.968
207.723	60.6255
211.098	30.8318
214.473	24.9265
217.848	17.9658
221.223	26.9263
224.597	39.6499
227.972	46.2148
231.347	52.3411
234.722	65.5737
238.097	65.8279
241.471	34.2881
244.846	5.99512
248.221	9.44141
251.596	1.47656
254.971	10.5063
258.346	6.90894
261.72	5.66064
265.095	17.4656
268.47	19.9788
271.845	22.9805
275.22	42.5957
278.594	56.8081
281.969	57.0938
285.344	34.7217
288.719	19.8691
292.094	16.375
295.469	2.18897
298.843	3.18481
302.218	1.18066
305.593	8.88721
308.968	7.7439
312.343	3.72559
315.717	3.95117
319.092	17.5686
322.467	33.9712
325.842	43.7612
329.217	60.7954
332.592	65.9685
335.966	92.5732
339.341	112.878
342.716	121.261
346.091	148.248
349.466	159.553
352.841	170.394
356.215	148.986
359.59	120.147
362.965	112.117
366.34	84.1892
369.715	87.2053
373.089	77.2117
376.464	83.8628
379.839	110.373
383.214	148.263
386.589	194.428
389.964	282.817
393.338	404.113
396.713	308.823
400.088	78.7587
403.463	14.2501
406.838	10.0397
410.212	6.08716
413.587	7.88562
416.962	2.73047
420.337	4.5741
423.712	4.17236
427.087	5.84839
430.461	9.69214
433.836	11.7579
437.211	5.62549
440.586	1.88061
443.961	1.23279
447.335	4.66687
450.71	2.078
454.085	1.50134
457.46	12.204
460.835	16.3879
464.209	10.2706
467.584	10.7056
470.959	17.0566
474.334	25.0326
477.709	21.5137
481.084	18.8862
484.458	7.19531
487.833	6.89478
491.208	14.4929
494.583	12.5178
497.958	11.9509
501.332	7.48474
504.707	12.5063
508.082	3.15662
511.457	5.06177
514.832	3.49133
518.207	3.61487
521.581	0.855957
524.956	3.85498
528.331	9.39355
531.706	4.11182
535.081	6.69958
538.455	9.11548
541.83	12.7707
545.205	13.3155
548.58	17.1881
551.955	13.1475
555.33	7.09021
558.704	8.91528
562.079	9.63171
565.454	0.916016
568.829	7.10437
572.204	2.07544
575.578	2.43115
578.953	3.70373
582.328	5.65061
585.703	1.526
589.078	0.2323
592.452	1.9906
595.827	7.16772
599.202	4.51636
602.577	11.1196
605.952	15.7183
609.327	4.64661
612.701	12.0867
616.076	13.9246
619.451	16.8648
622.826	17.53
626.201	20.7091
629.576	22.905
632.95	28.1616
636.325	33.2849
639.7	42.4071
643.075	44.2087
646.45	51.6505
649.824	52.2627
653.199	65.3341
656.574	71.7169
659.949	99.9744
663.324	122.345
666.698	157.374
670.073	213.564
673.448	287.266
676.823	384.782
680.198	464.282
683.573	504.95
686.947	535.898
690.322	545.468
693.697	455.344
697.072	283.515
700.447	191.305
703.822	147.611
707.196	134.674
710.571	124.841
713.946	90.9257
717.321	51.386
720.696	32.3024
724.07	19.5295
727.445	5.17065
730.82	7.44507
734.195	1.74561
737.57	8.59009
740.944	6.99377
744.319	1.85156
747.694	1.17422
751.069	2.44714
754.444	0.212769
757.818	3.58044
761.193	11.3289
764.568	11.9664
767.943	21.2927
771.318	15.7838
774.693	7.35669
778.067	1.34387
781.442	0.996948
784.817	1.94385
788.192	2.59216
791.567	6.27808
794.942	14.7627
798.316	3.26819
801.691	6.38831
805.066	7.078
808.441	4.79175
811.816	9.31519
815.19	6.00513
818.565	12.8722
821.94	18.9219
825.315	14.7286
828.69	15.8586
832.064	12.1049
835.439	10.4196
838.814	18.7138
842.189	13.9657
845.564	16.6682
848.939	13.6222
852.313	19.5341
855.688	10.9763
859.063	15.1749
862.438	10.2311
865.813	6.32471
869.188	11.7355
872.562	8.52624
875.937	5.18494
879.312	9.82935
882.687	7.8971
886.062	15.0857
889.436	4.00037
892.811	0.261841
896.186	0.720703
899.561	1.38574
902.936	0.71814
906.311	6.2251
909.685	0.365479
913.06	3.34033
916.435	2.15454
919.81	4.54578
923.185	0.720093
926.559	1.26721
929.934	2.65247
933.309	7.55762
936.684	3.48523
940.059	2.52966
943.433	11.3336
946.808	9.44665
950.183	7.19385
953.558	9.3894
956.933	5.50757
960.308	10.0026
963.682	7.63184
967.057	8.08252
970.432	12.0518
973.807	3.31335
977.182	4.01599
980.557	3.8042
983.931	4.78955
987.306	4.68274
990.681	4.27564
994.056	7.83032
997.431	1.83032
1000.8	7.36731
1004.18	1.84131
1007.55	0.552856
1010.93	1.27356
1014.3	2.62329
1017.68	12.6246
1021.05	7.0365
1024.43	6.58264
1027.8	12.6751
1031.18	25.6506
1034.55	27.2258
1037.93	37.7246
1041.3	36.1877
1044.68	29.7675
1048.05	19.8893
1051.43	19.1038
1054.8	17.4875
1058.18	16.2897
1061.55	10.1239
1064.93	19.6855
1068.3	19.1705
1071.68	18.6855
1075.05	22.3414
1078.43	28.1176
1081.8	32.4692
1085.18	29.8818
1088.55	31.0402
1091.92	26.7059
1095.3	21.2521
1098.67	17.9346
1102.05	21.6785
1105.42	21.2325
1108.8	27.8601
1112.17	18.9196
1115.55	4.49335
1118.92	7.2121
1122.3	3.74658
1125.67	0.97644
1129.05	6.83716
1132.42	2.20667
1135.8	3.64819
1139.17	1.00946
1142.55	8.57477
1145.92	9.54486
1149.3	1.58331
1152.67	9.15021
1156.05	13.3018
1159.42	5.49823
1162.8	0.520935
1166.17	4.74872
1169.55	9.8031
1172.92	11.7465
1176.3	8.15045
1179.67	15.7411
1183.05	12.477
1186.42	8.64477
1189.8	19.1695
1193.17	18.9097
1196.55	15.4872
1199.92	15.0465
1203.29	11.7568
1206.67	10.0799
1210.04	8.96191
1213.42	13.6324
1216.79	11.2526
1220.17	13.4502
1223.54	17.4598
1226.92	9.61572
1230.29	9.1239
1233.67	0.919739
1237.04	12.8833
1240.42	3.81494
1243.79	7.70392
1247.17	6.29755
1250.54	2.68933
1253.92	4.68433
1257.29	11.4495
1260.67	18.9692
1264.04	14.6918
1267.42	8.80719
1270.79	1.1485
1274.17	2.20259
1277.54	2.56781
1280.91	4.51794
1284.29	6.82941
