Measurement: Raman, 780 nm, unoriented, Raman Data Processed
Mineral: Eckermannite
Rruff sample: R060320
Ideal chemistry: NaNa_2_(Mg_4_Al)Si_8_O_22_(OH)_2_
Locality: Norra Karr Complex, near Granna, Ostergotsland, Sweden
Source: Michael Scott
Description: Parallel aggregate of blue elongated bladed crystals
Measured chemistry: dark: (Na_2.50_K_0.30_[box]_0.20_)_Σ=3_(Mg_2.35_Fe^2+^_1.35_Al_1.20_Mn_0.10_)_Σ=5_Si_8.00_O_22_((OH)_1.18_F_0.82_)_Σ=2_; OH estimated by charge balance
Raman shift (cm-1)	intensity
132.031	0
134.924	0.239655
137.816	0.11351
140.709	0.642784
143.602	4.57725
146.494	11.289
149.387	22.2241
152.28	39.0794
155.173	36.9558
158.065	20.959
160.958	14.4414
163.851	14.4829
166.743	19.4578
169.636	26.4471
172.529	35.5733
175.422	43.5823
178.314	51.9715
181.207	53.412
184.1	49.7809
186.992	34.6432
189.885	22.5558
192.778	18.5456
195.67	20.408
198.563	25.754
201.456	33.8664
204.349	44.5236
207.241	53.2957
210.134	55.374
213.027	55.0304
215.919	58.4154
218.812	63.5351
221.705	70.3191
224.597	78
227.49	73.9666
230.383	64.3985
233.275	49.8359
236.168	41.8434
239.061	34.5218
241.954	32.9406
244.846	30.1212
247.739	29.9157
250.632	25.6623
253.524	19.8138
256.417	12.9831
259.31	9.00395
262.202	5.99847
265.095	4.58992
267.988	2.27957
270.881	1.01357
273.773	0.508873
276.666	1.28751
279.559	1.26218
282.451	1.43318
285.344	1.20494
288.237	0.091614
291.13	0.303047
294.022	2.21507
296.915	5.10182
299.808	10.2703
302.7	13.3793
305.593	19.0901
308.486	22.3043
311.378	27.1039
314.271	26.9458
317.164	24.3819
320.057	20.4501
322.949	17.4331
325.842	12.2091
328.735	9.04403
331.627	7.29506
334.52	3.72988
337.413	2.6471
340.305	1.46076
343.198	2.05765
346.091	0.964119
348.984	2.97462
351.876	3.62403
354.769	5.87223
357.662	8.17413
360.554	9.28057
363.447	11.6487
366.34	11.0477
369.233	12.7525
372.125	13.2574
375.018	11.7447
377.911	12.7811
380.803	14.0968
383.696	13.704
386.589	14.6625
389.481	14.9214
392.374	15.1513
395.267	15.8513
398.159	14.8441
401.052	16.5478
403.945	16.8595
406.838	19.6541
409.73	21.5944
412.623	26.3512
415.516	27.9027
418.408	28.2301
421.301	25.203
424.194	16.0672
427.087	8.7053
429.979	3.53282
432.872	3.73849
435.765	2.38777
438.657	2.65168
441.55	4.26251
444.443	1.97676
447.335	1.7318
450.228	0.9842
453.121	1.81926
456.014	1.5363
458.906	1.0108
461.799	0.697304
464.692	0.223828
467.584	1.38314
470.477	1.91463
473.37	3.79318
476.262	5.63522
479.155	8.4843
482.048	8.4655
484.94	8.81121
487.833	6.69223
490.726	4.49217
493.619	4.54838
496.511	3.64791
499.404	1.70569
502.297	5.55142
505.189	7.79128
508.082	9.52742
510.975	11.0409
513.867	12.5449
516.76	12.9623
519.653	13.4635
522.545	14.1673
525.438	18.6439
528.331	20.8043
531.224	24.9294
534.116	27.9657
537.009	29.2452
539.902	29.8762
542.794	31.9154
545.687	34.5405
548.58	37.6708
551.472	37.0622
554.365	36.9864
557.258	34.1994
560.151	28.9234
563.043	26.6172
565.936	22.0443
568.829	20.3953
571.721	18.127
574.614	16.6664
577.507	14.118
580.399	14.1601
583.292	12.2037
586.185	11.4984
589.078	7.52855
591.97	7.57146
594.863	6.73986
597.756	6.16917
600.649	4.06212
603.541	1.42026
606.434	1.58241
609.327	1.22288
612.219	0.546947
615.112	2.36563
618.005	0.664612
620.897	1.6779
623.79	0.915916
626.683	0.597027
629.576	0.609821
632.468	0.462009
635.361	0.881252
638.254	0.306217
641.146	1.18926
644.039	3.06306
646.932	3.67199
649.824	3.91614
652.717	4.34656
655.61	4.70462
658.503	6.2846
661.395	7.54225
664.288	10.1826
667.181	13.4386
670.073	21.0407
672.966	31.1041
675.859	43.8809
678.751	67.9065
681.644	100.053
684.537	131.953
687.429	136.339
690.322	103.688
693.215	66.4977
696.108	38.2281
699	25.6786
701.893	18.4592
704.786	13.0315
707.678	11.841
710.571	9.58253
713.464	9.75045
716.356	7.99575
719.249	6.91517
722.142	5.26414
725.035	4.01141
727.927	1.32227
730.82	0.555122
733.713	1.6794
736.605	0.704998
739.498	1.52426
742.391	2.00935
745.284	2.03377
748.176	3.06969
751.069	4.91681
753.962	6.31735
756.854	6.01767
759.747	6.16805
762.64	4.03114
765.532	3.23421
768.425	1.24292
771.318	0.580059
774.211	0.694027
777.103	0.95713
779.996	0.484951
782.889	0.881212
785.781	0.247223
788.674	0.009636
791.567	0.753635
794.459	0.198387
797.352	0.061928
800.245	0.119179
803.138	0.213844
806.03	0.805679
808.923	1.15564
811.816	0.04715
814.708	2.52302
817.601	2.57139
820.494	1.20145
823.386	1.26796
826.279	0.406139
829.172	2.20428
832.064	1.99876
834.957	0.558414
837.85	1.62973
840.743	1.6837
843.635	1.40672
846.528	1.70467
849.421	1.5171
852.313	0.883133
855.206	0.084351
858.099	0.376343
860.991	0.156757
863.884	0.623959
866.777	0.323849
869.67	0.471878
872.562	0.323044
875.455	1.0135
878.348	1.1673
881.24	0.377884
884.133	3.40405
887.026	3.24918
889.918	6.58182
892.811	7.04633
895.704	7.53787
898.597	10.158
901.489	10.0203
904.382	10.9201
907.275	12.1817
910.167	12.0556
913.06	11.4312
915.953	11.5396
918.846	10.8842
921.738	10.7099
924.631	7.97499
927.524	5.10256
930.416	3.95365
933.309	2.84283
936.202	0.923176
939.094	0.526276
941.987	0.059872
944.88	0.042877
947.773	0.18177
950.665	0.138241
953.558	1.46355
956.451	3.94974
959.343	6.43748
962.236	8.00617
965.129	9.89883
968.021	11.2831
970.914	11.3826
973.807	12.4225
976.699	15.03
979.592	17.8432
982.485	21.7031
985.378	24.6861
988.27	23.3169
991.163	24.6174
994.056	23.17
996.948	22.5647
999.841	20.9791
1002.73	16.3758
1005.63	15.11
1008.52	11.9176
1011.41	10.4756
1014.3	9.47381
1017.2	7.35367
1020.09	4.64165
1022.98	5.88053
1025.88	3.6986
1028.77	0.71077
1031.66	1.27078
1034.55	0.742241
1037.45	0.573349
1040.34	0.705551
1043.23	0.005936
1046.12	0.328712
1049.02	0.024597
1051.91	0.920013
1054.8	0.620041
1057.69	1.47368
1060.59	1.08537
1063.48	3.66455
1066.37	5.0224
1069.27	6.34801
1072.16	11.0469
1075.05	13.5245
1077.94	18.5642
1080.84	22.8519
1083.73	26.7002
1086.62	25.4115
1089.52	18.9406
1092.41	15.5673
1095.3	9.53381
1098.19	7.67513
1101.09	5.64922
1103.98	5.52119
1106.87	4.80432
1109.76	3.78452
1112.66	4.19362
1115.55	2.69357
1118.44	2.97714
1121.34	2.22897
1124.23	3.34197
1127.12	1.84382
1130.01	1.45719
1132.9	1.08801
1135.8	0.538052
1138.69	0.667114
1141.58	2.60429
1144.48	0.70343
1147.37	0.512789
1150.26	0.375191
1153.15	1.17483
1156.05	0.857651
1158.94	0.53616
1161.83	0.376652
1164.72	0.100788
1167.62	0.366203
1170.51	0.852745
1173.4	0.510082
1176.3	2.42537
1179.19	1.05925
1182.08	1.3775
1184.97	0.433044
1187.87	2.48015
1190.76	2.14798
1193.65	2.1458
1196.55	2.69029
1199.44	3.02662
1202.33	2.01843
1205.22	1.75128
1208.12	2.38963
1211.01	2.30129
1213.9	2.20983
1216.79	2.69446
1219.69	1.95773
1222.58	3.69192
1225.47	1.7384
1228.37	1.60611
1231.26	1.88549
1234.15	1.05953
1237.04	1.62934
1239.93	1.40691
1242.83	1.96919
1245.72	1.99589
1248.61	0.234604
1251.51	1.5815
1254.4	1.35247
1257.29	0.40239
1260.18	2.03739
1263.08	0.866493
1265.97	0.907074
1268.86	1.75209
1271.76	0.978867
1274.65	2.23867
1277.54	0.851395
1280.43	1.46071
1283.33	0.479843
