Measurement: Raman, 532 nm, unoriented, Raman Data Processed
Mineral: Eckermannite
Rruff sample: R060320
Ideal chemistry: NaNa_2_(Mg_4_Al)Si_8_O_22_(OH)_2_
Locality: Norra Karr Complex, near Granna, Ostergotsland, Sweden
Source: Michael Scott
Description: Parallel aggregate of blue elongated bladed crystals
Measured chemistry: dark: (Na_2.50_K_0.30_[box]_0.20_)_Σ=3_(Mg_2.35_Fe^2+^_1.35_Al_1.20_Mn_0.10_)_Σ=5_Si_8.00_O_22_((OH)_1.18_F_0.82_)_Σ=2_; OH estimated by charge balance
Raman shift (cm-1)	intensity
90.4922	0
93.867	0.62009
97.2418	1.42699
100.617	2.67005
103.992	5.69363
107.366	6.79324
110.741	8.98023
114.116	14.0357
117.491	10.7679
120.865	7.36768
124.24	3.00141
127.615	1.29399
130.99	1.77944
134.365	3.40234
137.74	1.66946
141.114	1.63714
144.489	8.16656
147.864	17.5804
151.239	41.7425
154.614	72.0941
157.988	72.6909
161.363	67.5239
164.738	74.2361
168.113	88.2109
171.488	111.998
174.863	128.913
178.237	150.219
181.612	160.97
184.987	153.511
188.362	137.773
191.737	126.71
195.112	129.646
198.486	149.867
201.861	183.184
205.236	220.804
208.611	250.325
211.986	247.975
215.36	227.362
218.735	204.421
222.11	190.387
225.485	188.841
228.86	177.262
232.234	140.759
235.609	110.577
238.984	92.1098
242.359	79.4962
245.734	67.6909
249.109	59.8637
252.483	50.2663
255.858	41.2115
259.233	32.3938
262.608	22.5487
265.983	13.3945
269.358	7.63365
272.732	4.48052
276.107	0.421211
279.482	1.89188
282.857	3.32338
286.232	2.57198
289.606	1.62245
292.981	0.986443
296.356	2.11836
299.731	9.17367
303.106	18.7895
306.481	30.761
309.855	44.1671
313.23	54.7818
316.605	49.6026
319.98	37.5681
323.355	28.2372
326.729	16.1205
330.104	10.3244
333.479	5.28062
336.854	1.89549
340.229	0.805122
343.603	0.06868
346.978	3.22519
350.353	7.42321
353.728	17.5509
357.103	28.9844
360.478	38.6584
363.852	49.0619
367.227	54.4558
370.602	58.4986
373.977	61.8289
377.352	56.1936
380.726	47.4147
384.101	46.5581
387.476	49.0702
390.851	53.3634
394.226	56.5723
397.601	53.1826
400.975	52.2765
404.35	52.558
407.725	56.3082
411.1	63.254
414.475	76.9643
417.849	91.6234
421.224	91.2994
424.599	68.7442
427.974	37.8942
431.349	19.0928
434.724	11.3853
438.098	9.30848
441.473	9.5587
444.848	7.99705
448.223	3.66391
451.598	1.37912
454.972	0.037155
458.347	1.88422
461.722	1.3214
465.097	1.06479
468.472	1.4508
471.846	0.078568
475.221	1.67871
478.596	5.82958
481.971	7.53344
485.346	8.06773
488.721	6.9603
492.095	7.0556
495.47	4.6944
498.845	5.5774
502.22	7.731
505.595	11.199
508.969	15.2047
512.344	19.6519
515.719	22.669
519.094	23.9717
522.469	26.8082
525.844	32.9004
529.218	41.6941
532.593	54.1041
535.968	58.5326
539.343	62.9763
542.718	70.5606
546.092	84.5279
549.467	98.9537
552.842	103.369
556.217	101.205
559.592	86.6337
562.967	67.7648
566.341	54.4382
569.716	43.0751
573.091	35.8973
576.466	30.7173
579.841	26.0424
583.216	23.9501
586.59	21.0574
589.965	17.3645
593.34	14.77
596.715	12.3462
600.09	9.0578
603.464	5.47446
606.839	1.95061
610.214	0.244507
613.589	0.478447
616.964	1.63793
620.338	1.34558
623.713	1.0298
627.088	0.881142
630.463	0.064369
633.838	0.368465
637.212	1.20041
640.587	2.39881
643.962	3.69557
647.337	5.6062
650.712	6.4704
654.087	9.92993
657.461	13.7298
660.836	17.9421
664.211	24.9009
667.586	35.4272
670.961	52.4627
674.335	87.4079
677.71	136.643
681.085	219.114
684.46	338.291
687.835	422.922
691.21	340.878
694.584	190.761
697.959	108.755
701.334	71.6714
704.709	53.0772
708.084	45.2484
711.458	43.2631
714.833	43.5917
718.208	43.1897
721.583	36.1818
724.958	25.7816
728.332	14.0109
731.707	7.33145
735.082	3.20297
738.457	1.71676
741.832	1.26765
745.207	3.3441
748.581	3.45707
751.956	6.49825
755.331	7.31219
758.706	10.0626
762.081	11.077
765.456	9.35968
768.83	6.69775
772.205	4.77109
775.58	3.09351
778.955	1.68684
782.33	0.526241
785.704	0.339291
789.079	0.293327
792.454	0.215298
795.829	0.264217
799.204	0.553337
802.578	0.154011
805.953	0.2467
809.328	0.561863
812.703	0.724857
816.078	0.739178
819.453	0.59306
822.827	0.846512
826.202	0.489632
829.577	0.784512
832.952	1.20145
836.327	1.61118
839.702	2.31655
843.076	2.33435
846.451	2.13179
849.826	1.25084
853.201	3.67337
856.576	1.68698
859.95	1.89831
863.325	0.693348
866.7	1.98823
870.075	2.93465
873.45	3.99379
876.824	8.11654
880.199	11.8228
883.574	17.6965
886.949	24.9385
890.324	33.7112
893.698	45.2527
897.073	54.2413
900.448	63.6431
903.823	69.0556
907.198	74.9884
910.573	79.8311
913.947	81.5353
917.322	81.4367
920.697	72.5275
924.072	61.1009
927.447	49.5116
930.822	34.4393
934.196	21.3983
937.571	11.894
940.946	3.91479
944.321	1.12252
947.696	1.15556
951.07	0.495403
954.445	4.85308
957.82	14.1485
961.195	25.4229
964.57	37.3714
967.944	37.2715
971.319	27.1194
974.694	18.7586
978.069	16.6996
981.444	16.7538
984.819	21.1735
988.193	27.4477
991.568	36.5195
994.943	43.636
998.318	51.4954
1001.69	51.9754
1005.07	47.601
1008.44	39.6714
1011.82	34.8855
1015.19	32.1044
1018.57	28.044
1021.94	20.9896
1025.32	14.3666
1028.69	8.44097
1032.07	7.53956
1035.44	5.31379
1038.82	3.85285
1042.19	1.19696
1045.57	0.979656
1048.94	0.980316
1052.32	0.453972
1055.69	0.583694
1059.07	0.563328
1062.44	1.67607
1065.81	3.14574
1069.19	6.31565
1072.56	10.0728
1075.94	18.5608
1079.31	27.3887
1082.69	38.5123
1086.06	46.3869
1089.44	39.5268
1092.81	24.4647
1096.19	16.6466
1099.56	10.0933
1102.94	9.61342
1106.31	7.92687
1109.69	7.53499
1113.06	7.01621
1116.44	6.16329
1119.81	8.01948
1123.19	5.9634
1126.56	4.89216
1129.94	3.51887
1133.31	2.18757
1136.68	2.86223
1140.06	1.85965
1143.43	1.88349
1146.81	1.07916
1150.18	0.957249
1153.56	0.125076
1156.93	0.237621
1160.31	0.455959
1163.68	0.061954
1167.06	0.027908
1170.43	0.084669
1173.81	0.138554
1177.18	0.002708
1180.56	0.089115
1183.93	0.054708
1187.31	0.147392
1190.68	0.298391
1194.06	0.377268
1197.43	1.37784
1200.81	1.76769
1204.18	2.063
1207.56	2.1432
1210.93	2.00919
1214.31	1.82714
1217.68	2.18723
1221.06	3.20388
1224.43	2.59548
1227.81	2.76874
1231.18	2.48915
1234.56	1.11974
1237.93	2.10131
1241.31	1.45811
1244.68	2.18628
1248.05	2.22324
1251.43	1.35262
1254.8	2.2649
1258.18	1.60008
1261.55	2.15176
1264.93	0.832191
1268.3	1.0916
1271.68	1.19494
1275.05	1.02929
1278.43	1.89174
1281.8	1.00434
1285.18	1.13781
1288.55	0.107487
1291.93	0.587166
1295.3	0.997454
1298.68	0.03668
1302.05	0.092438
