Measurement: Raman, 532 nm, unoriented, Raman Data Processed
Mineral: Eclarite
Rruff sample: R110124
Ideal chemistry: (Cu,Fe)Pb_9_Bi_12_S_28_
Locality: Crabtree quarry, Wake County, North Carolina, USA
Source: Mark Feinglos
Description: Mass of tin-white metallic elongated crystals associated with quartz
Raman shift (cm-1)	intensity
90.4922	0
93.867	3.03704
97.2418	3.29691
100.617	11.9726
103.992	18.0499
107.366	29.0346
110.741	38.9268
114.116	45.4888
117.491	48.5062
120.865	81.4919
124.24	99.3528
127.615	82.4122
130.99	65.6046
134.365	50.4407
137.74	32.3903
141.114	20.3509
144.489	0.805389
147.864	15.7554
151.239	21.989
154.614	21.4107
157.988	2.88498
161.363	60.3152
164.738	161.068
168.113	260.512
171.488	303.546
174.863	357.326
178.237	444.728
181.612	507.991
184.987	544.36
188.362	560.53
191.737	571.695
195.112	576.998
198.486	585.921
201.861	588.424
205.236	585.795
208.611	569.194
211.986	549.734
215.36	541.335
218.735	538.544
222.11	534.819
225.485	528.993
228.86	522.926
232.234	512.551
235.609	502.443
238.984	482.064
242.359	460.095
245.734	438.272
249.109	405.326
252.483	372.701
255.858	329.882
259.233	293.624
262.608	252.561
265.983	216.783
269.358	187.202
272.732	163.037
276.107	135.092
279.482	114.526
282.857	88.5653
286.232	69.0753
289.606	51.2653
292.981	44.34
296.356	30.1764
299.731	25.5329
303.106	12.4799
306.481	8.88525
309.855	3.3363
313.23	0.190033
316.605	1.0412
319.98	5.48462
323.355	5.87021
326.729	8.13379
330.104	7.4209
333.479	5.36035
336.854	3.71384
340.229	1.75226
343.603	3.03809
346.978	0.457306
350.353	0.69809
353.728	2.46414
357.103	3.63657
360.478	7.72998
363.852	6.99164
367.227	10.7084
370.602	11.428
373.977	12.8536
377.352	16.0859
380.726	16.804
384.101	17.8492
387.476	20.4387
390.851	20.0084
394.226	17.4055
397.601	20.472
400.975	20.7504
404.35	24.8181
407.725	26.382
411.1	29.0476
414.475	33.3065
417.849	38.3869
421.224	46.0802
424.599	57.8651
427.974	70.923
431.349	83.8825
434.724	95.5239
438.098	95.7043
441.473	90.74
444.848	78.3388
448.223	63.8785
451.598	50.4319
454.972	38.0747
458.347	30.1668
461.722	25.5452
465.097	19.6305
468.472	20.9811
471.846	16.4712
475.221	15.1901
478.596	12.3654
481.971	11.0879
485.346	9.89322
488.721	9.93115
492.095	7.40799
495.47	6.66266
498.845	7.1887
502.22	5.55199
505.595	3.56628
508.969	1.86998
512.344	2.91122
515.719	3.72882
519.094	0.448013
522.469	2.00375
525.844	1.15456
529.218	0.789474
532.593	1.13621
535.968	1.45085
539.343	0.193497
542.718	0.826126
546.092	0.216888
549.467	0.407135
552.842	0.527908
556.217	0.742828
559.592	0.006104
562.967	1.44386
566.341	0.5065
569.716	0.156982
573.091	2.07939
576.466	0.574875
579.841	1.19382
583.216	1.54185
586.59	4.13235
589.965	6.64667
593.34	8.19753
596.715	9.7043
600.09	13.5332
603.464	14.5146
606.839	14.0624
610.214	13.9236
613.589	11.0525
616.964	8.9099
620.338	6.47452
623.713	6.24919
627.088	3.46581
630.463	3.54949
633.838	2.96802
637.212	3.2385
640.587	2.4335
643.962	0.308556
647.337	0.753654
650.712	0.112076
654.087	2.05323
657.461	0.434662
660.836	1.36192
664.211	1.34907
667.586	1.55926
670.961	0.42009
674.335	0.138512
677.71	0.503342
681.085	1.7571
684.46	2.44585
687.835	0.021194
691.21	1.34852
694.584	0.896004
697.959	1.59969
701.334	1.84396
704.709	1.14518
708.084	2.7517
711.458	1.54133
714.833	1.40588
718.208	0.790375
721.583	1.2126
724.958	1.07481
728.332	1.95258
731.707	1.50613
735.082	2.56255
738.457	0.124794
741.832	0.23175
745.207	2.28812
748.581	1.69847
751.956	1.47924
755.331	1.27296
758.706	0.793129
762.081	0.012886
765.456	2.18531
768.83	1.62247
772.205	2.67446
775.58	1.93601
778.955	2.47131
782.33	1.06824
785.704	1.9053
789.079	1.13911
792.454	2.71439
795.829	0.875542
799.204	0.385567
802.578	1.50059
805.953	0.354774
809.328	3.09187
812.703	1.88207
816.078	1.17453
819.453	1.06475
822.827	1.32384
826.202	1.68217
829.577	1.73947
832.952	2.69156
836.327	3.71374
839.702	1.75951
843.076	1.85059
846.451	2.57057
849.826	1.36932
853.201	2.67808
856.576	1.48777
859.95	2.06394
863.325	0.889389
866.7	1.79348
870.075	0.385002
873.45	1.95351
876.824	0.034439
880.199	0.203865
883.574	0.437416
886.949	0.904411
890.324	0.200546
893.698	0.124825
897.073	0.406563
900.448	0.604942
903.823	1.06111
907.198	1.90491
910.573	2.36073
913.947	4.62888
917.322	4.51208
920.697	7.3705
924.072	11.5032
927.447	15.1007
930.822	21.6651
934.196	26.9852
937.571	39.255
940.946	50.2069
944.321	65.3802
947.696	86.3337
951.07	111.462
954.445	135.602
957.82	160.387
961.195	176.131
964.57	174.774
967.944	154.431
971.319	124.51
974.694	93.1164
978.069	67.2829
981.444	49.8323
984.819	37.5933
988.193	28.1482
991.568	22.8308
994.943	15.6373
998.318	13.5255
1001.69	10.2062
1005.07	9.03793
1008.44	6.74257
1011.82	3.62508
1015.19	2.3917
1018.57	2.59502
1021.94	1.94221
1025.32	1.4238
1028.69	2.39681
1032.07	1.10245
1035.44	0.385101
1038.82	1.03941
1042.19	0.437828
1045.57	0.452316
1048.94	0.030754
1052.32	1.2532
1055.69	0.903374
1059.07	0.983925
1062.44	0.26638
1065.81	0.140793
1069.19	0.664764
1072.56	0.195763
1075.94	0.320679
1079.31	1.2216
1082.69	1.2957
1086.06	1.63701
1089.44	1.31474
1092.81	1.14232
1096.19	1.04749
1099.56	5.15876
1102.94	1.38306
1106.31	1.78906
1109.69	2.86043
1113.06	2.30749
1116.44	1.97261
1119.81	3.95631
1123.19	3.29105
1126.56	4.6071
1129.94	4.48212
1133.31	2.77631
1136.68	4.35913
1140.06	3.35039
1143.43	3.70074
1146.81	5.22919
1150.18	4.31482
1153.56	3.27487
1156.93	3.8923
1160.31	1.90789
1163.68	1.64716
1167.06	0.399002
1170.43	1.56031
1173.81	2.71429
1177.18	0.060928
1180.56	2.21801
1183.93	0.67083
1187.31	1.69043
1190.68	1.21233
1194.06	1.16418
1197.43	0.664642
1200.81	1.42918
1204.18	1.69679
1207.56	2.07854
1210.93	1.38095
1214.31	0.677177
1217.68	0.629738
1221.06	2.35955
1224.43	1.9542
1227.81	1.28793
1231.18	2.31197
1234.56	0.733688
1237.93	1.11779
1241.31	0.13726
1244.68	1.27437
1248.05	0.870255
1251.43	1.97157
1254.8	0.456352
1258.18	1.23821
1261.55	1.719
1264.93	1.59706
1268.3	0.654564
1271.68	1.75216
1275.05	1.22938
1278.43	1.89537
1281.8	1.39359
1285.18	1.07107
1288.55	0.974983
1291.93	1.01409
1295.3	0.787117
1298.68	1.68015
1302.05	0.413338
