Measurement: Raman, 780 nm, unoriented, Raman Data Processed
Mineral: Eclarite
Rruff sample: R110124
Ideal chemistry: (Cu,Fe)Pb_9_Bi_12_S_28_
Locality: Crabtree quarry, Wake County, North Carolina, USA
Source: Mark Feinglos
Description: Mass of tin-white metallic elongated crystals associated with quartz
Raman shift (cm-1)	intensity
96.9068	0
100.282	34.0772
103.656	10.7744
107.031	43.9292
110.406	56.9678
113.781	104.116
117.156	141.097
120.531	102.249
123.905	58.0142
127.28	6.68359
130.655	45.044
134.03	46.2573
137.405	89.917
140.779	156.178
144.154	228.627
147.529	266.654
150.904	230.99
154.279	111.649
157.654	31.7373
161.028	20.9697
164.403	21.5566
167.778	14.811
171.153	18.332
174.528	48.9048
177.902	93.7681
181.277	125.071
184.652	156.34
188.027	173.924
191.402	191.164
194.776	227.128
198.151	273.537
201.526	316.905
204.901	407.336
208.276	493.47
211.651	583.117
215.025	692.662
218.4	783.644
221.775	882.615
225.15	961.202
228.525	1037.32
231.899	1116
235.274	1155.7
238.649	1218.5
242.024	1207.81
245.399	1211.96
248.774	1175.39
252.148	1065.33
255.523	901.89
258.898	763.659
262.273	618.941
265.648	484.713
269.022	390.827
272.397	310.384
275.772	243.958
279.147	187.289
282.522	140.414
285.897	90.2544
289.271	63.042
292.646	46.1375
296.021	14.2783
299.396	10.2566
302.771	10.4705
306.145	4.74976
309.52	7.63232
312.895	11.0938
316.27	0.510227
319.645	3.57031
323.019	4.69849
326.394	6.44287
329.769	12.3101
333.144	11.0234
336.519	27.71
339.894	33.1794
343.269	29.9316
346.643	34.8091
350.018	38.3027
353.393	28.5633
356.768	44.0123
360.142	27.2268
363.517	23.6531
366.892	16.7893
370.267	24.3723
373.642	7.18787
377.017	7.89209
380.391	2.1853
383.766	0.402832
387.141	2.55164
390.516	3.79187
393.891	8.32642
397.265	3.17163
400.64	8.22949
404.015	2.33362
407.39	5.03296
410.765	15.6229
414.14	27.6172
417.514	49.5829
420.889	82.2505
424.264	111.462
427.639	147.03
431.014	198.802
434.389	243.885
437.763	254.162
441.138	230.032
444.513	196.687
447.888	168.25
451.263	121.521
454.637	87.2583
458.012	68.6602
461.387	54.0867
464.762	48.3744
468.137	42.8684
471.512	34.3672
474.886	40.7671
478.261	30.1793
481.636	27.0995
485.011	24.0537
488.386	19.8566
491.76	14.7516
495.135	14.4758
498.51	11.5089
501.885	6.37683
505.26	7.94385
508.635	5.49622
512.009	7.08081
515.384	12.3657
518.759	2.09119
522.134	0.203735
525.509	5.30457
528.883	0.227539
532.258	0.140747
535.633	2.09644
539.008	1.09167
542.383	3.6416
545.757	1.16333
549.132	0.092041
552.507	3.41516
555.882	5.57715
559.257	6.86328
562.631	5.58289
566.006	4.90637
569.381	2.88464
572.756	7.29468
576.131	2.82214
579.506	6.0426
582.88	14.786
586.255	17.4709
589.63	10.8529
593.005	15.9299
596.38	22.3463
599.755	32.166
603.129	55.6539
606.504	52.0564
609.879	45.6268
613.254	34.5172
616.629	26.5109
620.004	17.5529
623.378	15.5966
626.753	14.403
630.128	15.2534
633.503	25.1997
636.878	14.4999
640.252	9.20703
643.627	9.73242
647.002	13.2981
650.377	16.0723
653.752	6.40259
657.126	8.698
660.501	3.98645
663.876	1.37268
667.251	5.25464
670.626	0.059814
674	3.18201
677.375	2.71521
680.75	3.08704
684.125	5.58936
687.5	4.37109
690.875	3.01502
694.25	0.905151
697.624	1.00281
700.999	0.830322
704.374	0.18103
707.749	5.78332
711.124	7.52173
714.498	4.14185
717.873	2.97974
721.248	9.64087
724.623	4.22913
727.998	7.42969
731.372	15.4508
734.747	8.74426
738.122	5.75342
741.497	8.59888
744.872	5.63025
748.246	12.0796
751.621	6.09253
754.996	3.88306
758.371	0.047852
761.746	0.810669
765.121	5.78345
768.495	8.14355
771.87	4.16418
775.245	0.30957
778.62	5.00464
781.995	4.01269
785.37	2.27771
788.744	3.96143
792.119	15.3938
795.494	9.27185
798.869	4.14612
802.244	2.17053
805.618	4.64233
808.993	1.82861
812.368	5.37976
815.743	1.82068
819.118	8.8645
822.492	12.9521
825.867	3.5918
829.242	7.1969
832.617	6.62256
835.992	7.28711
839.367	6.06055
842.741	3.36597
846.116	11.09
849.491	7.61719
852.866	11.4346
856.241	7.86621
859.615	12.4795
862.99	5.96912
866.365	7.04187
869.74	7.06287
873.115	2.60901
876.49	4.93066
879.864	2.47485
883.239	0.919678
886.614	6.89197
889.989	1.93018
893.364	2.6521
896.739	3.81323
900.113	3.39148
903.488	0.169556
906.863	5.42212
910.238	0.84375
913.612	5.93738
916.987	9.47534
920.362	18.4895
923.737	15.5682
927.112	25.5898
930.487	34.8088
933.861	53.4949
937.236	71.2515
940.611	91.2715
943.986	115.159
947.361	154.618
950.736	204.12
954.11	265.043
957.485	321.078
960.86	374.759
964.235	384.861
967.61	350.593
970.984	278.512
974.359	196.343
977.734	137.197
981.109	99.9008
984.484	74.4773
987.859	46.444
991.233	33.5184
994.608	30.3289
997.983	20.2849
1001.36	15.5749
1004.73	8.47852
1008.11	7.98169
1011.48	0.656372
1014.86	6.17139
1018.23	10.1832
1021.61	0.250732
1024.98	0.563354
1028.36	0.637451
1031.73	4.64075
1035.11	0.206543
1038.48	6.26611
1041.86	1.35083
1045.23	3.0719
1048.61	4.51379
1051.98	0.349243
1055.36	8.51916
1058.73	6.78894
1062.1	7.93713
1065.48	2.68518
1068.85	3.70581
1072.23	11.2394
1075.6	3.05017
1078.98	0.915894
1082.35	6.37988
1085.73	7.25842
1089.1	13.9585
1092.48	12.6935
1095.85	16.5206
1099.23	3.43665
1102.6	11.2526
1105.98	0.206299
1109.35	14.0814
1112.73	2.7865
1116.1	3.18457
1119.48	0.748779
1122.85	6.51965
1126.23	1.23108
1129.6	7.05518
1132.98	5.33057
1136.35	11.6785
1139.72	11.6027
1143.1	12.2646
1146.47	15.1182
1149.85	11.3162
1153.22	9.7948
1156.6	9.27185
1159.97	13.7532
1163.35	7.57971
1166.72	10.0172
1170.1	13.6987
1173.47	9.83948
1176.85	6.18616
1180.22	14.3464
1183.6	5.33948
1186.97	8.54883
1190.35	9.75635
1193.72	13.0708
1197.1	11.3357
1200.47	16.4185
1203.85	5.6449
1207.22	10.1802
1210.6	8.12634
1213.97	6.896
1217.35	9.34009
1220.72	7.30164
1224.1	8.23486
1227.47	18.8356
1230.85	2.37183
1234.22	4.32031
1237.6	8.16504
1240.97	0.344971
1244.35	1.25012
1247.72	5.90613
1251.09	3.22376
1254.47	0.722046
1257.84	4.3512
1261.22	12.3076
1264.59	24.5796
1267.97	11.894
1271.34	0.459106
1274.72	5.91626
1278.09	11.7015
1281.47	8.35303
1284.84	9.97412
