Measurement: Raman, 532 nm, unoriented, Raman Data Processed
Mineral: Edenite
Rruff sample: R050415
Ideal chemistry: NaCa_2_Mg_5_(Si_7_Al)O_22_(OH)_2_
Locality: Mogok, Burma
Source: Marcus Origlieri
Description: Transparent pale green water worn fragment
Measured chemistry: (Na_0.83_K_0.17_)(Ca_1.76_Na_0.24_)_=2_(Mg_4.54_Al_0.40_Fe^3+^_0.06_)_=5_(Si_6.74_Al_1.26_)O_22_((OH)_0.52_F_0.48_)_2_
Raman shift (cm-1)	intensity
150.208	0
153.1	2.10889
155.993	16.5931
158.886	35.7011
161.778	66.3192
164.671	97.3919
167.564	89.0038
170.456	52.7007
173.349	38.7993
176.242	35.1552
179.135	38.4212
182.027	39.6451
184.92	38.0088
187.813	25.038
190.705	10.6234
193.598	0.588379
196.491	3.46939
199.383	0.940704
202.276	8.19784
205.169	22.8439
208.061	42.7457
210.954	67.3646
213.847	94.5051
216.74	120.86
219.632	140.898
222.525	166.354
225.418	193.766
228.31	216.105
231.203	241.108
234.096	276.677
236.988	309.314
239.881	309.79
242.774	274.517
245.667	238.686
248.559	209.981
251.452	175.306
254.345	132.296
257.237	91.5894
260.13	61.3831
263.023	36.8494
265.916	17.7917
268.808	7.39174
271.701	0.136261
274.594	3.51115
277.486	5.67198
280.379	4.24405
283.272	1.43741
286.164	0.221848
289.057	5.11929
291.95	10.3777
294.842	14.3839
297.735	16.9874
300.628	23.4626
303.521	24.8016
306.413	24.0235
309.306	26.7463
312.199	32.6433
315.091	40.0887
317.984	49.6927
320.877	51.4332
323.769	47.8485
326.662	39.1134
329.555	31.5606
332.448	22.9029
335.34	15.6386
338.233	13.7404
341.126	10.5008
344.018	11.2224
346.911	16.0234
349.804	22.262
352.697	26.2383
355.589	34.2859
358.482	40.4749
361.375	53.3872
364.267	67.9505
367.16	80.8192
370.053	89.4873
372.945	100.442
375.838	108.175
378.731	117.957
381.623	126.594
384.516	137.187
387.409	149.47
390.302	156.405
393.194	157.177
396.087	139.179
398.98	115.056
401.872	89.3901
404.765	71.396
407.658	61.6774
410.55	58.9904
413.443	57.7713
416.336	62.4447
419.229	66.7959
422.121	71.0419
425.014	71.2569
427.907	63.3807
430.799	55.2428
433.692	41.2374
436.585	27.344
439.478	14.6027
442.37	6.3844
445.263	0.189056
448.156	2.00844
451.048	3.9229
453.941	2.55966
456.834	3.70186
459.726	1.6766
462.619	0.270599
465.512	0.338806
468.404	1.20813
471.297	2.81551
474.19	1.35619
477.083	3.55377
479.975	4.6194
482.868	5.68848
485.761	9.17639
488.653	10.216
491.546	13.1809
494.439	13.4477
497.332	19.0772
500.224	23.273
503.117	29.6388
506.01	37.1176
508.902	46.0848
511.795	51.9359
514.688	57.5659
517.58	57.9047
520.473	52.0992
523.366	48.1734
526.259	42.9858
529.151	39.1295
532.044	35.5125
534.937	29.4736
537.829	25.5576
540.722	20.5581
543.615	17.9218
546.507	13.7664
549.4	12.992
552.293	10.7736
555.186	8.9534
558.078	6.16217
560.971	5.55234
563.864	4.79288
566.756	2.89752
569.649	2.44092
572.542	2.97372
575.434	2.83688
578.327	3.40451
581.22	2.59509
584.112	1.94446
587.005	1.33258
589.898	0.522156
592.791	0.912292
595.683	1.5571
598.576	0.405609
601.469	1.49588
604.361	1.25192
607.254	1.26621
610.147	0.90686
613.039	4.26062
615.932	5.57233
618.825	9.37018
621.718	13.0175
624.61	15.9855
627.503	25.5023
630.396	32.8496
633.288	44.1045
636.181	59.3278
639.074	74.6885
641.966	92.9041
644.859	116.208
647.752	142.886
650.645	176.73
653.537	220.804
656.43	277.475
659.323	347.508
662.215	433.085
665.108	531.662
668.001	637.89
670.894	725.898
673.786	758.813
676.679	714.327
679.572	594.336
682.464	453.441
685.357	328.811
688.25	237.233
691.142	171.749
694.035	127.903
696.928	93.6289
699.821	72.2659
702.713	52.3866
705.606	37.7213
708.499	28.0788
711.391	22.6921
714.284	19.4412
717.177	18.1739
720.069	17.1901
722.962	17.1728
725.855	16.13
728.747	14.8714
731.64	13.2955
734.533	9.40918
737.426	6.57486
740.318	4.43213
743.211	3.55408
746.104	0.012329
748.996	0.049133
751.889	0.114563
754.782	2.52628
757.674	2.12421
760.567	0.71582
763.46	0.496094
766.353	0.02359
769.245	0.050323
772.138	1.25317
775.031	1.27835
777.923	0.453979
780.816	0.209137
783.709	3.1055
786.601	4.29605
789.494	3.74204
792.387	5.68408
795.28	7.10983
798.172	7.87921
801.065	9.73154
803.958	9.69443
806.85	9.05786
809.743	10.6501
812.636	9.91867
815.529	7.85065
818.421	9.15979
821.314	8.24246
824.207	9.48639
827.099	6.94458
829.992	5.80566
832.885	6.97623
835.777	7.17969
838.67	5.77045
841.563	2.79993
844.456	3.6019
847.348	2.94574
850.241	3.39243
853.134	4.24615
856.026	3.18991
858.919	0.317963
861.812	1.29523
864.704	0.819763
867.597	0.263641
870.49	0.525208
873.383	0.688721
876.275	2.96869
879.168	3.31952
882.061	6.61035
884.953	11.8221
887.846	15.1376
890.739	17.4089
893.631	19.2389
896.524	18.6649
899.417	21.0195
902.309	23.9132
905.202	29.9418
908.095	30.6045
910.988	36.8132
913.88	42.6644
916.773	44.4171
919.666	45.3954
922.558	46.6129
925.451	40.4594
928.344	35.612
931.236	30.0658
934.129	22.8214
937.022	13.6103
939.915	8.51446
942.807	3.06458
945.7	0.275818
948.593	1.79193
951.485	2.6972
954.378	6.29602
957.271	4.11481
960.163	1.90064
963.056	1.62939
965.949	1.30341
968.842	1.49268
971.734	0.161133
974.627	1.396
977.52	0.67804
980.412	2.64874
983.305	4.49799
986.198	8.28809
989.091	12.8257
991.983	20.1093
994.876	25.553
997.769	35.7667
1000.66	44.2148
1003.55	57.0598
1006.45	59.7322
1009.34	66.3477
1012.23	71.5794
1015.12	71.0229
1018.02	72.7558
1020.91	71.5704
1023.8	73.7211
1026.7	74.5829
1029.59	78.4731
1032.48	79.8699
1035.37	84.4633
1038.27	90.3815
1041.16	88.1088
1044.05	84.6979
1046.94	83.0713
1049.84	73.7564
1052.73	69.164
1055.62	63.7269
1058.52	62.5397
1061.41	59.7266
1064.3	54.6194
1067.19	48.1407
1070.09	39.4653
1072.98	33.9432
1075.87	27.3215
1078.76	18.1451
1081.66	15.0228
1084.55	7.15466
1087.44	6.48718
1090.34	2.35956
1093.23	0.863403
1096.12	2.80566
1099.01	3.31488
1101.91	4.54266
1104.8	2.22461
1107.69	0.216797
1110.58	0.587402
1113.48	2.32153
1116.37	0.890198
1119.26	2.74396
1122.15	1.32867
1125.05	0.004211
1127.94	0.76825
1130.83	3.57819
1133.72	5.12189
1136.62	7.33173
1139.51	4.15753
1142.4	2.9126
1145.3	1.41797
1148.19	5.14819
1151.08	2.66766
1153.97	1.26843
1156.87	0.135315
1159.76	5.17059
1162.65	4.84381
1165.55	6.01166
1168.44	7.93518
1171.33	4.92889
1174.22	3.24451
1177.12	4.50885
1180.01	3.76105
1182.9	5.07495
1185.79	4.26465
1188.69	5.64282
1191.58	5.86096
1194.47	9.57263
1197.37	2.83496
1200.26	7.49927
1203.15	2.93506
1206.04	3.3717
1208.94	3.82739
1211.83	4.32947
1214.72	4.09277
1217.61	5.16919
1220.51	3.00134
1223.4	2.32202
1226.29	2.00159
1229.18	4.97229
1232.08	2.83228
1234.97	5.06409
1237.86	3.71082
1240.76	0.055298
1243.65	1.03223
1246.54	1.41931
1249.43	5.92261
1252.33	7.56299
1255.22	0.284058
1258.11	1.80811
1261	3.36658
1263.9	4.63415
1266.79	3.34033
1269.68	4.67041
1272.58	3.99683
1275.47	1.88782
1278.36	4.32495
1281.25	3.87183
1284.15	4.40515
1287.04	7.17773
1289.93	8.0343
1292.82	3.78113
1295.72	2.17712
1298.61	2.54187
1301.5	3.53247
1304.39	0.598145
