Measurement: Raman, 532 nm, unoriented, Raman Data Processed
Mineral: Edenite
Rruff sample: R060029
Ideal chemistry: NaCa_2_Mg_5_(Si_7_Al)O_22_(OH)_2_
Locality: Renfrew County, Ontario, Canada
Source: University of Arizona Mineral Museum
Description: Black prismatic
Measured chemistry: (Na_0.62_K_0.34_[box]_0.04_)(Ca_0.86_Na_0.14_)_2_(Mg_0.57_Fe^2+^_0.30_Fe^3+^_0.07_Al_0.05_Ti_0.01_Mn_0.01_)_5_(Si_6.61_Al_1.39_)O_22_((OH)_0.69_F_0.31_)_2_
Raman shift (cm-1)	intensity
166.514	1.14154
169.407	0.205654
172.3	3.5054
175.192	3.38377
178.085	3.93682
180.978	4.29551
183.871	4.33464
186.763	2.91914
189.656	1.68741
192.549	0.416218
195.441	0.044197
198.334	1.33733
201.227	0.145691
204.119	0.79427
207.012	1.38728
209.905	4.39302
212.798	6.52996
215.69	9.85525
218.583	12.3793
221.476	15.3496
224.368	16.7014
227.261	17.8682
230.154	17.5034
233.047	16.9093
235.939	15.8485
238.832	12.5602
241.725	12.2007
244.617	10.2691
247.51	8.04445
250.403	7.02745
253.295	4.51328
256.188	3.00411
259.081	1.31969
261.974	0.783642
264.866	0.331253
267.759	0.18856
270.652	0.252514
273.544	0.035252
276.437	0.571392
279.33	1.82313
282.222	2.9089
285.115	4.0657
288.008	6.08891
290.901	5.65485
293.793	5.95983
296.686	6.79014
299.579	5.79759
302.471	5.81086
305.364	5.89151
308.257	4.45206
311.149	4.57206
314.042	3.52596
316.935	3.94591
319.827	3.20313
322.72	2.03047
325.613	2.79252
328.506	2.24556
331.398	3.21776
334.291	2.56761
337.184	3.3426
340.076	5.05804
342.969	6.02216
345.862	6.67746
348.755	7.93943
351.647	8.32055
354.54	10.1979
357.433	10.0251
360.325	10.226
363.218	9.13099
366.111	9.14913
369.003	8.24083
371.896	8.31188
374.789	6.54388
377.682	6.72413
380.574	5.77532
383.467	5.15439
386.36	4.84293
389.252	2.57996
392.145	1.18156
395.038	0.261425
397.93	0.392574
400.823	0.347168
403.716	0.603539
406.608	0.24646
409.501	0.51939
412.394	1.66986
415.287	1.582
418.179	2.04593
421.072	2.66724
423.965	3.62378
426.857	6.26544
429.75	6.11341
432.643	7.3235
435.536	6.72118
438.428	4.87225
441.321	4.20725
444.214	3.93291
447.106	4.07763
449.999	3.94374
452.892	2.1911
455.784	1.26029
458.677	1.779
461.57	0.156456
464.462	0.019634
467.355	0.596878
470.248	0.065281
473.141	0.088936
476.033	0.02076
478.926	0.684406
481.819	1.01239
484.711	1.99404
487.604	2.69872
490.497	3.55524
493.389	5.03058
496.282	6.39514
499.175	7.94582
502.068	10.0916
504.96	11.9427
507.853	12.3585
510.746	13.3593
513.638	14.0819
516.531	16.1221
519.424	16.8144
522.317	17.5401
525.209	18.5693
528.102	20.1073
530.995	20.6947
533.887	20.0075
536.78	20.5471
539.673	19.7308
542.565	19.3845
545.458	18.2635
548.351	18.5302
551.244	17.348
554.136	16.3558
557.029	14.617
559.922	13.1236
562.814	13.4817
565.707	11.8882
568.6	9.73418
571.492	9.29523
574.385	7.69302
577.278	6.48175
580.17	4.64893
583.063	3.30573
585.956	1.81124
588.848	1.22808
591.741	0.022812
594.634	0.407852
597.527	0.034313
600.419	0.414532
603.312	0.828182
606.205	0.437603
609.097	0.572857
611.99	0.99094
614.883	0.027897
617.775	0.97015
620.668	1.99651
623.561	1.72958
626.454	2.43808
629.346	3.69014
632.239	4.01237
635.132	5.52154
638.024	5.87683
640.917	7.25425
643.81	9.80436
646.702	10.9032
649.595	12.9588
652.488	15.5351
655.381	18.7041
658.273	24.7976
661.166	28.3351
664.059	32.0235
666.951	35.0097
669.844	34.8423
672.737	32.0629
675.63	27.1956
678.522	19.7601
681.415	15.3352
684.308	10.1818
687.2	7.38954
690.093	5.06016
692.986	3.06231
695.878	2.65099
698.771	1.00138
701.664	1.5303
704.557	0.290298
707.449	0.71357
710.342	1.03668
713.235	1.76254
716.127	2.43939
719.02	3.56696
721.913	3.10963
724.805	2.96345
727.698	3.24532
730.591	3.27404
733.484	2.18214
736.376	2.694
739.269	1.7807
742.162	1.70449
745.054	0.915497
747.947	1.08965
750.84	1.08078
753.732	0.283951
756.625	1.20755
759.518	0.218884
762.41	0.472858
765.303	1.42322
768.196	1.00898
771.089	2.12366
773.981	2.35058
776.874	3.02964
779.767	3.54711
782.659	3.20292
785.552	3.01455
788.445	3.21289
791.337	2.89092
794.23	2.94125
797.123	2.82121
800.016	2.41055
802.908	1.47905
805.801	1.52861
808.694	1.49236
811.586	1.91644
814.479	0.654701
817.372	0.362144
820.264	0.41272
823.157	0.441074
826.05	0.103569
828.943	0.310379
831.835	0.273769
834.728	0.160152
837.621	0.266216
840.513	0.201263
843.406	0.350105
846.299	0.408745
849.192	0.594479
852.084	0.505341
854.977	0.944847
857.87	0.66729
860.762	1.88345
863.655	1.07821
866.548	1.65721
869.44	3.08653
872.333	2.55772
875.226	2.79008
878.119	2.74348
881.011	2.91637
883.904	3.61438
886.797	3.97382
889.689	3.49955
892.582	4.01542
895.475	3.71134
898.367	3.81861
901.26	3.59229
904.153	3.39826
907.045	3.95524
909.938	4.44004
912.831	4.21404
915.724	5.47974
918.616	6.01432
921.509	6.19403
924.402	6.12079
927.294	5.46786
930.187	5.8419
933.08	5.19764
935.972	4.28677
938.865	4.63819
941.758	4.44404
944.651	4.26716
947.543	3.2644
950.436	3.98854
953.329	2.88553
956.221	3.22152
959.114	3.24414
962.007	3.01732
964.899	2.52317
967.792	1.81181
970.685	1.6316
973.578	1.41324
976.47	0.366829
979.363	0.044361
982.256	0.002583
985.148	0.123466
988.041	0.120205
990.934	0.380142
993.826	0.73241
996.719	1.35178
999.612	1.89464
1002.5	1.95342
1005.4	2.14543
1008.29	2.15985
1011.18	2.37666
1014.08	3.52571
1016.97	3.37299
1019.86	3.51172
1022.75	3.38757
1025.65	4.03302
1028.54	3.2426
1031.43	4.02432
1034.32	4.2914
1037.22	4.02823
1040.11	3.24944
1043	2.65247
1045.89	2.15563
1048.79	2.1458
1051.68	2.15036
1054.57	2.22675
1057.47	1.61331
1060.36	1.58722
1063.25	1.79806
1066.14	1.04056
1069.04	0.830395
1071.93	1.10018
1074.82	0.724251
1077.71	0.547432
1080.61	0.578247
1083.5	0.210209
1086.39	0.566036
1089.29	0.803112
1092.18	0.701675
1095.07	0.532402
1097.96	0.258163
1100.86	0.356182
1103.75	0.905373
1106.64	0.070984
1109.53	0.458736
1112.43	0.072411
1115.32	0.545391
1118.21	0.45647
1121.11	0.476254
1124	0.194038
1126.89	0.254719
1129.78	0.342438
1132.68	0.156631
1135.57	0.044926
1138.46	0.104126
1141.35	0.035423
1144.25	0.527428
1147.14	0.84713
1150.03	0.980923
1152.92	0.646458
1155.82	0.714745
1158.71	0.63258
1161.6	0.775776
1164.5	0.772385
1167.39	0.936218
1170.28	0.575748
1173.17	1.03281
1176.07	1.58506
1178.96	1.55511
1181.85	1.37201
1184.74	1.22763
1187.64	1.37729
1190.53	0.818897
1193.42	0.750336
1196.32	0.542912
1199.21	0.822151
1202.1	0.905167
1204.99	1.12501
1207.89	1.2298
1210.78	0.758598
1213.67	1.00358
1216.56	1.29955
1219.46	1.13232
1222.35	1.04483
1225.24	0.645752
1228.13	0.959259
1231.03	1.0297
1233.92	0.358879
1236.81	0.661888
1239.71	0.388645
1242.6	1.07536
1245.49	0.196644
1248.38	0.189159
1251.28	0.233494
1254.17	1.12292
1257.06	0.357967
1259.95	0.692276
1262.85	0.319427
1265.74	0.954769
1268.63	0.447121
1271.53	0.608738
1274.42	0.713764
1277.31	0.321217
1280.2	0.09642
1283.1	0.774651
