Measurement: Raman, 780 nm, unoriented, Raman Data Processed
Mineral: Edenite
Rruff sample: R060029
Ideal chemistry: NaCa_2_Mg_5_(Si_7_Al)O_22_(OH)_2_
Locality: Renfrew County, Ontario, Canada
Source: University of Arizona Mineral Museum
Description: Black prismatic
Measured chemistry: (Na_0.62_K_0.34_[box]_0.04_)(Ca_0.86_Na_0.14_)_2_(Mg_0.57_Fe^2+^_0.30_Fe^3+^_0.07_Al_0.05_Ti_0.01_Mn_0.01_)_5_(Si_6.61_Al_1.39_)O_22_((OH)_0.69_F_0.31_)_2_
Raman shift (cm-1)	intensity
164.841	0
167.734	0.830589
170.627	1.71835
173.519	1.69744
176.412	2.5685
179.305	1.96667
182.197	3.13503
185.09	2.05303
187.983	1.31027
190.875	1.01611
193.768	0.465405
196.661	1.19018
199.554	1.42671
202.446	0.76062
205.339	1.02343
208.232	1.30769
211.124	2.4388
214.017	3.29866
216.91	3.87322
219.802	4.73419
222.695	3.89864
225.588	3.76246
228.481	3.82964
231.373	3.49419
234.266	1.95356
237.159	1.83086
240.051	1.51369
242.944	0.709274
245.837	0.809982
248.729	0.591183
251.622	0.228928
254.515	0.293022
257.408	0.037319
260.3	0.200417
263.193	0.080238
266.086	1.17586
268.978	0.43684
271.871	1.35872
274.764	1.17992
277.656	1.92331
280.549	2.1945
283.442	2.56853
286.334	3.39622
289.227	4.17535
292.12	3.55539
295.013	3.7713
297.905	4.00809
300.798	3.7081
303.691	3.05095
306.583	3.47218
309.476	2.72267
312.369	2.33675
315.262	1.24643
318.154	1.8843
321.047	1.07064
323.94	0.291134
326.832	0.556923
329.725	0.234371
332.618	0.934917
335.51	0.67873
338.403	0.224503
341.296	0.353271
344.188	1.06371
347.081	1.11006
349.974	1.34046
352.867	1.56174
355.759	1.9462
358.652	1.569
361.545	1.57859
364.437	2.66595
367.33	1.97834
370.223	2.53521
373.115	2.37476
376.008	2.72851
378.901	1.28246
381.794	2.1052
384.686	1.69284
387.579	1.17319
390.472	1.26677
393.364	1.01934
396.257	0.93539
399.15	0.100742
402.043	0.017818
404.935	0.401527
407.828	0.005161
410.721	0.431835
413.613	0.648815
416.506	0.547169
419.399	0.139912
422.291	1.50367
425.184	2.07669
428.077	1.48664
430.969	2.24248
433.862	2.17432
436.755	2.15028
439.648	1.85525
442.54	1.78726
445.433	1.35568
448.326	1.8702
451.218	1.70235
454.111	0.956387
457.004	0.528053
459.897	0.091118
462.789	0.701653
465.682	0.184643
468.575	0.376362
471.467	0.900211
474.36	0.042625
477.253	0.037682
480.145	0.853882
483.038	0.744236
485.931	1.19342
488.823	1.8446
491.716	2.36762
494.609	3.08682
497.502	4.32033
500.394	4.71714
503.287	5.8214
506.18	6.34982
509.072	7.93789
511.965	8.07302
514.858	8.9718
517.75	10.1127
520.643	10.0515
523.536	10.9126
526.428	11.2745
529.321	11.4441
532.214	11.6802
535.107	11.0354
537.999	10.4514
540.892	9.4891
543.785	9.57424
546.677	9.84785
549.57	8.02386
552.463	8.75356
555.356	7.52258
558.248	6.3116
561.141	6.47521
564.034	5.82178
566.926	4.68937
569.819	4.19872
572.712	3.75877
575.604	2.27056
578.497	2.24817
581.39	1.13828
584.283	0.758884
587.175	0.350185
590.068	0.324003
592.961	0.446432
595.853	0.585928
598.746	0.395933
601.639	0.017443
604.531	0.253672
607.424	0.191525
610.317	0.395117
613.21	0.002556
616.102	0.251188
618.995	1.17458
621.888	0.136576
624.78	0.223587
627.673	0.494167
630.566	1.46299
633.458	1.43722
636.351	1.41222
639.244	2.21459
642.136	1.97155
645.029	2.86075
647.922	2.47406
650.815	3.64615
653.707	4.18063
656.6	5.78939
659.493	5.80143
662.385	6.72369
665.278	6.3223
668.171	6.34979
671.063	5.5535
673.956	5.28101
676.849	3.90742
679.742	2.93438
682.634	2.64285
685.527	2.18256
688.42	1.42941
691.312	1.70469
694.205	0.902889
697.098	0.799448
699.99	0.85935
702.883	0.898933
705.776	0.956732
708.669	0.370806
711.561	0.470718
714.454	0.722443
717.347	0.667658
720.239	0.573261
723.132	0.459152
726.025	0.926107
728.917	0.70936
731.81	0.382292
734.703	0.467237
737.596	0.157043
740.488	0.049656
743.381	0.081051
746.274	0.023718
749.166	0.440302
752.059	0.321033
754.952	0.017157
757.844	0.098841
760.737	0.334602
763.63	0.360577
766.523	0.634871
769.415	0.426632
772.308	0.196117
775.201	0.984596
778.093	0.958458
780.986	0.306053
783.879	0.336462
786.771	0.034473
789.664	0.985168
792.557	0.901533
795.449	0.57061
798.342	0.545378
801.235	0.464489
804.128	0.296713
807.02	0.967407
809.913	1.30955
812.806	0.452763
815.698	0.779488
818.591	1.13413
821.484	0.213133
824.376	1.04945
827.269	0.881395
830.162	0.800724
833.055	1.36484
835.947	1.15255
838.84	0.936308
841.733	0.675112
844.625	0.837631
847.518	1.14618
850.411	0.711586
853.303	0.533663
856.196	0.932308
859.089	0.975983
861.982	1.04439
864.874	1.14144
867.767	0.836287
870.66	1.08074
873.552	0.917681
876.445	0.950083
879.338	0.403355
882.231	0.054245
885.123	0.631767
888.016	0.55426
890.909	0.607336
893.801	0.626074
896.694	0.620462
899.587	0.513212
902.479	0.927853
905.372	0.21723
908.265	0.6026
911.158	0.081478
914.05	0.510147
916.943	0.013874
919.836	0.122025
922.728	1.18401
925.621	0.590477
928.514	0.42029
931.406	0.316654
934.299	0.111366
937.192	0.319473
940.085	0.216991
942.977	0.159595
945.87	0.379602
948.763	0.843374
951.655	0.890057
954.548	0.87376
957.441	0.553341
960.333	0.067829
963.226	0.122656
966.119	1.25266
969.011	0.842564
971.904	0.639799
974.797	0.565502
977.69	0.882484
980.582	0.470844
983.475	1.13266
986.368	1.2042
989.26	0.973095
992.153	1.02339
995.046	1.26814
997.938	1.10214
1000.83	0.782906
1003.72	1.50492
1006.62	1.26754
1009.51	1.04009
1012.4	1.16491
1015.29	1.4108
1018.19	1.33689
1021.08	1.18227
1023.97	1.44039
1026.87	1.32272
1029.76	1.00593
1032.65	1.00777
1035.54	1.11284
1038.44	0.739973
1041.33	1.01826
1044.22	0.475195
1047.11	1.10015
1050.01	1.40934
1052.9	0.817684
1055.79	1.21213
1058.68	0.569378
1061.58	1.47971
1064.47	0.946558
1067.36	1.05493
1070.26	0.135397
1073.15	1.5334
1076.04	1.20017
1078.93	0.644291
1081.83	1.11768
1084.72	0.84276
1087.61	1.35635
1090.51	0.540642
1093.4	0.417469
1096.29	1.293
1099.18	0.367132
1102.08	0.613464
1104.97	0.458246
1107.86	0.02549
1110.75	0.366812
1113.65	0.106899
1116.54	0.631721
1119.43	0.3048
1122.32	0.278608
1125.22	0.211477
1128.11	0.457066
1131	0.073374
1133.89	0.198729
1136.79	0.84971
1139.68	0.083244
1142.57	0.730009
1145.47	0.444138
1148.36	0.304106
1151.25	0.544876
1154.14	0.416088
1157.04	0.722719
1159.93	1.06761
1162.82	0.735854
1165.71	1.07717
1168.61	1.31471
1171.5	0.82816
1174.39	1.06265
1177.29	0.941552
1180.18	0.460462
1183.07	0.991482
1185.96	1.35601
1188.86	0.986012
1191.75	0.703161
1194.64	0.936486
1197.54	0.884118
1200.43	0.518949
1203.32	0.54131
1206.21	0.566761
1209.11	0.797419
1212	1.23935
1214.89	1.01262
1217.78	0.802952
1220.68	0.783707
1223.57	0.18593
1226.46	0.796672
1229.35	0.065767
1232.25	0.098931
1235.14	0.979205
1238.03	1.3518
1240.92	0.349733
1243.82	0.483418
1246.71	0.773027
1249.6	0.793653
1252.5	0.391737
1255.39	0.384332
1258.28	0.315386
1261.17	0.286785
1264.07	0.247272
1266.96	0.291566
1269.85	0
