Measurement: Raman, 780 nm, unoriented, Raman Data Processed
Mineral: Edenite
Rruff sample: R050415
Ideal chemistry: NaCa_2_Mg_5_(Si_7_Al)O_22_(OH)_2_
Locality: Mogok, Burma
Source: Marcus Origlieri
Description: Transparent pale green water worn fragment
Measured chemistry: (Na_0.83_K_0.17_)(Ca_1.76_Na_0.24_)_=2_(Mg_4.54_Al_0.40_Fe^3+^_0.06_)_=5_(Si_6.74_Al_1.26_)O_22_((OH)_0.52_F_0.48_)_2_
Raman shift (cm-1)	intensity
150.859	0
153.752	0.131073
156.645	3.25787
159.538	8.73086
162.43	19.5681
165.323	29.0254
168.216	26.7464
171.108	20.5736
174.001	14.9685
176.894	21.3942
179.786	28.842
182.679	36.3283
185.572	41.435
188.465	42.681
191.357	23.9733
194.25	12.0282
197.143	4.61273
200.035	0.00592
202.928	0.504303
205.821	3.69885
208.714	13.8806
211.606	17.7199
214.499	29.4692
217.392	40.8028
220.284	51.899
223.177	64.0676
226.07	79.5567
228.962	85.6575
231.855	91.3718
234.748	103.484
237.641	122.594
240.533	125.672
243.426	117.909
246.319	101.223
249.211	89.4789
252.104	76.5248
254.997	55.8813
257.889	39.0034
260.782	24.1612
263.675	14.3248
266.567	7.22492
269.46	2.78982
272.353	0.302307
275.246	0.641275
278.138	-0.225829
281.031	0.569757
283.924	0.602407
286.816	2.12054
289.709	5.44647
292.602	9.32398
295.495	14.4448
298.387	16.3492
301.28	18.3192
304.173	17.1496
307.065	15.2879
309.958	12.9583
312.851	15.5802
315.743	18.6269
318.636	22.217
321.529	26.3287
324.421	28.1953
327.314	22.7321
330.207	17.5473
333.1	14.4636
335.992	9.77185
338.885	7.7644
341.778	9.07797
344.67	2.13751
347.563	3.03528
350.456	5.06635
353.349	4.49753
356.241	6.09338
359.134	8.78
362.027	16.0161
364.919	23.4655
367.812	27.8207
370.705	31.3434
373.597	29.1234
376.49	29.317
379.383	29.5164
382.276	34.3113
385.168	41.11
388.061	48.3229
390.954	57.5383
393.846	65.7427
396.739	64.0694
399.632	54.7589
402.524	43.0756
405.417	38.908
408.31	26.5047
411.202	22.5273
414.095	16.9797
416.988	17.6903
419.881	19.3055
422.773	20.5674
425.666	22.5482
428.559	18.4985
431.451	12.3215
434.344	7.88223
437.237	3.50143
440.13	0.667786
443.022	0.286682
445.915	0.341797
448.808	0.493866
451.7	0.045715
454.593	0.275299
457.486	0.496338
460.378	2.979
463.271	1.68829
466.164	1.55829
469.057	2.77658
471.949	3.96683
474.842	3.80353
477.735	3.74939
480.627	3.70367
483.52	6.55389
486.413	5.96475
489.305	7.96481
492.198	8.31741
495.091	6.16843
497.983	7.21869
500.876	8.88019
503.769	8.54514
506.662	10.3928
509.554	14.4676
512.447	19.5216
515.34	20.3483
518.232	22.3303
521.125	18.9436
524.018	16.1698
526.91	11.9755
529.803	8.96082
532.696	9.01868
535.589	6.69305
538.481	6.20581
541.374	5.81613
544.267	5.5647
547.159	3.80411
550.052	4.86066
552.945	3.21832
555.837	3.58792
558.73	1.67133
561.623	2.13785
564.516	2.05252
567.408	1.67368
570.301	0.855103
573.194	0.225891
576.086	2.11832
578.979	1.74069
581.872	1.77454
584.764	0.318878
587.657	1.37714
590.55	0.586914
593.443	0.005402
596.335	0.597809
599.228	0.924927
602.121	1.45377
605.013	1.0694
607.906	0.412079
610.799	0.730652
613.692	2.17481
616.584	2.99881
619.477	3.05014
622.37	4.60147
625.262	6.58301
628.155	11.8658
631.048	12.6841
633.94	15.8467
636.833	21.3217
639.726	27.1656
642.619	34.2701
645.511	41.4872
648.404	52.1699
651.297	64.6216
654.189	78.1817
657.082	95.9562
659.975	118.76
662.867	149.411
665.76	191.033
668.653	243.115
671.545	295.507
674.438	336.426
677.331	334.518
680.224	292.599
683.116	227.495
686.009	169.86
688.902	124.413
691.794	89.0842
694.687	68.4196
697.58	54.2259
700.472	40.2957
703.365	31.031
706.258	23.0908
709.151	16.358
712.043	14.5589
714.936	12.3715
717.829	10.3856
720.721	8.37827
723.614	6.4307
726.507	4.11728
729.399	2.8949
732.292	2.2995
735.185	1.37445
738.078	0.20462
740.97	0.266724
743.863	1.25381
746.756	2.51547
749.648	2.06723
752.541	0.703064
755.434	0.850555
758.327	0.776154
761.219	0.489899
764.112	0.330383
767.005	0.669189
769.897	0.727783
772.79	0.848175
775.683	0.871307
778.575	1.05545
781.468	0.926575
784.361	1.43897
787.254	0.654449
790.146	2.00345
793.039	3.07773
795.932	1.49991
798.824	3.76752
801.717	1.46439
804.61	3.20926
807.502	6.17517
810.395	5.33209
813.288	4.74646
816.181	3.70532
819.073	4.26706
821.966	4.47995
824.859	3.39728
827.751	1.95712
830.644	3.24414
833.537	3.01965
836.429	4.42087
839.322	3.23761
842.215	2.67603
845.107	1.71429
848	1.53778
850.893	1.60632
853.786	1.34436
856.678	0.572144
859.571	2.24023
862.464	3.88525
865.356	0.480682
868.249	1.34476
871.142	0.448486
874.034	0.624023
876.927	0.737061
879.82	0.160278
882.713	0.736877
885.605	4.10977
888.498	5.82187
891.391	5.9234
894.283	6.02634
897.176	6.12439
900.069	7.32452
902.962	8.5455
905.854	6.80316
908.747	7.3056
911.64	8.71741
914.532	12.1258
917.425	11.6922
920.318	13.962
923.21	12.8035
926.103	11.3207
928.996	13.4864
931.888	10.275
934.781	5.67688
937.674	7.19724
940.567	3.74554
943.459	5.22577
946.352	4.33414
949.245	3.22159
952.137	2.12537
955.03	2.0932
957.923	3.33579
960.815	1.65604
963.708	1.20401
966.601	0.856171
969.494	0.555145
972.386	0.082245
975.279	0.353729
978.172	0.641083
981.064	0.303345
983.957	0.63855
986.85	1.65021
989.742	2.13019
992.635	4.49899
995.528	7.68402
998.42	9.81421
1001.31	12.2242
1004.21	16.5095
1007.1	16.3445
1009.99	20.8781
1012.88	19.9865
1015.78	20.5127
1018.67	19.7646
1021.56	19.2781
1024.45	18.167
1027.35	18.9015
1030.24	21.8924
1033.13	21.1793
1036.03	23.5862
1038.92	24.8042
1041.81	24.5089
1044.7	25.1195
1047.6	24.5682
1050.49	22.3494
1053.38	19.019
1056.28	16.4365
1059.17	16.2708
1062.06	15.4102
1064.95	12.7588
1067.85	10.8992
1070.74	11.5057
1073.63	9.40616
1076.52	9.71982
1079.42	7.69983
1082.31	7.82294
1085.2	4.15894
1088.09	4.4321
1090.99	2.91132
1093.88	0.772522
1096.77	1.79193
1099.66	0.527466
1102.56	0.192932
1105.45	0.235199
1108.34	0.173676
1111.24	0.090027
1114.13	0.817932
1117.02	0.182648
1119.91	1.25507
1122.81	1.80087
1125.7	1.60013
1128.59	0.268555
1131.48	1.07437
1134.38	2.42801
1137.27	2.00989
1140.16	1.92657
1143.06	1.50955
1145.95	0.621063
1148.84	2.88242
1151.73	4.23743
1154.63	4.41507
1157.52	4.70392
1160.41	4.14239
1163.3	3.34299
1166.2	2.96097
1169.09	3.4953
1171.98	4.99118
1174.88	4.84729
1177.77	3.98328
1180.66	6.49286
1183.55	4.28317
1186.45	5.1261
1189.34	3.54553
1192.23	5.86032
1195.12	5.34149
1198.02	4.36829
1200.91	3.09073
1203.8	4.53015
1206.69	4.26178
1209.59	4.1695
1212.48	3.33151
1215.37	1.82812
1218.27	3.4154
1221.16	2.1575
1224.05	0.173737
1226.94	0.146759
1229.84	3.0791
1232.73	0.630554
1235.62	2.14096
1238.52	2.27466
1241.41	0.154694
1244.3	1.42154
1247.19	0.368591
1250.09	0.48996
1252.98	1.21365
1255.87	1.91568
1258.76	1.90573
1261.66	2.42453
1264.55	2.58322
1267.44	3.15958
1270.33	1.4664
1273.23	0.772095
1276.12	1.48019
1279.01	2.27502
1281.9	0.994415
1284.8	0.697083
