Measurement: Raman, 532 nm, unoriented, Raman Data Processed
Mineral: Edgarbaileyite
Rruff sample: R060500
Ideal chemistry: Hg^1+^_6_Si_2_O_7_
Locality: Clear Creek claim, southern San Benito County, California, USA
Source: Michael Scott
Description: Green-yellow crust associated with quartz, cinnabar and red prismatic montroydite, R070235
Raman shift (cm-1)	intensity
113.326	0
116.701	797.741
120.076	3383.38
123.451	6428.4
126.825	9612.47
130.2	6470.12
133.575	3412.78
136.95	3285.87
140.325	2761.19
143.699	1137.51
147.074	184.94
150.449	120.468
153.824	9.685
157.199	59.235
160.574	160.775
163.948	172.128
167.323	648.508
170.698	1000.37
174.073	1544.5
177.448	2539.04
180.822	4588.2
184.197	6848.75
187.572	5540.43
190.947	8007.22
194.322	13538.2
197.697	21397.5
201.071	28638.8
204.446	21345.5
207.821	12247.2
211.196	8361.98
214.571	5779.32
217.945	3903.33
221.32	2576.1
224.695	1775.73
228.07	1225.3
231.445	901.447
234.82	766.607
238.194	613.652
241.569	562.195
244.944	477.436
248.319	436.856
251.694	460.511
255.068	722.205
258.443	1074.23
261.818	1801.5
265.193	1623.06
268.568	257.265
271.943	93.13
275.317	23.396
278.692	23.604
282.067	55.452
285.442	31.836
288.817	31.366
292.191	29.753
295.566	125.706
298.941	287.599
302.316	486.441
305.691	927.705
309.065	1430.19
312.44	2431.94
315.815	4096.91
319.19	6866.78
322.565	10360.1
325.94	13931.1
329.314	14700.2
332.689	12236.6
336.064	8690.87
339.439	5835.56
342.814	4016.5
346.189	3013.28
349.563	2509.14
352.938	2475.69
356.313	1732.35
359.688	499.617
363.063	19.016
366.437	131.968
369.812	93.666
373.187	53.266
376.562	5.47
379.937	132.637
383.311	149.149
386.686	538.763
390.061	1202.72
393.436	2021.3
396.811	1589.53
400.186	2444.81
403.56	2028.43
406.935	1710.28
410.31	2224.92
413.685	3075.09
417.06	3983.54
420.435	5141.22
423.809	6624.19
427.184	8339.64
430.559	10072.9
433.934	11628.3
437.309	12358.5
440.683	11766.6
444.058	10695.9
447.433	11037.7
450.808	13656.4
454.183	19181.6
457.557	27776.5
460.932	40414.8
464.307	47617.2
467.682	28717.1
471.057	13642.3
474.432	7530.02
477.806	4698.71
481.181	3234.21
484.556	2245.74
487.931	1480.95
491.306	937.957
494.681	540.075
498.055	300.959
501.43	64.081
504.805	114.332
508.18	93.218
511.555	31.86
514.929	18.902
518.304	14.231
521.679	1.804
525.054	34.626
528.429	26.939
531.804	20.531
535.178	46.46
538.553	115.686
541.928	66.038
545.303	83.626
548.678	111.466
552.052	146.595
555.427	273.775
558.802	389.174
562.177	611.938
565.552	538.203
568.927	428.575
572.301	234.46
575.676	170.738
579.051	105.001
582.426	60.232
585.801	101.661
589.175	132.714
592.55	122.002
595.925	142.189
599.3	15.998
602.675	24.845
606.049	39.234
609.424	67.022
612.799	122.394
616.174	45.579
619.549	78.276
622.924	128.089
626.298	199.074
629.673	333.231
633.048	421.558
636.423	640.111
639.798	794.448
643.172	273.785
646.547	90.79
649.922	45.96
653.297	29.716
656.672	52.887
660.047	18.913
663.421	35.334
666.796	29.052
670.171	11.452
673.546	79.603
676.921	102.34
680.295	110.285
683.67	224.413
687.045	424.056
690.42	623.249
693.795	853.572
697.17	846.908
700.544	433
703.919	259.835
707.294	125.846
710.669	84.553
714.044	51.498
717.419	59.813
720.793	4.994
724.168	80.927
727.543	38.23
730.918	79.65
734.293	34.516
737.667	4.816
741.042	32.353
744.417	34.24
747.792	8.331
751.167	16.209
754.542	41.783
757.916	78.734
761.291	5.576
764.666	14.016
768.041	62.777
771.416	88.823
774.79	37.325
778.165	48.101
781.54	175.658
784.915	250.027
788.29	446.333
791.664	668.903
795.039	776.56
798.414	885.777
801.789	989.159
805.164	1005.03
808.539	559.051
811.913	305.405
815.288	161.886
818.663	76.425
822.038	27.39
825.413	2.384
828.787	92.189
832.162	176.603
835.537	264.083
838.912	271.105
842.287	187.076
845.662	71.876
849.036	72.761
852.411	66.295
855.786	9.76
859.161	15.116
862.536	31.764
865.911	7.924
869.285	8.556
872.66	4.943
876.035	119.636
879.41	167.29
882.785	198.916
886.159	298.585
889.534	360.794
892.909	516.207
896.284	639.503
899.659	615.449
903.034	677.137
906.408	724.061
909.783	465.532
913.158	378.053
916.533	195.026
919.908	220.77
923.282	139.685
926.657	97.113
930.032	75.703
933.407	100.648
936.782	89.558
940.156	103.508
943.531	53.408
946.906	15.149
950.281	3.453
953.656	7.023
957.031	49.698
960.405	50.67
963.78	55.755
967.155	5.537
970.53	3.416
973.905	10.183
977.279	32.424
980.654	24.724
984.029	17.801
987.404	58.985
990.779	13.456
994.154	13.536
997.528	68.235
1000.9	32.094
1004.28	56.826
1007.65	52.715
1011.03	14.235
1014.4	18.667
1017.78	9.033
1021.15	15.74
1024.53	38.613
1027.9	48.596
1031.28	77.648
1034.65	85.827
1038.03	92.213
1041.4	108.421
1044.78	47.57
1048.15	80.69
1051.53	163.811
1054.9	256.399
1058.28	436.375
1061.65	589.378
1065.03	703.261
1068.4	526.983
1071.77	449.346
1075.15	391.295
1078.52	350.198
1081.9	326.967
1085.27	187.951
1088.65	122.36
1092.02	26.15
1095.4	76.2
1098.77	33.713
1102.15	39.529
1105.52	76.918
1108.9	1.694
1112.27	40.05
1115.65	2.762
1119.02	1.873
1122.4	175.903
1125.77	19.198
1129.15	90.694
1132.52	58.327
1135.9	131.441
1139.27	138.84
1142.65	204.415
1146.02	378.084
1149.39	531.126
1152.77	946.434
1156.14	1507.83
1159.52	1754.63
1162.89	1062.96
1166.27	453.177
1169.64	206.77
1173.02	152.577
1176.39	102.383
1179.77	56.923
1183.14	91.081
1186.52	30.893
1189.89	22.27
1193.27	8.39
1196.64	7.04
1200.02	3.26
1203.39	9.11
1206.77	51.417
1210.14	15.383
1213.52	29.409
1216.89	32.755
1220.27	78.918
1223.64	101.07
1227.02	115.946
1230.39	103.181
1233.77	157.079
1237.14	110.853
1240.52	79.919
1243.89	59.43
1247.27	66.111
1250.64	53.423
1254.02	100.363
1257.39	38.183
1260.76	72.42
1264.14	96.822
1267.51	4.285
1270.89	110.6
1274.26	150.638
1277.64	154.221
1281.01	110.249
1284.39	59.779
1287.76	27.009
