Measurement: Raman, 532 nm, unoriented, Raman Data Processed
Mineral: Edingtonite
Rruff sample: R040003
Ideal chemistry: Ba(Si_3_Al_2_)O_10_4H_2_O
Locality: Bohl, Sweden
Source: University of Arizona Mineral Museum
Description: Colorless tetragonal prism
Measured chemistry: Ba_1.00_(Si_3.00_Al_2.00_)O_10_Â·4H_2_O; trace amounts of Na; H_2_O estimated by difference
Raman shift (cm-1)	intensity
119.594	0
122.969	276.278
126.344	1335.92
129.718	1805.32
133.093	1523.87
136.468	1668.71
139.843	2370.32
143.218	3432.61
146.593	4704.48
149.967	6029.58
153.342	7230.2
156.717	7072.86
160.092	5864.91
163.467	4603.79
166.841	3249.15
170.216	2088.97
173.591	1415
176.966	1040.37
180.341	737.005
183.715	488.68
187.09	369.632
190.465	246.636
193.84	185.958
197.215	204.861
200.589	276.331
203.964	407.37
207.339	465.974
210.714	447.567
214.089	340.947
217.464	153.379
220.838	75.2756
224.213	176.012
227.588	70.1731
230.963	320.665
234.338	975.422
237.713	1204.98
241.087	942.628
244.462	667.722
247.837	337.514
251.212	101.668
254.587	2.5271
257.961	50.7969
261.336	20.6135
264.711	34.5996
268.086	53.7229
271.461	80.155
274.835	135.262
278.21	145.299
281.585	222.921
284.96	270.672
288.335	488.602
291.709	630.19
295.084	684.062
298.459	567.328
301.834	474.623
305.209	380.065
308.584	362.121
311.958	316.942
315.333	228.048
318.708	126.272
322.083	36.8281
325.458	68.6763
328.832	221.275
332.207	336.605
335.582	415.55
338.957	461.394
342.332	525.05
345.707	462.81
349.081	415.443
352.456	499.309
355.831	683.628
359.206	895.596
362.581	910.444
365.955	609.379
369.33	333.819
372.705	161.408
376.08	94.3779
379.455	64.2136
382.829	18.9629
386.204	43.7546
389.579	3.81226
392.954	25.2275
396.329	106.588
399.704	225.546
403.078	312.082
406.453	378.912
409.828	288.356
413.203	335.529
416.578	447.088
419.952	626.599
423.327	900.536
426.702	1233.96
430.077	1472.43
433.452	1513.09
436.827	1319.71
440.201	914.199
443.576	574.995
446.951	342.281
450.326	150.924
453.701	49.7307
457.075	7.55176
460.45	31.5523
463.825	5.11621
467.2	19.9492
470.575	11.8479
473.95	12.2744
477.324	94.856
480.699	164.278
484.074	297.621
487.449	420.671
490.824	554.365
494.198	709.924
497.573	899.834
500.948	1010.97
504.323	1225.76
507.698	1604.25
511.072	2339.13
514.447	3825.38
517.822	6583.05
521.197	11269.1
524.572	18859.7
527.947	27339.2
531.321	24174.1
534.696	13668.3
538.071	7227.72
541.446	4099.14
544.821	2455.09
548.195	1567.7
551.57	1014.61
554.945	654.761
558.32	454.295
561.695	286.925
565.069	202.322
568.444	125.251
571.819	103.711
575.194	65.7366
578.569	46.6089
581.943	48.4614
585.318	41.2439
588.693	58.9145
592.068	27.4041
595.443	57.3672
598.818	54.3232
602.192	56.3879
605.567	49.2217
608.942	61.1355
612.317	5.25537
615.692	5.25928
619.067	19.9285
622.441	27.691
625.816	42.7422
629.191	4.67908
632.566	5.88123
635.941	39.2161
639.315	19.9624
642.69	19.9535
646.065	116.76
649.44	300.243
652.815	469.023
656.189	577.576
659.564	542.246
662.939	296.639
666.314	147.594
669.689	94.2763
673.063	23.0825
676.438	32.545
679.813	33.4137
683.188	73.7094
686.563	137.795
689.938	193.934
693.312	282.675
696.687	345.417
700.062	418.565
703.437	526.494
706.812	582.306
710.187	608.952
713.561	632.34
716.936	684.07
720.311	538.702
723.686	370.94
727.061	190.766
730.435	150.423
733.81	115.435
737.185	113.478
740.56	119.13
743.935	134.123
747.309	216.748
750.684	246.512
754.059	234.407
757.434	212.948
760.809	119.543
764.183	78.9394
767.558	60.4155
770.933	34.1258
774.308	6.41785
777.683	26.526
781.058	3.30688
784.432	11.4288
787.807	1.17188
791.182	34.4259
794.557	44.6505
797.932	37.8131
801.307	72.0714
804.681	95.7229
808.056	83.2237
811.431	141.896
814.806	145.393
818.181	180.175
821.555	166.66
824.93	168.61
828.305	186.947
831.68	141.7
835.055	112.351
838.429	111.121
841.804	127.247
845.179	97.4485
848.554	101.223
851.929	74.5095
855.303	87.3839
858.678	99.4819
862.053	92.988
865.428	68.7136
868.803	71.3903
872.178	86.5712
875.552	75.0529
878.927	60.3892
882.302	50.0446
885.677	56.1821
889.052	22.3989
892.427	56.4911
895.801	17.7179
899.176	17.9391
902.551	32.6338
905.926	0.878296
909.301	18.4281
912.675	9.797
916.05	16.7721
919.425	20.1578
922.8	20.4445
926.175	3.49072
929.549	8.29932
932.924	34.6852
936.299	4.01868
939.674	77.8687
943.049	82.0172
946.423	187.836
949.798	369.428
953.173	601.289
956.548	649.236
959.923	508.884
963.298	378.356
966.672	315.71
970.047	257.186
973.422	312.652
976.797	358.106
980.172	568.22
983.546	763.132
986.921	919.39
990.296	1047.08
993.671	1140.78
997.046	1038.6
1000.42	714.793
1003.79	361.134
1007.17	187.439
1010.54	69.0642
1013.92	26.7764
1017.29	11.4966
1020.67	9.01038
1024.04	2.64087
1027.42	13.7108
1030.79	88.5029
1034.17	207.244
1037.54	335.534
1040.92	556.123
1044.29	965.22
1047.67	1547.16
1051.04	2360.67
1054.42	2845.26
1057.79	2380.58
1061.17	1597.45
1064.54	1076.66
1067.92	742.929
1071.29	559.727
1074.67	420.735
1078.04	328.791
1081.42	245.865
1084.79	178.849
1088.17	169.234
1091.54	197.117
1094.91	211.061
1098.29	277.978
1101.66	316.756
1105.04	311.148
1108.41	196.035
1111.79	125.157
1115.16	68.0206
1118.54	26.8689
1121.91	0.211548
1125.29	15.2915
1128.66	7.05139
1132.04	5.00745
1135.41	3.22778
1138.79	15.8575
1142.16	28.1078
1145.54	14.7169
1148.91	7.4425
1152.29	5.73779
1155.66	20.0987
1159.04	1.55456
1162.41	6.74512
1165.79	31.8875
1169.16	9.62854
1172.54	61.4265
1175.91	30.4373
1179.29	29.8604
1182.66	74.2144
1186.04	36.551
1189.41	58.275
1192.79	33.4565
1196.16	66.2604
1199.54	38.3188
1202.91	17.015
1206.28	56.0625
1209.66	42.3148
1213.03	59.4691
1216.41	2.34167
1219.78	20.057
1223.16	9.74573
1226.53	25.7549
1229.91	30.4634
1233.28	23.8301
1236.66	21.5792
1240.03	30.727
1243.41	16.1754
1246.78	8.60205
1250.16	19.8367
1253.53	10.9602
1256.91	44.3175
1260.28	22.5493
1263.66	3.58887
1267.03	7.50867
1270.41	41.3462
1273.78	33.6608
1277.15	12.8523
1280.53	7.82727
1283.9	20.4544
1287.28	23.6158
1290.65	0.00354
