Measurement: Raman, 785 nm, unoriented, Raman Data Processed
Mineral: Edingtonite
Rruff sample: R040003
Ideal chemistry: Ba(Si_3_Al_2_)O_10_4H_2_O
Locality: Bohl, Sweden
Source: University of Arizona Mineral Museum
Description: Colorless tetragonal prism
Measured chemistry: Ba_1.00_(Si_3.00_Al_2.00_)O_10_Â·4H_2_O; trace amounts of Na; H_2_O estimated by difference
Raman shift (cm-1)	intensity
121.046	0
123.939	20.0981
126.831	409.601
129.724	1067.39
132.617	1814.98
135.51	1127.19
138.402	935.209
141.295	2046.91
144.188	4149.44
147.08	5708.94
149.973	7400.56
152.866	8302.04
155.758	7694.63
158.651	6312.85
161.544	5135.34
164.436	4260.56
167.329	3656.76
170.222	2864.66
173.115	2132.39
176.007	1699.79
178.9	1391.63
181.793	1133.07
184.685	990.529
187.578	869.198
190.471	745.453
193.363	633.089
196.256	594.717
199.149	581.696
202.042	635.477
204.934	670.514
207.827	573.198
210.72	585.493
213.612	512.438
216.505	390.604
219.398	236.175
222.291	64.5166
225.183	19.6008
228.076	72.676
230.969	317.224
233.861	793.77
236.754	1059.98
239.647	851.358
242.539	643.365
245.432	418.087
248.325	170.803
251.218	39.9471
254.11	11.9557
257.003	37.6613
259.896	68.1401
262.788	82.9054
265.681	94.8157
268.574	40.2471
271.466	7.66687
274.359	23.15
277.252	71.1137
280.144	99.8581
283.037	90.874
285.93	151.61
288.823	265.17
291.715	346.019
294.608	394.915
297.501	370.25
300.393	334.55
303.286	305.922
306.179	336.394
309.072	308.293
311.964	291.797
314.857	225.874
317.75	160.846
320.642	54.7457
323.535	28.1931
326.428	45.5367
329.32	74.8716
332.213	128.18
335.106	183.636
337.998	214.967
340.891	284.841
343.784	302.284
346.677	261.656
349.569	204.264
352.462	230.179
355.355	415.069
358.247	565.033
361.14	637.779
364.033	520.334
366.925	302.898
369.818	172.529
372.711	87.3013
375.604	52.7751
378.496	64.6011
381.389	104.395
384.282	78.8317
387.174	75.5975
390.067	50.6282
392.96	63.7894
395.853	157.333
398.745	282.551
401.638	409.883
404.531	465.139
407.423	439.252
410.316	333.059
413.209	348.417
416.101	460.789
418.994	601.224
421.887	805.783
424.779	1062.67
427.672	1339.75
430.565	1557.06
433.458	1560.58
436.35	1383.36
439.243	1019.41
442.136	709.667
445.028	444.446
447.921	240.079
450.814	143.729
453.707	19.7676
456.599	25.2737
459.492	38.4058
462.385	48.5763
465.277	60.4447
468.17	21.1173
471.063	44.3157
473.955	78.5444
476.848	105.207
479.741	205.298
482.634	335.517
485.526	476.188
488.419	646.511
491.312	838.942
494.204	970.867
497.097	1073.22
499.99	1143.28
502.882	1218.72
505.775	1360
508.668	1632.91
511.56	2277.12
514.453	3264.88
517.346	5196.06
520.239	8865.57
523.131	14780.5
526.024	22577.3
528.917	27070.4
531.809	21557.1
534.702	13027
537.595	7542.61
540.487	4557.9
543.38	2888.58
546.273	1905.12
549.166	1297.69
552.058	895.613
554.951	652.143
557.844	453.566
560.736	332.828
563.629	227.122
566.522	119.676
569.414	113.217
572.307	84.2598
575.2	89.8894
578.093	86.8368
580.985	93.3955
583.878	64.9573
586.771	75.4376
589.663	59.8593
592.556	72.5934
595.449	86.1157
598.341	144.895
601.234	127.126
604.127	123.152
607.019	87.3118
609.912	27.4563
612.805	16.6989
615.698	5.71777
618.59	1.00806
621.483	3.74872
624.376	11.4604
627.268	4.56891
630.161	34.498
633.054	28.4016
635.947	29.09
638.839	5.83514
641.732	8.05774
644.625	75.3717
647.517	156.257
650.41	286.762
653.303	399.952
656.195	475.101
659.088	408.175
661.981	321.944
664.874	229.503
667.766	151.332
670.659	126.89
673.552	106.784
676.444	103.285
679.337	120.433
682.23	125.13
685.122	143.661
688.015	206.935
690.908	204.687
693.801	257.378
696.693	311.247
699.586	380.628
702.479	460.814
705.371	507.224
708.264	547.844
711.157	538.23
714.049	599.495
716.942	574.558
719.835	487.069
722.727	380.594
725.62	272.519
728.513	145.523
731.406	111.987
734.298	96.9647
737.191	104.475
740.084	92.6392
742.976	117.927
745.869	97.1982
748.762	149.852
751.654	138.323
754.547	141.311
757.44	138.189
760.333	125.806
763.225	106.907
766.118	46.3978
769.011	0.34259
771.903	46.5102
774.796	6.742
777.689	1.6582
780.582	18.4196
783.474	15.0854
786.367	14.2448
789.26	14.6996
792.152	11.7433
795.045	13.7762
797.938	3.15124
800.83	2.71698
803.723	69.3522
806.616	56.7929
809.509	68.3887
812.401	52.0022
815.294	71.3534
818.187	66.2195
821.079	30.8634
823.972	40.7166
826.865	37.411
829.757	22.1945
832.65	36.4146
835.543	25.7298
838.436	46.8371
841.328	52.3715
844.221	66.3125
847.114	47.1585
850.006	27.2188
852.899	36.1695
855.792	35.3822
858.684	48.2996
861.577	29.5304
864.47	28.9702
867.362	35.3826
870.255	25.9506
873.148	27.583
876.041	25.1862
878.933	22.122
881.826	15.5802
884.719	17.3668
887.611	24.2762
890.504	8.83698
893.397	0.744385
896.29	19.7624
899.182	3.01721
902.075	2.19885
904.968	11.9123
907.86	12.178
910.753	9.53168
913.646	8.90677
916.538	26.2805
919.431	2.18662
922.324	8.40668
925.216	9.06656
928.109	3.76846
931.002	10.6751
933.895	21.0447
936.787	41.6809
939.68	48.5681
942.573	76.406
945.465	183.785
948.358	291.072
951.251	514.844
954.144	690.742
957.036	633.939
959.929	526.479
962.822	430.837
965.714	321.219
968.607	259.452
971.5	221.149
974.392	292.239
977.285	353.546
980.178	475.881
983.071	616.668
985.963	718.618
988.856	810.269
991.749	912.927
994.641	979.584
997.534	852.761
1000.43	587.382
1003.32	351.256
1006.21	216.111
1009.11	72.0209
1012	29.1818
1014.89	2.3418
1017.78	0.798096
1020.68	17.8397
1023.57	30.2948
1026.46	28.0925
1029.35	82.8971
1032.25	107.486
1035.14	191.186
1038.03	317.61
1040.92	482.347
1043.82	795.116
1046.71	1238.28
1049.6	1852.1
1052.49	2394.05
1055.39	2406.11
1058.28	1930.55
1061.17	1332.84
1064.07	951.089
1066.96	679.249
1069.85	481.927
1072.74	380.911
1075.64	266.449
1078.53	217.195
1081.42	161.298
1084.32	159.732
1087.21	139.563
1090.1	161.821
1092.99	216.94
1095.89	291.263
1098.78	357.568
1101.67	393.053
1104.56	322.088
1107.46	248.929
1110.35	145.243
1113.24	93.155
1116.13	56.5993
1119.03	39.8439
1121.92	6.43552
1124.81	34.8192
1127.7	12.1897
1130.6	26.1892
1133.49	9.38489
1136.38	1.43045
1139.28	3.97971
1142.17	5.94174
1145.06	1.88357
1147.95	8.66403
1150.85	24.8902
1153.74	13.498
1156.63	15.4659
1159.53	19.4993
1162.42	4.94843
1165.31	35.8238
1168.2	27.5038
1171.1	27.9205
1173.99	18.474
1176.88	34.8265
1179.77	38.3752
1182.67	52.5226
1185.56	41.832
1188.45	40.5671
1191.35	41.836
1194.24	36.7628
1197.13	7.18506
1200.02	35.8409
1202.92	17.917
1205.81	7.0993
1208.7	19.0097
1211.59	24.972
1214.49	39.5113
1217.38	38.3224
1220.27	18.3736
1223.16	49.5046
1226.06	50.0797
1228.95	54.8509
1231.84	37.5032
1234.73	76.0649
1237.63	8.20721
1240.52	6.86233
1243.41	34.4185
1246.31	13.4612
1249.2	11.3492
1252.09	1.04663
1254.98	19.2255
1257.88	18.6798
