Measurement: Raman, 532 nm, unoriented, Raman Data Processed
Mineral: Edoylerite
Rruff sample: R060543
Ideal chemistry: Hg^2+^_3_(Cr^6+^O_4_)S^2-^_2_
Locality: Clear Creek claim, south San Benito County, California, USA
Source: Michael Scott
Description: Aggregates of yellowish-orange bladed crystals
Measured chemistry: Hg^2+^_3.00_(Cr^6+^_1.00_O_4_)S_2.00_
Raman shift (cm-1)	intensity
97.0149	0
100.39	3.29199
103.765	22.0283
107.139	61.1504
110.514	247.51
113.889	320.469
117.264	275.315
120.639	233.499
124.013	250.086
127.388	260.679
130.763	284.456
134.138	290.384
137.513	305.688
140.888	346.743
144.262	350.159
147.637	336.039
151.012	316.46
154.387	295.238
157.762	239.504
161.137	195.667
164.511	169.925
167.886	138.525
171.261	107.833
174.636	71.8164
178.011	59.5908
181.385	26.0518
184.76	31.5098
188.135	25.8037
191.51	44.1123
194.885	33.0967
198.26	26.334
201.634	25.8486
205.009	2.90234
208.384	22.7656
211.759	18.001
215.133	0.625
218.508	6.04004
221.883	10.3975
225.258	12.1289
228.633	8.19336
232.008	27.1924
235.382	4.03027
238.757	41.1748
242.132	98.6738
245.507	173.086
248.882	278.15
252.256	531.416
255.631	974.029
259.006	1574.83
262.381	2402.8
265.756	3449.06
269.131	4751.06
272.505	5678.29
275.88	5570.1
279.255	3881.2
282.63	2311.9
286.005	1575.96
289.38	1124.84
292.754	627.32
296.129	403.531
299.504	248.363
302.879	157.568
306.254	116.034
309.628	185.703
313.003	330.618
316.378	479.162
319.753	757.53
323.128	1253.42
326.502	1877.48
329.877	1822.82
333.252	1031.37
336.627	670.339
340.002	676.08
343.377	766.509
346.751	547.214
350.126	297.766
353.501	249.371
356.876	409.703
360.251	680.531
363.625	1084.65
367	1349.62
370.375	1253.66
373.75	1088.52
377.125	599.931
380.5	425.486
383.874	453.883
387.249	535.938
390.624	300.698
393.999	39.2812
397.374	6.80859
400.748	28.7412
404.123	2.8291
407.498	24.0127
410.873	16.3174
414.248	25.1543
417.623	18.3955
420.997	72.8379
424.372	50.0537
427.747	16.4287
431.122	10.4346
434.497	11.2373
437.872	28.9951
441.246	54.0898
444.621	29.2168
447.996	50.1797
451.371	28.6221
454.745	53.6367
458.12	76.7246
461.495	98.2705
464.87	100.925
468.245	85.9941
471.62	81.2031
474.994	36.9707
478.369	25.7979
481.744	45.2363
485.119	72.6221
488.494	91.8438
491.868	82.5059
495.243	53.0195
498.618	50.1602
501.993	48.4287
505.368	49.0928
508.743	51.166
512.117	42.8779
515.492	48.0781
518.867	14.9609
522.242	39.8525
525.617	39.1553
528.991	35.7305
532.366	18.9736
535.741	32.5244
539.116	14.7051
542.491	7.98535
545.866	20.7363
549.24	38.8867
552.615	32.7256
555.99	0.401367
559.365	1.82031
562.74	36.9092
566.115	41.7129
569.489	14.5947
572.864	4.63184
576.239	18.6992
579.614	34.0107
582.989	25.0645
586.363	60.001
589.738	33.71
593.113	17.8564
596.488	22.5752
599.863	12.2432
603.237	14.6045
606.612	48.5234
609.987	64.2842
613.362	76.4316
616.737	60.124
620.112	56.5664
623.486	63.708
626.861	83.7256
630.236	89.9258
633.611	94.959
636.986	105.773
640.361	107.382
643.735	123.515
647.11	124.659
650.485	141.96
653.86	151.889
657.235	133.637
660.609	140.878
663.984	161.807
667.359	163.512
670.734	152.375
674.109	130.55
677.484	136.343
680.858	154.799
684.233	160.62
687.608	165.353
690.983	162.214
694.357	131.659
697.732	120.724
701.107	91.207
704.482	75.1553
707.857	81.4775
711.232	59.2617
714.606	39.042
717.981	40.9238
721.356	27.0361
724.731	26.4873
728.106	15.7568
731.481	44.1699
734.855	33.4414
738.23	63.6982
741.605	58.6787
744.98	37.0605
748.355	9.22461
751.729	29.8867
755.104	6.24902
758.479	13.0547
761.854	38.3984
765.229	47.6816
768.604	85.7402
771.978	138.665
775.353	194.706
778.728	315.353
782.103	513.12
785.478	906.188
788.852	1490.05
792.227	2333.57
795.602	3448.76
798.977	4624.57
802.352	5099.23
805.726	4878.13
809.101	4701.36
812.476	4776.68
815.851	5118.74
819.226	6011.63
822.601	7644.1
825.975	10118.6
829.35	13388.4
832.725	16940.3
836.1	19038
839.475	18324.7
842.85	15317.4
846.224	11814.5
849.599	8982.98
852.974	6805.88
856.349	5051.58
859.724	3700.44
863.098	2718.76
866.473	2000.19
869.848	1525.14
873.223	1192.17
876.598	902.071
879.972	681.105
883.347	530.345
886.722	392.103
890.097	304.449
893.472	255.097
896.847	169.67
900.221	124.621
903.596	52.3418
906.971	19.8086
910.346	21.6846
913.721	9.51465
917.096	37.7295
920.47	47.2822
923.845	54.9072
927.22	12.1201
930.595	26.876
933.97	24.168
937.344	2.8125
940.719	10.8066
944.094	68.5156
947.469	83.2412
950.844	98.9326
954.218	117.147
957.593	150.553
960.968	117.326
964.343	180.656
967.718	202.643
971.092	230.074
974.467	231.345
977.842	236.827
981.217	222.409
984.592	214.656
987.967	235.796
991.341	198.863
994.716	168.27
998.091	176.835
1001.47	161.702
1004.84	149.091
1008.22	162.875
1011.59	138.54
1014.97	151.235
1018.34	151.211
1021.72	114.607
1025.09	103.792
1028.46	131.732
1031.84	80.5801
1035.21	80.0615
1038.59	98.3887
1041.96	95.2607
1045.34	97.9111
1048.71	65.8242
1052.09	50.1621
1055.46	71.9336
1058.84	25.0137
1062.21	48.5996
1065.59	19.3877
1068.96	23.2471
1072.34	6.35254
1075.71	17.9688
1079.09	32.4951
1082.46	28.2803
1085.84	13.0479
1089.21	44.2373
1092.59	4.21484
1095.96	0.375977
1099.34	34.7656
1102.71	6.21191
1106.09	8.34961
1109.46	31.542
1112.84	48.6797
1116.21	41.2656
1119.58	31.3252
1122.96	30.082
1126.33	8.69629
1129.71	15.9971
1133.08	8.00977
1136.46	24.1348
1139.83	3.95801
1143.21	20.2344
1146.58	1.53418
1149.96	22.0928
1153.33	69.9062
1156.71	44.0654
1160.08	57.1816
1163.46	30.5977
1166.83	50.9326
1170.21	25.1309
1173.58	53.8086
1176.96	58.6426
1180.33	35.0908
1183.71	52.3291
1187.08	92.9746
1190.46	88.9092
1193.83	53.706
1197.2	59.1172
1200.58	35.1553
1203.95	24.999
1207.33	63.6973
1210.7	65.0576
1214.08	32.5312
1217.45	50.877
1220.83	64.5107
1224.2	32.0645
1227.58	1.7666
1230.95	18.8994
1234.33	3.7334
1237.7	20.1387
1241.08	26.2598
1244.45	36.4102
1247.83	30.3252
1251.2	55.7949
1254.58	30.1992
1257.95	42.7676
1261.33	33.709
1264.7	5.84375
1268.08	18.6211
1271.45	12.8525
1274.83	32.6465
1278.2	31.2246
1281.58	8.22363
1284.95	23.7129
1288.33	21.6562
1291.7	14.6289
1295.08	42.8076
1298.45	13.9453
1301.83	0
