Measurement: Raman, 780 nm, unoriented, Raman Data Processed
Mineral: Edoylerite
Rruff sample: R060543
Ideal chemistry: Hg^2+^_3_(Cr^6+^O_4_)S^2-^_2_
Locality: Clear Creek claim, south San Benito County, California, USA
Source: Michael Scott
Description: Aggregates of yellowish-orange bladed crystals
Measured chemistry: Hg^2+^_3.00_(Cr^6+^_1.00_O_4_)S_2.00_
Raman shift (cm-1)	intensity
93.9705	0
97.3453	71.6313
100.72	111.596
104.095	271.377
107.47	263.082
110.845	249.782
114.219	229.145
117.594	114.421
120.969	36.9517
124.344	6.60107
127.719	8.63477
131.094	12.2485
134.468	11.5093
137.843	36.5425
141.218	68.7642
144.593	100.774
147.968	89.312
151.342	50.9707
154.717	51.498
158.092	37.5225
161.467	40.4697
164.842	46.0767
168.216	43.9092
171.591	41.1548
174.966	31.4727
178.341	24.6338
181.716	28.9199
185.09	18.3594
188.465	8.66309
191.84	4.24219
195.215	11.1152
198.59	13.6851
201.965	11.8604
205.339	8.84717
208.714	0.32373
212.089	0.597168
215.464	10.0078
218.839	40.8872
222.214	80.5957
225.588	170.734
228.963	279.543
232.338	481.785
235.713	881.538
239.088	1404.12
242.462	1892.94
245.837	2700.84
249.212	3906.3
252.587	5826.94
255.962	7091.63
259.336	4650.14
262.711	2457.13
266.086	1891.11
269.461	1993.37
272.836	2159.58
276.211	2172.73
279.585	1790.36
282.96	1332.62
286.335	1054.58
289.71	826.553
293.085	519.454
296.459	260.059
299.834	116.023
303.209	32.8721
306.584	12.3745
309.959	9.31494
313.334	34.126
316.708	88.3364
320.083	206.579
323.458	413.13
326.833	710.137
330.207	905.36
333.582	792.995
336.957	931.113
340.332	1335.07
343.707	1914.32
347.082	1722.05
350.456	1009.58
353.831	742.595
357.206	562.604
360.581	428.39
363.956	451.175
367.33	545.853
370.705	536.127
374.08	506.621
377.455	286.964
380.83	184.898
384.205	195.517
387.579	259.45
390.954	202.13
394.329	62.5356
397.704	2.90185
401.079	10.6519
404.453	7.60156
407.828	9.92822
411.203	2.01074
414.578	4.10352
417.953	1.65137
421.327	33.3018
424.702	36.9526
428.077	41.5488
431.452	46.6997
434.827	45.0249
438.202	60.8272
441.576	54.437
444.951	62.9639
448.326	70.9121
451.701	79.8828
455.076	90.188
458.45	100.407
461.825	92.189
465.2	88.9863
468.575	76.563
471.95	77.7715
475.325	53.2817
478.699	53.9883
482.074	62.1812
485.449	53.6777
488.824	48.4517
492.199	60.0181
495.573	50.8726
498.948	51.5244
502.323	43.2661
505.698	33.0986
509.073	33.8813
512.447	36.2124
515.822	42.6289
519.197	26.8643
522.572	24.7842
525.947	13.042
529.322	24.627
532.696	12.8135
536.071	0.52002
539.446	24.7222
542.821	6.9751
546.196	6.18457
549.57	0.045898
552.945	0.365723
556.32	13.0713
559.695	2.60254
563.07	0.646973
566.444	7.24805
569.819	16.1318
573.194	6.75195
576.569	22.1802
579.944	15.4004
583.319	16.353
586.693	2.4624
590.068	2.58887
593.443	4.93799
596.818	27.7085
600.193	16.2739
603.567	29.8023
606.942	23.0996
610.317	15.4951
613.692	14.1851
617.067	8.87646
620.442	18.8291
623.816	15.8545
627.191	13.0176
630.566	9.90771
633.941	18.644
637.316	12.1352
640.69	26.4102
644.065	12.0073
647.44	0.936523
650.815	6.60107
654.19	1.80029
657.564	20.4092
660.939	21.5669
664.314	10.0977
667.689	13.7305
671.064	7.42578
674.439	13.0332
677.813	11.5508
681.188	12.6489
684.563	18.3686
687.938	23.7783
691.313	28.6987
694.688	22.1685
698.062	20.1001
701.437	25.1299
704.812	17.3936
708.187	23.4751
711.562	20.5669
714.936	28.9229
718.311	19.2173
721.686	4.37744
725.061	4.98682
728.436	9.17822
731.81	11.126
735.185	8.46729
738.56	1.74121
741.935	6.59033
745.31	0.004395
748.684	9.27808
752.059	1.41162
755.434	0.081055
758.809	4.38867
762.184	1.72022
765.559	8.51489
768.933	3.66455
772.308	23.8311
775.683	10.427
779.058	20.7063
782.433	37.8232
785.808	80.0754
789.182	130.765
792.557	199.717
795.932	311.619
799.307	436
802.682	491.82
806.056	460.363
809.431	398.45
812.806	390.046
816.181	418.008
819.556	476.456
822.93	598.051
826.305	777.877
829.68	1030.5
833.055	1337.62
836.43	1616.48
839.804	1659.18
843.179	1471.6
846.554	1186.62
849.929	937.375
853.304	738.033
856.679	556.824
860.053	415.109
863.428	304.147
866.803	223.705
870.178	172.352
873.553	131.071
876.927	94.1287
880.302	70.408
883.677	67.4429
887.052	50.3916
890.427	36.6282
893.802	39.5376
897.176	18.6331
900.551	13.5527
903.926	4.36719
907.301	1.43872
910.676	1.77002
914.05	0.478027
917.425	4.22339
920.8	0.973877
924.175	9.875
927.55	1.77564
930.924	4.47119
934.299	5.43848
937.674	10.1111
941.049	11.564
944.424	0.853027
947.799	5.50439
951.173	4.6582
954.548	12.5889
957.923	13.2747
961.298	10.6687
964.673	9.76148
968.047	15.9377
971.422	19.9324
974.797	9.10327
978.172	19.6409
981.547	22.4741
984.922	11.6873
988.296	12.1165
991.671	10.3726
995.046	19.9168
998.421	12.2476
1001.8	19.6643
1005.17	13.4951
1008.54	20.9465
1011.92	13.3076
1015.29	13.0635
1018.67	12.408
1022.04	7.18799
1025.42	14.4336
1028.79	8.90234
1032.17	2.69067
1035.54	13.897
1038.92	16.2949
1042.29	12.7644
1045.67	9.10864
1049.04	10.6909
1052.42	7.51343
1055.79	7.19995
1059.17	2.09937
1062.54	11.1685
1065.92	7.0647
1069.29	14.0381
1072.67	2.88184
1076.04	7.99707
1079.42	2.57764
1082.79	4.19165
1086.17	11.2849
1089.54	9.85986
1092.92	7.32739
1096.29	6.30762
1099.66	8.46924
1103.04	2.78027
1106.41	5.35229
1109.79	14.2315
1113.16	3.51172
1116.54	0.868652
1119.91	2.58935
1123.29	5.27686
1126.66	0.394653
1130.04	1.0885
1133.41	1.22339
1136.79	1.06079
1140.16	12.6981
1143.54	3.92358
1146.91	8.74719
1150.29	1.72217
1153.66	10.7753
1157.04	1.43408
1160.41	7.93262
1163.79	7.97522
1167.16	14.8536
1170.54	13.4785
1173.91	14.2576
1177.29	8.45996
1180.66	18.1923
1184.04	15.5631
1187.41	13.3522
1190.79	13.5028
1194.16	10.3328
1197.54	10.4922
1200.91	5.22388
1204.28	2.09119
1207.66	9.31604
1211.03	7.61841
1214.41	5.15576
1217.78	5.66211
1221.16	4.8551
1224.53	12.6029
1227.91	1.96008
1231.28	1.87524
1234.66	2.70129
1238.03	3.46765
1241.41	1.95007
1244.78	2.36536
1248.16	1.32568
1251.53	1.67615
1254.91	4.14417
1258.28	16.0525
1261.66	9.45642
1265.03	13.98
1268.41	10.5897
1271.78	16.7025
1275.16	1.25415
1278.53	4.98853
1281.9	6.30078
