Measurement: Raman, 532 nm, unoriented, Raman Data Processed
Mineral: Effenbergerite
Rruff sample: R120088
Ideal chemistry: BaCu^2+^Si_4_O_10_
Locality: Eastern orebody, Wessels mine, Kalahari manganese area, Cape Province, South Africa
Source: William W Pinch
Description: Blue massive. A piece from the original find.
Raman shift (cm-1)	intensity
191.255	0
194.147	13.8636
197.04	51.5919
199.933	13.7761
202.825	2.23523
205.718	23.3791
208.611	57.641
211.504	66.7609
214.396	72.6605
217.289	72.8876
220.182	85.0405
223.074	73.5764
225.967	48.6692
228.86	38.365
231.752	44.8384
234.645	44.6033
237.538	41.5657
240.43	35.125
243.323	33.1543
246.216	22.429
249.109	36.3838
252.001	14.722
254.894	10.8361
257.787	10.8107
260.679	19.9191
263.572	4.31604
266.465	8.47937
269.358	6.82556
272.25	13.3894
275.143	9.96509
278.036	14.1471
280.928	8.22376
283.821	0.801514
286.714	3.54773
289.606	0.614868
292.499	5.849
295.392	2.68445
298.284	5.73767
301.177	18.1268
304.07	31.499
306.963	30.436
309.855	39.8121
312.748	45.5502
315.641	53.9421
318.533	36.9019
321.426	33.9387
324.319	46.1645
327.212	57.9951
330.104	65.5532
332.997	42.687
335.89	35.1763
338.782	25.5523
341.675	20.5786
344.568	5.99243
347.46	9.4331
350.353	3.021
353.246	5.40088
356.139	14.3484
359.031	19.3665
361.924	49.6855
364.817	79.0662
367.709	132.911
370.602	217.67
373.495	314.217
376.387	431.935
379.28	522.143
382.173	503.206
385.065	384.938
387.958	237.247
390.851	139.816
393.744	88.2473
396.636	63.2966
399.529	82.0222
402.422	103.734
405.314	173.034
408.207	261.201
411.1	428.685
413.993	670.419
416.885	1014.32
419.778	1419.91
422.671	1658.47
425.563	1434.2
428.456	983.027
431.349	640.057
434.241	442.117
437.134	334.145
440.027	271.64
442.92	235.072
445.812	180.735
448.705	156.9
451.598	113.451
454.49	90.4966
457.383	68.2905
460.276	51.2888
463.168	50.207
466.061	47.8252
468.954	31.8806
471.846	29.8855
474.739	17.343
477.632	0.520996
480.525	2.29431
483.417	0.365601
486.31	1.13623
489.203	2.4071
492.095	10.8395
494.988	10.8812
497.881	2.27039
500.774	2.64136
503.666	0.915039
506.559	2.23462
509.452	10.3838
512.344	11.8619
515.237	12.4851
518.13	0.238037
521.022	20.0554
523.915	23.7355
526.808	19.7297
529.701	20.2023
532.593	8.34375
535.486	15.1108
538.379	20.5889
541.271	33.2983
544.164	43.795
547.057	59.7831
549.949	87.1627
552.842	124.863
555.735	167.08
558.628	157.487
561.52	116.077
564.413	75.5298
567.306	51.9915
570.198	31.7467
573.091	29.4692
575.984	27.5737
578.876	24.0223
581.769	33.3977
584.662	44.2335
587.554	40.2109
590.447	42.5637
593.34	37.6752
596.232	13.6355
599.125	28.4725
602.018	26.6621
604.911	12.9582
607.803	0.479126
610.696	23.2329
613.589	17.0181
616.481	14.588
619.374	1.23157
622.267	6.35205
625.159	0.171875
628.052	10.0304
630.945	0.023193
633.838	5.20276
636.73	11.6429
639.623	3.354
642.516	1.80286
645.408	2.92456
648.301	8.81738
651.194	6.03174
654.087	18.0102
656.979	8.52832
659.872	19.1921
662.765	14.9375
665.657	11.6989
668.55	11.8137
671.443	6.97937
674.335	5.37927
677.228	13.1871
680.121	11.7013
683.014	15.5625
685.906	10.0857
688.799	18.292
691.692	23.173
694.584	23.9324
697.477	14.3756
700.37	13.2172
703.263	1.79041
706.155	3.06116
709.048	15.7062
711.941	13.6212
714.833	8.04187
717.726	0.380127
720.619	6.73425
723.511	0.391235
726.404	14.098
729.297	18.2602
732.189	2.28882
735.082	14.419
737.975	2.00037
740.868	15.9318
743.76	5.10437
746.653	9.19812
749.546	15.2029
752.438	41.0553
755.331	39.615
758.224	62.605
761.116	42.3044
764.009	42.7485
766.902	59.4944
769.795	79.1399
772.687	87.2922
775.58	68.1172
778.473	76.4707
781.365	72.1946
784.258	85.7341
787.151	128.405
790.043	129.426
792.936	109.808
795.829	67.9438
798.722	36.8477
801.614	31.7078
804.507	18.6121
807.4	15.4341
810.292	11.2966
813.185	19.325
816.078	9.26977
818.971	15.8657
821.863	18.2878
824.756	3.06812
827.649	1.08301
830.541	2.30469
833.434	1.73706
836.327	16.1523
839.219	1.45337
842.112	0.745361
845.005	9.02197
847.898	10.8125
850.79	1.29346
853.683	9.16797
856.576	9.60596
859.468	11.7346
862.361	16.9912
865.254	1.81103
868.146	6.55273
871.039	9.26074
873.932	20.7969
876.824	22.6626
879.717	8.79443
882.61	10.1165
885.503	9.41748
888.395	17.5591
891.288	5.37231
894.181	11.1011
897.073	9.04273
899.966	4.45923
902.859	10.7793
905.751	17.9465
908.644	18.3784
911.537	6.84766
914.43	9.91089
917.322	7.43555
920.215	8.854
923.108	20.5713
926	7.83228
928.893	31.3052
931.786	10.2537
934.678	2.03809
937.571	7.17236
940.464	1.21802
943.357	9.20752
946.249	14.9121
949.142	8.63745
952.035	15.5259
954.927	24.54
957.82	37.6333
960.713	64.3147
963.606	79.6538
966.498	98.7339
969.391	111.577
972.284	121.083
975.176	115.945
978.069	121.905
980.962	148.45
983.854	161.738
986.747	198.638
989.64	253.154
992.533	261.788
995.425	242.154
998.318	193.528
1001.21	159.169
1004.1	116.832
1007	91.6033
1009.89	74.7812
1012.78	63.8455
1015.67	60.2607
1018.57	55.1758
1021.46	37.4446
1024.35	32.3728
1027.24	11.6526
1030.14	12.2461
1033.03	3.3125
1035.92	14.7239
1038.82	4.25171
1041.71	10.958
1044.6	1.13867
1047.49	0.440674
1050.39	6.28223
1053.28	3.20288
1056.17	24.4233
1059.07	10.4348
1061.96	24.0691
1064.85	32.7903
1067.74	45.8745
1070.63	53.3799
1073.53	51.896
1076.42	74.7996
1079.31	115.373
1082.21	147.353
1085.1	224.853
1087.99	313.692
1090.88	465.493
1093.78	647.827
1096.67	807.355
1099.56	813.985
1102.45	670.587
1105.35	492.835
1108.24	355.893
1111.13	254.465
1114.03	176.449
1116.92	123.719
1119.81	89.1174
1122.7	64.2561
1125.6	46.0383
1128.49	43.7131
1131.38	21.6782
1134.28	20.0754
1137.17	29.3081
1140.06	27.2478
1142.95	29.7947
1145.85	16.6724
1148.74	5.25781
1151.63	7.17236
1154.52	13.6863
1157.42	1.87109
1160.31	1.43262
1163.2	6.64185
1166.09	3.74536
1168.99	0.189453
1171.88	14.1472
1174.77	5.5481
1177.66	6.46631
1180.56	0.923828
1183.45	1.18872
1186.34	0.390137
1189.24	2.75
1192.13	11.6521
1195.02	7.92651
1197.91	8.5647
1200.81	4.30078
1203.7	0.146484
1206.59	11.2593
1209.48	19.759
1212.38	28.1577
1215.27	13.2236
1218.16	5.37134
1221.06	8.33008
1223.95	6.4043
1226.84	18.5967
1229.73	9.1936
1232.63	20.1594
1235.52	10.136
1238.41	0.095947
1241.31	15.7517
1244.2	13.3193
1247.09	15.304
1249.98	5.896
1252.88	14.0637
1255.77	18.2229
1258.66	2.85083
1261.55	23.1777
1264.45	19.3477
1267.34	7.68164
1270.23	10.1016
1273.12	6.74658
1276.02	29.9265
1278.91	6.35815
1281.8	9.3501
1284.69	8.83447
1287.59	18.9746
1290.48	7.11426
1293.37	13.4204
1296.27	1.39282
1299.16	14.3059
1302.05	0.012451
