Measurement: Raman, 532 nm, unoriented, Raman Data Processed
Mineral: Eglestonite
Rruff sample: R140234
Ideal chemistry: Hg^1+^_6_OCl_3_(OH)
Locality: Cinnabar City mine, Spring Valley District, Pershing County, Nevada, USA
Source: Rock Currier
Description: Micro group of yellow vitreous crystals with a greasy vitreous amber unknown mercury mineral, cinnabar, calomel and native mercury all in calcite.
Raman shift (cm-1)	intensity
100.872	0
104.247	0.908203
107.621	5.14368
110.996	30.8679
114.371	72.2122
117.746	114.154
121.121	151.21
124.496	186.705
127.87	207.47
131.245	206.345
134.62	192.847
137.995	173.284
141.37	155.23
144.744	154.053
148.119	151.567
151.494	163.565
154.869	182.536
158.244	240.539
161.619	439.046
164.993	616.012
168.368	734.917
171.743	936.676
175.118	1465.87
178.493	2803.01
181.868	2011
185.242	619.068
188.617	619.064
191.992	666.645
195.367	695.967
198.742	887.011
202.116	1113.99
205.491	842.499
208.866	304.719
212.241	107.439
215.616	42.2943
218.99	20.524
222.365	1.64722
225.74	4.23108
229.115	3.69623
232.49	5.50214
235.865	7.82703
239.239	0.792603
242.614	1.13776
245.989	2.2785
249.364	2.5846
252.739	1.90137
256.113	3.39081
259.488	7.49902
262.863	7.44019
266.238	12.9308
269.613	19.523
272.988	20.7745
276.362	27.0153
279.737	23.2451
283.112	24.9503
286.487	29.3606
289.862	28.9446
293.236	23.7389
296.611	26.6945
299.986	17.4976
303.361	14.4122
306.736	17.7357
310.111	11.545
313.485	11.3351
316.86	4.06256
320.235	10.3474
323.61	10.3311
326.985	1.20422
330.359	3.12793
333.734	1.89447
337.109	3.21039
340.484	2.51208
343.859	1.2019
347.233	0.00238
350.608	9.00696
353.983	10.9742
357.358	6.05206
360.733	2.95483
364.108	0.280029
367.482	0.221313
370.857	4.21759
374.232	1.6731
377.607	4.15247
380.982	7.91351
384.356	12.4178
387.731	6.3064
391.106	12.6094
394.481	13.3419
397.856	22.3531
401.231	15.879
404.605	30.272
407.98	28.3538
411.355	31.5259
414.73	35.6987
418.105	37.2094
421.479	46.2153
424.854	48.3204
428.229	49.1719
431.604	55.3703
434.979	62.1631
438.354	63.8392
441.728	70.4159
445.103	83.4948
448.478	91.5394
451.853	101.833
455.228	115.013
458.603	116.628
461.977	115.147
465.352	113.879
468.727	112.869
472.102	91.8178
475.477	73.1358
478.851	58.6333
482.226	44.4075
485.601	47.897
488.976	29.6146
492.351	27.2884
495.726	17.3294
499.1	12.571
502.475	10.5998
505.85	5.16003
509.225	5.86835
512.6	2.47693
515.974	11.8075
519.349	2.84815
522.724	4.0481
526.099	4.04034
529.474	2.66028
532.848	3.49292
536.223	1.61237
539.598	1.41998
542.973	1.62647
546.348	1.77258
549.722	4.61963
553.097	0.717529
556.472	1.69189
559.847	4.17425
563.222	5.565
566.597	4.66095
569.971	4.46258
573.346	8.92285
576.721	5.61981
580.096	9.37317
583.471	11.4008
586.846	11.8564
590.22	15.2557
593.595	12.3251
596.97	11.4509
600.345	8.25513
603.72	7.26538
607.094	8.89465
610.469	14.1522
613.844	16.6335
617.219	11.0817
620.594	8.18274
623.968	5.15186
627.343	3.19116
630.718	5.49817
634.093	6.3905
637.468	13.7318
640.843	7.55981
644.217	2.38611
647.592	4.68811
650.967	11.5283
654.342	5.61853
657.717	0.531128
661.091	7.29297
664.466	1.72974
667.841	8.6294
671.216	1.32544
674.591	2.36231
677.966	2.23633
681.34	2.75745
684.715	5.4845
688.09	0.249023
691.465	2.40613
694.84	7.60706
698.215	6.65381
701.589	0.557129
704.964	1.32654
708.339	13.7275
711.714	5.4187
715.089	3.4364
718.463	1.89661
721.838	7.02783
725.213	5.83765
728.588	12.368
731.963	10.5574
735.337	7.64038
738.712	9.36755
742.087	14.118
745.462	3.33484
748.837	12.9476
752.212	10.6873
755.586	8.69055
758.961	5.50464
762.336	4.00964
765.711	8.59363
769.086	2.54602
772.46	7.12939
775.835	6.29785
779.21	6.12939
782.585	1.92554
785.96	5.73401
789.335	5.81519
792.709	4.71277
796.084	5.62036
799.459	2.37537
802.834	4.74439
806.209	5.16479
809.583	8.81323
812.958	4.28516
816.333	7.49243
819.708	8.34692
823.083	4.09094
826.457	0.665283
829.832	21.9121
833.207	1.91919
836.582	8.67529
839.957	5.97058
843.332	8.45544
846.706	8.50574
850.081	1.46667
853.456	2.12512
856.831	2.29236
860.206	9.40955
863.581	5.63623
866.955	2.30823
870.33	5.56299
873.705	18.8959
877.08	10.3757
880.455	5.11426
883.829	1.92969
887.204	3.72583
890.579	8.08899
893.954	8.05139
897.329	7.97913
900.703	10.9247
904.078	17.7889
907.453	9.3844
910.828	5.35608
914.203	9.17273
917.578	12.3157
920.952	2.81067
924.327	7.94873
927.702	15.3344
931.077	0.44165
934.452	11.598
937.827	4.86316
941.201	4.72888
944.576	10.2932
947.951	2.38086
951.326	10.5328
954.701	2.80273
958.075	5.54565
961.45	0.942871
964.825	8.06238
968.2	8.60523
971.575	8.77393
974.949	6.77112
978.324	6.5221
981.699	7.04895
985.074	8.45703
988.449	6.07031
991.823	11.6669
995.198	11.1184
998.573	10.3838
1001.95	10.6313
1005.32	6.19763
1008.7	7.74365
1012.07	4.42102
1015.45	4.76685
1018.82	5.59351
1022.2	4.28137
1025.57	4.00537
1028.95	12.9927
1032.32	4.6134
1035.7	11.6803
1039.07	9.97571
1042.45	4.86121
1045.82	11.4629
1049.19	3.95642
1052.57	8.25964
1055.94	7.28381
1059.32	5.92566
1062.69	1.38074
1066.07	8.03455
1069.44	0.007202
1072.82	4.37683
1076.19	4.92127
1079.57	2.81604
1082.94	1.73144
1086.32	6.28821
1089.69	3.02869
1093.07	5.44336
1096.44	4.59802
1099.82	11.428
1103.19	0.964722
1106.57	3.9491
1109.94	0.613281
1113.32	7.08557
1116.69	8.80774
1120.07	3.49951
1123.44	2.84228
1126.82	8.53467
1130.19	2.96692
1133.57	3.00501
1136.94	7.10046
1140.32	7.8855
1143.69	6.11646
1147.07	3.5835
1150.44	3.50684
1153.82	3.79175
1157.19	14.3408
1160.56	7.69238
1163.94	12.0612
1167.31	24.5732
1170.69	1.1731
1174.06	3.66431
1177.44	3.48523
1180.81	12.6497
1184.19	9.20715
1187.56	14.5745
1190.94	9.91296
1194.31	6.67932
1197.69	2.91858
1201.06	0.159058
1204.44	10.3243
1207.81	1.70679
1211.19	10.0079
1214.56	7.31921
1217.94	3.77332
1221.31	5.3606
1224.69	1.57666
1228.06	0.294312
1231.44	0.781616
1234.81	2.16675
1238.18	0.478394
1241.56	4.34155
1244.93	8.51013
1248.31	0.332153
1251.68	8.07532
1255.06	7.3949
1258.43	5.76086
1261.81	9.27979
1265.18	3.0769
1268.56	2.69788
1271.93	5.00293
1275.31	7.58118
1278.68	9.64209
1282.06	11.7446
1285.43	11.2722
1288.81	8.4126
1292.18	8.28516
1295.56	6.42175
1298.93	1.42895
