Measurement: Raman, 532 nm, unoriented, Raman Data Processed
Mineral: Eglestonite
Rruff sample: R060612
Ideal chemistry: Hg^1+^_6_OCl_3_(OH)
Locality: Cahill mine, Poverty Peak District, Humboldt County, Nevada, USA
Source: Michael Scott
Description: Brown fragments
Measured chemistry: Hg^1+^_6.00_OCl_3.00_(OH) ; O,H not measured but estimated by difference and stoichiometry
Raman shift (cm-1)	intensity
91.148	0
94.523	20.317
97.898	32.481
101.273	8.524
104.648	1.42
108.022	26.04
111.397	97.354
114.772	252.667
118.147	407.236
121.522	684.293
124.897	845.017
128.271	1074.63
131.646	1571.58
135.021	2146.06
138.396	2234.75
141.771	1987.75
145.145	1899.95
148.52	1851.29
151.895	1675.15
155.27	2589.66
158.645	7710.2
162.02	17838.2
165.394	43670.8
168.769	22673.6
172.144	2109.41
175.519	842.084
178.894	493.351
182.268	280.342
185.643	186.35
189.018	110.922
192.393	101.088
195.768	104.971
199.143	179.367
202.517	198.001
205.892	191.785
209.267	122.536
212.642	63.459
216.017	8.091
219.391	34.905
222.766	9.043
226.141	24.593
229.516	13.182
232.891	12.76
236.266	15.859
239.64	30.578
243.015	52.375
246.39	121.912
249.765	203.619
253.14	282.642
256.514	484.817
259.889	847.34
263.264	1677.21
266.639	3328.77
270.014	5932.44
273.389	8706.15
276.763	7157.51
280.138	4432.85
283.513	3334.41
286.888	2928.99
290.263	2617.95
293.638	2091.55
297.012	1367.95
300.387	847.916
303.762	567.508
307.137	405.543
310.512	291.421
313.886	248.947
317.261	228.218
320.636	222.905
324.011	181.484
327.386	121.78
330.76	79.298
334.135	33.03
337.51	19.681
340.885	7.565
344.26	4.959
347.635	33.755
351.009	6.379
354.384	5.066
357.759	3.32
361.134	6.018
364.509	20.111
367.884	15.307
371.258	0.484
374.633	27.301
378.008	24.996
381.383	33.112
384.758	46.939
388.132	39.111
391.507	44.796
394.882	21.97
398.257	43.467
401.632	4.623
405.007	38.632
408.381	12.222
411.756	15.567
415.131	7.438
418.506	7.723
421.881	23.638
425.255	19.026
428.63	26.929
432.005	41.441
435.38	38.634
438.755	41.667
442.129	56.363
445.504	60.82
448.879	50.246
452.254	35.435
455.629	54.991
459.004	30.965
462.379	76.717
465.753	56.854
469.128	61.659
472.503	46.071
475.878	41.768
479.253	24.94
482.627	43.427
486.002	34.35
489.377	21.657
492.752	5.616
496.127	23.518
499.501	13.815
502.876	0.368
506.251	9.32
509.626	34.862
513.001	33
516.375	23.539
519.75	54.249
523.125	28.657
526.5	8.203
529.875	42.075
533.25	27.537
536.625	14.073
539.999	7.902
543.374	19.454
546.749	18.11
550.124	19.387
553.499	52.795
556.873	24.662
560.248	20.451
563.623	34.421
566.998	41.799
570.373	16.107
573.747	31.137
577.122	9.566
580.497	24.076
583.872	19.946
587.247	16.429
590.622	9.688
593.996	11.255
597.371	14.669
600.746	28.972
604.121	38.608
607.496	46.062
610.87	28.081
614.245	19.701
617.62	2.153
620.995	18.696
624.37	0.021
627.745	8.174
631.119	14.375
634.494	9.75
637.869	17.54
641.244	45.511
644.619	18.94
647.994	41.016
651.368	43.453
654.743	23.168
658.118	21.032
661.493	15.272
664.868	18.371
668.242	16.53
671.617	20.925
674.992	19.906
678.367	5.074
681.742	45.066
685.117	41.982
688.491	29.974
691.866	25.029
695.241	34.628
698.616	29.95
701.991	3.808
705.365	12.346
708.74	18.98
712.115	7.484
715.49	17.875
718.865	27.818
722.24	24.665
725.614	16.722
728.989	23.344
732.364	53.355
735.739	30.614
739.114	32.948
742.489	10.525
745.863	1.285
749.238	16.018
752.613	2.362
755.988	16.887
759.362	19.175
762.737	15.946
766.112	27.015
769.487	37.209
772.862	14.582
776.237	18.958
779.612	16.254
782.986	22.592
786.361	27.232
789.736	7.91
793.111	16.785
796.485	8.047
799.86	31.624
803.235	19.519
806.61	14.802
809.985	20.991
813.36	27.852
816.734	18.822
820.109	43.034
823.484	17.917
826.859	2.555
830.234	3.384
833.609	10.638
836.983	27.716
840.358	40.487
843.733	18.046
847.108	29.193
850.483	16.595
853.857	14.714
857.232	27.458
860.607	29.983
863.982	4.653
867.357	5.453
870.732	38.756
874.106	5.701
877.481	24.625
880.856	21.912
884.231	32.512
887.606	20.649
890.981	39.074
894.355	55.171
897.73	60.213
901.105	21.111
904.48	34.517
907.855	39.329
911.229	27.093
914.604	27.384
917.979	14.963
921.354	25.221
924.729	34.27
928.104	26.754
931.478	34.969
934.853	45.356
938.228	23.654
941.603	37.855
944.978	2.897
948.352	4.513
951.727	21.734
955.102	5.458
958.477	7.16
961.852	19.036
965.227	40.995
968.601	11.89
971.976	42.543
975.351	46.448
978.726	21.972
982.101	17.057
985.475	19.77
988.85	6.335
992.225	3.907
995.6	35.191
998.975	17.704
1002.35	48.642
1005.72	23.088
1009.1	12.4
1012.47	56.14
1015.85	21.035
1019.22	29.825
1022.6	5.415
1025.97	25.983
1029.35	10.232
1032.72	12.958
1036.1	14.8
1039.47	0.512
1042.85	11.305
1046.22	20.986
1049.6	28.654
1052.97	56.54
1056.35	37.103
1059.72	0.62
1063.1	2.965
1066.47	9.952
1069.85	5.442
1073.22	15.5
1076.6	29.589
1079.97	28.282
1083.35	8.589
1086.72	44.306
1090.1	43.175
1093.47	33.196
1096.84	17.346
1100.22	36.668
1103.59	3.158
1106.97	8.532
1110.34	16.946
1113.72	23.283
1117.09	18.361
1120.47	13.243
1123.84	27.351
1127.22	55.545
1130.59	52.91
1133.97	32.68
1137.34	11.124
1140.72	20.862
1144.09	15.56
1147.47	31.884
1150.84	0.96
1154.22	30.449
1157.59	40.577
1160.97	37.489
1164.34	32.612
1167.72	52.923
1171.09	53.189
1174.46	35.856
1177.84	6.248
1181.21	3.648
1184.59	6.452
1187.96	17.948
1191.34	19.943
1194.71	11.578
1198.09	5.938
1201.46	33.912
1204.84	45.008
1208.21	56.253
1211.59	33.732
1214.96	26.21
1218.34	39.744
1221.71	17.287
1225.09	18.708
1228.46	24.656
1231.84	31.847
1235.21	36.093
1238.59	28.021
1241.96	47.988
1245.34	25.264
1248.71	47.407
1252.09	19.556
1255.46	0.644
1258.84	3.397
1262.21	14.062
1265.59	18.092
1268.96	27.784
1272.34	33.886
1275.71	32.005
1279.09	26.138
1282.46	43.339
1285.83	16.016
1289.21	36.607
