Measurement: Raman, 780 nm, unoriented, Raman Data Processed
Mineral: Eglestonite
Rruff sample: R140234
Ideal chemistry: Hg^1+^_6_OCl_3_(OH)
Locality: Cinnabar City mine, Spring Valley District, Pershing County, Nevada, USA
Source: Rock Currier
Description: Micro group of yellow vitreous crystals with a greasy vitreous amber unknown mercury mineral, cinnabar, calomel and native mercury all in calcite.
Raman shift (cm-1)	intensity
91.5599	0
94.9347	35.1191
98.3096	12.231
101.684	3.65213
105.059	3.99704
108.434	1.07593
111.809	13.5105
115.184	26.7974
118.558	42.2261
121.933	58.9297
125.308	68.8774
128.683	70.0326
132.058	61.4343
135.433	52.4507
138.807	36.3428
142.182	27.1666
145.557	22.3254
148.932	21.4903
152.307	21.4803
155.681	33.2878
159.056	65.661
162.431	126.657
165.806	137.528
169.181	186.86
172.555	264.377
175.93	401.696
179.305	806.743
182.68	715.123
186.055	212.211
189.43	183.919
192.804	195.571
196.179	196.256
199.554	240.869
202.929	310.546
206.304	249.39
209.678	86.6378
213.053	27.5176
216.428	5.42793
219.803	0.266739
223.178	3.06476
226.553	3.74058
229.927	0.895157
233.302	1.564
236.677	1.36565
240.052	2.03671
243.427	1.53708
246.801	3.33641
250.176	6.4872
253.551	4.75656
256.926	7.6322
260.301	5.04518
263.675	8.99074
267.05	7.73628
270.425	11.1271
273.8	11.4265
277.175	11.7964
280.55	7.49702
283.924	9.40712
287.299	9.84576
290.674	7.28293
294.049	8.46561
297.424	8.25131
300.798	9.76318
304.173	6.08164
307.548	7.4799
310.923	5.46303
314.298	6.118
317.673	2.55582
321.047	4.30962
324.422	2.31041
327.797	1.99008
331.172	1.50331
334.547	1.51608
337.921	1.56078
341.296	0.114883
344.671	1.09439
348.046	0.254852
351.421	0.690002
354.796	1.1432
358.17	1.13078
361.545	0.887756
364.92	0.186584
368.295	1.3026
371.67	0.725174
375.044	2.02151
378.419	2.12338
381.794	1.91609
385.169	3.40778
388.544	3.60969
391.918	3.31491
395.293	4.27379
398.668	5.29784
402.043	4.72856
405.418	8.00403
408.793	7.52377
412.167	5.71654
415.542	8.65936
418.917	7.61202
422.292	10.029
425.667	9.91597
429.041	11.6954
432.416	15.3982
435.791	17.1089
439.166	16.145
442.541	18.8742
445.915	17.6735
449.29	23.9747
452.665	25.8868
456.04	30.348
459.415	31.3664
462.789	26.9981
466.164	26.4302
469.539	28.227
472.914	23.1093
476.289	20.3135
479.664	17.4999
483.038	12.8604
486.413	9.25517
489.788	6.08957
493.163	9.79716
496.538	5.16724
499.913	1.73415
503.287	1.69127
506.662	2.95464
510.037	2.55485
513.412	2.62482
516.787	2.28534
520.161	2.97494
523.536	2.63911
526.911	1.40244
530.286	2.50465
533.661	2.50326
537.035	1.1254
540.41	1.94847
543.785	0.568771
547.16	0.698273
550.535	0.075356
553.909	0.553673
557.284	0.124847
560.659	0.587715
564.034	0.610153
567.409	0.032486
570.784	0.294029
574.158	2.91492
577.533	0.523338
580.908	3.3546
584.283	2.61462
587.658	5.64364
591.033	3.62794
594.407	2.59193
597.782	3.28304
601.157	3.54892
604.532	3.21355
607.907	3.56227
611.281	2.11163
614.656	4.98109
618.031	4.31809
621.406	0.905212
624.781	2.36851
628.155	1.75919
631.53	1.83241
634.905	5.48489
638.28	1.46685
641.655	3.90109
645.029	1.00232
648.404	2.42609
651.779	2.73969
655.154	0.758438
658.529	1.71557
661.904	3.07811
665.278	3.31715
668.653	1.43407
672.028	3.27148
675.403	1.16505
678.778	0.764229
682.153	0.36541
685.527	2.36202
688.902	1.37749
692.277	3.18823
695.652	2.61661
699.027	0.47908
702.401	1.80896
705.776	1.84657
709.151	1.77225
712.526	0.563942
715.901	3.10325
719.275	4.86726
722.65	2.99779
726.025	3.57733
729.4	0.629463
732.775	1.73264
736.149	2.40437
739.524	1.02312
742.899	1.60403
746.274	0.41436
749.649	0.330299
753.024	0.696274
756.398	2.97428
759.773	2.80021
763.148	2.46827
766.523	2.27301
769.898	1.19182
773.273	1.16261
776.647	0.983513
780.022	0.80925
783.397	1.87617
786.772	0.439224
790.146	2.37302
793.521	2.91673
796.896	0.962402
800.271	0.795288
803.646	0.567757
807.021	0.372528
810.395	1.35898
813.77	2.2731
817.145	0.400574
820.52	0.008408
823.895	1.80884
827.269	0.785339
830.644	1.30724
834.019	1.60545
837.394	0.916725
840.769	0.872643
844.144	2.11284
847.518	2.08463
850.893	1.65304
854.268	2.09386
857.643	2.3205
861.018	2.46249
864.393	1.3715
867.767	2.62809
871.142	4.96597
874.517	2.30266
877.892	3.04926
881.266	0.207924
884.641	1.69271
888.016	2.10663
891.391	2.13704
894.766	0.932739
898.141	1.85143
901.515	1.30505
904.89	2.44196
908.265	1.15776
911.64	3.95325
915.015	3.27399
918.389	4.24293
921.764	2.9664
925.139	2.73238
928.514	1.11633
931.889	2.89571
935.264	3.41789
938.638	2.7011
942.013	2.79346
945.388	1.73589
948.763	2.05283
952.138	3.36675
955.512	1.56731
958.887	0.622307
962.262	1.5856
965.637	3.39231
969.012	2.90327
972.386	2.12425
975.761	2.40373
979.136	3.03633
982.511	2.34266
985.886	2.69178
989.261	2.46614
992.635	0.601707
996.01	2.62028
999.385	2.84812
1002.76	2.73245
1006.13	0.697517
1009.51	0.696205
1012.88	1.88854
1016.26	2.10982
1019.63	4.64645
1023.01	1.95043
1026.38	1.47852
1029.76	3.40266
1033.13	2.34468
1036.51	0.998207
1039.88	0.5769
1043.26	3.20924
1046.63	2.79677
1050.01	5.46769
1053.38	1.90334
1056.76	2.62113
1060.13	1.09849
1063.51	4.17373
1066.88	2.43267
1070.26	2.73847
1073.63	1.42159
1077.01	1.00896
1080.38	1.59582
1083.76	2.08458
1087.13	1.45851
1090.51	2.76572
1093.88	4.1732
1097.26	0.015945
1100.63	2.3456
1104	1.67667
1107.38	1.21277
1110.75	2.03428
1114.13	2.15255
1117.5	2.17827
1120.88	1.14335
1124.25	0.116142
1127.63	3.64541
1131	1.37786
1134.38	0.879848
1137.75	0.440426
1141.13	1.55208
1144.5	3.33049
1147.88	1.29156
1151.25	0.646019
1154.63	1.76255
1158	0.122154
1161.38	3.0881
1164.75	4.53915
1168.13	1.06646
1171.5	3.27777
1174.88	3.81017
1178.25	1.01968
1181.62	1.26484
1185	3.41303
1188.38	0.131168
1191.75	3.37763
1195.12	2.29524
1198.5	4.86659
1201.87	3.52452
1205.25	1.65138
1208.62	3.17418
1212	3.22599
1215.37	3.01321
1218.75	2.85938
1222.12	1.69631
1225.5	3.00379
1228.87	3.33832
1232.25	2.6169
1235.62	1.31487
1239	2.72877
1242.37	0.488796
1245.75	2.71981
1249.12	3.80841
1252.5	1.78439
1255.87	1.5535
1259.25	2.8555
1262.62	1.8918
1265.99	2.09729
1269.37	0.970184
1272.74	3.18975
1276.12	1.34497
1279.49	1.10086
1282.87	0.895798
