Measurement: Raman, 780 nm, unoriented, Raman Data Processed
Mineral: Eglestonite
Rruff sample: R060612
Ideal chemistry: Hg^1+^_6_OCl_3_(OH)
Locality: Cahill mine, Poverty Peak District, Humboldt County, Nevada, USA
Source: Michael Scott
Description: Brown fragments
Measured chemistry: Hg^1+^_6.00_OCl_3.00_(OH) ; O,H not measured but estimated by difference and stoichiometry
Raman shift (cm-1)	intensity
97.8274	0
101.202	417.833
104.577	97.6621
107.952	931.502
111.327	3192.89
114.701	6975.94
118.076	12016.7
121.451	17764.7
124.826	25481.5
128.201	36993
131.576	48039.5
134.95	58579.8
138.325	61882.6
141.7	56213.4
145.075	60590.9
148.45	107542
151.825	108510
155.199	132145
158.574	201583
161.949	327273
165.324	683895
168.698	1.11136e+06
172.073	106277
175.448	21207.4
178.823	10916.2
182.198	5750.99
185.573	1919.82
188.947	1131.79
192.322	1331.15
195.697	2246.12
199.072	3821.18
202.447	5618.14
205.821	5733.47
209.196	4101.98
212.571	2452.9
215.946	978.81
219.321	91.7622
222.696	566.836
226.07	632.605
229.445	546.05
232.82	175.873
236.195	126.863
239.57	692.451
242.945	1549.39
246.319	2983.2
249.694	5503.86
253.069	10473.6
256.444	19597.9
259.818	30685.3
263.193	45805.4
266.568	71568.9
269.943	117468
273.318	184559
276.693	192011
280.067	124902
283.442	83672.3
286.817	68282
290.192	60465.9
293.567	49725.1
296.942	34138.3
300.316	21047.4
303.691	13408.8
307.066	8961.06
310.441	6352.97
313.816	4702
317.19	3751.78
320.565	3527.41
323.94	2979.03
327.315	2226.44
330.69	1466.17
334.065	753.614
337.439	248.792
340.814	33.8457
344.189	69.925
347.564	15.906
350.938	210.179
354.313	847.138
357.688	857.249
361.063	17.1428
364.438	102.222
367.813	109.602
371.187	67.5701
374.562	46.4637
377.937	15.905
381.312	64.8701
384.687	119.961
388.062	243.73
391.436	371.064
394.811	570.529
398.186	538.756
401.561	711.24
404.935	735.358
408.31	308.666
411.685	238.092
415.06	225.438
418.435	186.035
421.81	191.883
425.184	84.5305
428.559	11.5183
431.934	60.7639
435.309	160.85
438.684	378.749
442.058	645.362
445.433	1341.1
448.808	2520.54
452.183	4020.53
455.558	5926.58
458.933	9599.8
462.307	16102.6
465.682	20820.7
469.057	13718.4
472.432	6453.46
475.807	3458.17
479.182	2197.93
482.556	1416.62
485.931	967.02
489.306	736.171
492.681	595.267
496.055	462.605
499.43	383.769
502.805	308.578
506.18	251.491
509.555	201.289
512.93	173.773
516.304	106.516
519.679	145.853
523.054	53.0505
526.429	170.887
529.804	38.3029
533.178	14.2081
536.553	46.676
539.928	25.1584
543.303	43.1803
546.678	33.551
550.053	31.1433
553.427	3.55084
556.802	42.8025
560.177	54.0547
563.552	50.8725
566.927	6.50482
570.302	21.0171
573.676	14.4929
577.051	84.6512
580.426	53.2182
583.801	71.433
587.176	88.4421
590.55	65.6603
593.925	101.159
597.3	66.3505
600.675	72.2208
604.05	75.9101
607.424	109.611
610.799	95.1134
614.174	58.8537
617.549	80.5666
620.924	61.7686
624.298	54.5604
627.673	42.6953
631.048	55.491
634.423	31.7046
637.798	8.40607
641.173	78.4571
644.547	55.0554
647.922	33.0953
651.297	2.07471
654.672	86.5602
658.047	39.9257
661.421	52.759
664.796	44.4139
668.171	65.4465
671.546	16.4198
674.921	6.51013
678.295	36.0982
681.67	60.7524
685.045	43.9971
688.42	79.4726
691.795	121.741
695.17	216.814
698.544	222.805
701.919	194.95
705.294	113.703
708.669	62.2085
712.044	73.6614
715.418	1.26526
718.793	36.2739
722.168	51.5156
725.543	37.455
728.918	27.0871
732.293	26.9902
735.667	57.5071
739.042	56.5593
742.417	55.8319
745.792	50.3762
749.167	44.8221
752.541	24.7311
755.916	32.5336
759.291	0.040649
762.666	42.0376
766.041	63.1122
769.415	58.6246
772.79	88.348
776.165	95.7624
779.54	100.02
782.915	22.7273
786.29	45.1397
789.664	114.307
793.039	115.638
796.414	133.541
799.789	187.812
803.164	243.664
806.538	330.549
809.913	268.017
813.288	164.101
816.663	66.7482
820.038	94.9959
823.413	41.0001
826.787	72.5665
830.162	37.7604
833.537	74.5834
836.912	63.0654
840.287	40.0016
843.661	59.2472
847.036	83.1505
850.411	67.3334
853.786	58.3871
857.161	21.1748
860.535	59.215
863.91	54.8011
867.285	63.9808
870.66	9.39008
874.035	62.0832
877.409	53.4288
880.784	43.4405
884.159	18.4048
887.534	45.5298
890.909	81.327
894.284	76.7983
897.658	7.47601
901.033	70.0581
904.408	28.4121
907.783	3.42651
911.158	11.9367
914.533	34.4
917.907	79.5728
921.282	14.1653
924.657	68.2891
928.032	36.7278
931.407	40.9391
934.781	39.6904
938.156	31.5289
941.531	58.4506
944.906	34.6074
948.281	48.3809
951.655	29.2838
955.03	52.5752
958.405	31.0481
961.78	80.1448
965.155	15.6247
968.529	10.0664
971.904	5.7691
975.279	34.0848
978.654	14.6812
982.029	95.0885
985.404	88.3075
988.778	146.879
992.153	57.0453
995.528	48.039
998.903	47.9586
1002.28	65.5824
1005.65	51.4241
1009.03	0.073517
1012.4	5.91855
1015.78	40.3054
1019.15	65.2237
1022.53	35.6948
1025.9	19.5523
1029.28	19.0465
1032.65	43.0028
1036.03	42.4841
1039.4	68.9692
1042.78	16.3061
1046.15	68.2639
1049.53	13.3987
1052.9	33.5313
1056.28	69.7454
1059.65	9.54364
1063.02	87.5441
1066.4	107.773
1069.77	93.1733
1073.15	132.699
1076.52	105.334
1079.9	87.3887
1083.27	134.089
1086.65	123.095
1090.02	95.089
1093.4	87.0318
1096.77	42.6712
1100.15	37.6546
1103.52	49.2259
1106.9	14.2006
1110.27	38.2681
1113.65	26.9326
1117.02	24.0899
1120.4	15.8963
1123.77	44.5
1127.15	39.6294
1130.52	18.5592
1133.9	17.1594
1137.27	7.68506
1140.64	60.9949
1144.02	108.725
1147.39	105.878
1150.77	127.126
1154.14	136.522
1157.52	224.508
1160.89	364.507
1164.27	233.132
1167.64	130.899
1171.02	77.2567
1174.39	38.2259
1177.77	37.0251
1181.14	85.3945
1184.52	29.8691
1187.89	27.9957
1191.27	60.6335
1194.64	37.8284
1198.02	47.5214
1201.39	34.6344
1204.77	7.86414
1208.14	47.9661
1211.52	38.8587
1214.89	36.5946
1218.27	86.8073
1221.64	86.816
1225.02	72.8052
1228.39	134.572
1231.77	117.117
1235.14	99.2689
1238.52	88.5125
1241.89	67.2302
1245.26	74.7598
1248.64	8.37598
1252.01	35.9091
1255.39	45.5218
1258.76	51.2955
1262.14	30.1578
1265.51	71.1836
1268.89	45.2849
1272.26	43.277
1275.64	52.916
1279.01	28.1558
1282.39	31.1501
