Measurement: Raman, 780 nm, unoriented, Raman Data Processed
Mineral: Eirikite
Rruff sample: R120006
Ideal chemistry: KNa_6_Be_2_(Si_15_Al_3_)O_39_F_2_
Locality: Poudrette quarry, Mont Saint-Hilaire, Rouville RCM, Montérégie, Québec, Canada
Source: Donald Doell
Description: Aggregate of parallel colorless acicular crystals
Raman shift (cm-1)	intensity
112.817	0
116.192	8.88135
119.566	13.0229
122.941	51.2344
126.316	17.0215
129.691	17.1055
133.066	3.1665
136.44	0.375488
139.815	15.8677
143.19	13.8242
146.565	28.4819
149.94	23.6304
153.315	28.5918
156.689	40.9971
160.064	54.0303
163.439	59.6963
166.814	49.1426
170.189	38.4185
173.563	28.647
176.938	49.9126
180.313	42.6426
183.688	39.4956
187.063	26.356
190.437	12.9033
193.812	19.8608
197.187	32.9116
200.562	44.8706
203.937	40.5703
207.311	49.4199
210.686	36.2647
214.061	57.2978
217.436	73.0308
220.811	62.0869
224.186	22.3511
227.56	6.86426
230.935	3.13184
234.31	0.910645
237.685	16.2183
241.06	8.3706
244.435	12.522
247.809	24.3242
251.184	20.79
254.559	27.394
257.934	15.3145
261.309	30.2632
264.683	23.8447
268.058	23.2871
271.433	30.1157
274.808	34.1167
278.183	41.8867
281.558	56.7105
284.932	58.186
288.307	71.7271
291.682	63.4893
295.057	50.5493
298.432	51.3765
301.806	29.7656
305.181	23.2505
308.556	20.1216
311.931	6.45117
315.306	9.43604
318.68	0.150391
322.055	8.84375
325.43	4.63818
328.805	6.44092
332.18	0.473145
335.555	3.68799
338.929	10.6475
342.304	0.726074
345.679	5.76807
349.054	27.8784
352.429	4.30908
355.803	1.47607
359.178	4.36231
362.553	7.54492
365.928	28.5781
369.303	64.4136
372.678	83.6797
376.052	119.161
379.427	161.859
382.802	175.65
386.177	112.637
389.552	68.4912
392.926	50.9263
396.301	53.3852
399.676	38.0942
403.051	21.3408
406.426	32.5327
409.8	26.7515
413.175	45.168
416.55	77.4053
419.925	64.6304
423.3	55.6548
426.675	28.5347
430.049	7.35644
433.424	5.43384
436.799	3.9563
440.174	6.18579
443.549	18.7778
446.923	21.4944
450.298	19.7139
453.673	22.6445
457.048	40.3877
460.423	68.0405
463.798	82.4675
467.172	113.607
470.547	147.701
473.922	120.519
477.297	62.5503
480.672	56.9148
484.046	90.7278
487.421	137.663
490.796	193.296
494.171	294.857
497.546	463.928
500.921	693.069
504.295	627.723
507.67	279.851
511.045	131.675
514.42	88.374
517.795	56.9092
521.169	45.427
524.544	35.7739
527.919	50.4465
531.294	58.3127
534.669	38.9285
538.044	24.1943
541.418	10.3291
544.793	4.01416
548.168	3.13867
551.543	2.36499
554.918	0.930664
558.293	7.4939
561.667	10.437
565.042	1.4917
568.417	6.58814
571.792	2.91504
575.167	7.52564
578.541	6.94287
581.916	17.8284
585.291	23.9138
588.666	11.4238
592.041	13.2278
595.415	3.97583
598.79	12.4019
602.165	21.1824
605.54	19.8938
608.915	6.07715
612.29	8.02002
615.664	9.55102
619.039	1.78882
622.414	8.98169
625.789	7.56299
629.164	17.8174
632.538	8.97363
635.913	16.2222
639.288	3.8606
642.663	13.5366
646.038	7.75561
649.413	11.7961
652.787	10.5749
656.162	0.039063
659.537	4.71973
662.912	0.344727
666.287	2.35596
669.661	4.44629
673.036	4.96509
676.411	9.17334
679.786	13.4458
683.161	7.3396
686.535	5.93481
689.91	18.178
693.285	16.8977
696.66	20.637
700.035	38.3289
703.41	51.9438
706.784	49.4653
710.159	35.948
713.534	17.178
716.909	10.4707
720.284	18.2158
723.659	10.6362
727.033	14.5642
730.408	20.6174
733.783	15.9434
737.158	10.4209
740.533	7.26318
743.907	6.49072
747.282	11.0789
750.657	12.343
754.032	0.122559
757.407	3.52124
760.782	2.76758
764.156	1.69629
767.531	10.2029
770.906	2.11401
774.281	2.77685
777.656	18.8691
781.03	10.0193
784.405	5.75122
787.78	1.24756
791.155	23.4751
794.53	26.25
797.904	6.32178
801.279	12.919
804.654	1.10571
808.029	11.4424
811.404	14.2822
814.779	8.24512
818.153	23.0059
821.528	28.6941
824.903	14.4959
828.278	24.2227
831.653	20.0828
835.028	27.4631
838.402	30.5298
841.777	19.0122
845.152	21.585
848.527	14.5938
851.902	15.1475
855.276	17.1804
858.651	19.9043
862.026	7.58398
865.401	20.1692
868.776	17.0046
872.15	17.0576
875.525	17.1628
878.9	18.5564
882.275	10.7585
885.65	25.4324
889.024	2.92114
892.399	9.64893
895.774	0.928955
899.149	3.57471
902.524	6.02564
905.899	3.19507
909.273	6.93848
912.648	4.15674
916.023	3.25147
919.398	11.9839
922.773	0.323486
926.148	1.15478
929.522	3.4292
932.897	14.4717
936.272	14.3137
939.647	2.48584
943.022	1.25415
946.396	0.168457
949.771	10.5508
953.146	13.3896
956.521	4.33374
959.896	16.7996
963.27	12.4163
966.645	16.8123
970.02	8.38477
973.395	0.076416
976.77	1.40723
980.145	1.10474
983.519	9.49927
986.894	4.83496
990.269	5.35742
993.644	9.53906
997.019	1.71777
1000.39	8.49048
1003.77	13.0166
1007.14	14.6589
1010.52	22.8237
1013.89	34.5762
1017.27	37.6702
1020.64	27.6543
1024.02	22.3191
1027.39	33.5298
1030.77	61.0925
1034.14	30.7354
1037.52	29.6419
1040.89	14.7815
1044.27	13.5906
1047.64	13.2961
1051.02	10.2781
1054.39	15.249
1057.77	20.9307
1061.14	16.7248
1064.52	15.2908
1067.89	6.896
1071.27	13.5373
1074.64	9.35547
1078.01	1.58545
1081.39	6.32861
1084.76	4.06177
1088.14	15.2368
1091.51	10.1531
1094.89	25.4268
1098.26	7.94214
1101.64	2.13159
1105.01	2.09937
1108.39	14.6777
1111.76	7.31543
1115.14	1.45117
1118.51	19.3787
1121.89	43.7546
1125.26	78.386
1128.64	101.524
1132.01	57.696
1135.39	43.1411
1138.76	24.4126
1142.14	18.428
1145.51	9.33618
1148.88	4.32861
1152.26	2.1311
1155.63	3.4895
1159.01	1.85644
1162.38	8.03247
1165.76	0.32251
1169.13	5.27441
1172.51	3.02466
1175.88	1.03491
1179.26	11.4731
1182.63	7.17334
1186.01	7.61743
1189.38	6.24121
1192.76	10.7305
1196.13	12.3379
1199.51	6.8103
1202.88	9.1731
1206.26	13.0373
1209.63	7.64258
1213.01	11.5535
1216.38	9.08545
1219.76	7.09399
1223.13	5.73144
1226.51	16.9595
1229.88	7.86157
1233.26	4.20654
1236.63	12.311
1240.01	2.03931
1243.38	4.31787
1246.76	0.769531
1250.13	5.13159
1253.51	12.1736
1256.88	11.0234
1260.25	11.967
1263.63	13.1148
1267	7.17944
1270.38	4.34644
1273.75	5.60107
1277.13	3.02637
1280.5	0.009033
1283.88	6.57861
