Measurement: Raman, 532 nm, unoriented, Raman Data Processed
Mineral: Eirikite
Rruff sample: R120006
Ideal chemistry: KNa_6_Be_2_(Si_15_Al_3_)O_39_F_2_
Locality: Poudrette quarry, Mont Saint-Hilaire, Rouville RCM, Montérégie, Québec, Canada
Source: Donald Doell
Description: Aggregate of parallel colorless acicular crystals
Raman shift (cm-1)	intensity
199.933	0
202.825	5.9856
205.718	25.1836
208.611	38.9585
211.504	41.1948
214.396	40.1685
217.289	60.7602
220.182	69.0361
223.074	71.3081
225.967	66.8396
228.86	72.718
231.752	78.3359
234.645	84.1943
237.538	86.9331
240.43	92.9497
243.323	102.092
246.216	109.94
249.109	116.532
252.001	123.326
254.894	127.799
257.787	121.207
260.679	98.2605
263.572	89.9153
266.465	76.6069
269.358	78.1318
272.25	84.7253
275.143	93.2285
278.036	89.9343
280.928	83.1531
283.821	66.3506
286.714	67.4253
289.606	61.689
292.499	62.9109
295.392	63.9182
298.284	74.1133
301.177	55.8687
304.07	55.8389
306.963	46.0981
309.855	44.804
312.748	38.0496
315.641	21.844
318.533	11.7368
321.426	0.961914
324.319	4.90064
327.212	4.24756
330.104	6.8916
332.997	4.97095
335.89	1.71045
338.782	5.28686
341.675	4.82471
344.568	1.81445
347.46	1.36304
350.353	12.9314
353.246	24.1186
356.139	23.5068
359.031	19.0523
361.924	25.3711
364.817	47.5903
367.709	79.2122
370.602	112.793
373.495	155.648
376.387	224.316
379.28	298.259
382.173	335.371
385.065	253.728
387.958	164.499
390.851	115.383
393.744	87.804
396.636	71.469
399.529	60.3254
402.422	41.9753
405.314	53.8875
408.207	67.6689
411.1	102.882
413.993	133.31
416.885	153.952
419.778	131.163
422.671	118.094
425.563	98.6816
428.456	35.2246
431.349	7.22583
434.241	2.52978
437.134	9.79883
440.027	5.77246
442.92	13.9187
445.812	23.8845
448.705	22.3733
451.598	20.9936
454.49	23.0786
457.383	56.2004
460.276	92.9204
463.168	121.715
466.061	160.513
468.954	215.038
471.846	237.622
474.739	153.11
477.632	76.9346
480.525	64.7849
483.417	106.383
486.31	179.782
489.203	310.356
492.095	452.419
494.988	653.081
497.881	986.876
500.774	1337.48
503.666	1358.44
506.559	796.206
509.452	366.568
512.344	185.717
515.237	115.513
518.13	73.5713
521.022	57.9529
523.915	56.644
526.808	66.3557
529.701	58.9085
532.593	55.1204
535.486	35.7739
538.379	16.9778
541.271	7.52881
544.164	2.22778
547.057	10.8677
549.949	7.68384
552.842	8.41089
555.735	7.41894
558.628	3.38623
561.52	0.900879
564.413	1.43848
567.306	7.36475
570.198	1.45508
573.091	0.748291
575.984	5.59961
578.876	13.6958
581.769	25.8923
584.662	24.9556
587.554	30.5051
590.447	21.3879
593.34	17.2273
596.232	17.5967
599.125	12.1775
602.018	1.80566
604.911	2.05884
607.803	8.76196
610.696	13.9062
613.589	8.34351
616.481	5.71777
619.374	11.3914
622.267	8.40308
625.159	0.899658
628.052	7.81519
630.945	4.20386
633.838	14.2234
636.73	9.69946
639.623	11.0562
642.516	11.6279
645.408	16.7436
648.301	12.6755
651.194	10.2134
654.087	21.1243
656.979	28.023
659.872	25.2649
662.765	23.2527
665.657	21.2517
668.55	21.5542
671.443	14.8508
674.335	12.5698
677.228	14.5435
680.121	20.9748
683.014	31.7686
685.906	31.6575
688.799	41.4688
691.692	43.53
694.584	58.8557
697.477	77.4075
700.37	86.3394
703.263	94.2583
706.155	83.4814
709.048	67.7288
711.941	51.1792
714.833	24.0102
717.726	8.55371
720.619	4.89624
723.511	15.2949
726.404	23.2092
729.297	35.8525
732.189	28.25
735.082	17.9519
737.975	10.5447
740.868	0.496338
743.76	2.11279
746.653	2.74585
749.546	2.6106
752.438	12.7764
755.331	15.7422
758.224	20.4666
761.116	12.3396
764.009	13.8543
766.902	12.1765
769.795	18.761
772.687	19.4031
775.58	20.6746
778.473	20.2248
781.365	24.5715
784.258	18.5205
787.151	15.3848
790.043	13.3457
792.936	15.5115
795.829	14.0259
798.722	4.29858
801.614	3.11646
804.507	1.54077
807.4	3.59253
810.292	7.73926
813.185	10.8628
816.078	17.147
818.971	16.9868
821.863	31.6787
824.756	12.3286
827.649	16.5293
830.541	15.7446
833.434	27.239
836.327	24.2212
839.219	17.1143
842.112	16.0215
845.005	19.0561
847.898	14.9119
850.79	11.3748
853.683	18.0679
856.576	22.2319
859.468	15.9756
862.361	17.8203
865.254	8.57812
868.146	0.405762
871.039	13.3804
873.932	14.1543
876.824	18.6279
879.717	7.96387
882.61	5.50879
885.503	12.2974
888.395	23.9922
891.288	18.9028
894.181	13.7285
897.073	4.93213
899.966	0.995605
902.859	0.542969
905.751	11.2827
908.644	21.3169
911.537	17.4585
914.43	13.4453
917.322	14.2529
920.215	14.6396
923.108	11.8286
926	14.3667
928.893	16.8374
931.786	12.04
934.678	8.4956
937.571	6.72217
940.464	8.25146
943.357	19.7344
946.249	26.856
949.142	5.52441
952.035	13.7739
954.927	14.7114
957.82	10.8789
960.713	14.3877
963.606	21.3179
966.498	39.7485
969.391	28.2656
972.284	9.04395
975.176	3.37305
978.069	4.49756
980.962	9.15625
983.854	0.936035
986.747	5.50195
989.64	10.0884
992.533	15.6885
995.425	14.7573
998.318	4.29053
1001.21	2.94629
1004.1	2.64551
1007	22.6743
1009.89	33.23
1012.78	39.7324
1015.67	34.2388
1018.57	23.6826
1021.46	36.0591
1024.35	38.353
1027.24	44.5483
1030.14	55.6397
1033.03	55.0781
1035.92	55.4976
1038.82	28.6758
1041.71	9.9917
1044.6	12.8984
1047.49	5.87891
1050.39	16.9253
1053.28	26.9038
1056.17	26.8706
1059.07	26.4502
1061.96	17.2202
1064.85	14.5361
1067.74	2.64356
1070.63	8.72119
1073.53	1.11865
1076.42	7.86719
1079.31	2.22754
1082.21	1.73731
1085.1	6.02295
1087.99	5.49902
1090.88	6.39551
1093.78	16.9492
1096.67	8.84326
1099.56	20.4263
1102.45	14.3784
1105.35	6.0918
1108.24	13.7217
1111.13	30.8755
1114.03	40.1807
1116.92	61.2808
1119.81	96.5078
1122.7	146.774
1125.6	222.373
1128.49	267.18
1131.38	191.112
1134.28	135.95
1137.17	93.7022
1140.06	74.6773
1142.95	40.0537
1145.85	23.1626
1148.74	21.0474
1151.63	13.5142
1154.52	15.7256
1157.42	5.34424
1160.31	3.53467
1163.2	7.77686
1166.09	7.91943
1168.99	1.29346
1171.88	6.3584
1174.77	12.1416
1177.66	13.1294
1180.56	9.85156
1183.45	10.4898
1186.34	15.5527
1189.24	17.9331
1192.13	7.20947
1195.02	10.5464
1197.91	19.4092
1200.81	16.2866
1203.7	24.1768
1206.59	26.1724
1209.48	31.9209
1212.38	35.8726
1215.27	23.625
1218.16	12.2676
1221.06	12.7876
1223.95	22.0264
1226.84	21.9448
1229.73	12.5693
1232.63	6.94141
1235.52	3.38086
1238.41	7.62158
1241.31	7.62695
1244.2	18.0747
1247.09	13.4473
1249.98	6.9917
1252.88	15.3203
1255.77	17.0308
1258.66	27.8564
1261.55	19.0561
1264.45	30.103
1267.34	12.9346
1270.23	23.2773
1273.12	5.37744
1276.02	22.7021
1278.91	20.9082
1281.8	5.56055
1284.69	7.44824
1287.59	7.76758
1290.48	11.2075
1293.37	10.937
1296.27	10.127
1299.16	14.6196
1302.05	9.2998
