Measurement: Raman, 780 nm, unoriented, Raman Data Processed
Mineral: Eitelite
Rruff sample: R110214
Ideal chemistry: Na_2_Mg(CO_3_)_2_
Locality: Westvaco mine, Green River, Sweetwater County, Wyoming, USA
Source: Gunnar Farber
Description: Dirty yellow-brown platy and massive
Measured chemistry: Na_2_(Mg_0.97_Ca_0.02_Fe_0.01_)_Î£=1.00_(CO_3_)_2_
Raman shift (cm-1)	intensity
107.031	0
110.406	57.418
113.781	175.004
117.156	337.617
120.531	217.453
123.905	62.3477
127.28	35.7695
130.655	3.05469
134.03	15.8164
137.405	26.5
140.779	57.9609
144.154	101.207
147.529	143.418
150.904	220.09
154.279	214.293
157.654	283.269
161.028	303.34
164.403	322.777
167.778	310.902
171.153	269.848
174.528	291.926
177.902	334.18
181.277	281.356
184.652	324.957
188.027	366.805
191.402	485.891
194.776	584.609
198.151	690.68
201.526	796.824
204.901	1028.17
208.276	1098.43
211.651	645.004
215.025	404.231
218.4	282.16
221.775	239.691
225.15	171.934
228.525	127.066
231.899	117.246
235.274	168.234
238.649	147.547
242.024	96.6211
245.399	152.481
248.774	295.879
252.148	278.516
255.523	341.008
258.898	477.609
262.273	508.555
265.648	385.66
269.022	268.398
272.397	131.484
275.772	107.844
279.147	138.453
282.522	168.508
285.897	141.617
289.271	181.992
292.646	211.582
296.021	244.231
299.396	279.723
302.771	247.414
306.145	209.043
309.52	168.738
312.895	97.082
316.27	110.273
319.645	27.8242
323.019	8.62891
326.394	50.8516
329.769	27.8945
333.144	38.9414
336.519	23.6289
339.894	55.1953
343.268	82.6602
346.643	99.2812
350.018	107.012
353.393	139.043
356.768	160.129
360.142	129.144
363.517	138.652
366.892	126.586
370.267	231.18
373.642	148.672
377.017	152.699
380.391	89.0078
383.766	77.9297
387.141	104.016
390.516	87.8633
393.891	50.3359
397.265	37.7266
400.64	26.2695
404.015	11.6367
407.39	39.4961
410.765	48.1094
414.14	42.9141
417.514	57.168
420.889	85.3086
424.264	103.949
427.639	54.6406
431.014	109.434
434.389	79.293
437.763	121.566
441.138	69.5625
444.513	135.332
447.888	127.531
451.263	132.481
454.637	135.121
458.012	169.707
461.387	192.996
464.762	156.383
468.137	184.348
471.512	172.277
474.886	202.164
478.261	156.094
481.636	134.691
485.011	103.805
488.386	117.293
491.76	130.727
495.135	138.75
498.51	125.551
501.885	108.353
505.26	110.076
508.635	136.848
512.009	121.787
515.384	136.914
518.759	50.5684
522.134	37.377
525.509	21.9102
528.883	15.5625
532.258	29.2129
535.633	51.541
539.008	2.91016
542.383	4.57227
545.757	14.6211
549.132	7.36914
552.507	14.1816
555.882	9.25391
559.257	62.0742
562.631	58.5762
566.006	29.3008
569.381	67.4727
572.756	15.707
576.131	24.2051
579.506	3.51562
582.88	55.4629
586.255	110.799
589.63	67.3672
593.005	96.0684
596.38	99.5625
599.755	57.2246
603.129	73.0098
606.504	58.5
609.879	42.8789
613.254	61.8887
616.629	65.416
620.003	56.8477
623.378	71.1348
626.753	104.795
630.128	144.982
633.503	110.783
636.878	69.1289
640.252	87.5801
643.627	107.676
647.002	79.4746
650.377	104.334
653.752	55.6855
657.126	54.6582
660.501	40.918
663.876	7.67773
667.251	35.1426
670.626	7.32227
674	6.64453
677.375	39.0234
680.75	50.8516
684.125	68.4238
687.5	114.076
690.875	115.877
694.249	231.684
697.624	317.883
700.999	437.09
704.374	645.588
707.749	965.064
711.124	898.438
714.498	547.902
717.873	318.065
721.248	219.246
724.623	213.863
727.998	221.537
731.372	268.393
734.747	153.787
738.122	99.0996
741.497	36.7383
744.872	58.1406
748.246	47.7539
751.621	58.9043
754.996	13.0195
758.371	27.8281
761.746	24.5352
765.12	21.4141
768.495	24.7891
771.87	9.62891
775.245	8.02734
778.62	27.5508
781.995	16.9023
785.369	39.5293
788.744	33.1934
792.119	70.8848
795.494	153.986
798.869	82.2871
802.244	50.3789
805.618	90.0723
808.993	108.166
812.368	98.6934
815.743	109.062
819.118	129.158
822.492	124.998
825.867	90.7188
829.242	84.6816
832.617	128.9
835.992	135.807
839.366	130.164
842.741	79.7285
846.116	59.832
849.491	119.4
852.866	72.7539
856.241	88.3672
859.615	101.57
862.99	104.111
866.365	80.0625
869.74	44.9004
873.115	94.4238
876.49	59.752
879.864	43.4746
883.239	38.0605
886.614	97.1797
889.989	38.4863
893.364	46.8555
896.738	8.14844
900.113	6.9668
903.488	7.41797
906.863	38.2227
910.238	5.51172
913.612	50.5781
916.987	7.20117
920.362	23.1309
923.737	40.1523
927.112	6.89453
930.487	67.4062
933.861	62.2363
937.236	57.1152
940.611	33.0723
943.986	36.9668
947.361	31.834
950.736	50.4336
954.11	101.225
957.485	75.8828
960.86	101.594
964.235	44.0156
967.61	48.8594
970.984	26.5645
974.359	15.748
977.734	8.57617
981.109	10.3223
984.484	15.6191
987.859	16.5703
991.233	25.1387
994.608	45.3887
997.983	32.8457
1001.36	29.0898
1004.73	0.019531
1008.11	8.33398
1011.48	37.5684
1014.86	38.25
1018.23	51.7324
1021.61	49.875
1024.98	33.4297
1028.36	34.7441
1031.73	73.6523
1035.11	69.5938
1038.48	91.2344
1041.86	54.6953
1045.23	33.3711
1048.61	10.543
1051.98	41.2148
1055.36	66.1465
1058.73	51.1699
1062.1	72.4297
1065.48	98.334
1068.85	128.353
1072.23	149.223
1075.6	225.369
1078.98	265.57
1082.35	360.607
1085.73	555.469
1089.1	988.285
1092.48	2004.46
1095.85	3698.95
1099.23	5918.99
1102.6	11169.5
1105.98	13875.3
1109.35	3310.61
1112.73	834.973
1116.1	283.996
1119.48	98.2422
1122.85	52.7812
1126.23	13.6309
1129.6	21.7227
1132.98	2.40039
1136.35	2.22266
1139.72	0.169922
1143.1	14.7539
1146.47	16.2207
1149.85	22.5547
1153.22	13.6758
1156.6	50.1094
1159.97	29.0566
1163.35	79.4727
1166.72	69.6797
1170.1	115.201
1173.47	128.279
1176.85	87.2129
1180.22	145.635
1183.6	84.5059
1186.97	98.1973
1190.35	126.748
1193.72	131.182
1197.1	135.945
1200.47	64.2188
1203.85	64.2051
1207.22	55.4551
1210.6	55.9609
1213.97	37.8281
1217.35	62.1758
1220.72	10.998
1224.1	7.36523
1227.47	6.68555
1230.85	29.0352
1234.22	86.2871
1237.6	35.3945
1240.97	6.88672
1244.34	44.7285
1247.72	95.084
1251.09	49.0469
1254.47	11.0547
1257.84	17.957
1261.22	58.4141
1264.59	46.9082
1267.97	37.4238
1271.34	21.8398
1274.72	0.148438
1278.09	75.8301
1281.47	20.5742
1284.84	26.4707
