Measurement: Raman, 532 nm, unoriented, Raman Data Processed
Mineral: Eitelite
Rruff sample: R110214
Ideal chemistry: Na_2_Mg(CO_3_)_2_
Locality: Westvaco mine, Green River, Sweetwater County, Wyoming, USA
Source: Gunnar Farber
Description: Dirty yellow-brown platy and massive
Measured chemistry: Na_2_(Mg_0.97_Ca_0.02_Fe_0.01_)_Î£=1.00_(CO_3_)_2_
Raman shift (cm-1)	intensity
202.825	0
205.718	694.352
208.611	1016.41
211.504	535.781
214.396	97.0859
217.289	125.367
220.182	462.477
223.074	918.547
225.967	1100.13
228.86	1438.57
231.752	1503.29
234.645	1682.54
237.538	1529.15
240.43	1402.82
243.323	1405.54
246.216	1512.29
249.109	1740.12
252.001	1771.56
254.894	1967.23
257.787	2133.59
260.679	2317.72
263.572	2175.91
266.465	1737.27
269.358	1544.91
272.25	1443.49
275.143	1552.06
278.036	1437.94
280.928	1258.86
283.821	721.461
286.714	374.211
289.606	352.664
292.499	523.523
295.392	595.195
298.284	770.312
301.177	711.875
304.07	939.992
306.963	783.57
309.855	674.148
312.748	478.242
315.641	338.156
318.533	363.906
321.426	163.93
324.319	41.5547
327.212	29.1875
330.104	151.32
332.997	59.5703
335.89	270.727
338.782	334.312
341.675	149.094
344.568	12.9141
347.46	81.8672
350.353	43.0156
353.246	240.945
356.139	586.789
359.031	436.961
361.924	337.25
364.817	329.562
367.709	616.492
370.602	625.781
373.495	706.672
376.387	554.531
379.28	431.617
382.173	419.195
385.065	572.742
387.958	492.352
390.851	298.914
393.744	158.297
396.636	123.859
399.529	278.398
402.422	299.469
405.314	342.141
408.207	337.781
411.1	386.406
413.993	533.484
416.885	360.422
419.778	24.2812
422.671	3.39844
425.563	61.2812
428.456	254.328
431.349	311.312
434.241	184.328
437.134	30.6406
440.027	32.0469
442.92	246.875
445.812	195.867
448.705	329.758
451.598	226.297
454.49	36.8359
457.383	196.352
460.276	375.117
463.168	344
466.061	107.82
468.954	105.547
471.846	61.7812
474.739	181.992
477.632	123.938
480.525	136.789
483.417	121.672
486.31	266.008
489.203	157.602
492.095	252.023
494.988	488.266
497.881	582.164
500.774	533.898
503.666	186.18
506.559	198.266
509.452	195.93
512.344	283.523
515.237	325.516
518.13	16.0625
521.022	54.0547
523.915	348.773
526.808	561.422
529.701	350.508
532.593	246.172
535.486	189.805
538.379	128.328
541.271	260.602
544.164	261.555
547.057	293.539
549.949	450.375
552.842	451.156
555.735	352.188
558.628	317.25
561.52	242.648
564.413	154.586
567.306	164.094
570.198	79.8047
573.091	10.0938
575.984	210.766
578.876	351.781
581.769	593.5
584.662	351.953
587.554	639.555
590.447	572.984
593.34	614.047
596.232	412.781
599.125	348.898
602.018	168.602
604.911	151.461
607.803	284.992
610.696	296.625
613.589	236.727
616.481	140.945
619.374	221.039
622.267	67.8672
625.159	75.4688
628.052	194.188
630.945	29.1484
633.838	97.875
636.73	168.953
639.623	181.883
642.516	68.6953
645.408	172.609
648.301	160.641
651.194	211.406
654.087	405.422
656.979	337.117
659.872	444.711
662.765	327.828
665.657	270.828
668.55	184.141
671.443	209.672
674.335	333.828
677.228	390.617
680.121	518.797
683.014	753.617
685.906	697.789
688.799	813.805
691.692	948.93
694.584	1056.66
697.477	1422.62
700.37	1459.81
703.263	1585.2
706.155	2153.45
709.048	2813.59
711.941	2672.1
714.833	1659.93
717.726	880.43
720.619	564.891
723.511	764.578
726.404	996.844
729.297	1340.75
732.189	1083.73
735.082	732.32
737.975	385.93
740.868	296.227
743.76	50.5391
746.653	26
749.546	90.1562
752.438	518.289
755.331	587.102
758.224	599.672
761.116	404.023
764.009	369.805
766.902	278.164
769.795	279.586
772.687	338.656
775.58	301.07
778.473	196.594
781.365	324.984
784.258	291.875
787.151	166.398
790.043	105.5
792.936	240.125
795.829	354.078
798.722	54.1172
801.614	52.3359
804.507	99.8906
807.4	190.07
810.292	195.961
813.185	160.008
816.078	394.93
818.971	522.023
821.863	733.906
824.756	270.586
827.649	134.148
830.541	153.266
833.434	171.305
836.327	113.781
839.219	0.90625
842.112	126.555
845.005	197.062
847.898	106.727
850.79	20.375
853.683	122.094
856.576	364.836
859.468	338.008
862.361	403.773
865.254	142.57
868.146	48.3984
871.039	177.484
873.932	373.781
876.824	300.898
879.717	16.8984
882.61	32.8359
885.503	252.297
888.395	564.062
891.288	480.906
894.181	396.32
897.073	168.297
899.966	210.516
902.859	274.742
905.751	395.758
908.644	489.461
911.537	424.5
914.43	542.422
917.322	530.672
920.215	517.781
923.108	332.711
926	432.242
928.893	484.602
931.786	314.484
934.678	128.211
937.571	19.7422
940.464	165.508
943.357	338.172
946.249	446.367
949.142	223.75
952.035	287.711
954.927	269.906
957.82	122.508
960.713	90.5547
963.606	73.0156
966.498	389.977
969.391	447.188
972.284	63.6328
975.176	68.3828
978.069	169.469
980.962	410.43
983.854	107.273
986.747	101.703
989.64	293.297
992.533	422.961
995.425	332.336
998.318	3.3125
1001.21	108.984
1004.1	20.7422
1007	178.797
1009.89	221.422
1012.78	30.6016
1015.67	44.6797
1018.57	59
1021.46	356.266
1024.35	246.109
1027.24	59.2734
1030.14	180.789
1033.03	216.828
1035.92	671.297
1038.82	374.695
1041.71	166.594
1044.6	71.0703
1047.49	132.148
1050.39	349.969
1053.28	643.961
1056.17	544.109
1059.07	574.734
1061.96	497.812
1064.85	692.672
1067.74	600.812
1070.63	660.844
1073.53	496.094
1076.42	574.555
1079.31	683.164
1082.21	774.172
1085.1	1225.97
1087.99	1595.84
1090.88	2848.84
1093.78	5544.48
1096.67	10448.2
1099.56	16858.7
1102.45	29915.6
1105.35	46942.1
1108.24	22509.8
1111.13	6421.34
1114.03	2675.62
1116.92	1337.15
1119.81	1016.92
1122.7	772.727
1125.6	355.766
1128.49	146.703
1131.38	183.742
1134.28	44.0859
1137.17	304.922
1140.06	353.305
1142.95	272.336
1145.85	191.375
1148.74	59.6484
1151.63	242.891
1154.52	184.023
1157.42	2.65625
1160.31	14.6797
1163.2	196.086
1166.09	195.188
1168.99	94.8438
1171.88	192.758
1174.77	296.461
1177.66	350.977
1180.56	192.461
1183.45	439.93
1186.34	616.438
1189.24	527.484
1192.13	493.633
1195.02	363.086
1197.91	434.273
1200.81	487.078
1203.7	407.312
1206.59	872.359
1209.48	898.516
1212.38	960.914
1215.27	679.742
1218.16	312.359
1221.06	328.352
1223.95	484.234
1226.84	604.617
1229.73	291.219
1232.63	171.938
1235.52	144.766
1238.41	113.914
1241.31	164.664
1244.2	396.812
1247.09	314.32
1249.98	145.039
1252.88	300.867
1255.77	357.18
1258.66	554.391
1261.55	451.578
1264.45	581.234
1267.34	360.523
1270.23	506.57
1273.12	216.445
1276.02	421.969
1278.91	235.172
1281.8	171.555
1284.69	75.7578
1287.59	171.438
1290.48	204.117
1293.37	262.438
1296.27	299.156
1299.16	544.891
1302.05	166.086
