Measurement: Raman, 532 nm, unoriented, Raman Data Processed
Mineral: Ekatite
Rruff sample: R110136
Ideal chemistry: (Fe^3+^,Fe^2+^,Zn^2+^)_12_(As^3+^O_3_)_6_(As^3+^O_3_,SiO_3_OH)_2_(OH)_6_
Locality: Tsumeb, Namibia
Source: William W. Pinch
Description: Radiating aggregate of thin black prismatic crystals
Raman shift (cm-1)	intensity
181.612	0
184.505	0.693848
187.398	5.6438
190.29	1.16495
193.183	8.08963
196.076	28.2456
198.968	51.0685
201.861	76.4753
204.754	105.425
207.647	134.059
210.539	171.122
213.432	201.889
216.325	192.61
219.217	151.754
222.11	88.9138
225.003	45.7465
227.895	29.3203
230.788	17.2443
233.681	14.2538
236.573	4.86002
239.466	6.22058
242.359	4.48923
245.252	10.5339
248.144	10.6918
251.037	16.394
253.93	25.9601
256.822	31.8848
259.715	45.1314
262.608	53.746
265.5	68.215
268.393	80.2159
271.286	95.0507
274.179	105.451
277.071	115.338
279.964	108.763
282.857	99.3891
285.75	84.185
288.642	66.3555
291.535	51.0233
294.428	41.9097
297.32	30.0407
300.213	19.7257
303.106	15.297
305.998	11.9332
308.891	5.55267
311.784	1.03027
314.676	1.89227
317.569	0.310669
320.462	2.24997
323.355	0.61853
326.247	1.60422
329.14	1.44705
332.033	0.144012
334.925	4.03784
337.818	2.5538
340.711	5.72531
343.603	7.30386
346.496	7.65762
349.389	11.9155
352.281	17.3416
355.174	17.6238
358.067	18.9401
360.96	20.9579
363.852	24.7469
366.745	28.6603
369.638	27.8462
372.53	34.282
375.423	36.6909
378.316	41.9231
381.209	40.5847
384.101	43.9842
386.994	40.8784
389.887	40.6054
392.779	37.661
395.672	32.218
398.565	28.7159
401.457	21.557
404.35	16.7259
407.243	15.3975
410.135	9.23096
413.028	7.93732
415.921	6.51776
418.814	2.75534
421.706	0.055939
424.599	0.737457
427.492	0.771881
430.384	1.25037
433.277	1.34192
436.17	1.19663
439.062	1.89758
441.955	1.2243
444.848	0.797089
447.741	6.29733
450.633	1.68045
453.526	2.01944
456.419	6.33225
459.311	3.09183
462.204	6.3999
465.097	8.03467
467.99	6.82288
470.882	12.0478
473.775	7.50095
476.668	11.5229
479.56	13.7888
482.453	15.6132
485.346	15.166
488.238	13.2227
491.131	15.2729
494.024	12.1269
496.916	12.7068
499.809	12.0908
502.702	8.94128
505.595	12.0566
508.487	8.89525
511.38	7.12293
514.273	6.40375
517.165	4.78564
520.058	2.54968
522.951	2.67802
525.844	4.77834
528.736	2.67743
531.629	2.94858
534.522	2.83354
537.414	0.786316
540.307	0.955795
543.2	2.45592
546.092	2.05809
548.985	1.05684
551.878	0.30278
554.771	1.87489
557.663	2.21457
560.556	1.04581
563.449	3.17627
566.341	5.01415
569.234	3.77756
572.127	7.17767
575.019	6.39136
577.912	10.1192
580.805	10.6269
583.697	8.93964
586.59	13.0527
589.483	15.3186
592.376	14.2289
595.268	14.6301
598.161	10.6329
601.054	9.94835
603.946	9.0383
606.839	4.10028
609.732	5.66806
612.625	5.58691
615.517	3.99373
618.41	2.97272
621.303	1.08618
624.195	0.070953
627.088	3.27982
629.981	2.78082
632.873	4.14281
635.766	4.09219
638.659	4.442
641.552	3.92059
644.444	5.27664
647.337	5.99054
650.23	7.56928
653.122	7.67671
656.015	9.17906
658.908	8.51265
661.8	7.26015
664.693	9.29164
667.586	4.89317
670.479	6.32379
673.371	4.37079
676.264	5.29312
679.157	3.8517
682.049	1.53188
684.942	1.40805
687.835	2.44594
690.727	4.18565
693.62	2.2793
696.513	1.74841
699.405	1.2497
702.298	1.75554
705.191	1.10057
708.084	0.260529
710.976	1.05841
713.869	0.430084
716.762	0.489609
719.654	2.60019
722.547	1.6102
725.44	2.93133
728.332	4.16193
731.225	3.03194
734.118	3.89278
737.011	2.10526
739.903	4.40889
742.796	5.44286
745.689	4.54105
748.581	5.79947
751.474	6.90161
754.367	6.35332
757.26	5.9328
760.152	6.51944
763.045	9.78369
765.938	9.39352
768.83	4.79366
771.723	4.81154
774.616	6.06709
777.508	7.47609
780.401	10.2463
783.294	3.62215
786.187	9.39026
789.079	8.66118
791.972	6.84477
794.865	5.67261
797.757	3.21895
800.65	5.74017
803.543	8.55696
806.435	7.69223
809.328	8.52498
812.221	8.60635
815.114	9.32388
818.006	8.67247
820.899	10.2302
823.792	10.4527
826.684	7.27571
829.577	8.08784
832.47	5.37091
835.362	5.80753
838.255	4.58256
841.148	7.97618
844.04	4.53813
846.933	3.97839
849.826	2.13974
852.719	3.91612
855.611	3.00055
858.504	2.54439
861.397	3.19702
864.289	3.22122
867.182	0.037811
870.075	4.01857
872.967	2.06387
875.86	3.69566
878.753	1.88068
881.646	2.44978
884.538	1.30708
887.431	1.06105
890.324	4.44106
893.216	2.14558
896.109	1.45581
899.002	1.15582
901.894	0.12735
904.787	0.919449
907.68	2.39392
910.573	1.63562
913.465	2.84587
916.358	3.15581
919.251	4.61398
922.143	4.94295
925.036	0.593903
927.929	3.54181
930.822	3.47255
933.714	5.65012
936.607	4.52525
939.5	3.53484
942.392	2.5728
945.285	0.25502
948.178	0.425064
951.07	4.2135
953.963	0.697876
956.856	2.41173
959.749	2.44896
962.641	2.38361
965.534	2.30019
968.427	0.317764
971.319	1.11851
974.212	3.69803
977.105	3.75522
979.997	0.011093
982.89	1.9346
985.783	3.75223
988.676	2.22261
991.568	1.82825
994.461	2.81084
997.354	2.22057
1000.25	3.0044
1003.14	0.880112
1006.03	2.94664
1008.92	1.75151
1011.82	2.92767
1014.71	2.70068
1017.6	3.10046
1020.5	2.19238
1023.39	2.85626
1026.28	0.747955
1029.17	3.51918
1032.07	3.1872
1034.96	4.2218
1037.85	3.25772
1040.74	3.89459
1043.64	0.933212
1046.53	4.70091
1049.42	3.36397
1052.32	5.0168
1055.21	4.05005
1058.1	4.52123
1060.99	5.95934
1063.89	4.06665
1066.78	1.26326
1069.67	2.34605
1072.56	0.58403
1075.46	3.49095
1078.35	1.61258
1081.24	4.23006
1084.13	1.83829
1087.03	3.32362
1089.92	1.65022
1092.81	3.30743
1095.7	4.15849
1098.6	3.12381
1101.49	1.48673
1104.38	1.6872
1107.28	0.577759
1110.17	0.928452
1113.06	2.79678
1115.95	0.07048
1118.85	3.41336
1121.74	0.513779
1124.63	1.2507
1127.53	3.78923
1130.42	4.09491
1133.31	4.59434
1136.2	1.70895
1139.1	3.65509
1141.99	1.69624
1144.88	2.80808
1147.77	1.85797
1150.67	0.976761
1153.56	2.50475
1156.45	1.86163
1159.35	1.1185
1162.24	2.96139
1165.13	3.05652
1168.02	3.45277
1170.92	0.439789
1173.81	3.98735
1176.7	2.89014
1179.59	3.82095
1182.49	1.50128
1185.38	2.90056
1188.27	0.036911
1191.16	1.24748
1194.06	0.913284
1196.95	0.632309
1199.84	3.20343
1202.73	1.35416
1205.63	3.96307
1208.52	2.5374
1211.41	2.67754
1214.31	2.24133
1217.2	2.31541
1220.09	0.504105
1222.98	1.46793
1225.88	2.69801
1228.77	2.18373
1231.66	3.27535
1234.56	3.74182
1237.45	3.79596
1240.34	1.15581
1243.23	0.717957
1246.13	3.46152
1249.02	1.27004
1251.91	6.5155
1254.8	6.59187
1257.7	6.79912
1260.59	2.78682
1263.48	6.4843
1266.38	5.13098
1269.27	3.29819
1272.16	5.49466
1275.05	4.91576
1277.95	5.55907
1280.84	2.39461
1283.73	5.10121
1286.62	2.56319
1289.52	7.60051
1292.41	6.65301
1295.3	2.92934
1298.19	6.11806
1301.09	1.54452
