Measurement: Raman, 780 nm, unoriented, Raman Data Processed
Mineral: Elbaite
Rruff sample: R070564
Ideal chemistry: Na(Al_1.5_Li_1.5_)Al_6_(Si_6_O_18_)(BO_3_)_3_(OH)_3_OH
Locality: unknown
Source: Gemological Institute of America
Description: Green outer portion of a zoned watermelon tourmaline slice, see also R060566 (pink) and R070563 (white)
Measured chemistry: (Na_0.77_[box]_0.19_Ca_0.04_)_Σ=1_(Al_1.69_Li_0.66_Fe^2+^_0.49_Mn_0.12_Mg_0.03_Ti_0.01_)_Σ=3_Al_6.00_(BO_3_)_3_Si_6.00_O_18_((OH)_3.10_F_0.90_)_Σ=4_; H_2_O from stoichiometry after deduction of F; B_2_O_3_ by difference; Li by charge balance
Raman shift (cm-1)	intensity
148.819	0
151.712	253.537
154.605	310.546
157.498	395.637
160.39	143.443
163.283	415.163
166.176	34.9336
169.068	205.379
171.961	64.7988
174.854	58.6309
177.746	41.7891
180.639	321.976
183.532	87.8721
186.424	257.684
189.317	514.494
192.21	308.979
195.103	782.424
197.995	797.966
200.888	973.053
203.781	1475.73
206.673	2080.52
209.566	2740.06
212.459	3968.83
215.351	4845.87
218.244	6460.3
221.137	7255.73
224.03	6776.27
226.922	5522.44
229.815	4375.44
232.708	3925.87
235.6	3688.53
238.493	4086.77
241.386	3968.61
244.279	3731.09
247.171	3546.32
250.064	2996.87
252.957	2517.11
255.849	2297.97
258.742	2080.23
261.635	1927.89
264.527	1831.55
267.42	1776.67
270.313	1549.97
273.205	1534.76
276.098	1170.86
278.991	850.437
281.884	661.732
284.776	607.481
287.669	195.634
290.562	66.2217
293.454	206.356
296.347	121.693
299.24	10.4492
302.132	80.5889
305.025	15.8594
307.918	100.106
310.811	174.765
313.703	433.26
316.596	813.006
319.489	982.695
322.381	981.471
325.274	977.317
328.167	1315.57
331.06	1352.74
333.952	1704.78
336.845	1700.28
339.738	1751.6
342.63	2070.63
345.523	2280.3
348.416	2389.54
351.308	2448.33
354.201	2467.19
357.094	3016.41
359.986	4037.66
362.879	5087.01
365.772	6452.31
368.665	8116.72
371.557	9150.68
374.45	8134.14
377.343	6616.24
380.235	4439.94
383.128	3533.98
386.021	2741.16
388.913	2211.26
391.806	2023.74
394.699	1799.77
397.592	1715.97
400.484	1625.75
403.377	2015.27
406.27	1998.65
409.162	1736.05
412.055	1703.91
414.948	1231.01
417.841	723
420.733	554.032
423.626	176.533
426.519	30.1055
429.411	20.5664
432.304	19.5967
435.197	89.6221
438.089	119.484
440.982	0.398438
443.875	11.4492
446.767	67.4756
449.66	40.3818
452.553	177.024
455.446	118.639
458.338	48.6943
461.231	84.9609
464.124	193.921
467.016	192.55
469.909	280.213
472.802	378.962
475.695	450.582
478.587	505.039
481.48	501.284
484.373	569.712
487.265	705.402
490.158	680.573
493.051	798.025
495.943	990.63
498.836	959.994
501.729	1116.79
504.622	1117.21
507.514	1166.71
510.407	969.538
513.3	935.806
516.192	757.736
519.085	701.919
521.978	827.993
524.87	688.624
527.763	761.267
530.656	606.449
533.548	699.949
536.441	792.099
539.334	576.048
542.227	951.704
545.119	843.114
548.012	486.008
550.905	425.269
553.797	379.531
556.69	324.362
559.583	276.332
562.476	274.043
565.368	187.569
568.261	259.185
571.154	233.305
574.046	198.461
576.939	179.486
579.832	216.484
582.724	169.648
585.617	190.96
588.51	146.059
591.403	92.0019
594.295	53.625
597.188	71.0811
600.081	4.49121
602.973	70.9736
605.866	83.6826
608.759	197.859
611.651	79.9004
614.544	24.3623
617.437	70.9131
620.33	167.86
623.222	262.924
626.115	367.522
629.008	573.126
631.9	790.799
634.793	798.218
637.686	873.192
640.578	888.316
643.471	777.005
646.364	683.908
649.256	614.764
652.149	608.22
655.042	588.734
657.935	556.989
660.827	308.569
663.72	256.103
666.613	245.548
669.505	35.082
672.398	132.554
675.291	65.2598
678.183	52.2773
681.076	50.251
683.969	205.11
686.862	366.979
689.754	444.79
692.647	490.426
695.54	1101.03
698.432	1467.13
701.325	2034.69
704.218	2524.12
707.111	2982.78
710.003	3485.98
712.896	3754.98
715.789	3715.75
718.681	3602.16
721.574	3135.2
724.467	2526.59
727.359	1983.78
730.252	1456.22
733.145	1329.32
736.038	884.432
738.93	970.681
741.823	860.719
744.716	778.504
747.608	820.821
750.501	1045.85
753.394	996.661
756.286	747.35
759.179	617.352
762.072	503.931
764.965	352.812
767.857	233.405
770.75	130.014
773.643	73.7461
776.535	13.0791
779.428	256.87
782.321	66.8418
785.213	138.842
788.106	21.0654
790.999	203.926
793.891	210.976
796.784	173.466
799.677	61.793
802.57	111.693
805.462	187.475
808.355	213.492
811.248	44.625
814.14	205.356
817.033	180.028
819.926	288.116
822.818	165.4
825.711	281.121
828.604	666.18
831.497	504.391
834.389	632.06
837.282	613.888
840.175	592.965
843.067	568.065
845.96	506.83
848.853	480.548
851.746	426.157
854.638	387.442
857.531	363.093
860.424	242.681
863.316	244.66
866.209	124.371
869.102	252.116
871.995	177.829
874.887	123.853
877.78	116.15
880.673	212.667
883.565	117.478
886.458	359.965
889.351	207.898
892.243	109.462
895.136	21.5322
898.029	34.0772
900.922	108.987
903.814	9.9541
906.707	64.6602
909.6	150.386
912.492	13.4551
915.385	36.4434
918.278	272.589
921.17	215.124
924.063	283.711
926.956	73.6103
929.848	163.018
932.741	22.332
935.634	256.438
938.527	145.742
941.419	195.227
944.312	113.985
947.205	91.4922
950.097	334.381
952.99	279.196
955.883	134.071
958.775	218.844
961.668	159.639
964.561	225.371
967.454	350.924
970.346	423.607
973.239	113.47
976.132	236.977
979.024	21.5283
981.917	128.603
984.81	229.955
987.702	94.3779
990.595	174.704
993.488	64.2822
996.381	188.553
999.273	34.2568
1002.17	124.491
1005.06	6.88379
1007.95	47.5
1010.84	120.972
1013.74	183.708
1016.63	161.991
1019.52	263.426
1022.41	215.209
1025.31	361.154
1028.2	341.858
1031.09	357.348
1033.99	647.674
1036.88	422.126
1039.77	733.16
1042.66	1051.85
1045.56	1283.09
1048.45	1591.89
1051.34	1792.24
1054.23	1918.11
1057.13	1843.02
1060.02	1593.59
1062.91	1581.89
1065.81	1160.65
1068.7	757.189
1071.59	403.45
1074.48	455.134
1077.38	327.05
1080.27	307.09
1083.16	301.148
1086.05	479.235
1088.95	317.919
1091.84	211.291
1094.73	163.945
1097.62	221.824
1100.52	167.144
1103.41	40.54
1106.3	176.496
1109.2	261.049
1112.09	239.451
1114.98	228.057
1117.87	331.438
1120.77	432.284
1123.66	302.469
1126.55	439.635
1129.44	206.321
1132.34	349.134
1135.23	176.714
1138.12	214.98
1141.02	136.296
1143.91	45.0205
1146.8	63.2315
1149.69	40.7715
1152.59	33.6435
1155.48	70.9463
1158.37	68.7773
1161.27	1.16113
1164.16	160.72
1167.05	228.138
1169.94	86.3193
1172.84	37.9629
1175.73	184.314
1178.62	132.23
1181.51	527.084
1184.41	284.519
1187.3	352.49
1190.19	212.641
1193.08	224.016
1195.98	247.712
1198.87	187.872
1201.76	132.419
1204.65	249.837
1207.55	109.897
1210.44	299.406
1213.33	142.551
1216.23	397.469
1219.12	323.478
1222.01	147.289
1224.9	203.965
1227.8	162.395
1230.69	296.025
1233.58	302.122
1236.47	224.954
1239.37	72.5078
1242.26	122.565
1245.15	321.8
1248.05	205.444
1250.94	226.236
1253.83	250.467
1256.72	51.7334
1259.62	168.57
1262.51	215.384
1265.4	180.167
1268.29	70.6406
1271.19	18.7275
1274.08	168.065
1276.97	109.019
1279.87	204.426
1282.76	117.721
1285.65	130.8
