Measurement: Raman, 532 nm, unoriented, Raman Data Processed
Mineral: Elbaite
Rruff sample: R060631
Ideal chemistry: Na(Al_1.5_Li_1.5_)Al_6_(Si_6_O_18_)(BO_3_)_3_(OH)_3_OH
Locality: unknown
Source: Gemological Institute of America
Description: Pink polished fragment
Measured chemistry: (Na_0.55_Ca_0.34_[box]_0.11_)(Li_1.53_Al_1.30_Mn_0.14_Fe^2+^_0.03_)Al_6.00_(BO_3_)_3_[Si_6.00_O_18_]((OH)_0.82_F_0.18_)_4_
Raman shift (cm-1)	intensity
148.035	0
150.928	0.695618
153.82	10.6916
156.713	9.25751
159.606	4.50324
162.498	0.944702
165.391	6.00507
168.284	4.09021
171.177	1.91968
174.069	1.70233
176.962	3.9892
179.855	0.628845
182.747	2.55286
185.64	0.001404
188.533	10.0572
191.425	16.967
194.318	28.4997
197.211	54.2745
200.103	83.3965
202.996	116.18
205.889	145.379
208.782	185.808
211.674	241.122
214.567	313.304
217.46	417.688
220.352	549.613
223.245	617.211
226.138	571.428
229.03	471.573
231.923	392.52
234.816	353.972
237.709	339.615
240.601	350.422
243.494	367.078
246.387	363.242
249.279	331.077
252.172	281.564
255.065	236.56
257.957	203.535
260.85	184.56
263.743	168.857
266.636	164.315
269.528	152.133
272.421	133.899
275.314	116.422
278.206	93.9091
281.099	80.5014
283.992	52.2004
286.885	37.5822
289.777	13.2963
292.67	2.51904
295.563	2.76385
298.455	13.505
301.348	10.8611
304.241	1.26508
307.133	8.27954
310.026	16.8001
312.919	31.2763
315.812	48.0407
318.704	47.6294
321.597	35.6363
324.49	33.347
327.382	38.4385
330.275	44.2305
333.168	45.9779
336.06	45.1785
338.953	50.984
341.846	56.8983
344.738	71.0496
347.631	86.5134
350.524	98.1341
353.417	121.362
356.309	152.604
359.202	194.535
362.095	267.466
364.987	370.469
367.88	524.668
370.773	733.54
373.666	943.22
376.558	924.565
379.451	718.645
382.344	511.608
385.236	365.075
388.129	281.983
391.022	239.165
393.914	224.894
396.807	227.895
399.7	249.119
402.592	277.336
405.485	296.405
408.378	300.462
411.271	271.618
414.163	224.711
417.056	161.765
419.949	105.258
422.841	59.5214
425.734	34.4675
428.627	20.727
431.519	12.9511
434.412	1.67407
437.305	3.86426
440.198	1.10571
443.09	0.792297
445.983	1.78155
448.876	1.1167
451.768	2.53076
454.661	0.01593
457.554	3.43097
460.447	1.58484
463.339	0.354309
466.232	2.03467
469.125	1.23944
472.017	5.51984
474.91	4.44958
477.803	5.61493
480.695	11.8352
483.588	19.2628
486.481	23.1314
489.373	25.5364
492.266	35.9347
495.159	48.1858
498.052	56.2665
500.944	70.7065
503.837	82.0598
506.73	91.924
509.622	104.358
512.515	108.558
515.408	103.474
518.301	97.2655
521.193	87.764
524.086	67.923
526.979	60.1547
529.871	51.525
532.764	49.0832
535.657	50.9926
538.549	43.4899
541.442	38.8254
544.335	34.5428
547.227	31.4351
550.12	21.9616
553.013	20.1257
555.906	13.4666
558.798	12.6169
561.691	12.3019
564.584	5.60852
567.476	2.92676
570.369	1.51446
573.262	3.73346
576.154	1.06952
579.047	1.0882
581.94	0.880737
584.833	7.20306
587.725	8.19305
590.618	7.22858
593.511	5.21564
596.403	2.68237
599.296	4.48956
602.189	3.29602
605.082	6.94751
607.974	0.381287
610.867	1.37811
613.76	2.77258
616.652	3.62543
619.545	8.98608
622.438	21.7085
625.33	39.2941
628.223	61.9589
631.116	91.6508
634.009	123.56
636.901	160.597
639.794	160.056
642.687	142.728
645.579	116.948
648.472	100.866
651.365	85.1762
654.257	76.6365
657.15	63.3975
660.043	45.7439
662.936	28.9926
665.828	21.6926
668.721	10.8105
671.614	8.84778
674.506	0.278809
677.399	1.65759
680.292	2.20569
683.184	1.66699
686.077	5.3147
688.97	22.6886
691.862	45.7074
694.755	80.2415
697.648	127.102
700.541	188.111
703.433	258.441
706.326	312.411
709.219	334.858
712.111	305.041
715.004	237.191
717.897	167.584
720.789	107.506
723.682	77.9624
726.575	53.1781
729.468	49.9706
732.36	45.421
735.253	53.2865
738.146	62.4912
741.038	74.5275
743.931	88.9668
746.824	96.3697
749.716	99.1501
752.609	93.8096
755.502	73.5808
758.395	57.6311
761.287	41.5531
764.18	31.5889
767.073	19.9597
769.965	18.9258
772.858	11.2023
775.751	6.19092
778.644	11.7783
781.536	5.96582
784.429	3.29138
787.322	5.90405
790.214	1.44934
793.107	0.345093
796	0.344238
798.892	1.45801
801.785	5.96619
804.678	2.91882
807.571	1.78418
810.463	2.77039
813.356	1.93225
816.249	1.73608
819.141	3.81409
822.034	4.19202
824.927	10.3207
827.819	14.191
830.712	13.9586
833.605	17.7178
836.497	16.1775
839.39	17.1154
842.283	17.5629
845.176	15.4237
848.068	14.955
850.961	20.1355
853.854	20.8606
856.746	22.9762
859.639	21.2339
862.532	17.3041
865.424	21.0441
868.317	24.649
871.21	26.1979
874.103	21.4757
876.995	20.7644
879.888	18.1534
882.781	17.0737
885.673	9.7561
888.566	7.58533
891.459	8.72437
894.351	3.34985
897.244	8.37683
900.137	4.1759
903.03	2.15356
905.922	0.670532
908.815	4.4209
911.708	1.0033
914.6	3.27002
917.493	5.08508
920.386	4.30981
923.279	2.53149
926.171	3.08081
929.064	1.23999
931.957	0.082153
934.849	3.36755
937.742	5.08911
940.635	4.33765
943.527	8.0929
946.42	12.6757
949.313	14.1602
952.206	18.3126
955.098	27.3018
957.991	33.0974
960.884	42.1273
963.776	44.7289
966.669	55.8425
969.562	56.7749
972.454	54.8668
975.347	60.5887
978.24	51.0697
981.133	56.9414
984.025	46.0668
986.918	43.6915
989.811	41.4545
992.703	39.3628
995.596	40.1333
998.489	37.9396
1001.38	27.2909
1004.27	23.3568
1007.17	21.1315
1010.06	19.1967
1012.95	23.6571
1015.85	20.83
1018.74	20.5327
1021.63	9.08813
1024.52	10.7111
1027.42	7.99182
1030.31	5.54504
1033.2	1.77551
1036.09	2.11182
1038.99	2.60413
1041.88	4.26135
1044.77	11.1235
1047.66	9.97229
1050.56	22.1989
1053.45	31.0912
1056.34	35.182
1059.23	45.7538
1062.13	49.0273
1065.02	55.6622
1067.91	45.6571
1070.81	54.5918
1073.7	61.6592
1076.59	72.9609
1079.48	81.3002
1082.38	86.1627
1085.27	100.472
1088.16	102.336
1091.06	97.7487
1093.95	87.6836
1096.84	68.5275
1099.73	64.0734
1102.63	51.1313
1105.52	44.6046
1108.41	25.4412
1111.3	15.2581
1114.2	10.0104
1117.09	2.81995
1119.98	2.39453
1122.88	2.48193
1125.77	0.901001
1128.66	1.29834
1131.55	3.57678
1134.45	2.48584
1137.34	3.87866
1140.23	2.25085
1143.12	6.50098
1146.02	2.79382
1148.91	5.65125
1151.8	1.73425
1154.69	2.14038
1157.59	26.6816
1160.48	10.4164
1163.37	12.4056
1166.27	6.21655
1169.16	2.69165
1172.05	9.30981
1174.94	7.95886
1177.84	15.7931
1180.73	16.4481
1183.62	15.1373
1186.51	11.1112
1189.41	19.772
1192.3	18.714
1195.19	21.833
1198.09	20.3271
1200.98	15.3328
1203.87	14.9102
1206.76	15.4092
1209.66	26.5209
1212.55	13.7636
1215.44	14.5562
1218.33	17.7075
1221.23	21.5497
1224.12	19.3452
1227.01	23.0117
1229.9	20.1067
1232.8	24.6599
1235.69	19.3163
1238.58	21.0523
1241.47	17.5791
1244.37	23.7743
1247.26	22.9127
1250.15	15.8561
1253.05	12.5745
1255.94	6.79114
1258.83	12.5198
1261.72	9.17749
1264.62	14.8334
1267.51	16.0055
1270.4	20.7916
1273.3	15.0886
1276.19	10.2537
1279.08	12.1777
1281.97	2.56714
1284.87	0.216797
1287.76	7.62695
1290.65	6.65161
1293.54	5.47607
1296.44	1.36792
1299.33	6.01587
1302.22	7.34204
