Measurement: Raman, 785 nm, unoriented, Raman Data Processed
Mineral: Elbaite
Rruff sample: R070077
Ideal chemistry: Na(Al_1.5_Li_1.5_)Al_6_(Si_6_O_18_)(BO_3_)_3_(OH)_3_OH
Locality: Canary mine, Lundazi area of eastern Zambia
Source: Tommy Wu
Description: Green crystal fragments
Raman shift (cm-1)	intensity
181.092	0
183.985	29.3672
186.878	23.2817
189.77	3.92383
192.663	49.98
195.556	130.339
198.448	136.774
201.341	247.407
204.234	243.541
207.127	406.644
210.019	473.557
212.912	647.129
215.805	905.643
218.697	1051.45
221.59	1236.12
224.483	1235.22
227.375	1043.66
230.268	731.566
233.161	615.918
236.054	547.17
238.946	532.417
241.839	549.712
244.732	437.785
247.624	319.82
250.517	252.224
253.41	167.471
256.303	136.023
259.195	164.763
262.088	138.248
264.981	143.396
267.873	227.374
270.766	127.258
273.659	202.155
276.551	121.064
279.444	110.268
282.337	79.7642
285.229	103.049
288.122	15.6738
291.015	72.9844
293.908	32.1435
296.8	73.7651
299.693	20.103
302.586	2.20801
305.478	47.4619
308.371	69.9697
311.264	107.985
314.156	117.065
317.049	133.716
319.942	240.902
322.835	345.603
325.727	385.552
328.62	528.896
331.513	628.152
334.405	703.859
337.298	671.898
340.191	697.007
343.084	766.557
345.976	749.936
348.869	750.935
351.762	761.656
354.654	779.012
357.547	836.03
360.44	971.846
363.332	1110.35
366.225	1388.51
369.118	1645.63
372.01	1990.2
374.903	2282.44
377.796	2129.47
380.689	1646.97
383.581	1247.64
386.474	829.808
389.367	607.616
392.259	521.201
395.152	427.604
398.045	394.122
400.938	379.176
403.83	398.269
406.723	391.489
409.616	350.47
412.508	328.07
415.401	202.015
418.294	150.408
421.186	99.1807
424.079	55.0156
426.972	25.8081
429.865	37.6475
432.757	11.7808
435.65	40.7305
438.543	8.52393
441.435	65.1152
444.328	22.6152
447.221	106.765
450.113	43.1773
453.006	55.9595
455.899	14.7422
458.791	3.04443
461.684	10.2764
464.577	88.8149
467.47	146.301
470.362	148.487
473.255	188.524
476.148	186.578
479.04	247.309
481.933	219.153
484.826	249.394
487.719	220.391
490.611	323.335
493.504	294.007
496.397	352.538
499.289	428.486
502.182	435.728
505.075	424.715
507.967	474.271
510.86	495.674
513.753	487.873
516.645	454.106
519.538	423.736
522.431	441.672
525.324	439.481
528.216	486.877
531.109	540.863
534.002	586.929
536.894	630.714
539.787	623.471
542.68	665.39
545.572	680.609
548.465	618.694
551.358	590.809
554.251	511.962
557.143	430.344
560.036	435.514
562.929	412.087
565.822	320.61
568.714	341.338
571.607	334.188
574.5	352.404
577.392	233.868
580.285	181.982
583.178	235.842
586.07	164.622
588.963	114.414
591.856	91.208
594.749	4.79346
597.641	25.4482
600.534	15.3271
603.427	0.256836
606.319	11.3774
609.212	43.2388
612.105	24.4409
614.997	16.3862
617.89	36.0986
620.783	13.6924
623.676	27.9365
626.568	57.3511
629.461	96.1597
632.354	86.9341
635.246	131.976
638.139	129.955
641.032	87.6719
643.924	91.4165
646.817	44.8867
649.71	43.2627
652.602	86.792
655.495	125.065
658.388	111.241
661.281	111.747
664.173	52.7075
667.066	15.4707
669.959	35.165
672.851	55.6562
675.744	12.6724
678.637	79.9507
681.529	17.3355
684.422	9.11816
687.315	12.2412
690.208	119.629
693.1	74.9385
695.993	150.282
698.886	284.191
701.778	293.809
704.671	507.872
707.564	640.208
710.457	892.637
713.349	1159.47
716.242	1525.51
719.135	1920.73
722.027	2186.05
724.92	2360.99
727.813	2057.07
730.705	1582.83
733.598	1141.3
736.491	735.422
739.384	538.309
742.276	412.981
745.169	369.157
748.062	357.457
750.954	381.322
753.847	406.201
756.74	370.244
759.632	350.64
762.525	338.896
765.418	235.319
768.311	116.287
771.203	76.7168
774.096	22.2188
776.989	41.7349
779.881	63.169
782.774	11.479
785.667	32.2656
788.559	1.15478
791.452	16.0278
794.345	26.981
797.237	74.731
800.13	64.6352
803.023	116.071
805.916	68.4277
808.808	101.445
811.701	65.7671
814.594	99.3848
817.486	86.0293
820.379	91.3584
823.272	106.648
826.164	184.7
829.057	229.426
831.95	226.289
834.843	353.59
837.735	437.897
840.628	455.75
843.521	425.625
846.413	469.94
849.306	537.112
852.199	684.859
855.091	859.071
857.984	804.168
860.877	712.79
863.77	483.929
866.662	357.111
869.555	183.783
872.448	65.6431
875.34	65.2671
878.233	9.44092
881.126	78.4141
884.019	58.7471
886.911	53.9692
889.804	45.5537
892.697	75.5005
895.589	7.04492
898.482	41.0996
901.375	7.69141
904.268	0.48877
907.16	18.1548
910.053	22.9531
912.946	0.625488
915.838	19.2051
918.731	40.2812
921.624	18.3862
924.516	4.06934
927.409	13.7773
930.302	65.7598
933.194	74.8755
936.087	126.678
938.98	61.5381
941.873	71.4722
944.765	114.606
947.658	101.905
950.551	118.14
953.443	64.1123
956.336	114.006
959.229	104.829
962.121	137.907
965.014	135.026
967.907	63.1562
970.8	124.891
973.692	134.833
976.585	106.763
979.478	97.1597
982.37	75.3911
985.263	28.835
988.156	31.5488
991.048	10.4902
993.941	40.2119
996.834	16.8145
999.727	5.90381
1002.62	60.8652
1005.51	5.21387
1008.4	67.4546
1011.3	139.142
1014.19	104.513
1017.08	148.983
1019.98	156.54
1022.87	171.026
1025.76	190.587
1028.65	230.42
1031.55	241.778
1034.44	325.579
1037.33	451.693
1040.22	559.216
1043.12	701.101
1046.01	949.115
1048.9	1179.23
1051.8	1500.47
1054.69	1662.69
1057.58	1805.93
1060.47	1723.5
1063.37	1424.19
1066.26	1074.83
1069.15	768.553
1072.04	475.009
1074.94	329.59
1077.83	212.926
1080.72	139.218
1083.62	73.231
1086.51	51.4487
1089.4	9.73096
1092.29	16.2012
1095.19	14.1299
1098.08	1.02197
1100.97	50.4419
1103.86	45.0752
1106.76	32.6065
1109.65	59.1475
1112.54	9.99609
1115.43	35.5591
1118.33	25.7681
1121.22	25.1406
1124.11	76.3608
1127.01	44.1299
1129.9	39.3989
1132.79	30.3721
1135.68	38.314
1138.58	61.3433
1141.47	20.6572
1144.36	66.666
1147.25	0.157227
1150.15	17.6665
1153.04	25.9629
1155.93	73.5923
1158.83	81.2422
1161.72	12.5938
1164.61	58.7217
1167.5	68.145
1170.4	35.6382
1173.29	76.7197
1176.18	54.9477
1179.07	59.7017
1181.97	24.9355
1184.86	37.5024
1187.75	41.3325
1190.64	59.4077
1193.54	30.8755
1196.43	47.5117
1199.32	39.9097
1202.22	47.1519
1205.11	11.2764
1208	26.936
1210.89	64.5762
1213.79	61.1475
1216.68	93.5991
1219.57	79.1714
1222.46	90.3843
1225.36	111.401
1228.25	103.208
1231.14	39.5713
1234.04	68.9937
1236.93	12.6143
1239.82	18.8423
1242.71	1.38037
