Measurement: Raman, 532 nm, unoriented, Raman Data Processed
Mineral: Elbaite
Rruff sample: R050487
Ideal chemistry: Na(Al_1.5_Li_1.5_)Al_6_(Si_6_O_18_)(BO_3_)_3_(OH)_3_OH
Locality: White Queen mine, Pala, San Diego County, California, USA
Source: California Institute of Technology
Description: Mass of blue acicular crystals
Measured chemistry: (Na_0.86_[box]_0.13_Ca_0.01_)(Al_0.42_Li_0.38_Fe^2+^_0.18_Mn_0.02_)_3_Al_6_(BO_3_)_3_Si_6_O_18_((OH)_0.85_F_0.15_)_4_
Raman shift (cm-1)	intensity
158.986	0
161.879	2.05253
164.772	1.08008
167.664	1.084
170.557	1.70039
173.45	0.602676
176.343	1.08259
179.235	1.92363
182.128	0.337433
185.021	1.06531
187.913	1.57328
190.806	1.03348
193.699	2.07427
196.591	2.81661
199.484	6.66804
202.377	10.5138
205.269	15.1018
208.162	23.0662
211.055	29.9843
213.948	39.8232
216.84	51.9634
219.733	65.7678
222.626	72.0134
225.518	67.1894
228.411	55.682
231.304	47.8362
234.196	44.0479
237.089	43.6843
239.982	46.0985
242.875	47.6076
245.767	49.449
248.66	52.9725
251.553	56.8584
254.445	62.7523
257.338	70.2205
260.231	62.8475
263.123	39.6794
266.016	28.8939
268.909	25.3783
271.802	23.3948
274.694	19.5608
277.587	16.6698
280.48	12.5807
283.372	9.34638
286.265	5.09898
289.158	2.70346
292.05	0.153412
294.943	1.25946
297.836	1.89111
300.729	1.20955
303.621	0.423775
306.514	1.55184
309.407	1.1073
312.299	3.63531
315.192	5.23428
318.085	6.05687
320.978	5.08749
323.87	5.10583
326.763	5.76852
329.656	9.04972
332.548	9.9364
335.441	13.1646
338.334	14.171
341.226	17.0261
344.119	19.9269
347.012	20.6594
349.904	22.7595
352.797	26.6011
355.69	33.0211
358.583	42.6891
361.475	55.9292
364.368	71.7788
367.261	98.3735
370.153	123.234
373.046	124.729
375.939	92.3126
378.832	59.2696
381.724	38.6728
384.617	29.3727
387.51	23.9756
390.402	21.1012
393.295	21.946
396.188	23.7363
399.08	25.7954
401.973	31.9083
404.866	36.6617
407.759	40.3613
410.651	39.2722
413.544	31.1227
416.437	20.5406
419.329	12.3305
422.222	6.64381
425.115	3.27459
428.007	0.957039
430.9	0.260239
433.793	0.519699
436.685	0.685799
439.578	0.067558
442.471	0.642845
445.364	0.293518
448.256	0.631226
451.149	0.547997
454.042	0.086967
456.934	0.897003
459.827	0.26133
462.72	0.035469
465.613	0.635201
468.505	0.223907
471.398	0.078323
474.291	0.170517
477.183	0.832573
480.076	1.61379
482.969	1.85891
485.861	3.62361
488.754	5.59492
491.647	5.84691
494.539	8.22346
497.432	8.89362
500.325	9.92694
503.218	10.537
506.11	10.4986
509.003	10.1072
511.896	9.20905
514.788	8.72822
517.681	5.93213
520.574	3.63559
523.466	2.71771
526.359	2.02972
529.252	0.075584
532.145	1.21253
535.037	0.328659
537.93	0.793747
540.823	0.355247
543.715	0.481331
546.608	1.32504
549.501	1.11906
552.394	2.22447
555.286	2.21153
558.179	3.39929
561.072	3.68296
563.964	3.99575
566.857	3.56
569.75	3.33276
572.642	4.33251
575.535	3.66863
578.428	3.59177
581.321	3.54199
584.213	3.335
587.106	3.08425
589.999	1.78833
592.891	0.879784
595.784	0.988808
598.677	0.01178
601.569	0.007668
604.462	0.24398
607.355	0.759987
610.247	0.432411
613.14	0.495392
616.033	0.149597
618.926	2.53841
621.818	6.01222
624.711	8.86012
627.604	14.0949
630.496	19.3411
633.389	21.9078
636.282	21.5582
639.174	19.2962
642.067	16.9614
644.96	15.3744
647.852	13.5916
650.745	12.8289
653.638	12.3844
656.531	12.3464
659.423	10.9144
662.316	9.14372
665.209	6.42884
668.101	4.27029
670.994	2.76749
673.887	1.87898
676.779	1.84505
679.672	1.61538
682.565	3.21967
685.458	3.93152
688.35	7.77548
691.243	13.5341
694.136	22.2748
697.028	30.3597
699.921	39.2927
702.814	43.7026
705.707	40.3871
708.599	32.7092
711.492	24.852
714.385	16.4368
717.277	11.3382
720.17	8.16116
723.063	6.61898
725.955	4.48334
728.848	3.04978
731.741	1.36593
734.634	0.372574
737.526	0.047401
740.419	0.615425
743.312	2.30766
746.204	5.96657
749.097	8.43485
751.99	10.3198
754.882	8.75197
757.775	6.21189
760.668	3.14054
763.561	2.85405
766.453	0.648914
769.346	0.932384
772.239	0.458405
775.131	0.912678
778.024	0.601971
780.917	0.991123
783.809	0.633183
786.702	0.624748
789.595	0.284065
792.487	0.662704
795.38	0.066666
798.273	0.072506
801.166	0.519283
804.058	0.128658
806.951	0.660542
809.844	0.38205
812.736	0.292561
815.629	0.664886
818.522	1.43042
821.415	2.66448
824.307	3.70269
827.2	5.59712
830.093	7.58742
832.985	10.6903
835.878	13.0147
838.771	14.5068
841.663	13.4424
844.556	11.23
847.449	9.8995
850.342	7.38675
853.234	7.08258
856.127	6.82212
859.02	5.7365
861.912	4.87258
864.805	4.35567
867.698	3.852
870.591	2.31013
873.483	2.20675
876.376	2.62898
879.269	2.18204
882.161	0.898262
885.054	1.15585
887.947	1.68299
890.839	0.557228
893.732	0.506069
896.625	0.725273
899.518	0.132164
902.41	0.239323
905.303	0.217854
908.196	0.381832
911.088	0.082829
913.981	0.130192
916.874	0.138069
919.766	0.234627
922.659	0.107029
925.552	0.662571
928.444	0.064026
931.337	0.559368
934.23	0.328205
937.123	0.682583
940.015	0.316681
942.908	1.02794
945.801	0.924839
948.693	1.23897
951.586	1.57527
954.479	3.03627
957.371	3.16063
960.264	3.61904
963.157	2.8775
966.05	3.06041
968.942	2.32057
971.835	1.43521
974.728	1.76791
977.62	1.39516
980.513	0.867928
983.406	0.871605
986.298	0.010704
989.191	0.094101
992.084	0.056732
994.977	0.350746
997.869	0.742096
1000.76	0.839203
1003.65	1.2266
1006.55	1.86775
1009.44	2.27563
1012.33	2.4799
1015.23	2.47862
1018.12	2.37901
1021.01	2.2422
1023.9	2.1797
1026.8	1.51257
1029.69	1.29127
1032.58	1.16287
1035.47	2.12787
1038.37	1.95056
1041.26	3.61029
1044.15	4.72671
1047.05	7.34987
1049.94	9.76347
1052.83	10.9069
1055.72	12.4016
1058.62	13.5035
1061.51	11.3452
1064.4	10.6242
1067.29	7.40766
1070.19	6.14449
1073.08	14.0101
1075.97	16.124
1078.87	16.8238
1081.76	18.4466
1084.65	19.794
1087.54	13.2704
1090.44	7.58383
1093.33	5.64456
1096.22	3.46317
1099.11	2.80552
1102.01	2.96769
1104.9	1.95319
1107.79	0.359306
1110.68	0.779774
1113.58	1.20616
1116.47	1.21574
1119.36	1.62759
1122.26	2.99248
1125.15	2.61071
1128.04	2.70874
1130.93	2.19685
1133.83	1.04681
1136.72	0.68071
1139.61	0.000679
1142.5	0.304649
1145.4	0.319324
1148.29	0.173695
1151.18	1.11996
1154.08	0.419014
1156.97	0.052837
1159.86	0.173882
1162.75	0.84621
1165.65	1.01578
1168.54	0.097607
1171.43	0.728779
1174.32	1.32715
1177.22	1.6255
1180.11	1.59628
1183	0.986263
1185.89	1.21563
1188.79	1.96946
1191.68	2.07701
1194.57	2.16356
1197.47	2.28188
1200.36	2.8134
1203.25	2.1948
1206.14	2.56357
1209.04	2.30031
1211.93	2.20887
1214.82	1.84635
1217.71	2.05885
1220.61	1.42735
1223.5	1.28558
1226.39	1.49762
1229.29	1.93579
1232.18	1.38999
1235.07	2.26766
1237.96	2.3519
1240.86	1.41714
1243.75	1.73967
1246.64	1.37793
1249.53	1.0671
1252.43	1.81263
1255.32	1.11632
1258.21	1.979
1261.11	1.186
1264	1.40569
1266.89	0.870285
1269.78	1.04421
1272.68	0.473137
1275.57	1.23293
1278.46	0.31044
1281.35	0.44099
1284.25	1.0564
1287.14	0.85099
1290.03	1.3069
1292.92	0.450024
1295.82	0.456684
1298.71	0.552898
1301.6	0.016029
