Measurement: Raman, 532 nm, unoriented, Raman Data Processed
Mineral: Elbaite
Rruff sample: R050260
Ideal chemistry: Na(Al_1.5_Li_1.5_)Al_6_(Si_6_O_18_)(BO_3_)_3_(OH)_3_OH
Locality: Minas Gerais, Brazil
Source: Marcus Origlieri
Description: Greenish-gray prismatic single crystal
Measured chemistry: (Na_0.76_[box]_0.17_Ca_0.07_)_Σ=1_(Al_1.67_Li_0.97_Mn_0.36_)_Σ=3_Al_6.00_(B_1.00_O_3_)_3_Si_6.00_O_18_((OH)_3.40_F_0.60_)_Σ=4_; B assumed by stoichiometry; OH estimated by charge balance
Raman shift (cm-1)	intensity
151.359	0
154.252	14.6396
157.145	22.7073
160.038	18.4105
162.93	18.0719
165.823	8.65312
168.716	0.901337
171.608	1.65291
174.501	1.3324
177.394	2.87549
180.286	7.59399
183.179	14.1503
186.072	11.262
188.965	15.6274
191.857	27.2059
194.75	36.1102
197.643	58.474
200.535	84.6339
203.428	122.722
206.321	167.131
209.214	229.042
212.106	294.006
214.999	391.785
217.892	490.909
220.784	591.856
223.677	592.681
226.57	502.978
229.462	395.615
232.355	332.596
235.248	300.034
238.141	283.184
241.033	283.554
243.926	281.608
246.819	261.245
249.711	236.082
252.604	211.579
255.497	194.504
258.389	164.381
261.282	146.649
264.175	131.771
267.067	126.086
269.96	118.142
272.853	111.459
275.746	102.371
278.638	78.6659
281.531	56.1372
284.424	34.5635
287.316	20.6955
290.209	1.70935
293.102	4.91104
295.995	14.5536
298.887	9.18323
301.78	3.16798
304.673	0.16597
307.565	7.00909
310.458	26.2448
313.351	37.9284
316.243	51.4925
319.136	60.1388
322.029	72.1273
324.921	83.605
327.814	109.076
330.707	127.958
333.6	138.695
336.492	151.055
339.385	157.975
342.278	170.785
345.17	175.565
348.063	185.932
350.956	189.214
353.849	212.684
356.741	270.487
359.634	349.703
362.527	446.111
365.419	578.955
368.312	774.09
371.205	974.023
374.097	947.778
376.99	692.349
379.883	477.554
382.776	329.823
385.668	247.495
388.561	201.572
391.454	178.853
394.346	170.379
397.239	178.812
400.132	192.819
403.024	216.901
405.917	237.598
408.81	246.85
411.702	215.161
414.595	164.015
417.488	99.2417
420.381	56.5596
423.273	30.4523
426.166	13.279
429.059	1.01771
431.951	5.0934
434.844	7.65859
437.737	1.09659
440.63	1.15114
443.522	4.53493
446.415	3.53055
449.308	4.98981
452.2	5.97525
455.093	3.85344
457.986	0.163712
460.878	2.1411
463.771	5.04085
466.664	3.98486
469.557	11.1945
472.449	13.6585
475.342	15.579
478.235	19.6933
481.127	25.7081
484.02	40.214
486.913	47.2118
489.805	58.9096
492.698	61.7499
495.591	74.0782
498.483	77.0902
501.376	70.5978
504.269	75.6619
507.162	70.9354
510.054	61.4066
512.947	54.8487
515.84	43.5422
518.732	28.7526
521.625	22.4637
524.518	15.5536
527.41	10.0605
530.303	11.0843
533.196	5.41866
536.089	7.0796
538.981	8.02261
541.874	0.604385
544.767	2.05748
547.659	1.49043
550.552	0.43573
553.445	1.37065
556.337	3.95754
559.23	3.74275
562.123	5.9668
565.016	7.48212
567.908	6.63977
570.801	7.38254
573.694	13.9926
576.586	11.227
579.479	16.571
582.372	14.4612
585.264	16.8041
588.157	8.32304
591.05	5.87096
593.942	3.0822
596.835	3.39868
599.728	2.89157
602.621	3.40801
605.513	0.683548
608.406	0.626266
611.299	2.39323
614.191	0.80484
617.084	9.35834
619.977	23.7535
622.87	50.746
625.762	83.6396
628.655	127.457
631.548	157.16
634.44	172.608
637.333	149.06
640.226	120.824
643.118	99.8314
646.011	79.3582
648.904	76.7787
651.797	70.3282
654.689	67.7423
657.582	63.6985
660.475	57.8658
663.367	42.0264
666.26	23.255
669.153	10.4884
672.045	0.058105
674.938	0.769699
677.831	2.91879
680.723	1.15389
683.616	9.09286
686.509	32.9224
689.402	71.4611
692.294	126.733
695.187	202.472
698.08	282.843
700.972	359.909
703.865	387.077
706.758	355.375
709.65	278.659
712.543	196.243
715.436	121.386
718.329	75.0966
721.221	46.8071
724.114	34.061
727.007	22.3519
729.899	21.8761
732.792	23.2574
735.685	31.0058
738.577	51.5049
741.47	74.9913
744.363	113.068
747.256	170.042
750.148	216.884
753.041	226.043
755.934	180.954
758.826	131.131
761.719	96.8331
764.612	69.0655
767.505	52.7609
770.397	43.3094
773.29	41.3001
776.183	38.3291
779.075	21.5462
781.968	13.2593
784.861	4.41572
787.753	6.8806
790.646	2.441
793.539	0.555763
796.432	2.00346
799.324	1.53173
802.217	5.0859
805.11	1.77845
808.002	4.25419
810.895	6.74231
813.788	8.83636
816.68	8.63108
819.573	10.3288
822.466	16.1197
825.359	21.2163
828.251	30.0902
831.144	42.7718
834.037	48.7626
836.929	56.2049
839.822	57.1531
842.715	57.145
845.607	53.913
848.5	49.3492
851.393	48.5245
854.285	49.0942
857.178	47.8293
860.071	45.7915
862.964	35.2058
865.856	31.9954
868.749	27.2101
871.642	24.2909
874.534	18.7896
877.427	16.843
880.32	17.4491
883.212	7.84055
886.105	8.94696
888.998	10.814
891.891	8.39896
894.783	6.72018
897.676	3.86883
900.569	2.7991
903.461	3.64978
906.354	2.40846
909.247	2.59753
912.139	1.39246
915.032	4.54034
917.925	1.27594
920.818	0.461926
923.71	0.343307
926.603	1.02723
929.496	0.508816
932.388	0.870964
935.281	2.84761
938.174	4.99949
941.067	4.34706
943.959	3.67259
946.852	4.59976
949.745	10.0282
952.637	10.6112
955.53	15.0058
958.423	18.7635
961.315	21.7611
964.208	23.2679
967.101	26.1401
969.994	23.5129
972.886	22.027
975.779	21.5038
978.672	16.6534
981.564	10.824
984.457	7.78549
987.35	7.20606
990.242	4.0651
993.135	5.59158
996.028	5.97173
998.92	3.60632
1001.81	4.59152
1004.71	7.06635
1007.6	9.98218
1010.49	14.7087
1013.38	23.3972
1016.28	26.4516
1019.17	26.5285
1022.06	24.0772
1024.95	29.2723
1027.85	25.3701
1030.74	31.1121
1033.63	35.5651
1036.53	50.872
1039.42	68.1859
1042.31	94.6468
1045.2	125.931
1048.1	162.633
1050.99	199.338
1053.88	215.652
1056.77	230.239
1059.67	216.801
1062.56	183.262
1065.45	146.624
1068.35	116.962
1071.24	100.851
1074.13	95.574
1077.02	95.8551
1079.92	105.516
1082.81	121.705
1085.7	121.109
1088.59	102.378
1091.49	77.0453
1094.38	52.9273
1097.27	42.1818
1100.16	30.6802
1103.06	21.2493
1105.95	11.7042
1108.84	10.0379
1111.74	2.01039
1114.63	3.19238
1117.52	0.646545
1120.41	0.38298
1123.31	0.825256
1126.2	0.630009
1129.09	0.278873
1131.98	2.62504
1134.88	1.80189
1137.77	4.6122
1140.66	2.45998
1143.56	3.23746
1146.45	0.173119
1149.34	1.52446
1152.23	5.46035
1155.13	5.2773
1158.02	6.80074
1160.91	7.58831
1163.8	8.59702
1166.7	7.97504
1169.59	10.8926
1172.48	8.66327
1175.38	8.81593
1178.27	6.36665
1181.16	12.2956
1184.05	10.3248
1186.95	14.049
1189.84	13.449
1192.73	13.8292
1195.62	13.0035
1198.52	13.6091
1201.41	10.2251
1204.3	9.58331
1207.19	8.73748
1210.09	11.8545
1212.98	7.10642
1215.87	8.74055
1218.77	9.66067
1221.66	10.4268
1224.55	11.3678
1227.44	8.88925
1230.34	10.3983
1233.23	4.95334
1236.12	4.99636
1239.02	7.36675
1241.91	6.6053
1244.8	5.07319
1247.69	5.2621
1250.59	3.05242
1253.48	6.87387
1256.37	3.13244
1259.26	4.5701
1262.16	1.48195
1265.05	7.42304
1267.94	2.27244
1270.83	3.53131
1273.73	0.855122
1276.62	2.78449
1279.51	1.54513
1282.4	4.30351
1285.3	2.99806
1288.19	0.737801
1291.08	0.702995
1293.98	2.56333
1296.87	0.168182
1299.76	5.67305
1302.65	3.63877
