Measurement: Raman, 532 nm, unoriented, Raman Data Processed
Mineral: Elbaite
Rruff sample: R100137
Ideal chemistry: Na(Al_1.5_Li_1.5_)Al_6_(Si_6_O_18_)(BO_3_)_3_(OH)_3_OH
Locality: Nigeria
Source: William W. Pinch
Description: Red cut gemstone
Raman shift (cm-1)	intensity
132.497	0
135.872	0.816199
139.247	0.015842
142.622	0.767642
145.996	1.08602
149.371	0.426907
152.746	8.08091
156.121	12.1857
159.496	10.6339
162.871	8.16803
166.245	12.0922
169.62	17.1681
172.995	20.4911
176.37	16.9897
179.745	13.9759
183.119	10.718
186.494	9.27366
189.869	8.5682
193.244	7.97259
196.619	8.43371
199.994	8.07872
203.369	10.6065
206.743	15.5578
210.118	24.9102
213.493	38.501
216.868	60.9511
220.243	92.3258
223.617	106.611
226.992	85.5938
230.367	58.7695
233.742	43.9256
237.117	39.3193
240.492	37.5647
243.866	42.3605
247.241	43.9316
250.616	40.9188
253.991	32.7171
257.366	28.7526
260.74	27.1852
264.115	27.6898
267.49	27.7895
270.865	30.6665
274.24	28.4462
277.615	21.8014
280.989	18.3411
284.364	13.7577
287.739	9.02942
291.114	4.91114
294.489	0.263443
297.863	3.11341
301.238	2.72598
304.613	2.02782
307.988	0.482185
311.363	3.2463
314.738	5.3281
318.112	4.00469
321.487	4.27931
324.862	7.55276
328.237	13.4076
331.612	17.2847
334.986	17.3412
338.361	16.8898
341.736	19.3099
345.111	21.9859
348.486	24.8338
351.861	25.6719
355.235	28.162
358.61	34.5093
361.985	45.5941
365.36	65.9001
368.735	99.9891
372.11	138.365
375.484	145.96
378.859	116.531
382.234	77.4393
385.609	53.7747
388.984	40.3291
392.358	36.0791
395.733	33.1396
399.108	34.767
402.483	35.3241
405.858	35.0445
409.233	33.667
412.607	28.2166
415.982	20.1975
419.357	10.3256
422.732	4.58829
426.107	1.70545
429.481	0.328644
432.856	0.528675
436.231	0.930485
439.606	2.59895
442.981	3.70663
446.356	4.87875
449.73	6.60885
453.105	5.19892
456.48	3.9197
459.855	2.9962
463.23	0.867493
466.604	0.133362
469.979	0.84454
473.354	0.042877
476.729	0.70525
480.104	0.796871
483.479	0.089462
486.853	3.28949
490.228	3.64422
493.603	4.0744
496.978	8.40204
500.353	11.2337
503.728	14.4517
507.102	18.1722
510.477	20.8162
513.852	23.961
517.227	25.9312
520.602	25.7811
523.976	20.3219
527.351	17.2567
530.726	14.9562
534.101	16.4142
537.476	17.6233
540.851	17.2979
544.225	14.567
547.6	11.6644
550.975	8.17963
554.35	7.43235
557.725	5.62673
561.099	5.02539
564.474	3.63834
567.849	1.15928
571.224	1.55843
574.599	0.685623
577.973	1.15228
581.348	0.704689
584.723	1.65484
588.098	0.381119
591.473	1.38173
594.848	0.645683
598.222	0.880917
601.597	0.539318
604.972	0.205444
608.347	0.036865
611.722	1.88664
615.097	1.09152
618.471	1.66351
621.846	4.15454
625.221	5.41568
628.596	9.67503
631.971	13.1042
635.346	17.309
638.72	17.2471
642.095	16.1396
645.47	12.7733
648.845	8.00129
652.22	5.67345
655.594	5.62831
658.969	3.46828
662.344	2.77348
665.719	0.337864
669.094	0.79343
672.468	0.412689
675.843	0.329884
679.218	0.207088
682.593	0.489914
685.968	0.645061
689.343	0.183758
692.717	4.75441
696.092	11.2754
699.467	20.0851
702.842	32.6623
706.217	46.9747
709.592	58.6352
712.966	60.4467
716.341	48.6051
719.716	32.1389
723.091	19.7258
726.466	13.8728
729.841	11.6377
733.215	9.72172
736.59	12.7165
739.965	15.7662
743.34	23.8061
746.715	34.4513
750.089	40.3696
753.464	36.4523
756.839	28.3496
760.214	21.5945
763.589	17.7123
766.963	13.2299
770.338	12.1898
773.713	11.2229
777.088	10.4332
780.463	9.6962
783.838	8.31128
787.212	3.39238
790.587	2.0871
793.962	0.196571
797.337	0.880293
800.712	0.002949
804.087	0.149117
807.461	0.62318
810.836	1.14756
814.211	0.022263
817.586	0.105757
820.961	1.11245
824.335	0.760357
827.71	1.25154
831.085	1.82885
834.46	1.76735
837.835	3.10639
841.21	1.84041
844.584	3.07592
847.959	3.21227
851.334	3.74354
854.709	4.93356
858.084	5.10949
861.458	4.30636
864.833	6.11618
868.208	6.07613
871.583	6.05142
874.958	6.71414
878.333	6.01978
881.707	5.47655
885.082	4.35081
888.457	4.04526
891.832	2.88728
895.207	2.60654
898.582	2.33548
901.956	2.76299
905.331	2.47074
908.706	0.268856
912.081	0.548401
915.456	0.408545
918.83	0.152664
922.205	0.581388
925.58	1.49184
928.955	0.175514
932.33	2.29539
935.705	0.294977
939.079	2.1687
942.454	1.81387
945.829	0.555899
949.204	1.62418
952.579	1.85102
955.953	2.85332
959.328	2.91277
962.703	3.11827
966.078	4.56646
969.453	3.67559
972.827	5.47162
976.202	4.63593
979.577	4.08513
982.952	5.13344
986.327	3.60736
989.702	3.73391
993.077	3.84071
996.451	1.62459
999.826	1.57548
1003.2	0.132698
1006.58	0.290131
1009.95	1.03136
1013.33	0.376968
1016.7	0.970585
1020.08	1.22001
1023.45	1.51669
1026.83	2.15113
1030.2	2.47403
1033.57	3.46118
1036.95	4.12009
1040.32	6.37576
1043.7	9.81706
1047.07	14.9011
1050.45	21.8609
1053.82	29.2125
1057.2	35.3151
1060.57	38.8563
1063.95	37.5871
1067.32	34.1789
1070.7	31.3713
1074.07	28.9783
1077.45	24.1171
1080.82	19.946
1084.2	16.5211
1087.57	14.2488
1090.95	11.4537
1094.32	9.83269
1097.7	7.63412
1101.07	5.41754
1104.45	3.69192
1107.82	1.60505
1111.19	2.51936
1114.57	0.214787
1117.94	0.247475
1121.32	0.872299
1124.69	0.832485
1128.07	0.840792
1131.44	0.312933
1134.82	0.576731
1138.19	1.46408
1141.57	0.487337
1144.94	0.20331
1148.32	0.473766
1151.69	0.055536
1155.07	0.061228
1158.44	0.218691
1161.82	0.109943
1165.19	0.011236
1168.57	1.12109
1171.94	1.26966
1175.32	1.31694
1178.69	1.74209
1182.07	0.006935
1185.44	1.58019
1188.82	2.7999
1192.19	0.925753
1195.57	1.77953
1198.94	1.84439
1202.32	2.16363
1205.69	2.88208
1209.07	2.55688
1212.44	2.48431
1215.82	1.20243
1219.19	1.70348
1222.56	1.23068
1225.94	1.89279
1229.31	1.78044
1232.69	1.19992
1236.06	1.58505
1239.44	1.08258
1242.81	1.71388
1246.19	1.66393
1249.56	1.47733
1252.94	0.621567
1256.31	1.64162
1259.69	1.16839
1263.06	1.01992
1266.44	1.62511
1269.81	1.38003
1273.19	2.40807
1276.56	3.02807
1279.94	0.959948
1283.31	2.25038
1286.69	1.75936
1290.06	1.09407
1293.43	2.65741
1296.81	0.748943
1300.18	1.69115
