Measurement: Raman, 780 nm, unoriented, Raman Data Processed
Mineral: Elbaite
Rruff sample: R060631
Ideal chemistry: Na(Al_1.5_Li_1.5_)Al_6_(Si_6_O_18_)(BO_3_)_3_(OH)_3_OH
Locality: unknown
Source: Gemological Institute of America
Description: Pink polished fragment
Measured chemistry: (Na_0.55_Ca_0.34_[box]_0.11_)(Li_1.53_Al_1.30_Mn_0.14_Fe^2+^_0.03_)Al_6.00_(BO_3_)_3_[Si_6.00_O_18_]((OH)_0.82_F_0.18_)_4_
Raman shift (cm-1)	intensity
100.402	0
103.295	1.04959
106.187	0.423447
109.08	0.433716
111.973	1.75966
114.865	3.97378
117.758	3.26814
120.651	5.71551
123.544	9.64069
126.436	10.0242
129.329	10.3938
132.222	15.2033
135.114	14.7576
138.007	10.7439
140.9	11.3698
143.792	13.0588
146.685	11.8112
149.578	15.3542
152.471	15.7999
155.363	13.7976
158.256	9.57631
161.149	6.60985
164.041	3.4697
166.934	0.910324
169.827	0.578201
172.72	0.645599
175.612	0.77449
178.505	0.24646
181.398	1.63576
184.29	1.17969
187.183	1.04123
190.076	4.02875
192.968	9.06967
195.861	14.7195
198.754	20.0165
201.647	26.0809
204.539	29.284
207.432	37.654
210.325	42.616
213.217	54.2038
216.11	69.9252
219.003	94.1556
221.895	109.202
224.788	103.096
227.681	86.0001
230.573	68.9839
233.466	63.135
236.359	57.5278
239.251	57.1456
242.144	55.3418
245.037	49.2212
247.93	40.2448
250.822	30.8698
253.715	22.4427
256.608	17.676
259.5	15.2802
262.393	12.6967
265.286	14.4092
268.178	16.9102
271.071	16.8447
273.964	17.0377
276.857	15.3501
279.749	14.2582
282.642	14.2675
285.535	13.9524
288.427	10.9875
291.32	6.13087
294.213	3.41641
297.106	0.858109
299.998	3.37555
302.891	0.306458
305.784	2.10777
308.676	2.84108
311.569	3.97397
314.462	3.526
317.354	6.56287
320.247	8.49091
323.14	13.4946
326.033	17.7668
328.925	19.8308
331.818	18.2577
334.711	18.6769
337.603	14.6812
340.496	14.8395
343.389	15.2729
346.281	17.3354
349.174	17.6722
352.067	20.1371
354.959	23.9169
357.852	33.2925
360.745	42.8154
363.637	58.8614
366.53	79.6999
369.423	113.922
372.316	158.245
375.208	175.208
378.101	149.175
380.994	113.796
383.886	83.6467
386.779	60.3377
389.672	48.0028
392.565	40.4237
395.457	39.1718
398.35	37.4103
401.243	40.9271
404.135	44.1989
407.028	46.1557
409.921	41.8125
412.813	31.2564
415.706	23.1191
418.599	10.2595
421.491	6.06519
424.384	2.40942
427.277	0.896454
430.17	1.09827
433.062	1.42334
435.955	2.51614
438.848	0.446701
441.74	1.64102
444.633	2.21738
447.526	3.44162
450.418	4.54352
453.311	4.9109
456.204	6.09274
459.097	4.66507
461.989	4.67212
464.882	2.12662
467.775	3.77704
470.667	2.41988
473.56	2.73476
476.453	4.25276
479.346	2.33986
482.238	6.02292
485.131	6.86911
488.024	8.98639
490.916	10.0375
493.809	11.0261
496.702	12.9375
499.594	14.5738
502.487	16.8076
505.38	17.6914
508.272	19.1293
511.165	20.5776
514.058	20.2312
516.951	19.8657
519.843	17.1723
522.736	13.4466
525.629	11.8215
528.521	13.3159
531.414	13.1999
534.307	16.8565
537.199	17.7586
540.092	16.1286
542.985	15.396
545.878	13.5417
548.77	12.2423
551.663	7.95018
554.556	8.36398
557.448	6.42358
560.341	3.84988
563.234	1.57826
566.126	0.420578
569.019	0.078232
571.912	0.221512
574.804	0.45076
577.697	0.045456
580.59	1.20439
583.483	0.349686
586.375	0.349808
589.268	0.480194
592.161	1.30306
595.053	0.04393
597.946	1.13337
600.839	0.446297
603.731	1.6961
606.624	0.754395
609.517	0.471039
612.41	1.71897
615.302	1.79953
618.195	2.03217
621.088	3.36368
623.98	6.63537
626.873	8.57555
629.766	13.2599
632.658	17.1305
635.551	19.958
638.444	19.3857
641.337	17.5953
644.229	13.0325
647.122	11.0755
650.015	8.57927
652.907	7.02546
655.8	3.95833
658.693	2.93617
661.585	2.34185
664.478	2.43561
667.371	2.21427
670.264	1.83952
673.156	1.97713
676.049	0.17675
678.942	0.46611
681.834	0.670769
684.727	2.08495
687.62	0.128258
690.513	3.3006
693.405	7.54665
696.298	16.2188
699.191	25.9964
702.083	38.3167
704.976	50.3334
707.869	58.9826
710.761	58.2577
713.654	48.6573
716.547	35.9038
719.439	25.3596
722.332	17.0982
725.225	13.5683
728.117	11.6617
731.01	12.8554
733.903	15.7912
736.796	22.1448
739.688	26.9295
742.581	35.1987
745.474	47.8521
748.366	46.6145
751.259	49.1951
754.152	44.4676
757.044	39.2734
759.937	32.1744
762.83	32.2341
765.723	25.7288
768.615	22.9305
771.508	21.4951
774.401	21.1496
777.293	18.4648
780.186	13.3855
783.079	8.32738
785.971	4.22217
788.864	2.87844
791.757	1.29149
794.649	1.6547
797.542	0.016907
800.435	0.346474
803.328	0.444382
806.22	0.206482
809.113	0.172371
812.006	0.125374
814.898	0.177666
817.791	1.14613
820.684	1.03503
823.577	1.96471
826.469	2.68912
829.362	4.242
832.255	4.97755
835.147	5.68253
838.04	6.29327
840.933	5.38178
843.825	6.2722
846.718	6.14848
849.611	6.72119
852.504	7.21764
855.396	7.27801
858.289	8.43583
861.182	9.48312
864.074	9.5402
866.967	10.5541
869.86	9.17326
872.752	10.257
875.645	8.49456
878.538	7.83727
881.431	6.56487
884.323	5.33796
887.216	6.23756
890.109	3.99191
893.001	3.08302
895.894	3.03479
898.787	1.89929
901.679	1.2989
904.572	0.267319
907.465	0.113251
910.357	0.089371
913.25	1.18629
916.143	0.124023
919.036	0.81987
921.928	0.199768
924.821	0.740425
927.714	0.278877
930.606	0.705467
933.499	0.524712
936.392	0.181046
939.284	0.428261
942.177	0.737617
945.07	2.0753
947.963	2.03278
950.855	1.45944
953.748	1.706
956.641	0.968575
959.533	2.21378
962.426	3.24591
965.319	3.65066
968.211	4.42175
971.104	3.43953
973.997	3.81838
976.889	4.98351
979.782	4.42751
982.675	3.3182
985.568	1.95918
988.46	1.28326
991.353	1.70319
994.246	1.17301
997.138	0.748955
1000.03	0.244476
1002.92	1.5788
1005.82	2.95442
1008.71	3.71126
1011.6	3.93488
1014.5	5.77982
1017.39	6.71436
1020.28	8.75433
1023.17	7.56143
1026.07	8.36681
1028.96	10.2709
1031.85	12.1333
1034.74	13.0759
1037.64	18.4778
1040.53	21.5011
1043.42	27.3685
1046.31	35.0744
1049.21	41.6917
1052.1	50.1225
1054.99	56.5793
1057.88	59.5585
1060.78	60.0185
1063.67	59.1709
1066.56	55.9179
1069.46	49.8277
1072.35	46.9759
1075.24	42.8668
1078.13	39.6371
1081.03	38.107
1083.92	36.3286
1086.81	36.1171
1089.7	32.2191
1092.6	29.5677
1095.49	26.2756
1098.38	21.3421
1101.28	18.4432
1104.17	16.0159
1107.06	11.094
1109.95	8.36662
1112.85	3.26191
1115.74	0.30838
1118.63	2.09361
1121.52	1.89578
1124.42	0.243774
1127.31	0.60041
1130.2	0.936005
1133.1	2.09106
1135.99	3.47996
1138.88	4.54685
1141.77	6.16151
1144.67	8.39621
1147.56	6.26576
1150.45	4.55011
1153.34	4.05084
1156.24	5.16263
1159.13	6.43558
1162.02	3.50465
1164.91	4.93189
1167.81	6.07179
1170.7	3.73804
1173.59	0.032379
