Measurement: Raman, 780 nm, unoriented, Raman Data Processed
Mineral: Elbaite
Rruff sample: R050487
Ideal chemistry: Na(Al_1.5_Li_1.5_)Al_6_(Si_6_O_18_)(BO_3_)_3_(OH)_3_OH
Locality: White Queen mine, Pala, San Diego County, California, USA
Source: California Institute of Technology
Description: Mass of blue acicular crystals
Measured chemistry: (Na_0.86_[box]_0.13_Ca_0.01_)(Al_0.42_Li_0.38_Fe^2+^_0.18_Mn_0.02_)_3_Al_6_(BO_3_)_3_Si_6_O_18_((OH)_0.85_F_0.15_)_4_
Raman shift (cm-1)	intensity
157.423	0
160.315	1.25331
163.208	0.029381
166.101	0.849915
168.994	1.05144
171.886	0.780586
174.779	0.310585
177.672	0.579903
180.564	0.473656
183.457	0.70636
186.35	0.794052
189.242	0.476608
192.135	1.47306
195.028	2.4647
197.921	4.19157
200.813	6.2892
203.706	9.04308
206.599	13.2438
209.491	16.3431
212.384	20.4129
215.277	26.5297
218.169	30.0951
221.062	35.7313
223.955	35.2918
226.847	31.4488
229.74	28.6858
232.633	25.9358
235.526	24.5768
238.418	23.5276
241.311	24.6354
244.204	23.1607
247.096	22.4803
249.989	21.9746
252.882	20.9411
255.774	18.466
258.667	16.4456
261.56	15.3939
264.453	15.3241
267.345	13.7511
270.238	12.5556
273.131	10.4763
276.023	8.58745
278.916	7.25836
281.809	6.24285
284.702	2.97183
287.594	1.53838
290.487	0.98333
293.38	0.219666
296.272	0.143463
299.165	0.232399
302.058	0.24398
304.95	0.180664
307.843	0.134293
310.736	0.195839
313.628	0.450447
316.521	0.771065
319.414	1.11819
322.307	1.34032
325.199	1.18876
328.092	1.44189
330.985	1.73667
333.877	3.69788
336.77	4.23452
339.663	5.3706
342.556	6.70583
345.448	7.07449
348.341	9.50582
351.234	11.3084
354.126	15.8757
357.019	21.1282
359.912	25.9282
362.805	32.5703
365.697	42.0176
368.59	52.7589
371.483	58.4674
374.375	47.9416
377.268	30.7008
380.161	20.4808
383.053	13.8709
385.946	11.6261
388.839	10.2695
391.731	10.0169
394.624	10.8322
397.517	11.576
400.41	12.6499
403.302	15.9064
406.195	16.7552
409.088	17.2671
411.98	13.7882
414.873	10.0162
417.766	6.23926
420.659	3.64646
423.551	2.64453
426.444	1.05888
429.337	0.205269
432.229	0.743179
435.122	0.284317
438.015	0.115646
440.907	0.017323
443.8	0.055767
446.693	0.174561
449.586	0.211716
452.478	0.342266
455.371	0.656708
458.264	0.660366
461.156	0.203224
464.049	0.706451
466.942	1.01082
469.834	1.52175
472.727	0.918438
475.62	0.53912
478.513	1.528
481.405	1.28363
484.298	1.97864
487.191	2.20866
490.083	3.69228
492.976	3.42274
495.869	3.73172
498.762	4.22507
501.654	4.07133
504.547	4.55025
507.44	4.65994
510.332	4.25165
513.225	4.37564
516.118	2.91647
519.01	2.93285
521.903	1.38472
524.796	1.39889
527.688	1.10301
530.581	0.735912
533.474	0.841068
536.367	0.96349
539.259	1.29188
542.152	1.81244
545.045	2.25577
547.937	1.90309
550.83	2.14507
553.723	2.28495
556.615	1.85089
559.508	1.94841
562.401	1.38079
565.294	0.240036
568.186	0.533485
571.079	0.404869
573.972	1.36321
576.864	0.408352
579.757	0.031727
582.65	1.12896
585.543	0.665367
588.435	0.22789
591.328	0.433193
594.221	0.323334
597.113	0.061584
600.006	0.227703
602.899	0.018169
605.791	1.21039
608.684	0.480045
611.577	1.25767
614.47	1.28968
617.362	1.93034
620.255	3.17734
623.148	4.47461
626.04	6.50237
628.933	9.24082
631.826	10.4985
634.718	10.674
637.611	10.7329
640.504	8.50951
643.397	7.37777
646.289	5.33202
649.182	5.6845
652.075	5.47919
654.967	4.56926
657.86	3.14029
660.753	3.93096
663.645	1.89402
666.538	1.00595
669.431	0.023914
672.324	0.202972
675.216	0.300152
678.109	0.209621
681.002	1.36797
683.894	1.17793
686.787	2.82751
689.68	4.86718
692.572	7.76809
695.465	11.3158
698.358	14.6308
701.251	17.2106
704.143	16.8986
707.036	14.4182
709.929	10.7134
712.821	8.01289
715.714	5.10289
718.607	3.06038
721.5	2.02677
724.392	2.41028
727.285	2.00211
730.178	0.356033
733.07	1.0875
735.963	0.745659
738.856	0.787251
741.749	1.36104
744.641	2.26477
747.534	2.63987
750.427	3.28906
753.319	2.88891
756.212	1.87935
759.105	1.95598
761.997	0.492348
764.89	0.614769
767.783	0.296501
770.676	0.445057
773.568	0.143623
776.461	0.545383
779.354	0.432674
782.246	0.111721
785.139	0.549171
788.032	0.120766
790.924	0.108973
793.817	0.227003
796.71	0.398375
799.602	0.299648
802.495	0.685223
805.388	0.016121
808.281	1.21114
811.173	0.386124
814.066	1.10728
816.959	1.22567
819.851	1.36705
822.744	1.19518
825.637	2.26659
828.529	1.79772
831.422	1.88407
834.315	1.82517
837.208	2.29116
840.1	1.99064
842.993	2.68529
845.886	1.91512
848.778	3.47451
851.671	3.32069
854.564	3.05049
857.457	2.43315
860.349	2.83006
863.242	2.16938
866.135	2.42998
869.027	2.38124
871.92	1.42919
874.813	2.18677
877.705	2.05031
880.598	1.31209
883.491	1.68371
886.384	1.8778
889.276	1.36296
892.169	0.895977
895.062	0.870369
897.954	0.302357
900.847	0.205875
903.74	0.103542
906.632	0.565598
909.525	0.013191
912.418	0.100063
915.311	0.308868
918.203	0.3521
921.096	0.118587
923.989	0.02866
926.881	0.046589
929.774	0.089108
932.667	0.132095
935.559	0.704334
938.452	0.024647
941.345	0.315418
944.238	0.626446
947.13	0.559406
950.023	0.596886
952.916	1.24636
955.808	1.03392
958.701	0.347
961.594	1.18841
964.486	1.00275
967.379	0.723606
970.272	1.41311
973.165	1.04735
976.057	0.585278
978.95	0.258804
981.843	0.096466
984.735	0.897774
987.628	0.673943
990.521	0.709988
993.413	0.241547
996.306	0.780159
999.199	0.687321
1002.09	0.385864
1004.98	1.04172
1007.88	0.835022
1010.77	1.66854
1013.66	1.58381
1016.55	1.20652
1019.45	1.38531
1022.34	1.18905
1025.23	1.35366
1028.13	0.796513
1031.02	0.837601
1033.91	1.29284
1036.8	0.654072
1039.7	0.486332
1042.59	0.146961
1045.48	1.36835
1048.38	1.58091
1051.27	2.4966
1054.16	2.75841
1057.05	3.1814
1059.95	4.01961
1062.84	3.54245
1065.73	2.08729
1068.62	2.4552
1071.52	2.54765
1074.41	2.80606
1077.3	2.83239
1080.19	4.0034
1083.09	4.87505
1085.98	5.26442
1088.87	3.51084
1091.77	3.19417
1094.66	2.82899
1097.55	1.96748
1100.44	0.806602
1103.34	0.289196
1106.23	0.405361
1109.12	0.032196
1112.01	0.465828
1114.91	0.187145
1117.8	0.268246
1120.69	0.208965
1123.59	1.33047
1126.48	0.586643
1129.37	0.747265
1132.26	1.04508
1135.16	0.047642
1138.05	0.101379
1140.94	0.136707
1143.83	0.214085
1146.73	0.174911
1149.62	0.337959
1152.51	0.533279
1155.4	0.591312
1158.3	0.390659
1161.19	0.32394
1164.08	0.433434
1166.98	0.598995
1169.87	0.907177
1172.76	0.899837
1175.65	0.830978
1178.55	0.879597
1181.44	1.4354
1184.33	0.857609
1187.22	1.20203
1190.12	1.23636
1193.01	1.64573
1195.9	1.65419
1198.8	1.57909
1201.69	1.5515
1204.58	1.14431
1207.47	0.634804
1210.37	0.993107
1213.26	0.67659
1216.15	0.517357
1219.04	0.440575
1221.94	0.019238
1224.83	0.047878
1227.72	1.08594
1230.62	1.00723
1233.51	0.358002
1236.4	0.206757
1239.29	0.783161
1242.19	0.436977
1245.08	1.00645
1247.97	0.388222
1250.86	1.04704
1253.76	0.626091
1256.65	0.568172
1259.54	1.2207
1262.43	0.506706
1265.33	1.27894
1268.22	0.957836
1271.11	0.882183
1274.01	0.380642
1276.9	0.424042
1279.79	0.936169
1282.68	0.906639
1285.58	0.632851
