Measurement: Raman, 780 nm, unoriented, Raman Data Processed
Mineral: Elbaite
Rruff sample: R060560
Ideal chemistry: Na(Al_1.5_Li_1.5_)Al_6_(Si_6_O_18_)(BO_3_)_3_(OH)_3_OH
Locality: California, USA
Source: Gemological Institute of America
Description: Pink fragment
Measured chemistry: (Na_0.56_Ca_0.12_[box]_0.32_)(Al_1.60_Li_1.40_)Al_6_(BO_3_)_3_[Si_6_O_18_](OH)_4_
Raman shift (cm-1)	intensity
105.223	0
108.598	0.316338
111.973	0.587311
115.348	5.26868
118.722	5.64869
122.097	9.22162
125.472	9.79987
128.847	10.4797
132.222	13.4836
135.596	11.964
138.971	13.2978
142.346	12.3864
145.721	13.5462
149.096	17.2029
152.471	14.2217
155.845	7.32665
159.22	2.70236
162.595	0.428055
165.97	1.25971
169.345	1.26811
172.72	0.526039
176.094	0.048561
179.469	0.002686
182.844	0.115074
186.219	1.30019
189.594	6.04495
192.968	10.975
196.343	17.8721
199.718	26.9628
203.093	38.0269
206.468	45.9501
209.842	58.0153
213.217	78.2624
216.592	107.276
219.967	147.176
223.342	165.299
226.716	134.443
230.091	100.527
233.466	82.663
236.841	76.7141
240.216	79.3465
243.591	81.0447
246.965	78.2597
250.34	63.5478
253.715	47.0359
257.09	37.2926
260.465	31.4195
263.839	31.2708
267.214	32.1399
270.589	35.4435
273.964	35.8929
277.339	31.617
280.714	27.9575
284.088	20.8053
287.463	13.4759
290.838	5.06011
294.213	0.334557
297.588	4.03478
300.962	4.63821
304.337	1.20728
307.712	7.44233
311.087	10.8013
314.462	16.3794
317.837	18.94
321.211	21.8813
324.586	30.29
327.961	40.7692
331.336	41.2707
334.711	37.9622
338.085	32.979
341.46	33.1221
344.835	34.7604
348.21	38.6769
351.585	45.4323
354.959	55.2277
358.334	70.552
361.709	89.8874
365.084	123.076
368.459	170.329
371.834	228.305
375.208	252.722
378.583	206.621
381.958	141.493
385.333	99.9961
388.708	75.5494
392.082	65.9986
395.457	62.0788
398.832	65.6172
402.207	69.2075
405.582	71.5124
408.957	68.3971
412.331	54.5849
415.706	36.4552
419.081	19.8446
422.456	8.11051
425.831	0.621231
429.205	2.81141
432.58	3.25281
435.955	1.39657
439.33	0.392624
442.705	4.05254
446.079	5.06055
449.454	8.21803
452.829	7.71222
456.204	4.81959
459.579	3.65669
462.954	2.61064
466.328	1.29231
469.703	0.408684
473.078	0.074654
476.453	0.332245
479.828	2.35158
483.202	4.54217
486.577	5.6107
489.952	7.6212
493.327	10.6519
496.702	13.1048
500.077	16.0892
503.451	22.0853
506.826	27.3656
510.201	31.7764
513.576	38.21
516.951	40.1774
520.325	37.4099
523.7	30.2319
527.075	25.0818
530.45	27.5145
533.825	28.7853
537.199	31.8351
540.574	31.468
543.949	26.9935
547.324	21.95
550.699	18.8549
554.073	14.8968
557.448	12.5708
560.823	9.3958
564.198	6.90395
567.573	3.78374
570.948	2.49446
574.322	3.61924
577.697	1.94169
581.072	3.11652
584.447	2.95845
587.822	2.76524
591.197	2.93725
594.571	2.44938
597.946	0.543087
601.321	0.49456
604.696	1.79075
608.071	0.502029
611.445	0.615616
614.82	0.152962
618.195	0.624935
621.57	2.78563
624.945	5.12635
628.319	10.177
631.694	15.9645
635.069	22.8965
638.444	28.4712
641.819	29.825
645.193	24.7685
648.568	17.0572
651.943	10.8908
655.318	7.24887
658.693	3.86243
662.068	1.16786
665.442	0.386013
668.817	1.37922
672.192	0.129669
675.567	1.80246
678.942	1.55004
682.317	0.110085
685.691	1.21495
689.066	3.41698
692.441	10.3116
695.816	21.668
699.191	34.739
702.565	54.1894
705.94	78.7001
709.315	93.1701
712.69	87.4403
716.065	66.87
719.439	47.3077
722.814	31.038
726.189	23.3177
729.564	21.383
732.939	24.128
736.313	30.1999
739.688	40.0799
743.063	53.4753
746.438	67.8136
749.813	73.0245
753.188	64.8424
756.562	50.7627
759.937	39.9047
763.312	31.8904
766.687	27.2273
770.062	23.1104
773.437	21.7004
776.811	22.2843
780.186	18.2462
783.561	11.2233
786.936	6.545
790.311	2.31129
793.685	2.7961
797.06	0.75491
800.435	0.216557
803.81	0.961494
807.185	1.27851
810.559	0.469471
813.934	0.222099
817.309	0.547394
820.684	0.978836
824.059	2.2569
827.433	2.98597
830.808	4.96048
834.183	4.66212
837.558	6.26168
840.933	5.09609
844.308	5.24861
847.682	4.72349
851.057	6.52155
854.432	7.01948
857.807	7.9669
861.182	10.7143
864.557	12.2959
867.931	12.7279
871.306	12.6007
874.681	13.6827
878.056	13.2912
881.431	11.1134
884.805	10.2525
888.18	9.24856
891.555	7.01923
894.93	5.40523
898.305	3.9654
901.679	3.01926
905.054	1.11966
908.429	0.068535
911.804	0.411724
915.179	0.374254
918.553	1.06959
921.928	0.041576
925.303	0.004772
928.678	0.422401
932.053	0.210312
935.428	0.320072
938.802	0.692194
942.177	1.98675
945.552	2.40716
948.927	2.1399
952.302	2.48133
955.677	2.41712
959.051	3.60595
962.426	5.62668
965.801	5.66791
969.176	7.63901
972.551	8.06675
975.925	8.27022
979.3	6.83874
982.675	6.25531
986.05	5.82409
989.425	5.0302
992.799	3.68049
996.174	2.30214
999.549	1.9146
1002.92	2.43619
1006.3	1.20964
1009.67	1.12602
1013.05	0.142738
1016.42	2.349
1019.8	3.99136
1023.17	4.75119
1026.55	5.79803
1029.92	6.30388
1033.3	7.68449
1036.67	9.35453
1040.05	12.3276
1043.42	19.1554
1046.8	25.461
1050.17	35.5872
1053.55	43.2448
1056.92	50.1595
1060.3	54.0454
1063.67	53.3984
1067.05	49.4989
1070.42	44.519
1073.8	37.8372
1077.17	34.0167
1080.55	29.6858
1083.92	27.3919
1087.29	24.3347
1090.67	21.2989
1094.04	17.6043
1097.42	15.3563
1100.79	11.4694
1104.17	8.2258
1107.54	6.01307
1110.92	3.76777
1114.29	1.50561
1117.67	1.83954
1121.04	1.05883
1124.42	0.222446
1127.79	0.293713
1131.17	0.983067
1134.54	0.008486
1137.92	0.492538
1141.29	0.587034
1144.67	0.683853
1148.04	0.671771
1151.42	0.279816
1154.79	0.277758
1158.16	0.288391
1161.54	2.20769
1164.91	2.53918
1168.29	3.53758
1171.66	4.30018
1175.04	5.5085
1178.41	6.12704
1181.79	5.24058
1185.16	5.97794
1188.54	7.06593
1191.91	6.12612
1195.29	7.36897
1198.66	7.3859
1202.04	7.22302
1205.41	7.93059
1208.79	7.56652
1212.16	6.40791
1215.54	5.57175
1218.91	5.31351
1222.29	4.24009
1225.66	4.10207
1229.04	3.0948
1232.41	2.23685
1235.79	1.87101
1239.16	1.53875
1242.54	2.14527
1245.91	0.140224
1249.29	0.14197
1252.66	0.406662
1256.04	0.44788
1259.41	0.790352
1262.79	2.60082
1266.16	1.92277
1269.53	3.27552
1272.91	1.81308
1276.28	1.05376
1279.66	0.035366
1283.03	1.2959
1286.41	0
