Measurement: Raman, 532 nm, unoriented, Raman Data Processed
Mineral: Elbaite
Rruff sample: R070564
Ideal chemistry: Na(Al_1.5_Li_1.5_)Al_6_(Si_6_O_18_)(BO_3_)_3_(OH)_3_OH
Locality: unknown
Source: Gemological Institute of America
Description: Green outer portion of a zoned watermelon tourmaline slice, see also R060566 (pink) and R070563 (white)
Measured chemistry: (Na_0.77_[box]_0.19_Ca_0.04_)_Σ=1_(Al_1.69_Li_0.66_Fe^2+^_0.49_Mn_0.12_Mg_0.03_Ti_0.01_)_Σ=3_Al_6.00_(BO_3_)_3_Si_6.00_O_18_((OH)_3.10_F_0.90_)_Σ=4_; H_2_O from stoichiometry after deduction of F; B_2_O_3_ by difference; Li by charge balance
Raman shift (cm-1)	intensity
181.755	0
184.648	219.865
187.541	225.815
190.433	47.3535
193.326	146.545
196.219	373.898
199.111	541.098
202.004	1015.91
204.897	1371.43
207.789	2039.61
210.682	2722.48
213.575	3615.9
216.467	4594.95
219.36	5277.19
222.253	5518.89
225.145	4627.53
228.038	3822.9
230.931	3266.77
233.824	2886.94
236.716	2859.06
239.609	2751.66
242.502	2688.07
245.394	2374.97
248.287	2184.23
251.18	1870.67
254.072	1801.26
256.965	1620.14
259.858	1204.89
262.751	1292.17
265.643	1137.54
268.536	1277.34
271.429	1114.56
274.321	1035.21
277.214	907.275
280.107	525.529
283	361.078
285.892	168.32
288.785	87.9805
291.678	87.5644
294.57	132.498
297.463	65.1484
300.356	172.529
303.248	67.6973
306.141	201.734
309.034	362.664
311.926	471.863
314.819	552.629
317.712	703.562
320.605	852.627
323.497	1067.48
326.39	1225.62
329.283	1411.31
332.175	1548.8
335.068	1658.72
337.961	1810.16
340.853	1822.93
343.746	1900.66
346.639	2054.71
349.532	2052.27
352.424	2402.56
355.317	2970.57
358.21	3536.35
361.102	4422.52
363.995	5228.74
366.888	6482.38
369.78	7250.45
372.673	7845.81
375.566	6976.52
378.459	5236.57
381.351	3867.74
384.244	2830.57
387.137	2216.55
390.029	2006.84
392.922	1893.97
395.815	1851.24
398.707	1885.03
401.6	1927.72
404.493	1757.38
407.385	1738.59
410.278	1574.56
413.171	1298.38
416.064	868.451
418.956	512.553
421.849	320.742
424.742	58.9004
427.634	62.0684
430.527	9.23242
433.42	34.0371
436.312	78.0156
439.205	223.65
442.098	28.7969
444.991	172.352
447.883	92.9492
450.776	99.4844
453.669	42.709
456.561	19.709
459.454	37.1934
462.347	14.3496
465.24	14.498
468.132	2.36914
471.025	148.818
473.918	108.711
476.81	286.049
479.703	286.574
482.596	459.914
485.488	509.065
488.381	369.438
491.274	579.486
494.166	476.68
497.059	644.814
499.952	801.117
502.844	650.443
505.737	799.918
508.63	486.793
511.523	585.771
514.415	428.779
517.308	296.756
520.201	121.471
523.093	128.736
525.986	72.125
528.879	151.65
531.771	231.941
534.664	274.606
537.557	30.0703
540.45	154.867
543.342	215.459
546.235	224.135
549.128	72.3594
552.02	3.51758
554.913	214.914
557.806	274.037
560.698	307.332
563.591	208.9
566.484	156.637
569.377	161.951
572.269	56.252
575.162	118.232
578.055	163.594
580.947	192.707
583.84	62.2285
586.733	254.221
589.625	122.557
592.518	140.17
595.411	48.0703
598.304	173.361
601.196	26.127
604.089	58.9492
606.982	14.9453
609.874	59.9922
612.767	8.32031
615.66	9.20312
618.553	38.3652
621.445	194.664
624.338	271.588
627.231	336.572
630.123	393.301
633.016	458.178
635.909	500.182
638.801	468.275
641.694	492.178
644.587	517.498
647.48	428.693
650.372	434.103
653.265	435.17
656.158	393.4
659.05	410.492
661.943	208.705
664.836	295.018
667.728	130.139
670.621	89.8086
673.514	63.4746
676.406	34.5527
679.299	54.4551
682.192	104.996
685.085	186.75
687.977	252.906
690.87	419.072
693.763	450.01
696.655	950.018
699.548	1380.38
702.441	2076.53
705.333	2397.85
708.226	2885.22
711.119	3270.92
714.011	3372.75
716.904	3492.95
719.797	3302.75
722.69	3144.4
725.582	2673.35
728.475	2212.78
731.368	1633.17
734.26	1245.03
737.153	849.731
740.046	801.657
742.938	688.629
745.831	827.506
748.724	874.433
751.617	918.099
754.509	810.531
757.402	625.739
760.295	491.155
763.187	334.988
766.08	265.095
768.973	35.4678
771.865	25.0391
774.758	15.9131
777.651	46.9639
780.544	114.012
783.436	108.336
786.329	22.1836
789.222	90.7842
792.114	30.8135
795.007	171.57
797.9	8.28906
800.793	95.376
803.685	147.53
806.578	3.87793
809.471	121.584
812.363	169.397
815.256	148.356
818.149	162.572
821.041	423.961
823.934	660.227
826.827	1012.9
829.72	1284.69
832.612	1641.06
835.505	1654.92
838.398	1539.93
841.29	1370.25
844.183	924.336
847.076	751.784
849.968	501.6
852.861	388.476
855.754	389.762
858.646	243.198
861.539	250.856
864.432	261.362
867.324	256.883
870.217	122.14
873.11	74.1357
876.003	51.1865
878.895	133.811
881.788	121.325
884.681	221.75
887.573	32.8115
890.466	36.3682
893.359	9.7373
896.251	7.59473
899.144	163.003
902.037	1.46973
904.93	0.292969
907.822	104.224
910.715	35.9912
913.608	131.456
916.5	22.709
919.393	129.454
922.286	3.43066
925.178	159.036
928.071	96.0273
930.964	21.8174
933.857	114.202
936.749	137.537
939.642	40.331
942.535	184.828
945.427	219.186
948.32	153.949
951.213	191.752
954.106	133.489
956.998	78.8584
959.891	172.987
962.784	53.2324
965.676	112.379
968.569	175.614
971.462	121.528
974.354	85.9922
977.247	90.335
980.14	102.828
983.033	99.417
985.925	86.4717
988.818	36.6543
991.711	32.1758
994.603	88.4531
997.496	90.6992
1000.39	49.6406
1003.28	39.9648
1006.17	19.3945
1009.07	20.584
1011.96	68.6992
1014.85	129.291
1017.75	220.057
1020.64	155.158
1023.53	256.918
1026.42	244.338
1029.32	276.809
1032.21	592.99
1035.1	775.734
1037.99	866.557
1040.89	1257.4
1043.78	1356.02
1046.67	1603.98
1049.57	1822.56
1052.46	2242.02
1055.35	2462.47
1058.24	2456.17
1061.13	2208.85
1064.03	1927.82
1066.92	1720.1
1069.81	1220.51
1072.71	805.443
1075.6	454.699
1078.49	453.553
1081.38	302.188
1084.28	304.746
1087.17	282.582
1090.06	390.543
1092.95	457.408
1095.85	283.273
1098.74	309.975
1101.63	236.766
1104.53	129.701
1107.42	110.019
1110.31	125.772
1113.2	281.18
1116.1	118.59
1118.99	270.572
1121.88	283.406
1124.78	447.852
1127.67	231.861
1130.56	246.084
1133.45	165.818
1136.35	170.827
1139.24	39.4902
1142.13	15.4395
1145.02	3.41016
1147.92	55.3164
1150.81	50.4775
1153.7	65.2344
1156.59	65.5488
1159.49	1.42285
1162.38	101.51
1165.27	8.60352
1168.16	68.2305
1171.06	115.201
1173.95	141.504
1176.84	83.8555
1179.74	100.116
1182.63	207.659
1185.52	63.3848
1188.41	169.589
1191.31	57.5576
1194.2	160.734
1197.09	197.985
1199.98	200.255
1202.88	117.307
1205.77	193.699
1208.66	58.9209
1211.56	244.359
1214.45	233.66
1217.34	168.467
1220.23	232.938
1223.13	95.0244
1226.02	195.494
1228.91	254.871
1231.81	294.107
1234.7	204.273
1237.59	165.889
1240.48	179.227
1243.38	284.445
1246.27	97.7285
1249.16	123.844
1252.05	99.4668
1254.95	214.066
1257.84	114.693
1260.73	218.701
1263.62	185.102
1266.52	124.398
1269.41	229.815
1272.3	186.353
1275.19	152.643
1278.09	159.721
1280.98	22.5332
1283.87	225.742
1286.77	32.7012
1289.66	306.301
1292.55	123.812
1295.44	41.4668
1298.34	127.373
