Measurement: Raman, 532 nm, unoriented, Raman Data Processed
Mineral: Elbaite
Rruff sample: R060562
Ideal chemistry: Na(Al_1.5_Li_1.5_)Al_6_(Si_6_O_18_)(BO_3_)_3_(OH)_3_OH
Locality: unknown
Source: Gemological Institute of America
Description: Blue colored polished fragment
Measured chemistry: (Na_0.68_Ca_0.20_[box]_0.12_)(Li_1.20_Al_1.12_Fe^2+^_0.50_Mn_0.18_)Al_6_(BO_3_)_3_[Si_6_O_18_]((OH)_0.80_F_0.20_)_4_
Raman shift (cm-1)	intensity
96.4484	0
99.8232	1.60192
103.198	3.65003
106.573	3.75945
109.948	0.736233
113.323	1.182
116.697	0.159982
120.072	1.15391
123.447	5.29384
126.822	9.29453
130.197	23.1722
133.571	31.9739
136.946	31.0361
140.321	30.7691
143.696	33.579
147.071	35.6267
150.446	34.3012
153.82	34.4999
157.195	31.4028
160.57	27.4328
163.945	21.5438
167.32	14.6526
170.694	9.07396
174.069	6.70184
177.444	8.01625
180.819	9.44564
184.194	5.41457
187.569	5.688
190.943	8.39262
194.318	12.6209
197.693	18.0674
201.068	26.0132
204.443	32.2844
207.817	43.4803
211.192	57.1296
214.567	79.7753
217.942	113.37
221.317	148.006
224.691	159.744
228.066	144.893
231.441	123.783
234.816	113.441
238.191	106.558
241.566	99.8781
244.94	90.0069
248.315	70.294
251.69	50.8528
255.065	38.8926
258.44	31.2505
261.815	24.9219
265.189	22.4632
268.564	20.4985
271.939	18.179
275.314	19.0598
278.688	14.6863
282.063	9.73558
285.438	5.04082
288.813	0.110672
292.188	3.58451
295.563	4.27644
298.937	3.47472
302.312	0.894707
305.687	2.43417
309.062	7.62032
312.437	10.2551
315.812	15.7951
319.186	18.5473
322.561	18.9607
325.936	22.7635
329.311	28.5716
332.686	31.1558
336.06	32.1041
339.435	35.7419
342.81	38.7941
346.185	44.4516
349.56	44.4974
352.935	45.7505
356.309	52.5242
359.684	72.5401
363.059	106.285
366.434	161.058
369.809	245.373
373.183	335.189
376.558	295.322
379.933	199.17
383.308	131.441
386.683	93.287
390.058	72.1097
393.432	63.611
396.807	62.7641
400.182	67.8734
403.557	81.6672
406.932	97.8988
410.306	98.9484
413.681	73.1685
417.056	44.0939
420.431	22.7971
423.806	11.418
427.18	5.48953
430.555	1.61181
433.93	0.922894
437.305	2.26851
440.68	1.38388
444.055	0.818481
447.429	0.094734
450.804	2.98021
454.179	1.66462
457.554	2.42496
460.929	1.75821
464.303	1.50789
467.678	0.324577
471.053	0.651672
474.428	0.82296
477.803	2.48849
481.178	4.2377
484.552	8.64203
487.927	13.3061
491.302	16.8846
494.677	18.9442
498.052	20.2142
501.426	19.8399
504.801	19.2261
508.176	19.6115
511.551	18.9146
514.926	15.5262
518.301	11.9226
521.675	7.6437
525.05	5.00292
528.425	3.17645
531.8	2.80516
535.175	1.41959
538.549	1.13123
541.924	0.284447
545.299	0.503693
548.674	0.896385
552.049	0.692966
555.423	0.698544
558.798	1.12345
562.173	1.18985
565.548	0.459099
568.923	0.081432
572.298	0.140892
575.672	1.03379
579.047	0.924019
582.422	3.3727
585.797	1.84276
589.172	3.49733
592.547	3.31841
595.921	2.88215
599.296	0.516117
602.671	0.766266
606.046	0.776108
609.421	0.224785
612.795	0.40295
616.17	1.97384
619.545	6.51904
622.92	15.3414
626.295	28.9561
629.669	45.5968
633.044	54.9319
636.419	46.7996
639.794	33.2269
643.169	23.4128
646.544	18.6078
649.918	17.1351
653.293	16.3917
656.668	16.8151
660.043	16.7672
663.418	15.2674
666.793	9.42607
670.167	3.25784
673.542	0.277645
676.917	0.924561
680.292	1.97904
683.667	0.164501
687.041	4.54578
690.416	13.4757
693.791	30.6495
697.166	56.0684
700.541	85.2979
703.915	113.023
707.29	126.862
710.665	112.39
714.04	79.2205
717.415	48.6206
720.79	27.6012
724.164	16.5236
727.539	11.7556
730.914	9.98927
734.289	12.5501
737.664	16.4459
741.038	22.5905
744.413	29.3588
747.788	38.1527
751.163	44.9621
754.538	45.6142
757.913	35.4281
761.287	26.5032
764.662	19.3375
768.037	15.8513
771.412	13.4402
774.787	12.626
778.161	10.0879
781.536	5.49827
784.911	2.79865
788.286	1.09158
791.661	0.163952
795.035	1.00421
798.41	0.387238
801.785	0.61891
805.16	0.175295
808.535	0.413364
811.91	1.6578
815.284	2.39832
818.659	1.76525
822.034	2.04141
825.409	2.75184
828.784	4.64795
832.159	5.97245
835.533	7.71333
838.908	8.18123
842.283	8.75588
845.658	9.073
849.033	9.46737
852.407	9.64827
855.782	9.17958
859.157	9.43015
862.532	8.74594
865.907	7.6958
869.282	6.15687
872.656	4.55716
876.031	4.09688
879.406	4.27508
882.781	2.86776
886.156	2.95767
889.53	2.13308
892.905	1.77296
896.28	1.60186
899.655	0.645329
903.03	0.867558
906.404	0.662638
909.779	0.158596
913.154	0.824394
916.529	0.092318
919.904	0.409554
923.279	0.218431
926.653	0.204237
930.028	0.187073
933.403	0.450418
936.778	0.540737
940.153	0.740168
943.528	0.728718
946.902	1.09007
950.277	2.46853
953.652	3.06966
957.027	5.32382
960.402	6.89931
963.776	7.50882
967.151	8.42918
970.526	7.27389
973.901	6.50285
977.276	4.24233
980.65	2.28092
984.025	1.223
987.4	0.098701
990.775	0.377129
994.15	0.562374
997.524	0.382034
1000.9	0.683434
1004.27	2.17189
1007.65	3.08678
1011.02	3.80305
1014.4	4.72784
1017.77	6.28897
1021.15	5.24738
1024.52	4.53985
1027.9	4.50514
1031.27	5.42903
1034.65	7.34408
1038.02	12.9362
1041.4	19.6033
1044.77	28.1967
1048.15	39.8489
1051.52	50.6225
1054.9	61.2446
1058.27	67.4091
1061.65	65.5886
1065.02	57.7306
1068.4	46.9978
1071.77	38.2058
1075.14	32.1167
1078.52	31.1791
1081.89	35.9857
1085.27	40.4241
1088.64	36.8435
1092.02	31.3344
1095.39	25.9926
1098.77	21.3849
1102.14	15.9035
1105.52	11.5467
1108.89	8.9496
1112.27	6.28078
1115.64	4.50932
1119.02	4.77403
1122.39	4.63097
1125.77	2.91283
1129.14	1.55845
1132.52	1.36338
1135.89	0.204945
1139.27	0.440041
1142.64	0.373535
1146.02	1.18862
1149.39	0.313299
1152.77	0.443068
1156.14	0.392483
1159.52	1.13824
1162.89	1.27727
1166.27	1.42185
1169.64	2.08064
1173.02	1.99681
1176.39	2.56232
1179.77	2.74895
1183.14	3.04033
1186.51	3.33646
1189.89	3.63953
1193.26	4.16428
1196.64	3.45906
1200.01	3.42164
1203.39	3.71312
1206.76	2.60708
1210.14	2.60789
1213.51	2.98986
1216.89	2.86281
1220.26	2.3642
1223.64	2.58702
1227.01	1.8635
1230.39	1.69885
1233.76	1.99555
1237.14	1.96491
1240.51	1.80526
1243.89	1.78459
1247.26	1.28852
1250.64	1.43613
1254.01	1.50092
1257.38	1.05918
1260.76	1.52516
1264.13	0.546658
1267.51	1.39374
1270.88	1.63169
1274.26	0.738058
1277.63	0.940937
1281.01	0.595322
1284.38	1.1074
1287.76	0.529106
1291.13	0.607338
1294.51	0.414774
1297.88	0.138947
1301.26	0.490467
