Measurement: Raman, 532 nm, unoriented, Raman Data Processed
Mineral: Elbaite
Rruff sample: R070077
Ideal chemistry: Na(Al_1.5_Li_1.5_)Al_6_(Si_6_O_18_)(BO_3_)_3_(OH)_3_OH
Locality: Canary mine, Lundazi area of eastern Zambia
Source: Tommy Wu
Description: Green crystal fragments
Raman shift (cm-1)	intensity
147.289	0
150.664	111.862
154.039	216.522
157.414	252.464
160.788	197.781
164.163	166.696
167.538	104.939
170.913	55.9888
174.288	23.7849
177.663	26.7876
181.037	20.2698
184.412	61.0618
187.787	139.965
191.162	205.598
194.537	260.327
197.911	328.739
201.286	456.38
204.661	650.096
208.036	982.325
211.411	1440.79
214.786	2007.91
218.16	2596.47
221.535	2987.06
224.91	2759.73
228.285	2079.94
231.66	1612.6
235.034	1324.75
238.409	1223.19
241.784	1115.19
245.159	883.292
248.534	658.842
251.909	462.564
255.283	338.667
258.658	285.38
262.033	253.095
265.408	266.034
268.783	291.891
272.157	304.407
275.532	250.091
278.907	162.209
282.282	74.1592
285.657	24.5897
289.031	-0.0395925
292.406	-6.2168
295.781	8.50482
299.156	3.42494
302.531	50.2146
305.906	85.3227
309.28	187.127
312.655	222.432
316.03	352.185
319.405	503.511
322.78	697.957
326.154	905.17
329.529	1164.9
332.904	1290.33
336.279	1371.42
339.654	1399.32
343.029	1443.53
346.403	1460.04
349.778	1375.96
353.153	1335.39
356.528	1559.56
359.902	1846.8
363.277	2334.31
366.652	2946.11
370.027	3907.25
373.402	4790.51
376.777	4873.44
380.151	3619.86
383.526	2543.3
386.901	1724.41
390.276	1329.84
393.651	1073.99
397.026	948.567
400.4	918.506
403.775	1004.17
407.15	953.663
410.525	895.033
413.9	668.695
417.274	442.004
420.649	220.931
424.024	64.9912
427.399	8.77905
430.774	6.8916
434.149	10.9854
437.523	21.6655
440.898	17.7759
444.273	45.7888
447.648	40.0527
451.022	13.968
454.397	40.9443
457.772	57.0335
461.147	24.6748
464.522	39.4343
467.897	102.558
471.271	205.02
474.646	254.27
478.021	281.547
481.396	299.01
484.771	286.922
488.146	309.293
491.52	367.11
494.895	408.157
498.27	404.553
501.645	448.555
505.02	455.697
508.394	449.803
511.769	390.834
515.144	280.828
518.519	179.185
521.894	161.967
525.268	118.905
528.643	170.289
532.018	265.797
535.393	364.547
538.768	464.276
542.143	539.629
545.517	547.192
548.892	546.802
552.267	541.09
555.642	472.216
559.017	394.888
562.391	307.165
565.766	308.985
569.141	288.686
572.516	289.368
575.891	337.08
579.265	331.361
582.64	299.091
586.015	240.014
589.39	231.109
592.765	170.472
596.14	85.9641
599.514	38.8777
602.889	16.9053
606.264	41.1919
609.639	20.0135
613.014	1.20019
616.388	13.4104
619.763	29.4694
623.138	9.43298
626.513	84.8546
629.888	151.038
633.263	205.423
636.637	221.643
640.012	187.536
643.387	167.094
646.762	164.542
650.137	200.883
653.511	227.3
656.886	294.357
660.261	308.325
663.636	312.18
667.011	252.623
670.385	213.605
673.76	175.342
677.135	71.8818
680.51	13.874
683.885	12.6111
687.26	53.2134
690.634	5.68201
694.009	54.5187
697.384	170.091
700.759	392.827
704.134	639.583
707.508	1035.8
710.883	1643.58
714.258	2546.9
717.633	3613.36
721.008	4630.63
724.383	5210.28
727.757	4709.58
731.132	3413.61
734.507	2111.57
737.882	1261.25
741.257	807.707
744.631	588.001
748.006	578.546
751.381	674.808
754.756	745.172
758.131	828.305
761.505	698.194
764.88	505.139
768.255	314.628
771.63	162.679
775.005	16.0559
778.38	4.74854
781.754	3.24658
785.129	9.11743
788.504	47.7105
791.879	101.729
795.254	105.155
798.628	176.788
802.003	200.21
805.378	250.807
808.753	271.192
812.128	322.007
815.503	382.006
818.877	377.041
822.252	367.06
825.627	399.574
829.002	664.441
832.377	1022.72
835.751	1483.78
839.126	1841.55
842.501	1910.75
845.876	1815.68
849.251	1923.18
852.625	2432.32
856	2831.98
859.375	2760.46
862.75	2065.33
866.125	1177.12
869.5	546.606
872.874	253.126
876.249	135.785
879.624	116.876
882.999	71.2411
886.374	30.7937
889.748	17.9222
893.123	21.6737
896.498	34.8367
899.873	3.98938
903.248	12.3257
906.622	6.28845
909.997	7.59106
913.372	18.6532
916.747	66.4786
920.122	114.506
923.497	147.144
926.871	138.708
930.246	174.834
933.621	222.978
936.996	216.036
940.371	312.085
943.745	344.059
947.12	368.979
950.495	363.02
953.87	318.684
957.245	305.303
960.62	260.185
963.994	248.692
967.369	237.489
970.744	211.104
974.119	208.165
977.494	158.77
980.868	126.797
984.243	105.522
987.618	31.6676
990.993	21.4352
994.368	6.92639
997.742	8.59326
1001.12	19.683
1004.49	50.038
1007.87	91.6421
1011.24	200.432
1014.62	345.629
1017.99	416.081
1021.37	519.404
1024.74	602.37
1028.12	613.549
1031.49	696.835
1034.87	938.596
1038.24	1208.73
1041.62	1640.64
1044.99	2273.72
1048.37	2956.38
1051.74	3740.97
1055.11	4421.65
1058.49	4604.07
1061.86	4116.02
1065.24	3099.02
1068.61	2055.89
1071.99	1314.44
1075.36	790.465
1078.74	439.52
1082.11	238.232
1085.49	127.091
1088.86	64.8892
1092.24	47.8263
1095.61	64.158
1098.99	39.9281
1102.36	50.99
1105.74	37.4264
1109.11	26.5258
1112.49	32.3954
1115.86	2.42859
1119.24	5.97717
1122.61	22.308
1125.98	10.3217
1129.36	47.5815
1132.73	23.7876
1136.11	44.0885
1139.48	9.5918
1142.86	3.30701
1146.23	20.5981
1149.61	6.38757
1152.98	12.7382
1156.36	15.5873
1159.73	27.4767
1163.11	22.8213
1166.48	41.7737
1169.86	59.9042
1173.23	83.3795
1176.61	55.1281
1179.98	66.3942
1183.36	46.6548
1186.73	66.092
1190.11	72.5989
1193.48	99.2725
1196.86	78.4863
1200.23	68.347
1203.61	74.7203
1206.98	87.1664
1210.36	56.8268
1213.73	52.7952
1217.11	62.6379
1220.48	56.4781
1223.86	47.0271
1227.23	47.2611
1230.61	30.2434
1233.98	40.2445
1237.35	41.9071
1240.73	7.7168
1244.1	40.5679
1247.48	30.6626
1250.85	41.3879
1254.23	47.0386
1257.6	39.6206
1260.98	4.53699
1264.35	55.022
1267.73	47.5132
1271.1	33.723
1274.48	40.9005
1277.85	59.1285
1281.23	29.4497
1284.6	25.7676
1287.98	37.1487
1291.35	28.1843
1294.73	1.18897
1298.1	24.3646
1301.48	6.54358
1304.85	37.5459
1308.22	28.5975
1311.6	22.6205
1314.97	5.85156
