Measurement: Raman, 532 nm, unoriented, Raman Data Processed
Mineral: Elbaite
Rruff sample: R060560
Ideal chemistry: Na(Al_1.5_Li_1.5_)Al_6_(Si_6_O_18_)(BO_3_)_3_(OH)_3_OH
Locality: California, USA
Source: Gemological Institute of America
Description: Pink fragment
Measured chemistry: (Na_0.56_Ca_0.12_[box]_0.32_)(Al_1.60_Li_1.40_)Al_6_(BO_3_)_3_[Si_6_O_18_](OH)_4_
Raman shift (cm-1)	intensity
92.1094	0
95.4842	1.95685
98.859	2.99589
102.234	4.79122
105.609	4.25924
108.984	1.33691
112.358	0.722939
115.733	0.126656
119.108	0.190207
122.483	2.60934
125.858	4.22674
129.232	10.158
132.607	13.7534
135.982	16.1018
139.357	20.9633
142.732	23.9671
146.106	25.6157
149.481	24.9072
152.856	21.9862
156.231	16.8303
159.606	9.85555
162.981	5.15393
166.355	4.90467
169.73	4.17409
173.105	3.97561
176.48	3.54611
179.855	0.127872
183.229	3.25462
186.604	2.72204
189.979	3.65809
193.354	11.9279
196.729	26.1844
200.103	43.8962
203.478	66.0749
206.853	92.8941
210.228	125.947
213.603	172.068
216.978	237.63
220.352	323.909
223.727	380.121
227.102	328.673
230.477	250.271
233.852	203.135
237.226	186.961
240.601	189.005
243.976	205.78
247.351	210.572
250.726	187.783
254.101	152.983
257.475	124.524
260.85	108.171
264.225	105.015
267.6	104.804
270.975	103.576
274.349	99.0887
277.724	88.161
281.099	61.2521
284.474	35.0544
287.849	16.2093
291.224	5.73543
294.598	1.91665
297.973	4.69459
301.348	4.24386
304.723	1.18747
308.098	3.66949
311.473	16.1784
314.847	28.5698
318.222	24.2986
321.597	15.8133
324.972	15.6786
328.347	18.8884
331.721	18.8148
335.096	16.8767
338.471	18.1185
341.846	23.1363
345.221	32.523
348.595	42.432
351.97	58.5774
355.345	78.3224
358.72	113.332
362.095	166.775
365.469	238.975
368.844	345.114
372.219	473.57
375.594	528.411
378.969	420.907
382.344	282.322
385.718	194.834
389.093	151.162
392.468	134.771
395.843	133.314
399.218	145.218
402.592	154.038
405.967	160.768
409.342	155.1
412.717	131.359
416.092	97.1424
419.467	59.5108
422.841	35.0263
426.216	18.0768
429.591	7.35857
432.966	3.02819
436.341	0.394188
439.716	0.320404
443.09	0.293877
446.465	0.5858
449.84	0.209518
453.215	0.338997
456.59	0.55735
459.964	2.13059
463.339	0.93066
466.714	0.676014
470.089	0.472435
473.464	0.41111
476.839	1.17504
480.213	3.39238
483.588	5.35761
486.963	10.2361
490.338	13.8862
493.713	20.6716
497.087	26.3953
500.462	35.6468
503.837	47.2496
507.212	56.1293
510.587	62.905
513.962	69.3025
517.336	71.2362
520.711	67.533
524.086	55.8315
527.461	45.6469
530.836	38.0624
534.21	35.8897
537.585	33.4059
540.96	29.2975
544.335	23.4007
547.71	19.1739
551.085	14.6728
554.459	11.6213
557.834	8.19103
561.209	6.41179
564.584	3.60511
567.959	2.58835
571.333	1.52776
574.708	0.78957
578.083	1.92754
581.458	3.52172
584.833	3.09246
588.207	4.54522
591.582	3.38257
594.957	2.49363
598.332	1.30404
601.707	0.471603
605.082	0.879589
608.456	0.160191
611.831	1.81482
615.206	1.1192
618.581	3.94611
621.956	9.74219
625.33	17.1613
628.705	30.1809
632.08	47.647
635.455	70.6232
638.83	93.1031
642.205	103.04
645.579	96.4797
648.954	79.1463
652.329	63.9945
655.704	54.5831
659.079	38.656
662.453	23.85
665.828	12.0612
669.203	5.10601
672.578	0.660103
675.953	1.27482
679.327	1.25975
682.702	0.532364
686.077	5.52364
689.452	15.1005
692.827	31.0026
696.202	52.5732
699.576	86.4123
702.951	132.363
706.326	179.232
709.701	207.356
713.076	193.791
716.45	143.093
719.825	93.14
723.2	59.8188
726.575	43.478
729.95	35.561
733.324	33.5139
736.699	38.3038
740.074	45.4595
743.449	55.8413
746.824	65.337
750.199	64.9088
753.573	53.5232
756.948	35.6001
760.323	23.3809
763.698	15.281
767.073	10.1462
770.447	6.15178
773.822	3.44732
777.197	2.61979
780.572	2.70497
783.947	1.71591
787.322	1.18301
790.696	0.563009
794.071	1.1374
797.446	1.19635
800.821	0.038162
804.196	1.13515
807.571	1.0604
810.945	0.385723
814.32	0.088585
817.695	0.179836
821.07	0.117287
824.445	2.09937
827.819	3.12135
831.194	3.13678
834.569	4.1954
837.944	4.12942
841.319	4.3067
844.693	4.46402
848.068	4.35426
851.443	5.7243
854.818	7.56025
858.193	8.19127
861.568	9.38364
864.942	10.5793
868.317	11.4345
871.692	11.8846
875.067	11.9611
878.442	10.8098
881.817	9.28307
885.191	8.78327
888.566	7.1692
891.941	6.44389
895.316	5.50664
898.691	3.82093
902.065	2.79949
905.44	2.31026
908.815	1.13125
912.19	0.142002
915.565	0.010086
918.939	0.62862
922.314	0.221542
925.689	0.071491
929.064	0.272697
932.439	0.539394
935.813	1.06164
939.188	1.87118
942.563	2.57847
945.938	4.53238
949.313	6.71862
952.688	8.92487
956.062	13.4468
959.437	17.522
962.812	21.2988
966.187	25.732
969.562	29.585
972.937	31.1976
976.311	31.7248
979.686	30.616
983.061	28.7095
986.436	27.4887
989.811	26.2966
993.185	24.9983
996.56	23.1653
999.935	20.1853
1003.31	18.2172
1006.68	15.4312
1010.06	11.758
1013.43	11.1973
1016.81	8.06284
1020.18	6.72366
1023.56	6.88713
1026.93	6.71325
1030.31	5.3503
1033.68	1.79072
1037.06	0.20752
1040.43	0.799862
1043.81	0.045399
1047.18	2.25153
1050.56	5.55762
1053.93	10.0101
1057.31	14.2967
1060.68	18.3665
1064.06	22.715
1067.43	27.019
1070.81	30.7919
1074.18	36.606
1077.56	40.9237
1080.93	45.7307
1084.31	49.3282
1087.68	54.2766
1091.06	56.7887
1094.43	52.9464
1097.81	48.1886
1101.18	40.6242
1104.55	33.0343
1107.93	26.7125
1111.3	19.2142
1114.68	14.6234
1118.05	11.2997
1121.43	8.65907
1124.8	5.46468
1128.18	4.8305
1131.55	3.35775
1134.93	2.89779
1138.3	1.93382
1141.68	1.37584
1145.05	0.573412
1148.43	0.721994
1151.8	0.824631
1155.18	0.660618
1158.55	0.628973
1161.93	0.535202
1165.3	0.601191
1168.68	0.221413
1172.05	0.396612
1175.43	1.45461
1178.8	1.30117
1182.17	2.28286
1185.55	1.85938
1188.92	3.14823
1192.3	2.91256
1195.67	3.90549
1199.05	4.38027
1202.42	4.67792
1205.8	4.0366
1209.17	4.56052
1212.55	4.14999
1215.92	3.75222
1219.3	3.25068
1222.67	3.70424
1226.05	3.11146
1229.42	2.47054
1232.8	2.57959
1236.17	2.20666
1239.55	1.8682
1242.92	1.83869
1246.3	1.21948
1249.67	1.862
1253.05	1.31751
1256.42	1.50418
1259.8	1.84841
1263.17	1.24446
1266.55	0.933446
1269.92	1.03506
1273.3	0.892261
1276.67	0.349809
1280.05	1.33257
1283.42	0.584274
1286.79	0.974142
1290.17	0.6521
1293.54	0.561384
1296.92	0.03175
1300.29	0.220861
1303.67	0.01021
