Measurement: Raman, 780 nm, unoriented, Raman Data Processed
Mineral: Elbaite
Rruff sample: R100137
Ideal chemistry: Na(Al_1.5_Li_1.5_)Al_6_(Si_6_O_18_)(BO_3_)_3_(OH)_3_OH
Locality: Nigeria
Source: William W. Pinch
Description: Red cut gemstone
Raman shift (cm-1)	intensity
157.137	0
160.03	1.77082
162.923	0.028404
165.816	1.89362
168.708	4.0621
171.601	8.05013
174.494	13.6412
177.386	12.9763
180.279	7.5611
183.172	0.424194
186.065	0.229385
188.957	0.241196
191.85	0.66021
194.743	6.03527
197.635	5.8922
200.528	12.1934
203.421	17.2961
206.313	23.2754
209.206	40.3043
212.099	59.3752
214.992	90.9049
217.884	135.511
220.777	179.931
223.67	181.153
226.562	145.268
229.455	107.192
232.348	88.5391
235.24	76.1353
238.133	74.2292
241.026	81.2135
243.918	84.3768
246.811	85.274
249.704	76.8001
252.597	68.978
255.489	56.77
258.382	52.3971
261.275	51.5572
264.167	52.1953
267.06	54.568
269.953	54.878
272.846	54.2976
275.738	47.5131
278.631	40.8716
281.524	34.3842
284.416	25.8225
287.309	21.0883
290.202	13.8339
293.094	5.20743
295.987	1.07146
298.88	2.77583
301.772	3.90508
304.665	3.06349
307.558	0.602402
310.45	4.7942
313.343	7.11473
316.236	10.2272
319.129	7.00421
322.021	10.1928
324.914	12.7313
327.807	15.4355
330.699	21.5959
333.592	24.3512
336.485	27.2897
339.377	28.7489
342.27	34.5314
345.163	39.0166
348.056	43.5883
350.948	47.0608
353.841	48.197
356.734	53.8632
359.626	64.8979
362.519	80.654
365.412	111.391
368.305	159.551
371.197	211.746
374.09	234.267
376.983	197.572
379.875	140.678
382.768	100.861
385.661	74.5107
388.553	59.2042
391.446	48.0736
394.339	48.6514
397.231	48.2821
400.124	49.7408
403.017	49.876
405.909	50.3711
408.802	49.3469
411.695	41.7812
414.588	31.8467
417.48	17.4017
420.373	10.808
423.266	3.05321
426.158	0.979218
429.051	0.083031
431.944	0.539589
434.837	1.63281
437.729	0.154655
440.622	6.15483
443.515	10.394
446.407	9.43262
449.3	8.70045
452.193	8.75944
455.085	7.0338
457.978	3.93459
460.871	3.51282
463.764	0.829666
466.656	0.41864
469.549	0.34243
472.442	0.733795
475.334	1.69284
478.227	2.01503
481.12	4.31999
484.012	4.1624
486.905	8.25682
489.798	8.80862
492.69	12.1532
495.583	14.8003
498.476	16.1547
501.369	21.422
504.261	25.7428
507.154	30.0862
510.047	33.2152
512.939	36.1171
515.832	37.2109
518.725	38.177
521.617	33.1788
524.51	28.5123
527.403	22.8725
530.296	21.0903
533.188	22.6423
536.081	23.0603
538.974	25.8106
541.866	23.5737
544.759	19.989
547.652	17.1462
550.544	14.8926
553.437	11.8316
556.33	10.3922
559.222	7.88529
562.115	6.60848
565.008	4.44161
567.901	2.75512
570.793	1.71339
573.686	2.70313
576.579	2.99376
579.471	2.95409
582.364	1.43197
585.257	3.41323
588.149	1.19316
591.042	2.07744
593.935	0.797722
596.828	1.13815
599.72	1.27366
602.613	1.50439
605.506	0.855091
608.398	1.32468
611.291	2.21513
614.184	1.53218
617.077	1.3459
619.969	1.69382
622.862	6.1921
625.755	9.85265
628.647	11.7919
631.54	17.2223
634.433	24.5325
637.325	28.7708
640.218	28.9091
643.111	26.9916
646.004	19.3818
648.896	15.2824
651.789	12.7992
654.682	9.51526
657.574	5.77917
660.467	4.49944
663.36	3.30477
666.252	0.259056
669.145	0.220272
672.038	0.912491
674.931	0.261616
677.823	1.17875
680.716	2.18331
683.609	0.230228
686.501	0.509083
689.394	3.64937
692.287	6.20829
695.179	14.7594
698.072	28.2764
700.965	43.5086
703.857	62.5571
706.75	79.0553
709.643	84.9026
712.535	76.0405
715.428	58.1272
718.321	39.9302
721.214	27.3075
724.106	17.9174
726.999	12.6907
729.892	11.3215
732.784	11.0093
735.677	14.5655
738.57	20.729
741.462	27.9876
744.355	41.6293
747.248	56.7144
750.141	59.8651
753.033	53.1085
755.926	40.0885
758.819	30.4622
761.711	26.2961
764.604	18.9187
767.497	15.8223
770.389	15.4726
773.282	13.6165
776.175	16.3296
779.068	14.1584
781.96	8.82349
784.853	4.46188
787.746	2.84168
790.638	3.9415
793.531	1.68012
796.424	1.20225
799.317	1.43894
802.209	0.471975
805.102	1.3429
807.995	0.205322
810.887	0.089317
813.78	1.36325
816.673	0.9321
819.565	2.55328
822.458	2.12175
825.351	1.31496
828.244	3.44352
831.136	3.31528
834.029	2.8711
836.922	4.85734
839.814	3.45554
842.707	4.63217
845.6	4.52593
848.492	6.1287
851.385	7.14347
854.278	8.93658
857.17	9.92618
860.063	11.871
862.956	11.3131
865.849	12.529
868.741	12.5683
871.634	14.0772
874.527	12.0175
877.419	11.7672
880.312	9.37368
883.205	9.15388
886.097	7.79353
888.99	7.84023
891.883	6.81214
894.775	5.91235
897.668	4.22526
900.561	5.66004
903.454	2.04987
906.346	0.73707
909.239	0.131636
912.132	0.83424
915.024	0.534805
917.917	1.44583
920.81	0.984636
923.702	0.638317
926.595	0.174173
929.488	0.394135
932.381	0.411055
935.273	0.247654
938.166	1.30862
941.059	2.33102
943.951	1.7659
946.844	2.65479
949.737	3.18338
952.63	1.49955
955.522	2.2424
958.415	4.40853
961.308	4.25612
964.2	3.87114
967.093	6.75267
969.986	8.23036
972.878	8.72716
975.771	7.99901
978.664	7.36216
981.557	7.64314
984.449	8.27887
987.342	7.63701
990.235	7.184
993.127	8.08344
996.02	5.70984
998.913	2.91175
1001.8	3.98495
1004.7	4.6535
1007.59	0.433323
1010.48	1.28674
1013.38	2.05401
1016.27	1.53436
1019.16	3.68073
1022.05	4.29769
1024.95	5.31644
1027.84	7.20384
1030.73	5.32797
1033.62	5.41576
1036.52	7.15099
1039.41	9.59418
1042.3	12.1299
1045.2	18.4611
1048.09	27.5478
1050.98	34.6017
1053.87	44.4558
1056.77	49.2756
1059.66	55.1713
1062.55	55.8942
1065.44	52.8409
1068.34	48.3249
1071.23	41.4958
1074.12	37.3944
1077.02	30.9569
1079.91	28.0924
1082.8	24.6778
1085.69	22.2681
1088.59	18.1333
1091.48	15.9025
1094.37	14.1421
1097.26	9.93204
1100.16	8.30315
1103.05	5.11735
1105.94	3.26081
1108.84	0.788191
1111.73	0.340311
1114.62	1.83384
1117.51	0.453655
1120.41	0.48102
1123.3	0.666416
1126.19	1.52435
1129.08	0.230587
1131.98	0.867941
1134.87	0.038544
1137.76	0.971401
1140.65	0.250948
1143.55	0.787006
1146.44	0.963507
1149.33	0.177273
1152.23	0.785308
1155.12	1.44831
1158.01	0.334315
1160.9	0.688877
1163.8	0.057342
1166.69	2.34183
1169.58	1.25747
1172.47	3.20857
1175.37	2.00886
1178.26	2.16464
1181.15	3.18029
1184.05	2.73383
1186.94	3.01782
1189.83	2.8404
1192.72	3.32401
1195.62	3.96962
1198.51	4.7696
1201.4	3.50442
1204.29	3.63865
1207.19	4.26459
1210.08	2.4654
1212.97	2.46503
1215.87	3.71736
1218.76	2.17364
1221.65	3.64434
1224.54	3.28391
1227.44	4.5895
1230.33	2.111
1233.22	2.43053
1236.11	2.65669
1239.01	3.15534
1241.9	2.37628
1244.79	1.51144
1247.68	1.64586
1250.58	1.82725
1253.47	2.06718
1256.36	2.72256
1259.26	1.2772
1262.15	0.483744
1265.04	1.14398
1267.93	1.47535
1270.83	0.548588
1273.72	0.281677
1276.61	0.843012
1279.5	1.32683
1282.4	0.473585
