Measurement: Raman, 514 nm, unoriented, Raman Data Processed
Mineral: Elbaite
Rruff sample: R050119
Ideal chemistry: Na(Al_1.5_Li_1.5_)Al_6_(Si_6_O_18_)(BO_3_)_3_(OH)_3_OH
Locality: Cruziero mine, San Jose, Minas Gerais, Brazil
Source: Carlos and Paulo Vasconcelos
Description: Red fragment
Measured chemistry: (Na_0.90_Ca_0.10_)(Al_0.56_Li_0.38_Mn_0.06_)_3_Al_6_(BO_3_)_3_(Si_0.89_B_0.11_)_6_O_18_(OH)_4_
Raman shift (cm-1)	intensity
158.63	0
162.779	71.242
166.926	77.338
171.07	95.82
175.213	154.751
179.354	81.683
183.493	19.936
187.63	102.788
191.765	444.702
195.898	641.826
200.029	1034.3
204.158	1337.89
208.285	2075.74
212.41	3473.23
216.533	6098.97
220.654	8250.71
224.773	7367.28
228.891	5158.05
233.006	4002.21
237.119	3846.57
241.231	4043.41
245.34	3951.91
249.448	3310.26
253.553	2420.76
257.657	1987.56
261.758	1833.83
265.858	2136.66
269.956	2228.11
274.052	2161.21
278.146	1972
282.237	1686.48
286.327	1185.67
290.416	812.573
294.502	293.183
298.586	60.495
302.668	104.54
306.749	475.284
310.827	726.539
314.903	1094.76
318.978	1447.47
323.051	2147.65
327.121	3020.21
331.19	3309.62
335.257	3361.15
339.322	3190.07
343.385	3063.19
347.446	3077.44
351.505	3346.56
355.563	3725.81
359.618	4706.95
363.672	6757.91
367.723	10461.7
371.773	15396.1
375.821	15596.3
379.866	11212.2
383.91	7557.7
387.952	5605.85
391.992	4601.59
396.031	4422.9
400.067	4678.78
404.101	5028.2
408.134	4694.11
412.165	3783.52
416.193	2452.44
420.22	1148.91
424.245	459.777
428.268	218.192
432.289	145.099
436.309	271.49
440.326	461.36
444.342	592.704
448.355	645.514
452.367	569.782
456.377	340.502
460.385	156.584
464.391	24.029
468.395	110.064
472.398	237.84
476.398	233.567
480.397	187.718
484.394	91.291
488.389	305.587
492.382	549.387
496.373	893.195
500.362	1269.1
504.349	1699.17
508.335	2324.41
512.319	2804.74
516.3	2820.83
520.28	2327.64
524.259	1769.98
528.235	1648.81
532.209	2055.1
536.182	2331.82
540.152	2411.98
544.121	1886.54
548.088	1642.45
552.053	1393.7
556.017	1049.28
559.978	732.17
563.938	559.369
567.895	255.859
571.851	249.635
575.805	152.683
579.758	220.992
583.708	171.651
587.657	334.356
591.603	340.392
595.548	316.66
599.491	244.157
603.432	182.885
607.372	224.832
611.309	117.971
615.245	209.281
619.179	281.754
623.111	605.438
627.041	901.675
630.97	1508.24
634.896	2001.17
638.821	2004.12
642.744	1633.79
646.665	1082.31
650.584	649.863
654.502	289.596
658.418	198.55
662.331	153.315
666.244	184.482
670.154	385.071
674.062	523.309
677.969	598.801
681.874	468.41
685.777	443.905
689.678	688.402
693.577	1401.92
697.475	2454.06
701.371	4370.62
705.265	6756.44
709.157	8502.02
713.047	8319.33
716.936	6163.39
720.823	4086.17
724.708	2788.67
728.591	2184.88
732.472	2167.79
736.352	2628.4
740.23	3703.69
744.106	5415.78
747.98	7375.22
751.853	7864.74
755.723	6196.81
759.592	5096.07
763.459	3720.44
767.325	2864.18
771.188	2502.92
775.05	2509.02
778.91	2375.72
782.768	1279.13
786.625	677.332
790.479	364.423
794.332	217.471
798.183	113.205
802.033	47.817
805.88	116.969
809.726	163.873
813.57	197.349
817.413	179.599
821.253	141.718
825.092	14.354
828.929	52.945
832.764	40.367
836.598	186.075
840.429	146.182
844.259	111.69
848.088	278.574
851.914	410.892
855.739	511.692
859.562	569.017
863.383	674.89
867.203	910.426
871.02	979.617
874.836	1030.52
878.65	1096.08
882.463	968.313
886.274	790.294
890.083	637.856
893.89	631.018
897.695	501.746
901.499	430.123
905.301	327.169
909.102	213.743
912.9	362.809
916.697	494.375
920.492	509.491
924.285	563.219
928.077	747.424
931.867	1006.3
935.655	1163.73
939.442	1155.73
943.226	1374.24
947.009	1562.8
950.791	1575.9
954.57	1503.1
958.348	1739.29
962.124	1888.37
965.899	1944.79
969.671	2177.27
973.442	2271.27
977.211	2489.07
980.979	2458.37
984.745	2366.63
988.509	2495.93
992.271	2557.55
996.032	2469.68
999.791	2378.8
1003.55	2401.73
1007.3	2400.04
1011.06	2485.73
1014.81	2667.25
1018.56	2986.24
1022.31	3125.6
1026.06	3242.4
1029.8	3628.97
1033.55	3601.61
1037.29	3928.53
1041.03	4666.09
1044.77	5481.88
1048.5	6475.84
1052.24	8087.23
1055.97	9279.09
1059.7	10171.9
1063.43	10143.9
1067.16	9447.66
1070.89	8518.38
1074.61	7838.99
1078.34	6906.69
1082.06	6082.67
1085.78	5204.12
1089.5	4397.92
1093.21	3686.36
1096.93	2808.31
1100.64	2447.98
1104.35	1973.13
1108.06	1787.41
1111.77	1557.51
1115.48	1171.04
1119.18	1049.75
1122.89	1009.71
1126.59	760.901
1130.29	619.719
1133.99	414.028
1137.68	438.955
1141.38	359.769
1145.07	295.621
1148.76	179.985
1152.45	160.691
1156.14	237.113
1159.83	49.346
1163.51	87.689
1167.19	136.916
1170.88	55.71
1174.56	69.783
1178.23	117.822
1181.91	69.118
1185.59	0.184
1189.26	28.345
1192.93	24.492
1196.6	50.113
1200.27	41.422
1203.94	44.759
1207.6	88.899
1211.27	90.836
1214.93	1.325
1218.59	155.735
1222.25	44.677
1225.9	25.252
1229.56	178.681
1233.21	30.349
1236.86	112.122
1240.51	120.12
1244.16	95.58
1247.81	183.56
1251.45	86.046
1255.1	70.048
1258.74	111.538
1262.38	82.495
1266.02	35.925
1269.66	139.811
1273.29	82.131
1276.93	139.753
1280.56	121.863
1284.19	197.468
1287.82	135.58
1291.45	173.192
1295.07	136.836
1298.7	152.958
1302.32	7.774
1305.94	67.509
1309.56	40.432
1313.18	56.091
1316.8	126.228
1320.41	207.477
1324.02	153.318
1327.63	160.853
1331.24	120.536
1334.85	99.196
1338.46	45.861
1342.06	98.197
1345.67	102.58
1349.27	89.925
1352.87	208.07
1356.47	181.083
1360.07	118.151
1363.66	276.355
1367.25	380.466
1370.85	184.839
1374.44	257.103
1378.03	262.159
1381.61	363.656
1385.2	334.525
1388.78	422.683
1392.37	513.576
1395.95	530.262
1399.53	708.196
1403.1	811.716
1406.68	729.883
1410.26	760.471
1413.83	564.346
1417.4	694.531
1420.97	652.641
1424.54	569.361
1428.1	475.283
1431.67	342.102
1435.23	330.807
1438.8	597.861
1442.36	596.5
1445.91	608.91
1449.47	480.453
1453.03	535.133
1456.58	456.938
1460.13	611.127
1463.68	765.426
1467.23	851.561
1470.78	666.787
1474.33	563.969
1477.87	232.33
1481.42	436.291
1484.96	163.43
1488.5	399.365
1492.04	442.59
1495.57	176.326
1499.11	349.512
1502.64	14.6
1506.17	104.77
