Measurement: Raman, 780 nm, unoriented, Raman Data Processed
Mineral: Elbaite
Rruff sample: R060003
Ideal chemistry: Na(Al_1.5_Li_1.5_)Al_6_(Si_6_O_18_)(BO_3_)_3_(OH)_3_OH
Locality: Mount Begbie, Revelstoke, British Columbia, Canada
Source: Bob Downs
Description: Pink crystal associated with trilithionite, R060004
Measured chemistry: (Na_0.58_[box]_0.42_)(Al_1.69_Li_1.27_Mn_0.04_)Al_6_(BO_3_)_3_[Si_6_O_18_](OH)_4_
Raman shift (cm-1)	intensity
107.527	0
110.42	0.875198
113.313	1.99919
116.205	2.94732
119.098	3.49271
121.991	6.46483
124.883	7.67876
127.776	8.80254
130.669	8.69083
133.561	11.0494
136.454	12.2835
139.347	11.9042
142.24	9.00683
145.132	6.88686
148.025	7.54237
150.918	6.44643
153.81	4.19489
156.703	1.668
159.596	0.600739
162.488	1.64033
165.381	2.08133
168.274	0.981544
171.167	0.097633
174.059	1.51954
176.952	2.25848
179.845	2.10902
182.737	0.721252
185.63	2.17123
188.523	4.19384
191.416	9.64579
194.308	15.6675
197.201	22.0914
200.094	30.1931
202.986	40.1981
205.879	53.2531
208.772	65.8517
211.664	83.2333
214.557	103.5
217.45	128.663
220.343	154.119
223.235	155.508
226.128	128.87
229.021	98.8921
231.913	82.0164
234.806	75.2801
237.699	72.1149
240.591	74.3
243.484	75.0698
246.377	73.1453
249.269	65.8566
252.162	59.1703
255.055	52.0224
257.948	46.5422
260.84	46.2162
263.733	45.7453
266.626	45.9954
269.518	45.5434
272.411	43.5082
275.304	34.5196
278.197	27.5442
281.089	20.0872
283.982	15.9579
286.875	8.83401
289.767	3.75599
292.66	0.029877
295.553	2.25265
298.445	3.09875
301.338	3.26881
304.231	0.857353
307.123	3.77504
310.016	6.31074
312.909	11.651
315.802	11.5284
318.694	14.9713
321.587	16.1854
324.48	20.4543
327.372	25.2333
330.265	28.4092
333.158	29.9093
336.05	28.9579
338.943	30.8267
341.836	32.7791
344.729	35.8488
347.621	42.5775
350.514	49.555
353.407	60.4189
356.299	74.0007
359.192	91.2891
362.085	109.631
364.978	134.518
367.87	165.88
370.763	197.293
373.656	214.309
376.548	186.402
379.441	141.186
382.334	102.124
385.226	77.8384
388.119	65.4942
391.012	55.8321
393.904	55.2704
396.797	54.0669
399.69	53.8301
402.583	56.3102
405.475	52.6909
408.368	49.3489
411.261	41.4134
414.153	30.8223
417.046	19.7069
419.939	10.8987
422.832	3.11752
425.724	1.46836
428.617	1.03459
431.51	1.46006
434.402	0.826103
437.295	0.245209
440.188	1.26367
443.08	1.7087
445.973	1.80038
448.866	2.03088
451.759	1.43484
454.651	0.142853
457.544	0.799324
460.437	0.416611
463.329	1.20777
466.222	0.736168
469.115	0.495552
472.007	0.444496
474.9	1.08907
477.793	3.34778
480.685	5.70102
483.578	7.87478
486.471	10.0058
489.364	11.8719
492.256	13.6457
495.149	17.2632
498.042	19.8831
500.934	23.1297
503.827	26.0398
506.72	30.1482
509.613	32.872
512.505	34.3978
515.398	34.6099
518.29	34.0269
521.183	29.7572
524.076	25.8682
526.969	22.4099
529.861	20.3788
532.754	22.0984
535.647	23.059
538.539	22.4127
541.432	20.3155
544.325	17.0327
547.217	15.1198
550.11	13.6014
553.003	10.8835
555.896	8.82384
558.788	8.3091
561.681	6.21605
564.574	4.89957
567.466	3.79848
570.359	3.1748
573.252	2.30903
576.144	1.24207
579.037	1.99838
581.93	1.3487
584.823	1.52415
587.715	2.0405
590.608	1.16998
593.501	0.130634
596.393	0.344505
599.286	0.445801
602.179	0.431847
605.072	0.525127
607.964	0.024448
610.857	0.453117
613.75	0.018234
616.642	1.42672
619.535	3.4196
622.428	6.33623
625.32	10.125
628.213	15.0844
631.106	19.0754
633.999	25.2137
636.891	29.1305
639.784	31.8417
642.677	29.1308
645.569	24.5208
648.462	21.1535
651.355	17.5427
654.247	13.9078
657.14	11.1065
660.033	7.47549
662.926	4.2067
665.818	2.51759
668.711	0.673927
671.604	0.152561
674.496	1.32354
677.389	0.06295
680.282	0.180557
683.174	2.12361
686.067	4.32012
688.96	10.7864
691.852	17.9909
694.745	27.4575
697.638	38.6795
700.531	52.0945
703.423	65.4025
706.316	74.299
709.209	76.6141
712.101	71.4688
714.994	60.2436
717.887	47.6529
720.779	39.5504
723.672	29.287
726.565	26.0126
729.458	21.5353
732.35	21.7031
735.243	22.97
738.136	26.072
741.028	31.4175
743.921	37.1581
746.814	41.3428
749.707	41.857
752.599	38.5785
755.492	29.687
758.385	23.7475
761.277	17.6974
764.17	14.3138
767.063	11.6393
769.955	8.82435
772.848	8.19087
775.741	6.99761
778.634	5.5743
781.526	3.71815
784.419	2.8296
787.312	1.29567
790.204	0.067089
793.097	0.994131
795.99	0.691944
798.882	0.565065
801.775	0.106409
804.668	1.11272
807.561	0.152761
810.453	0.018301
813.346	0.450493
816.239	1.16652
819.131	1.03348
822.024	1.64482
824.917	1.82848
827.809	2.36841
830.702	3.32394
833.595	3.52895
836.487	4.6157
839.38	5.20637
842.273	5.38854
845.166	5.52335
848.058	5.76807
850.951	7.37438
853.844	8.00331
856.736	8.77368
859.629	8.88345
862.522	9.89922
865.414	9.67234
868.307	9.38099
871.2	9.67006
874.093	8.82513
876.985	8.52365
879.878	7.69671
882.771	6.26844
885.663	5.86521
888.556	4.97105
891.449	4.72083
894.341	3.98556
897.234	2.66663
900.127	2.45855
903.02	1.02502
905.912	0.777344
908.805	0.20183
911.698	0.588623
914.59	0.005545
917.483	0.345045
920.376	0.805761
923.269	0.830359
926.161	0.402119
929.054	0.123587
931.947	0.307076
934.839	0.968988
937.732	1.05348
940.625	1.41205
943.517	1.9082
946.41	0.951183
949.303	1.86514
952.196	3.06921
955.088	4.41357
957.981	5.34965
960.874	6.54377
963.766	7.56667
966.659	7.87681
969.552	9.57569
972.444	9.60202
975.337	9.04028
978.23	8.53709
981.122	8.33443
984.015	7.26994
986.908	7.03696
989.801	5.88289
992.693	5.3335
995.586	4.80338
998.479	4.25472
1001.37	3.21005
1004.26	2.2205
1007.16	1.42858
1010.05	1.49223
1012.94	1.6999
1015.84	1.33632
1018.73	1.65367
1021.62	2.18491
1024.51	3.38929
1027.41	2.96908
1030.3	3.1097
1033.19	4.65281
1036.08	3.37111
1038.98	5.74099
1041.87	7.30006
1044.76	10.4607
1047.65	14.1467
1050.55	17.8815
1053.44	21.157
1056.33	24.0968
1059.22	26.3851
1062.12	26.2629
1065.01	26.2568
1067.9	23.3864
1070.8	22.5621
1073.69	20.4458
1076.58	19.409
1079.47	18.1744
1082.37	17.1856
1085.26	17.1287
1088.15	15.5064
1091.05	14.9136
1093.94	12.1701
1096.83	10.5039
1099.72	8.33131
1102.62	6.05323
1105.51	4.58627
1108.4	3.45885
1111.29	2.18347
1114.19	1.20756
1117.08	1.23547
1119.97	0.330957
1122.87	0.469677
1125.76	0.442966
1128.65	0.235092
1131.54	0.21459
1134.44	0.747179
1137.33	0.223864
1140.22	0.145025
1143.11	0.250614
1146.01	0.474386
1148.9	0.026146
1151.79	0.217896
1154.68	0.02866
1157.58	0.265633
1160.47	0.999578
1163.36	1.48225
1166.26	2.63397
1169.15	3.08825
1172.04	4.11081
1174.93	5.01783
1177.83	5.46137
1180.72	5.82793
1183.61	6.07874
1186.5	6.32387
1189.4	6.18952
1192.29	5.57424
1195.18	6.29575
1198.08	6.00363
1200.97	5.67554
1203.86	4.95549
1206.75	5.13205
1209.65	3.72019
1212.54	3.54378
1215.43	3.57161
1218.32	2.52665
1221.22	2.91304
1224.11	2.34029
1227	1.65205
1229.89	1.79345
1232.79	1.7241
1235.68	1.50811
1238.57	1.25469
1241.46	0.728228
1244.36	0.37108
1247.25	0.424667
1250.14	0.227451
1253.04	0.385031
1255.93	0.233402
1258.82	0.293037
