Measurement: Raman, 780 nm, unoriented, Raman Data Processed
Mineral: Elbaite
Rruff sample: R050260
Ideal chemistry: Na(Al_1.5_Li_1.5_)Al_6_(Si_6_O_18_)(BO_3_)_3_(OH)_3_OH
Locality: Minas Gerais, Brazil
Source: Marcus Origlieri
Description: Greenish-gray prismatic single crystal
Measured chemistry: (Na_0.76_[box]_0.17_Ca_0.07_)_Σ=1_(Al_1.67_Li_0.97_Mn_0.36_)_Σ=3_Al_6.00_(B_1.00_O_3_)_3_Si_6.00_O_18_((OH)_3.40_F_0.60_)_Σ=4_; B assumed by stoichiometry; OH estimated by charge balance
Raman shift (cm-1)	intensity
145.706	0
148.598	5.16092
151.491	1.26814
154.384	9.17288
157.276	11.9938
160.169	5.02731
163.062	3.15497
165.955	0.165833
168.847	2.40543
171.74	3.1947
174.633	6.42566
177.525	6.90854
180.418	7.07458
183.311	10.7012
186.203	9.47885
189.096	6.31805
191.989	12.5628
194.882	18.4966
197.774	33.1452
200.667	46.1414
203.56	63.5172
206.452	85.1322
209.345	116.986
212.238	144.883
215.131	191.54
218.023	233.337
220.916	258.066
223.809	244.536
226.701	202.302
229.594	161.85
232.487	147.128
235.379	141.52
238.272	139.128
241.165	134.449
244.058	141.747
246.95	129.533
249.843	120.594
252.736	114.367
255.628	105.264
258.521	88.6796
261.414	77.7572
264.306	73.5451
267.199	68.7067
270.092	63.2167
272.985	58.6385
275.877	45.6265
278.77	39.9993
281.663	26.9482
284.555	17.85
287.448	10.4776
290.341	0.860107
293.233	0.679535
296.126	4.56168
299.019	5.35706
301.911	0.738312
304.804	0.864166
307.697	4.15299
310.59	12.0072
313.482	20.863
316.375	20.399
319.268	23.0187
322.16	23.8479
325.053	27.0675
327.946	35.191
330.839	40.0172
333.731	45.791
336.624	53.3448
339.517	60.0839
342.409	68.2716
345.302	78.4804
348.195	82.4221
351.087	87.7884
353.98	105.919
356.873	133.317
359.765	164.833
362.658	202.71
365.551	259.828
368.444	329.435
371.336	374.36
374.229	319.751
377.122	215.045
380.014	150.327
382.907	108.377
385.8	85.4616
388.692	69.7932
391.585	65.2272
394.478	65.5684
397.371	72.0061
400.263	74.2296
403.156	88.7483
406.049	94.1302
408.941	93.0688
411.834	78.4101
414.727	52.3422
417.62	31.8252
420.512	15.9298
423.405	10.5776
426.298	2.8472
429.19	0.289368
432.083	1.51547
434.976	1.43787
437.868	1.55597
440.761	0.865326
443.654	3.6767
446.546	2.06769
449.439	0.757233
452.332	0.84021
455.225	2.02716
458.117	0.449554
461.01	0.666351
463.903	5.23892
466.795	4.06647
469.688	1.19418
472.581	2.41492
475.473	7.55231
478.366	12.5155
481.259	9.14981
484.152	16.1119
487.044	23.0623
489.937	24.9215
492.83	36.6009
495.722	32.6183
498.615	38.0494
501.508	42.3304
504.401	41.5215
507.293	36.0406
510.186	40.1559
513.079	40.8721
515.971	37.5177
518.864	34.4061
521.757	32.3067
524.649	31.1202
527.542	30.2545
530.435	28.6886
533.327	29.648
536.22	25.6169
539.113	26.9239
542.006	24.8593
544.898	22.8838
547.791	18.0827
550.684	12.4631
553.576	10.4187
556.469	10.7503
559.362	8.85518
562.255	8.50288
565.147	4.21201
568.04	4.91714
570.933	6.96362
573.825	5.85571
576.718	5.40608
579.611	2.61237
582.503	5.25656
585.396	0.0354
588.289	0.540588
591.182	0.97522
594.074	1.31895
596.967	1.00734
599.86	1.72147
602.752	0.278351
605.645	3.99234
608.538	2.68483
611.43	4.39236
614.323	10.6226
617.216	12.2491
620.109	19.3225
623.001	28.9611
625.894	43.8424
628.787	56.4186
631.679	71.6096
634.572	71.8273
637.465	60.1279
640.357	46.738
643.25	39.5036
646.143	42.99
649.035	32.7096
651.928	31.4924
654.821	25.3708
657.714	26.1758
660.606	20.1628
663.499	12.707
666.392	9.99483
669.284	6.00183
672.177	0.091095
675.07	3.12196
677.962	0.876068
680.855	3.20422
683.748	7.04236
686.641	16.0961
689.533	33.6084
692.426	50.3827
695.319	75.9758
698.211	100.236
701.104	112.189
703.997	113.054
706.889	96.5363
709.782	71.8933
712.675	45.2264
715.568	28.111
718.46	10.9854
721.353	11.7409
724.246	10.4344
727.138	5.1069
730.031	1.466
732.924	3.93419
735.817	4.08766
738.709	12.2237
741.602	17.2257
744.495	24.8435
747.387	40.7974
750.28	47.017
753.173	46.6034
756.065	36.5163
758.958	21.8029
761.851	18.0388
764.744	14.2326
767.636	8.3893
770.529	10.9422
773.422	5.19374
776.314	6.54716
779.207	2.76671
782.1	8.05553
784.992	3.4514
787.885	1.70805
790.778	0.081512
793.67	2.47304
796.563	2.57043
799.456	2.38788
802.349	2.34799
805.241	0.139374
808.134	4.18904
811.027	3.82097
813.919	7.27841
816.812	4.7639
819.705	5.35435
822.597	4.78091
825.49	9.91277
828.383	8.332
831.276	10.3902
834.168	11.0603
837.061	13.7201
839.954	16.0661
842.846	16.3985
845.739	17.6605
848.632	18.5253
851.524	17.5694
854.417	17.8238
857.31	13.4763
860.202	13.8269
863.095	14.4599
865.988	13.0077
868.881	14.6024
871.773	12.5277
874.666	5.19489
877.559	8.44177
880.451	7.6723
883.344	7.11304
886.237	9.10687
889.13	6.24257
892.022	1.34227
894.915	2.62541
897.808	0.265564
900.7	0.876572
903.593	2.38885
906.486	3.18422
909.378	3.40617
912.271	0.742325
915.164	1.72791
918.057	0.150742
920.949	0.017349
923.842	0.326935
926.735	1.6228
929.627	2.37384
932.52	4.92282
935.413	0.932968
938.305	0.675186
941.198	3.09465
944.091	1.48393
946.984	0.712097
949.876	2.99226
952.769	7.33566
955.662	6.51543
958.554	11.1357
961.447	11.0506
964.34	11.681
967.232	6.05696
970.125	9.73625
973.018	6.60049
975.91	7.67505
978.803	9.73349
981.696	5.24623
984.589	6.58397
987.481	3.71263
990.374	1.85182
993.267	3.70906
996.159	3.28593
999.052	7.10586
1001.95	7.8997
1004.84	7.67619
1007.73	7.73466
1010.62	9.88252
1013.52	12.5503
1016.41	9.11717
1019.3	12.5322
1022.19	15.323
1025.09	12.3472
1027.98	9.22954
1030.87	11.3287
1033.77	10.994
1036.66	12.8187
1039.55	22.006
1042.44	21.9259
1045.34	32.3585
1048.23	39.4911
1051.12	43.2619
1054.01	45.3828
1056.91	47.4628
1059.8	42.1826
1062.69	38.5348
1065.58	28.8398
1068.48	24.8492
1071.37	27.3376
1074.26	26.7074
1077.15	27.4266
1080.05	30.7393
1082.94	35.2827
1085.83	26.8657
1088.73	22.8692
1091.62	13.4262
1094.51	10.5964
1097.4	7.75046
1100.3	9.05447
1103.19	0.208176
1106.08	0.495224
1108.97	5.37682
1111.87	2.80751
1114.76	0.993042
1117.65	1.13547
1120.55	1.53664
1123.44	0.070328
1126.33	2.27576
1129.22	0.4617
1132.12	2.56129
1135.01	2.87115
1137.9	2.83441
1140.79	3.62256
1143.69	4.79118
1146.58	5.11044
1149.47	2.82829
1152.37	1.50441
1155.26	5.59509
1158.15	2.44545
1161.04	0.973312
1163.94	0.707932
1166.83	7.69663
1169.72	1.02864
1172.61	8.7959
1175.51	5.75012
1178.4	7.60152
1181.29	8.02177
1184.18	6.67009
1187.08	10.1408
1189.97	8.71697
1192.86	8.18886
1195.76	12.2259
1198.65	6.77086
1201.54	8.32623
1204.43	11.3175
1207.33	10.7434
1210.22	10.7262
1213.11	11.8034
1216.01	8.92801
1218.9	7.05812
1221.79	5.79471
1224.68	6.99292
1227.58	4.9455
1230.47	6.41676
1233.36	2.31068
1236.25	5.40825
1239.15	4.25319
1242.04	4.05986
1244.93	0.254761
1247.82	6.45636
1250.72	1.34586
1253.61	1.95567
1256.5	2.05965
1259.39	3.36377
1262.29	3.28105
1265.18	6.00996
1268.07	4.5748
1270.97	9.97838
1273.86	2.73805
1276.75	8.65308
1279.64	5.31203
1282.54	3.70125
1285.43	0.114136
