Measurement: Raman, 532 nm, unoriented, Raman Data Processed
Mineral: Elbaite
Rruff sample: R060566
Ideal chemistry: Na(Al_1.5_Li_1.5_)Al_6_(Si_6_O_18_)(BO_3_)_3_(OH)_3_OH
Locality: unknown
Source: Gemological Institute of America
Description: Pink part of a slice of a tourmaline crystal perpendicular to its c-axis showing pink, colorless and green zones, see also R070563 (white) and R070564 (green)
Measured chemistry: (Na_0.63_[box]_0.34_Ca_0.03_)_Σ=1_(Al_1.59_Li_1.28_Fe^2+^_0.10_Mn_0.03_)_Σ=3_Al_6.00_(BO_3_)_3_[Si_6.00_O_18_]((OH)_3.47_F_0.53_)_Σ=4_ ; B and Li not measured but estimated by stoichiometry and charge balance
Raman shift (cm-1)	intensity
103.198	0
106.573	6.9583
109.948	9.83213
113.323	0.228924
116.697	3.18061
120.072	1.88645
123.447	12.6339
126.822	28.966
130.197	63.55
133.571	85.3795
136.946	90.2566
140.321	92.7682
143.696	99.296
147.071	106.292
150.446	89.6926
153.82	68.3556
157.195	39.6236
160.57	27.158
163.945	23.369
167.32	26.7034
170.694	34.5442
174.069	41.3148
177.444	41.9997
180.819	10.4993
184.194	10.9159
187.569	10.3485
190.943	6.65051
194.318	29.0347
197.693	48.4253
201.068	66.9481
204.443	98.1917
207.817	152.624
211.192	230.896
214.567	353.654
217.942	527.654
221.317	734.501
224.691	768.491
228.066	569.728
231.441	408.671
234.816	328.778
238.191	316.531
241.566	344.495
244.94	384.641
248.315	376.908
251.69	319.495
255.065	251.981
258.44	217.404
261.815	209.59
265.189	227.403
268.564	251.34
271.939	265.19
275.314	240.452
278.688	195.909
282.063	137.736
285.438	89.482
288.813	53.8828
292.188	26.196
295.563	0.648529
298.937	18.4826
302.312	19.7739
305.687	5.30933
309.062	13.4768
312.437	45.1181
315.812	63.2208
319.186	62.0675
322.561	72.4138
325.936	109.812
329.311	141.948
332.686	152.932
336.06	145.209
339.435	142.536
342.81	152.079
346.185	171.446
349.56	199.094
352.935	231.062
356.309	260.39
359.684	317.217
363.059	426.326
366.434	585.864
369.809	824.614
373.183	1078.43
376.558	1058.93
379.933	775.16
383.308	512.812
386.683	357.964
390.058	275.998
393.432	246.908
396.807	249.672
400.182	267.719
403.557	283.94
406.932	291.747
410.306	265.21
413.681	214.943
417.056	145.486
420.431	77.2892
423.806	26.8712
427.18	1.94721
430.555	6.54755
433.93	2.35422
437.305	3.52094
440.68	12.6362
444.055	26.1185
447.429	31.3119
450.804	34.9455
454.179	26.1814
457.554	13.4766
460.929	2.43109
464.303	4.46597
467.678	7.07434
471.053	7.68918
474.428	3.48142
477.803	4.2124
481.178	14.0396
484.552	27.9004
487.927	40.7328
491.302	55.0852
494.677	66.7059
498.052	82.9675
501.426	103.948
504.801	131.54
508.176	161.201
511.551	186.726
514.926	205.605
518.301	213.755
521.675	198.851
525.05	161.075
528.425	135.86
531.8	129.449
535.175	146.056
538.549	158.177
541.924	155.181
545.299	139.571
548.674	112.039
552.049	94.6573
555.423	80.8115
558.798	69.3013
562.173	56.7345
565.548	45.6855
568.923	36.3141
572.298	30.7402
575.672	26.4017
579.047	25.7023
582.422	25.5246
585.797	26.1474
589.172	25.1233
592.547	24.1461
595.921	19.1489
599.296	11.8128
602.671	7.85527
606.046	2.60104
609.421	0.163803
612.795	1.97974
616.17	3.291
619.545	3.79921
622.92	3.23421
626.295	17.0271
629.669	34.8541
633.044	64.6724
636.419	98.973
639.794	133.321
643.169	157.961
646.544	157.064
649.918	126.45
653.293	96.1158
656.668	66.6966
660.043	32.6158
663.418	17.456
666.793	6.17259
670.167	1.40796
673.542	0.967972
676.917	0.72612
680.292	1.45077
683.667	4.30147
687.041	3.45245
690.416	24.5276
693.791	63.3165
697.166	119.666
700.541	202.939
703.915	306.744
707.29	405.408
710.665	430.364
714.04	370.996
717.415	274.437
720.79	194.198
724.164	141.95
727.539	120.312
730.914	115.937
734.289	127.294
737.664	153.57
741.038	199.725
744.413	273.061
747.788	344.938
751.163	361.153
754.538	302.253
757.913	225.88
761.287	165.981
764.662	124.906
768.037	98.6625
771.412	80.1778
774.787	78.2062
778.161	76.7378
781.536	58.0066
784.911	33.0973
788.286	18.1948
791.661	11.4001
795.035	5.89235
798.41	4.89459
801.785	0.21006
805.16	1.42566
808.535	3.05442
811.91	2.18405
815.284	1.07905
818.659	3.81194
822.034	3.80931
825.409	10.3395
828.784	15.0569
832.159	17.5876
835.533	19.1349
838.908	21.4894
842.283	22.3408
845.658	24.5895
849.033	27.0684
852.407	31.3807
855.782	40.8856
859.157	50.1953
862.532	58.2272
865.907	64.4283
869.282	70.2313
872.656	70.0561
876.031	69.3582
879.406	65.6089
882.781	57.1189
886.156	49.2
889.53	40.2715
892.905	32.1127
896.28	25.5134
899.655	18.9901
903.03	12.3984
906.404	4.54447
909.779	2.11157
913.154	2.53573
916.529	4.44853
919.904	2.58893
923.279	2.25747
926.653	0.898468
930.028	2.55476
933.403	6.33673
936.778	8.90581
940.153	10.953
943.528	11.7757
946.902	12.3061
950.277	15.2727
953.652	16.0777
957.027	21.8239
960.402	25.9068
963.776	30.979
967.151	37.9923
970.526	45.017
973.901	45.4026
977.276	47.4051
980.65	46.457
984.025	44.4768
987.4	41.6121
990.775	36.618
994.15	29.9211
997.524	24.1994
1000.9	15.8375
1004.27	9.05974
1007.65	7.59604
1011.02	3.24394
1014.4	2.80527
1017.77	6.44777
1021.15	9.21538
1024.52	19.5515
1027.9	25.9909
1031.27	29.7294
1034.65	30.9194
1038.02	34.9476
1041.4	49.8912
1044.77	68.7373
1048.15	99.1237
1051.52	139.437
1054.9	180.867
1058.27	213.117
1061.65	229.713
1065.02	227.69
1068.4	210.352
1071.77	198.069
1075.14	181.423
1078.52	164.237
1081.89	143.389
1085.27	127.069
1088.64	108.527
1092.02	90.0703
1095.39	71.3645
1098.77	53.3783
1102.14	36.1829
1105.52	26.6062
1108.89	20.8804
1112.27	13.9997
1115.64	7.86316
1119.02	5.33048
1122.39	3.0132
1125.77	0.690086
1129.14	0.521004
1132.52	0.023529
1135.89	2.35986
1139.27	0.776871
1142.64	0.630562
1146.02	0.914948
1149.39	2.22217
1152.77	1.99762
1156.14	0.920944
1159.52	0.930176
1162.89	2.21575
1166.27	2.78713
1169.64	4.73908
1173.02	6.18133
1176.39	9.82697
1179.77	9.42311
1183.14	12.513
1186.51	13.6269
1189.89	14.3636
1193.26	14.9972
1196.64	15.3669
1200.01	14.8038
1203.39	16.549
1206.76	14.7689
1210.14	14.3886
1213.51	13.8996
1216.89	13.5281
1220.26	12.3619
1223.64	11.2606
1227.01	10.9708
1230.39	9.86923
1233.76	10.4171
1237.14	9.6771
1240.51	8.78224
1243.89	8.72664
1247.26	7.40762
1250.64	6.59004
1254.01	6.34258
1257.38	5.32189
1260.76	5.23534
1264.13	5.94566
1267.51	5.36964
1270.88	6.8249
1274.26	4.59785
1277.63	4.23808
1281.01	2.47881
1284.38	3.244
1287.76	3.14226
1291.13	1.46843
1294.51	2.37903
1297.88	0.828056
1301.26	0.158142
