Measurement: Raman, 780 nm, unoriented, Raman Data Processed
Mineral: Elbaite
Rruff sample: R060566
Ideal chemistry: Na(Al_1.5_Li_1.5_)Al_6_(Si_6_O_18_)(BO_3_)_3_(OH)_3_OH
Locality: unknown
Source: Gemological Institute of America
Description: Pink part of a slice of a tourmaline crystal perpendicular to its c-axis showing pink, colorless and green zones, see also R070563 (white) and R070564 (green)
Measured chemistry: (Na_0.63_[box]_0.34_Ca_0.03_)_Σ=1_(Al_1.59_Li_1.28_Fe^2+^_0.10_Mn_0.03_)_Σ=3_Al_6.00_(BO_3_)_3_[Si_6.00_O_18_]((OH)_3.47_F_0.53_)_Σ=4_ ; B and Li not measured but estimated by stoichiometry and charge balance
Raman shift (cm-1)	intensity
111.009	0
114.383	3.79151
117.758	0.405556
121.133	1.89387
124.508	5.2952
127.883	5.66351
131.257	6.47553
134.632	11.1451
138.007	15.1277
141.382	11.3748
144.757	12.5533
148.131	13.3712
151.506	7.89657
154.881	3.42468
158.256	1.03972
161.631	3.25331
165.006	0.806892
168.38	2.81785
171.755	5.4624
175.13	5.17369
178.505	3.15466
181.88	0.367813
185.255	1.17497
188.629	7.93095
192.004	16.3631
195.379	29.393
198.754	47.8677
202.129	73.3563
205.503	104.059
208.878	146.653
212.253	201.336
215.628	281.618
219.003	397.264
222.377	474.807
225.752	403.928
229.127	297.197
232.502	230.437
235.877	201.591
239.251	202.597
242.626	220.3
246.001	236.693
249.376	224.862
252.751	187.711
256.126	164.574
259.5	152.499
262.875	152.61
266.25	158.987
269.625	163.629
273	151.534
276.375	117.706
279.749	75.5539
283.124	41.485
286.499	17.5172
289.874	3.44857
293.249	1.22826
296.623	4.92058
299.998	5.13434
303.373	2.96721
306.748	3.17303
310.123	17.3711
313.498	35.5469
316.872	27.2417
320.247	12.7884
323.622	10.1183
326.997	10.7936
330.372	15.6719
333.746	14.2819
337.121	12.3136
340.496	16.6693
343.871	25.1724
347.246	36.7377
350.62	55.6784
353.995	80.5758
357.37	115.791
360.745	157.09
364.12	219.915
367.495	308.517
370.869	436.528
374.244	497.915
377.619	394.74
380.994	261.088
384.369	178.474
387.743	135.141
391.118	118.885
394.493	117.245
397.868	121.793
401.243	131.539
404.617	133.292
407.992	131.476
411.367	113.01
414.742	88.2807
418.117	60.4298
421.491	35.7524
424.866	18.8851
428.241	9.91137
431.616	3.99846
434.991	0.925255
438.366	0.510574
441.74	0.432526
445.115	0.118584
448.49	0.993027
451.865	0.682716
455.24	1.41894
458.615	1.94365
461.989	2.3872
465.364	1.51385
468.739	0.064453
472.114	0.366234
475.489	1.22564
478.863	2.11899
482.238	4.53739
485.613	8.35015
488.988	14.0328
492.363	18.1288
495.737	23.6709
499.112	30.5874
502.487	42.1943
505.862	50.4419
509.237	57.516
512.611	63.6891
515.986	67.5866
519.361	65.4191
522.736	54.1032
526.111	43.3134
529.486	34.8114
532.86	31.4929
536.235	31.1684
539.61	28.1211
542.985	23.2952
546.36	18.9332
549.734	13.7247
553.109	10.9768
556.484	8.25773
559.859	5.23265
563.234	3.97302
566.609	2.83296
569.983	2.77766
573.358	2.56864
576.733	3.31981
580.108	1.95091
583.483	3.263
586.857	3.66032
590.232	3.5671
593.607	2.1604
596.982	1.17122
600.357	0.094788
603.731	0.003254
607.106	0.34267
610.481	0.846432
613.856	0.108971
617.231	2.21236
620.606	5.47562
623.98	10.8477
627.355	19.0857
630.73	30.5362
634.105	44.7267
637.48	61.3007
640.854	79.3628
644.229	90.8127
647.604	79.6452
650.979	67.9961
654.354	54.7407
657.729	35.7207
661.103	23.5512
664.478	12.7217
667.853	4.33843
671.228	0.870872
674.603	0.585121
677.977	0.191681
681.352	0.474297
684.727	4.03358
688.102	11.5517
691.477	24.6827
694.851	40.8282
698.226	63.9434
701.601	93.999
704.976	130.445
708.351	148.535
711.726	136.404
715.1	106.742
718.475	75.1352
721.85	54.133
725.225	41.3625
728.6	35.8742
731.974	34.3218
735.349	34.3947
738.724	35.9038
742.099	42.588
745.474	52.9706
748.848	58.8985
752.223	49.3044
755.598	35.9347
758.973	22.5819
762.348	12.6967
765.723	8.64771
769.097	3.61454
772.472	1.03829
775.847	1.33364
779.222	1.37131
782.597	0.312832
785.971	0.094044
789.346	0.302658
792.721	0.979647
796.096	1.09433
799.471	0.267464
802.846	0.222784
806.22	0.023384
809.595	0.044579
812.97	0.418697
816.345	0.332626
819.72	0.791685
823.094	1.68776
826.469	1.96984
829.844	1.3957
833.219	2.95101
836.594	2.57629
839.968	3.83518
843.343	4.42555
846.718	3.95976
850.093	4.97228
853.468	4.7362
856.843	5.72834
860.217	7.00486
863.592	8.12205
866.967	8.2354
870.342	8.93778
873.717	8.7061
877.091	7.65468
880.466	6.58312
883.841	6.11135
887.216	4.95113
890.591	3.90203
893.966	2.85854
897.34	2.49283
900.715	2.02141
904.09	1.18717
907.465	0.339428
910.84	0.198317
914.214	0.30372
917.589	0.039494
920.964	0.027172
924.339	0.203535
927.714	0.24987
931.088	0.508255
934.463	0.498241
937.838	2.05297
941.213	2.37055
944.588	3.58688
947.963	5.4748
951.337	6.95535
954.712	8.55699
958.087	11.695
961.462	14.3979
964.837	17.3679
968.211	19.7669
971.586	20.7697
974.961	20.5429
978.336	19.5044
981.711	19.5802
985.086	18.3995
988.46	17.8506
991.835	15.5084
995.21	14.8208
998.585	14.5589
1001.96	10.6359
1005.33	8.57804
1008.71	6.29026
1012.08	5.30652
1015.46	3.53954
1018.83	2.69799
1022.21	2.28638
1025.58	2.35901
1028.96	1.44819
1032.33	1.91692
1035.71	0.190865
1039.08	1.24358
1042.46	0.15234
1045.83	0.206551
1049.21	3.57959
1052.58	5.03322
1055.96	8.4925
1059.33	10.9327
1062.71	14.5167
1066.08	17.496
1069.46	20.8352
1072.83	24.0748
1076.21	27.0609
1079.58	29.8606
1082.95	30.856
1086.33	30.295
1089.7	29.871
1093.08	28.0507
1096.45	22.8938
1099.83	17.3163
1103.2	13.3846
1106.58	11.3297
1109.95	8.55622
1113.33	6.58313
1116.7	5.47876
1120.08	4.08148
1123.45	2.37858
1126.83	2.53555
1130.2	2.65786
1133.58	2.06327
1136.95	1.49318
1140.33	1.53856
1143.7	0.707197
1147.08	0.382961
1150.45	0.356886
1153.83	0.21311
1157.2	0.398039
1160.58	0.03602
1163.95	0.528435
1167.33	0.103432
1170.7	1.06782
1174.08	1.75036
1177.45	1.13097
1180.83	1.65466
1184.2	2.0317
1187.57	2.85654
1190.95	2.4143
1194.32	2.48924
1197.7	2.87907
1201.07	3.03872
1204.45	2.95779
1207.82	2.96193
1211.2	2.97151
1214.57	2.58575
1217.95	2.39893
1221.32	2.40509
1224.7	1.58144
1228.07	1.74332
1231.45	0.507524
1234.82	2.17888
1238.2	1.67661
1241.57	1.17827
1244.95	1.29602
1248.32	0.911474
1251.7	1.13458
1255.07	0.959198
1258.44	0.988916
1261.82	0.692997
1265.19	0.499226
1268.57	1.14002
1271.94	0.363867
1275.32	0.76107
1278.69	0.430546
1282.07	0.229649
1285.44	0.186609
