Measurement: Raman, 514 nm, unoriented, Raman Data Processed
Mineral: Elbaite
Rruff sample: R050260
Ideal chemistry: Na(Al_1.5_Li_1.5_)Al_6_(Si_6_O_18_)(BO_3_)_3_(OH)_3_OH
Locality: Minas Gerais, Brazil
Source: Marcus Origlieri
Description: Greenish-gray prismatic single crystal
Measured chemistry: (Na_0.76_[box]_0.17_Ca_0.07_)_Σ=1_(Al_1.67_Li_0.97_Mn_0.36_)_Σ=3_Al_6.00_(B_1.00_O_3_)_3_Si_6.00_O_18_((OH)_3.40_F_0.60_)_Σ=4_; B assumed by stoichiometry; OH estimated by charge balance
Raman shift (cm-1)	intensity
115.644	0
119.813	4.026
123.981	279.772
128.146	602.541
132.309	692.021
136.47	692.207
140.63	477.531
144.787	197.586
148.942	281.861
153.096	489.479
157.247	516.458
161.396	363.731
165.544	259.963
169.689	100.658
173.833	41.427
177.974	100.16
182.114	56.805
186.251	129.768
190.387	316.137
194.52	650.269
198.652	929.105
202.782	1215.97
206.909	1724.14
211.035	2284.65
215.159	4104.29
219.281	6717.83
223.4	8289.3
227.518	6867.69
231.634	4842.44
235.748	3775.76
239.86	3638.17
243.97	3298.65
248.079	2549.24
252.185	1757.95
256.289	1147.78
260.391	638.703
264.492	431.705
268.59	564.761
272.687	730.854
276.781	808.961
280.874	846.959
284.964	427.328
289.053	304.242
293.14	10.82
297.225	10.883
301.308	38.716
305.389	260.216
309.468	778.599
313.545	659.646
317.62	982.891
321.693	1642.07
325.765	2188.13
329.834	2922.05
333.902	3311.78
337.967	3231.62
342.031	3155.63
346.093	2962.96
350.153	2793.86
354.21	2788.42
358.267	3356.68
362.321	4231.61
366.373	5583.27
370.423	8259.76
374.471	12137.3
378.518	14016.7
382.563	10708.1
386.605	7079.07
390.646	4893.68
394.685	3911.88
398.722	3442.68
402.757	3502.05
406.79	3571
410.821	3698.49
414.851	3183.53
418.878	2045.1
422.904	1030.17
426.927	779.743
430.949	580.803
434.969	587.334
438.987	767.328
443.003	727.895
447.018	838.305
451.03	886.275
455.041	608.77
459.049	962.053
463.056	1054.4
467.061	1122.76
471.064	1319.91
475.065	1054.06
479.064	1186.1
483.062	1043.62
487.057	979.574
491.051	893.906
495.043	1230.13
499.032	1248.23
503.02	1376.81
507.007	1626
510.991	1669.71
514.973	1758.8
518.954	1759.17
522.933	1287.69
526.91	1264.99
530.885	1604.25
534.858	2006.28
538.829	2072.62
542.799	2467.16
546.766	2401.08
550.732	2463.15
554.696	2467.71
558.658	2163.68
562.618	1955.12
566.576	1295.65
570.533	1149.29
574.488	931.014
578.44	686.842
582.391	400.818
586.341	378.914
590.288	635.201
594.233	282.666
598.177	0.254
602.119	90.941
606.059	22.625
609.997	89.252
613.933	112.475
617.868	72.807
621.801	349.639
625.731	154.457
629.66	27.352
633.588	228.34
637.513	539.223
641.437	649.07
645.358	340.076
649.278	268.932
653.196	363.592
657.113	150.158
661.027	443.334
664.94	536.018
668.851	179.574
672.76	175.211
676.667	170.602
680.572	116.748
684.476	11.539
688.378	51.641
692.278	72.289
696.176	28.686
700.072	636.662
703.967	777.732
707.86	1768.53
711.751	2524.04
715.64	4567.26
719.527	7621.43
723.413	12405.5
727.297	17878.5
731.179	18501.3
735.059	13335.7
738.937	8275.88
742.814	5258.3
746.689	3851.43
750.562	3112.91
754.433	2999.94
758.303	2971.38
762.17	2128.41
766.036	1570.44
769.901	1123.47
773.763	949.176
777.624	517.096
781.482	67.809
785.339	274.35
789.195	226.162
793.048	208.586
796.9	338.6
800.75	617.299
804.598	789.701
808.445	409.293
812.289	190.102
816.132	180.537
819.973	179.436
823.813	373.852
827.65	339.906
831.486	868.682
835.32	1312.29
839.152	1320.1
842.983	910.109
846.812	727.688
850.639	525.025
854.464	504.303
858.288	540.402
862.11	591.434
865.93	252.322
869.748	397.162
873.564	38.936
877.379	40.658
881.192	106.334
885.004	62.012
888.813	242.344
892.621	272.352
896.427	133.906
900.232	105.674
904.034	38.859
907.835	255.494
911.634	86.541
915.432	171.408
919.227	258.135
923.021	173.943
926.813	292.811
930.604	655.809
934.393	696.238
938.18	1104.88
941.965	949.604
945.749	996.967
949.53	1217.56
953.311	1170.18
957.089	1274.87
960.866	1277.44
964.641	1441.34
968.414	1355.63
972.185	1450.12
975.955	1754.8
979.723	1782.88
983.49	1832.2
987.254	1481.73
991.017	1511.88
994.779	1413.26
998.538	1467.15
1002.3	1251.89
1006.05	1487.52
1009.81	1680.2
1013.56	1927.02
1017.31	2381.12
1021.06	2793.65
1024.81	2803.73
1028.55	3150.93
1032.3	3295.38
1036.04	3637.64
1039.78	4411.23
1043.52	5329.83
1047.26	6481.9
1050.99	7969.5
1054.73	10096.4
1058.46	12685
1062.19	14611.6
1065.92	14127.3
1069.65	11634.9
1073.37	8793.21
1077.1	6216.47
1080.82	4479.26
1084.54	3224.8
1088.26	2295.43
1091.97	1874.67
1095.69	1388.58
1099.4	1204.91
1103.12	1138.67
1106.83	681.689
1110.54	840.219
1114.24	761.008
1117.95	924.246
1121.65	613.504
1125.35	539.887
1129.06	196.645
1132.75	395.057
1136.45	712.537
1140.15	372.043
1143.84	147.023
1147.53	165.232
1151.22	130.074
1154.91	14.75
1158.6	108.797
1162.28	38.824
1165.97	162.758
1169.65	88.393
1173.33	80.697
1177.01	68.311
1180.69	37.357
1184.36	231.207
1188.04	196.08
1191.71	16.008
1195.38	161.604
1199.05	14.969
1202.71	445.391
1206.38	224.301
1210.04	13.74
1213.71	283
1217.37	103.693
1221.03	110.818
1224.68	146.34
1228.34	356.223
1231.99	250.561
1235.65	348.166
1239.3	45.873
1242.95	173.332
1246.59	259.943
1250.24	315.908
1253.88	308.162
1257.53	305.754
1261.17	9.783
1264.81	327.531
1268.45	96.254
1272.08	149.928
1275.72	77.928
1279.35	294.004
1282.98	334.283
1286.61	610.211
1290.24	100.424
1293.87	290.871
1297.49	126.201
1301.11	91.35
1304.73	307.084
1308.36	278.143
1311.97	38.611
1315.59	351.842
1319.2	57.098
1322.82	114.99
1326.43	290.641
1330.04	13.125
1333.65	39.592
1337.26	69.898
1340.86	436.887
1344.47	278.34
1348.07	496.965
1351.67	397.574
1355.27	467.766
1358.87	361.051
1362.46	356.746
1366.06	477.793
1369.65	701.738
1373.24	522.996
1376.83	574.699
1380.42	803.25
1384	944.359
1387.59	1020.14
1391.17	1504.71
1394.75	1458.45
1398.33	1305.21
1401.91	1192.88
1405.49	1088.51
1409.06	972.242
1412.64	1064.83
1416.21	885.336
1419.78	1013.38
1423.35	704.348
1426.91	545.945
1430.48	863.566
1434.05	718.961
1437.61	721.129
1441.17	864.836
1444.73	983.637
1448.29	796.105
1451.84	947.184
1455.4	1003.82
1458.95	918.027
1462.5	694.812
1466.05	486.75
1469.6	544.34
1473.15	739.121
1476.69	509.203
1480.24	382.875
1483.78	653.781
1487.32	238.586
1490.86	249.098
1494.39	520.789
1497.93	134.121
1501.46	236.633
1505	258.461
1508.53	359.43
1512.06	198.871
