Measurement: Raman, 532 nm, unoriented, Raman Data Processed
Mineral: Elbaite
Rruff sample: R050119
Ideal chemistry: Na(Al_1.5_Li_1.5_)Al_6_(Si_6_O_18_)(BO_3_)_3_(OH)_3_OH
Locality: Cruziero mine, San Jose, Minas Gerais, Brazil
Source: Carlos and Paulo Vasconcelos
Description: Red fragment
Measured chemistry: (Na_0.90_Ca_0.10_)(Al_0.56_Li_0.38_Mn_0.06_)_3_Al_6_(BO_3_)_3_(Si_0.89_B_0.11_)_6_O_18_(OH)_4_
Raman shift (cm-1)	intensity
102.716	0
106.091	1.94487
109.466	2.82545
112.84	1.76028
116.215	0.285375
119.59	0.407655
122.965	0.388805
126.34	0.812801
129.714	7.54063
133.089	11.5204
136.464	12.7507
139.839	12.4234
143.214	14.6601
146.589	18.3698
149.963	18.261
153.338	17.2322
156.713	10.9443
160.088	7.03299
163.463	6.49029
166.838	4.45021
170.212	6.15837
173.587	6.69183
176.962	5.42291
180.337	1.07287
183.712	4.00106
187.086	2.00227
190.461	5.3631
193.836	12.8503
197.211	26.3562
200.586	43.5817
203.96	67.9809
207.335	101.226
210.71	143.65
214.085	203.441
217.46	289.152
220.834	381.647
224.209	399.899
227.584	318.09
230.959	245.428
234.334	207.357
237.709	194.363
241.083	204.85
244.458	220.774
247.833	220.451
251.208	200.087
254.583	173.793
257.957	153.943
261.332	144.741
264.707	140.013
268.082	134.187
271.457	122.68
274.832	101.748
278.206	78.3335
281.581	51.626
284.956	28.7842
288.331	16.6058
291.706	7.10295
295.08	2.76197
298.455	6.49858
301.83	6.02586
305.205	1.91164
308.58	5.00142
311.955	19.2029
315.329	30.9837
318.704	26.8929
322.079	17.3712
325.454	19.4366
328.829	25.3847
332.204	25.0541
335.578	25.8239
338.953	32.1694
342.328	40.0231
345.703	51.3255
349.078	66.6843
352.452	80.2345
355.827	99.9589
359.202	135.068
362.577	188.862
365.952	271.109
369.327	403.379
372.701	558.012
376.076	559.695
379.451	398.232
382.826	266.015
386.201	187.004
389.575	149.716
392.95	135.296
396.325	138.246
399.7	152.085
403.075	165.899
406.45	171.893
409.824	158.408
413.199	133.343
416.574	98.6335
419.949	62.9661
423.324	36.4627
426.698	20.5265
430.073	10.705
433.448	5.3071
436.823	2.10854
440.198	0.92572
443.572	0.613564
446.947	0.030785
450.322	1.22654
453.697	2.28614
457.072	2.86787
460.447	2.45864
463.821	2.06502
467.196	0.750832
470.571	0.619324
473.946	1.61648
477.321	2.28207
480.695	5.40869
484.07	8.69701
487.445	14.5494
490.82	19.3945
494.195	24.4058
497.57	32.2387
500.944	41.1831
504.319	52.2168
507.694	60.5841
511.069	66.8746
514.444	67.7117
517.818	63.3999
521.193	52.5321
524.568	42.4671
527.943	32.6895
531.318	31.0322
534.692	28.3606
538.067	26.1164
541.442	22.3226
544.817	16.5738
548.192	12.0938
551.567	10.2181
554.941	7.4537
558.316	4.9287
561.691	3.82954
565.066	0.834
568.441	0.026085
571.816	0.485497
575.19	0.391708
578.565	0.243507
581.94	1.05051
585.315	1.98886
588.69	3.75541
592.064	3.32393
595.439	2.97701
598.814	1.22565
602.189	0.461433
605.564	1.34796
608.938	0.386154
612.313	0.221809
615.688	0.835587
619.063	4.45377
622.438	10.2693
625.813	20.5654
629.187	35.8651
632.562	57.8942
635.937	83.5828
639.312	102.076
642.687	104.129
646.062	87.4633
649.436	75.0776
652.811	62.591
656.186	49.5419
659.561	32.5691
662.936	19.6696
666.31	11.0491
669.685	4.10713
673.06	0.895935
676.435	0.613754
679.81	1.8612
683.184	2.41338
686.559	9.14815
689.934	24.2881
693.309	46.9883
696.684	76.5627
700.058	120.677
703.433	168.239
706.808	204.443
710.183	198.658
713.558	158.829
716.933	109.388
720.307	70.8649
723.682	47.2329
727.057	35.0196
730.432	30.3999
733.807	30.4898
737.182	34.579
740.556	41.2641
743.931	52.6554
747.306	65.9471
750.681	69.3603
754.056	56.4984
757.43	40.8543
760.805	26.9068
764.18	15.6528
767.555	10.3052
770.93	4.36561
774.304	3.0968
777.679	3.13186
781.054	1.27819
784.429	0.806206
787.804	0.175083
791.179	0.196924
794.553	1.45634
797.928	0.806786
801.303	0.318508
804.678	0.371805
808.053	0.842636
811.428	0.315367
814.802	1.23449
818.177	0.992012
821.552	1.99006
824.927	3.99595
828.302	4.87503
831.676	5.58118
835.051	6.25046
838.426	6.07748
841.801	6.87837
845.176	7.26728
848.551	7.72871
851.925	9.10269
855.3	9.41508
858.675	11.7658
862.05	12.917
865.425	12.953
868.799	13.5434
872.174	13.3316
875.549	12.3432
878.924	11.2266
882.299	10.3494
885.673	8.17338
889.048	6.42853
892.423	5.85949
895.798	4.32918
899.173	3.37321
902.548	2.25471
905.922	1.17233
909.297	0.380375
912.672	0.377693
916.047	0.846882
919.422	0.116648
922.796	0.723917
926.171	0.311235
929.546	0.093281
932.921	0.299225
936.296	1.47119
939.67	2.25913
943.045	3.64847
946.42	4.37521
949.795	7.1891
953.17	10.5418
956.545	14.653
959.919	18.913
963.294	22.9091
966.669	28.629
970.044	31.2921
973.419	31.7913
976.793	30.0661
980.168	26.2456
983.543	23.9416
986.918	23.673
990.293	21.8764
993.668	19.1401
997.042	19.0359
1000.42	17.0516
1003.79	14.043
1007.17	12.7462
1010.54	11.4089
1013.92	10.0843
1017.29	8.12519
1020.67	8.32046
1024.04	6.98967
1027.42	5.97709
1030.79	3.96272
1034.16	1.69175
1037.54	0.367012
1040.91	0.159779
1044.29	0.685993
1047.66	2.65209
1051.04	7.06016
1054.41	12.3151
1057.79	15.6376
1061.16	19.503
1064.54	24.9272
1067.91	30.5457
1071.29	38.0478
1074.66	46.4132
1078.04	54.3264
1081.41	60.3558
1084.79	66.388
1088.16	67.4081
1091.54	61.3449
1094.91	51.8302
1098.29	40.07
1101.66	31.894
1105.04	24.7845
1108.41	19.0666
1111.79	12.9236
1115.16	10.2049
1118.54	7.60237
1121.91	5.88491
1125.29	4.46549
1128.66	2.94682
1132.04	2.65733
1135.41	0.562922
1138.79	0.880863
1142.16	0.7048
1145.53	0.392775
1148.91	0.151075
1152.28	0.866867
1155.66	0.128807
1159.03	0.663225
1162.41	0.164812
1165.78	0.11705
1169.16	1.62206
1172.53	0.739658
1175.91	1.8677
1179.28	2.82444
1182.66	3.15317
1186.03	2.74942
1189.41	3.1009
1192.78	4.18341
1196.16	3.99184
1199.53	4.16596
1202.91	4.36338
1206.28	4.28911
1209.66	3.6442
1213.03	3.173
1216.41	3.48662
1219.78	3.23426
1223.15	2.93297
1226.53	2.6193
1229.9	2.23603
1233.28	2.59287
1236.65	2.45724
1240.03	2.43589
1243.4	2.19832
1246.78	2.14664
1250.15	2.08247
1253.53	1.98932
1256.9	1.15037
1260.28	1.12065
1263.65	1.42503
1267.03	1.06141
1270.4	1.92416
1273.78	1.32586
1277.15	1.13264
1280.53	1.30929
1283.9	1.43898
1287.28	1.3654
1290.65	1.35136
1294.03	0.167841
1297.4	0.631901
1300.78	0.138409
1304.15	0
