Measurement: Raman, 780 nm, unoriented, Raman Data Processed
Mineral: Elbaite
Rruff sample: R050119
Ideal chemistry: Na(Al_1.5_Li_1.5_)Al_6_(Si_6_O_18_)(BO_3_)_3_(OH)_3_OH
Locality: Cruziero mine, San Jose, Minas Gerais, Brazil
Source: Carlos and Paulo Vasconcelos
Description: Red fragment
Measured chemistry: (Na_0.90_Ca_0.10_)(Al_0.56_Li_0.38_Mn_0.06_)_3_Al_6_(BO_3_)_3_(Si_0.89_B_0.11_)_6_O_18_(OH)_4_
Raman shift (cm-1)	intensity
100.884	0
104.259	3.03397
107.634	2.29198
111.009	1.71979
114.383	0.840294
117.758	1.1574
121.133	4.67556
124.508	7.53484
127.883	7.96568
131.257	11.9909
134.632	13.0806
138.007	9.95497
141.382	7.59154
144.757	5.90418
148.131	5.21457
151.506	4.59501
154.881	4.01718
158.256	0.376617
161.631	1.71703
165.006	0.318169
168.38	1.02248
171.755	5.50234
175.13	9.39524
178.505	5.67148
181.88	0.732788
185.255	0.652657
188.629	2.36803
192.004	8.30353
195.379	14.867
198.754	23.5134
202.129	34.2377
205.503	45.7354
208.878	63.0466
212.253	88.5241
215.628	124.633
219.003	171.489
222.377	196.947
225.752	164.511
229.127	125.739
232.502	100.692
235.877	92.6421
239.251	97.1231
242.626	102.211
246.001	105.368
249.376	97.6183
252.751	82.2682
256.126	69.4872
259.5	62.8742
262.875	61.3024
266.25	62.0555
269.625	59.7465
273	50.9541
276.375	40.4599
279.749	32.6741
283.124	22.4145
286.499	15.6847
289.874	9.04502
293.249	2.83612
296.623	1.31499
299.998	4.5659
303.373	3.71695
306.748	0.761223
310.123	4.88661
313.498	12.2309
316.872	14.2224
320.247	11.4649
323.622	15.2319
326.997	18.718
330.372	22.272
333.746	24.0229
337.121	25.9086
340.496	33.2084
343.871	38.4473
347.246	47.8576
350.62	55.9734
353.995	63.444
357.37	74.6004
360.745	91.6682
364.12	125.939
367.495	183.04
370.869	268.248
374.244	312.557
377.619	246.053
380.994	162.183
384.369	113.193
387.743	83.7536
391.118	72.2439
394.493	69.7499
397.868	73.5044
401.243	80.6195
404.617	85.3268
407.992	84.9733
411.367	71.4761
414.742	54.307
418.117	34.694
421.491	19.2991
424.866	8.8315
428.241	3.64917
431.616	0.948891
434.991	1.18235
438.366	2.44086
441.74	0.007645
445.115	1.79611
448.49	0.753807
451.865	0.087532
455.24	1.97891
458.615	1.73502
461.989	1.04991
465.364	0.733341
468.739	0.786411
472.114	0.259789
475.489	2.27937
478.863	4.42396
482.238	5.92928
485.613	10.0244
488.988	12.6554
492.363	16.0473
495.737	20.238
499.112	23.9664
502.487	29.5358
505.862	34.8397
509.237	37.6666
512.611	38.0727
515.986	37.8976
519.361	33.3199
522.736	25.6076
526.111	21.7525
529.486	18.4276
532.86	18.0933
536.235	20.002
539.61	16.1051
542.985	15.2633
546.36	11.6964
549.734	10.1623
553.109	9.3433
556.484	5.96834
559.859	4.06841
563.234	3.23208
566.609	1.59271
569.983	1.46429
573.358	1.0611
576.733	0.336937
580.108	0.642258
583.483	1.62158
586.857	2.60445
590.232	2.5733
593.607	1.70165
596.982	1.89902
600.357	1.26714
603.731	0.516365
607.106	1.22495
610.481	0.529118
613.856	0.673706
617.231	0.833
620.606	4.85385
623.98	7.8
627.355	15.8586
630.73	26.1452
634.105	39.6818
637.48	51.2197
640.854	56.4168
644.229	50.2091
647.604	40.0923
650.979	34.2152
654.354	27.4951
657.729	18.3511
661.103	13.2896
664.478	6.87269
667.853	2.9221
671.228	0.325397
674.603	0.520752
677.977	0.616726
681.352	0.169125
684.727	2.9804
688.102	10.2427
691.477	20.8898
694.851	36.3396
698.226	58.1973
701.601	86.1437
704.976	112.949
708.351	121.032
711.726	102.135
715.1	74.4869
718.475	50.0542
721.85	32.5312
725.225	22.9798
728.6	20.4318
731.974	19.4795
735.349	21.3344
738.724	25.1116
742.099	31.9914
745.474	43.4278
748.848	51.0483
752.223	46.8173
755.598	36.1858
758.973	23.9484
762.348	15.2534
765.723	10.8449
769.097	6.27312
772.472	5.24223
775.847	5.10827
779.222	3.96799
782.597	1.56924
785.971	0.595057
789.346	0.316282
792.721	0.479158
796.096	0.404423
799.471	0.817392
802.846	0.525513
806.22	0.013056
809.595	0.071108
812.97	0.312429
816.345	0.696587
819.72	2.17809
823.094	2.97979
826.469	3.24158
829.844	4.79479
833.219	5.76069
836.594	5.10496
839.968	6.23147
843.343	6.84946
846.718	5.9479
850.093	7.55545
853.468	7.94146
856.843	9.2353
860.217	10.3513
863.592	11.3113
866.967	11.8529
870.342	11.1907
873.717	10.3342
877.091	10.1693
880.466	8.58352
883.841	6.83415
887.216	6.819
890.591	4.89182
893.966	3.81818
897.34	2.73154
900.715	2.08208
904.09	1.66214
907.465	0.279127
910.84	0.294348
914.214	0.319971
917.589	0.248837
920.964	0.411766
924.339	0.429613
927.714	0.529219
931.088	0.112881
934.463	0.21909
937.838	1.01132
941.213	1.73784
944.588	2.24169
947.963	3.73032
951.337	5.23334
954.712	6.15633
958.087	9.1781
961.462	12.9336
964.837	14.6038
968.211	16.3566
971.586	17.8299
974.961	16.1378
978.336	14.7033
981.711	14.2343
985.086	12.4794
988.46	11.2368
991.835	10.8953
995.21	9.39398
998.585	9.80385
1001.96	7.71239
1005.33	7.09396
1008.71	5.09523
1012.08	4.02278
1015.46	4.0118
1018.83	5.14747
1022.21	4.14968
1025.58	2.96368
1028.96	2.20628
1032.33	2.54587
1035.71	0.593861
1039.08	0.019463
1042.46	1.79238
1045.83	3.7265
1049.21	7.45623
1052.58	10.5871
1055.96	14.7289
1059.33	16.7078
1062.71	19.9185
1066.08	20.7818
1069.46	24.609
1072.83	28.1141
1076.21	30.8897
1079.58	33.793
1082.95	38.0264
1086.33	38.1531
1089.7	35.3413
1093.08	29.3951
1096.45	24.3536
1099.83	17.968
1103.2	13.1561
1106.58	9.78943
1109.95	7.84319
1113.33	4.15266
1116.7	3.0778
1120.08	2.21662
1123.45	0.191938
1126.83	1.22389
1130.2	0.44845
1133.58	0.490961
1136.95	0.0399
1140.33	0.032228
1143.7	0.476143
1147.08	0.674252
1150.45	0.0619
1153.83	0.915948
1157.2	0.343006
1160.58	0.250349
1163.95	0.390788
1167.33	1.06668
1170.7	1.05987
1174.08	1.69161
1177.45	2.1079
1180.83	3.04135
1184.2	2.77862
1187.57	3.34984
1190.95	2.91627
1194.32	2.95181
1197.7	3.46269
1201.07	3.36971
1204.45	3.63779
1207.82	3.23805
1211.2	2.51099
1214.57	2.69568
1217.95	2.42031
1221.32	2.92783
1224.7	2.13837
1228.07	1.52138
1231.45	1.01008
1234.82	1.49535
1238.2	1.67772
1241.57	1.34402
1244.95	1.45188
1248.32	0.725554
1251.7	1.18156
1255.07	0.580321
1258.44	0.567621
1261.82	0.926827
1265.19	0.465451
1268.57	1.52813
1271.94	0.002231
1275.32	0.761992
1278.69	0.807973
1282.07	0.237654
1285.44	0.088278
