Measurement: Raman, 532 nm, unoriented, Raman Data Processed
Mineral: Elbaite
Rruff sample: R060003
Ideal chemistry: Na(Al_1.5_Li_1.5_)Al_6_(Si_6_O_18_)(BO_3_)_3_(OH)_3_OH
Locality: Mount Begbie, Revelstoke, British Columbia, Canada
Source: Bob Downs
Description: Pink crystal associated with trilithionite, R060004
Measured chemistry: (Na_0.58_[box]_0.42_)(Al_1.69_Li_1.27_Mn_0.04_)Al_6_(BO_3_)_3_[Si_6_O_18_](OH)_4_
Raman shift (cm-1)	intensity
123.297	0
126.672	9.99516
130.047	33.8142
133.422	28.2289
136.797	26.7002
140.172	29.9671
143.546	24.1318
146.921	33.2117
150.296	33.5967
153.671	21.9434
157.046	9.47946
160.421	5.18231
163.795	6.90524
167.17	0.211304
170.545	3.50961
173.92	1.55667
177.294	9.6716
180.669	0.31955
184.044	1.85641
187.419	13.6294
190.794	48.306
194.169	98.4937
197.543	159.984
200.918	252.875
204.293	372.013
207.668	512.726
211.043	699.381
214.417	929.012
217.792	1223.15
221.167	1465.75
224.542	1368.83
227.917	1050.29
231.292	824.733
234.666	717.736
238.041	696.785
241.416	728.926
244.791	758.455
248.166	737.658
251.541	656.088
254.915	577.317
258.29	533.209
261.665	512.183
265.04	492.988
268.415	472.26
271.789	417.293
275.164	338.237
278.539	237.075
281.914	146.482
285.289	78.6469
288.663	28.4727
292.038	4.89804
295.413	16.9805
298.788	21.8999
302.163	18.4229
305.538	12.0347
308.912	42.1909
312.287	79.1752
315.662	97.3728
319.037	65.8426
322.412	52.4989
325.786	61.1395
329.161	67.2366
332.536	79.6146
335.911	99.9237
339.286	118.766
342.661	158.824
346.035	210.528
349.41	279.899
352.785	368.253
356.16	499.984
359.535	674.376
362.909	919.537
366.284	1228.45
369.659	1611.37
373.034	1851.17
376.409	1592.39
379.784	1119.39
383.158	766.724
386.533	591.354
389.908	500.868
393.283	472.896
396.658	482.311
400.032	507.436
403.407	510.1
406.782	498.506
410.157	428.195
413.532	338.913
416.906	227.751
420.281	133.627
423.656	70.1727
427.031	28.873
430.406	12.2941
433.781	2.10565
437.155	5.4028
440.53	2.75482
443.905	2.0213
447.28	3.07855
450.655	2.71246
454.029	3.62161
457.404	1.87433
460.779	8.41797
464.154	14.4317
467.529	9.04266
470.904	0.339233
474.278	0.675995
477.653	8.5498
481.028	17.8163
484.403	37.9678
487.778	51.2937
491.152	70.3469
494.527	94.8721
497.902	126.053
501.277	155.722
504.652	191.296
508.026	214.974
511.401	227.648
514.776	232.432
518.151	217.077
521.526	194.561
524.901	157.683
528.275	131.344
531.65	110.997
535.025	104.84
538.4	101.265
541.775	78.763
545.149	61.6054
548.524	47.9741
551.899	37.046
555.274	20.5744
558.649	14.4002
562.024	8.90689
565.398	4.70474
568.773	2.10519
572.148	2.55658
575.523	1.98679
578.898	0.444733
582.273	7.69101
585.647	8.5921
589.022	7.76038
592.397	9.7435
595.772	3.76086
599.146	0.234192
602.521	0.893341
605.896	2.91418
609.271	1.55902
612.646	2.96561
616.021	10.3011
619.395	36.1336
622.77	66.2921
626.145	113.381
629.52	169.335
632.895	247.678
636.269	315.486
639.644	348.384
643.019	335.627
646.394	287.257
649.769	246.321
653.144	199.319
656.518	153.553
659.893	108.523
663.268	59.1554
666.643	32.9109
670.018	6.15524
673.393	3.2829
676.767	3.49506
680.142	8.52734
683.517	26.3176
686.892	63.1189
690.266	125.476
693.641	215.383
697.016	335.968
700.391	471.712
703.766	610.487
707.141	700.13
710.515	663.822
713.89	526.317
717.265	378.425
720.64	258.648
724.015	180.486
727.389	137.57
730.764	121.717
734.139	117.809
737.514	128.254
740.889	161.016
744.264	188.123
747.638	207.68
751.013	198.61
754.388	146.744
757.763	99.3872
761.138	63.9356
764.513	40.3238
767.887	20.0568
771.262	7.50467
774.637	9.15698
778.012	4.55719
781.387	2.54927
784.761	2.0327
788.136	0.279907
791.511	0.068405
794.886	0.940659
798.261	3.71213
801.635	2.09239
805.01	3.3797
808.385	2.46748
811.76	3.77238
815.135	1.69322
818.51	3.44746
821.884	7.65125
825.259	8.71239
828.634	13.8844
832.009	16.7446
835.384	16.9492
838.758	23.4008
842.133	19.9608
845.508	27.6319
848.883	29.5419
852.258	31.0698
855.633	38.7159
859.007	42.7436
862.382	45.9925
865.757	47.5131
869.132	47.1271
872.507	43.7314
875.881	39.4013
879.256	35.3126
882.631	30.8774
886.006	32.5632
889.381	23.8071
892.755	21.9459
896.13	16.5691
899.505	11.1862
902.88	8.01797
906.255	8.05072
909.63	0.318619
913.004	0.589081
916.379	2.58279
919.754	1.51462
923.129	1.6752
926.504	1.53398
929.879	0.427658
933.253	1.19077
936.628	6.80658
940.003	5.58902
943.378	13.3555
946.753	22.5803
950.127	28.8363
953.502	40.3179
956.877	55.6158
960.252	72.1857
963.627	87.9775
967.001	102.848
970.376	106.153
973.751	109.431
977.126	104.385
980.501	97.3971
983.875	92.9785
987.25	82.4234
990.625	78.3289
994	75.0773
997.375	66.1126
1000.75	56.4462
1004.12	50.1786
1007.5	41.6803
1010.87	32.2531
1014.25	27.9549
1017.62	26.8722
1021	17.3692
1024.37	18.5877
1027.75	10.0235
1031.12	6.36581
1034.5	0.728729
1037.87	1.71423
1041.25	2.53867
1044.62	6.60046
1048	22.2478
1051.37	26.0179
1054.75	46.8937
1058.12	61.3479
1061.5	76.7618
1064.87	90.4125
1068.25	106.313
1071.62	124.418
1075	135.08
1078.37	156.351
1081.74	162.399
1085.12	181.878
1088.49	176.193
1091.87	163.315
1095.24	141.361
1098.62	108.057
1101.99	84.3201
1105.37	65.7516
1108.74	54.3307
1112.12	38.9432
1115.49	27.1656
1118.87	23.963
1122.24	21.0431
1125.62	16.7894
1128.99	14.241
1132.37	9.44843
1135.74	7.36003
1139.12	7.16258
1142.49	6.90607
1145.87	3.58481
1149.24	0.21756
1152.62	1.59203
1155.99	0.991943
1159.37	2.68439
1162.74	0.077087
1166.12	0.598297
1169.49	2.33076
1172.87	4.4315
1176.24	7.96289
1179.62	8.97899
1182.99	9.79791
1186.37	12.8682
1189.74	11.9593
1193.11	11.218
1196.49	15.0682
1199.86	14.6592
1203.24	18.4826
1206.61	17.0394
1209.99	16.3907
1213.36	18.3131
1216.74	16.3768
1220.11	14.9063
1223.49	12.0571
1226.86	11.4057
1230.24	8.87703
1233.61	8.76732
1236.99	10.1528
1240.36	8.63498
1243.74	8.24367
1247.11	7.39677
1250.49	9.7032
1253.86	4.72249
1257.24	6.30391
1260.61	7.70668
1263.98	3.51601
1267.36	4.64079
1270.73	5.85399
1274.11	2.63324
1277.48	5.52028
1280.86	1.69263
1284.23	1.71281
1287.61	0
