Measurement: Raman, 532 nm, unoriented, Raman Data Processed
Mineral: Elpasolite
Rruff sample: R061029
Ideal chemistry: K_2_NaAlF_6_
Locality: Le Cetine mine, Rosia, Siena Province, Tuscany, Italy
Source: Michael Scott
Description: Colorless cubic crystals associated with colorless blades of gypsum
Raman shift (cm-1)	intensity
117.184	0
120.077	5.76413
122.969	161.121
125.862	529.963
128.755	1051.87
131.648	1642.34
134.54	2481.86
137.433	1427.96
140.326	477.405
143.218	196.602
146.111	135.407
149.004	138.337
151.896	75.6812
154.789	66.9421
157.682	48.8033
160.574	40.4084
163.467	45.6647
166.36	32.9956
169.252	42.3416
172.145	47.6059
175.038	34.5404
177.931	50.3426
180.823	37.8191
183.716	28.7005
186.609	35.5715
189.501	6.4209
192.394	24.0051
195.287	5.22174
198.179	6.76154
201.072	26.4069
203.965	19.5008
206.858	12.5685
209.75	5.40436
212.643	16.9231
215.536	18.8562
218.428	7.32263
221.321	12.8346
224.214	0.525757
227.107	1.19177
229.999	5.52869
232.892	26.289
235.785	27.9814
238.677	31.324
241.57	8.49359
244.463	36.6501
247.355	41.9912
250.248	24.179
253.141	4.88574
256.033	16.9636
258.926	37.8296
261.819	0.177856
264.712	8.28491
267.604	24.1788
270.497	18.9329
273.39	9.42725
276.282	31.5491
279.175	26.4172
282.068	21.7971
284.96	0.15033
287.853	11.4372
290.746	7.2417
293.639	22.0783
296.531	10.8615
299.424	30.1111
302.317	75.7184
305.209	90.679
308.102	118.642
310.995	223.044
313.887	431.944
316.78	996.231
319.673	1641.17
322.565	2355.28
325.458	3510.07
328.351	3025.14
331.244	937.5
334.136	388.582
337.029	232.5
339.922	134.03
342.814	92.4017
345.707	68.6646
348.6	55.2449
351.493	43.9066
354.385	35.4156
357.278	11.8324
360.171	33.2288
363.063	12.9381
365.956	21.4032
368.849	66.077
371.741	39.4111
374.634	86.3633
377.527	181.925
380.419	252.976
383.312	351.232
386.205	483.728
389.098	423.241
391.99	235.559
394.883	143.4
397.776	64.9293
400.668	52.6484
403.561	0.215027
406.454	14.7548
409.346	29.9623
412.239	22.6259
415.132	34.454
418.024	15.1698
420.917	59.8431
423.81	25.0853
426.703	9.89654
429.595	25.6962
432.488	17.6073
435.381	2.5191
438.273	15.7183
441.166	15.7174
444.059	16.8579
446.952	47.3821
449.844	40.3953
452.737	22.3124
455.63	20.5057
458.522	35.1743
461.415	16.0952
464.308	9.3775
467.2	21.0483
470.093	15.1598
472.986	2.98718
475.878	18.1748
478.771	1.63538
481.664	32.2869
484.557	20.475
487.449	8.64355
490.342	61.0304
493.235	44.6258
496.127	25.4241
499.02	22.4377
501.913	28.6284
504.805	1.98877
507.698	28.751
510.591	27.6608
513.484	33.0128
516.376	5.2594
519.269	72.7596
522.162	86.833
525.054	136.727
527.947	173.829
530.84	217.014
533.732	267.937
536.625	352.137
539.518	528.721
542.41	858.493
545.303	1528.32
548.196	2607.01
551.089	4207.39
553.981	6276.68
556.874	8901.51
559.767	9893.88
562.659	5458.86
565.552	2305.59
568.445	1081.98
571.337	560.324
574.23	301.179
577.123	182.054
580.016	84.1812
582.908	80.723
585.801	21.9733
588.694	20.8541
591.586	0.960571
594.479	27.9908
597.372	2.76111
600.264	8.9762
603.157	0.771484
606.05	3.35681
608.942	38.7534
611.835	57.5784
614.728	47.8136
617.621	68.9518
620.513	65.9679
623.406	77.2295
626.299	61.8439
629.191	71.121
632.084	67.2836
634.977	58.6819
637.87	38.6879
640.762	37.0765
643.655	33.606
646.548	49.9265
649.44	45.661
652.333	47.971
655.226	40.375
658.118	69.2943
661.011	65.2777
663.904	54.1305
666.797	78.6594
669.689	53.7278
672.582	27.8832
675.475	28.2021
678.367	1.50464
681.26	11.4872
684.153	11.1014
687.045	39.1315
689.938	12.785
692.831	2.69287
695.723	24.4475
698.616	16.7888
701.509	7.99585
704.402	24.8977
707.294	40.9555
710.187	37.7275
713.08	32.179
715.972	23.9357
718.865	39.566
721.758	16.0657
724.65	21.6173
727.543	44.3016
730.436	38.2943
733.328	35.279
736.221	33.026
739.114	46.6207
742.007	29.8667
744.899	43.0851
747.792	18.7997
750.685	43.5418
753.577	29.1138
756.47	50.0685
759.363	19.6558
762.255	30.8518
765.148	31.1538
768.041	17.6572
770.934	48.2051
773.826	18.574
776.719	30.5861
779.612	40.6383
782.504	58.3865
785.397	52.3707
788.29	60.6965
791.183	67.9951
794.075	81.7506
796.968	73.4066
799.861	67.1836
802.753	78.8195
805.646	73.3607
808.539	79.0319
811.431	71.9232
814.324	63.541
817.217	82.4316
820.109	73.4646
823.002	76.9414
825.895	92.9974
828.788	97.7368
831.68	70.3353
834.573	65.8895
837.466	56.6746
840.358	50.6017
843.251	52.5988
846.144	49.5658
849.036	54.1442
851.929	23.9277
854.822	23.3412
857.715	11.2089
860.607	39.9485
863.5	31.9179
866.393	31.0584
869.285	5.55664
872.178	11.7896
875.071	11.3776
877.963	27.4203
880.856	36.7571
883.749	17.477
886.641	11.7484
889.534	5.16479
892.427	6.98914
895.32	29.5656
898.212	33.2722
901.105	12.0229
903.998	10.2581
906.89	8.41956
909.783	28.8906
912.676	22.6023
915.568	22.8219
918.461	31.1909
921.354	12.8481
924.246	20.8989
927.139	48.6757
930.032	5.87903
932.925	3.99133
935.817	6.30762
938.71	17.4712
941.603	3.59753
944.495	14.8275
947.388	19.1364
950.281	8.36255
953.173	26.3351
956.066	10.6122
958.959	10.0824
961.852	7.93555
964.744	32.6626
967.637	21.4268
970.53	20.8655
973.422	44.7063
976.315	35.0754
979.208	58.7014
982.101	53.9716
984.993	66.5912
987.886	70.7225
990.779	98.6199
993.671	110.026
996.564	78.3511
999.457	107.225
1002.35	147.885
1005.24	223.789
1008.13	364.217
1011.03	218.909
1013.92	60.9592
1016.81	28.7322
1019.71	31.8258
1022.6	17.5177
1025.49	37.536
1028.38	43.132
1031.28	35.056
1034.17	25.1867
1037.06	26.5566
1039.95	29.2155
1042.85	36.7262
1045.74	4.07227
1048.63	61.7548
1051.53	35.3456
1054.42	53.5627
1057.31	30.7577
1060.2	34.3239
1063.1	2.46826
1065.99	4.14233
1068.88	22.9629
1071.77	38.9542
1074.67	3.99548
1077.56	39.6394
1080.45	14.2238
1083.35	23.5637
1086.24	12.7856
1089.13	5.29114
1092.02	9.35669
1094.92	24.0207
1097.81	46.9703
1100.7	20.2573
1103.59	31.043
1106.49	41.0164
1109.38	44.1224
1112.27	3.34497
1115.16	16.1433
1118.06	25.6704
1120.95	23.1232
1123.84	47.1073
1126.73	66.0176
1129.63	59.7884
1132.52	65.0102
1135.41	110.55
1138.31	49.5581
1141.2	42.7241
1144.09	42.9369
1146.98	36.4911
1149.88	27.791
1152.77	13.5514
1155.66	0.921631
1158.56	29.0207
1161.45	58.6609
1164.34	22.9346
1167.23	42.4237
1170.13	21.7383
1173.02	7.6145
1175.91	52.3624
1178.8	10.0128
