Measurement: Raman, 532 nm, unoriented, Raman Data Processed
Mineral: Elpidite
Rruff sample: R060200
Ideal chemistry: Na_2_Zr^4+^Si_6_O_15_3H_2_O
Locality: Poudrette Quarry, Mont Saint-Hilaire, Rouville County, Quebec, Canada
Source: Royal Ontario Museum
Description: Tan colored columnar aggregate of elongated prismatic fibers
Raman shift (cm-1)	intensity
146.075	0
149.45	5.91852
152.825	31.5916
156.2	56.7591
159.574	70.2138
162.949	77.4596
166.324	86.3435
169.699	92.9792
173.074	83.2049
176.448	67.0177
179.823	39.8087
183.198	16.3924
186.573	9.68588
189.948	1.06054
193.323	1.1896
196.697	0.119396
200.072	1.29685
203.447	1.39594
206.822	0.726698
210.197	3.26524
213.571	6.00988
216.946	11.1415
220.321	8.32775
223.696	12.4525
227.071	14.4014
230.446	23.5544
233.82	30.2119
237.195	47.5534
240.57	69.6423
243.945	92.3192
247.32	107.507
250.695	111.295
254.069	107.529
257.444	88.4263
260.819	60.7419
264.194	36.6917
267.568	24.8493
270.943	15.5074
274.318	12.077
277.693	10.9469
281.068	15.9859
284.443	18.4207
287.817	23.4104
291.192	17.3223
294.567	14.6335
297.942	9.06661
301.317	13.5474
304.692	17.6151
308.066	8.85071
311.441	3.72054
314.816	0.999767
318.191	0.33456
321.566	0.169869
324.94	0.20982
328.315	0.6195
331.69	0.014832
335.065	2.66702
338.44	5.14302
341.815	7.63518
345.189	5.19043
348.564	5.83965
351.939	7.68058
355.314	12.8352
358.689	14.3678
362.063	18.7366
365.438	20.1031
368.813	24.5512
372.188	24.7927
375.563	28.3884
378.938	25.0329
382.312	15.134
385.687	12.7801
389.062	13.5245
392.437	11.356
395.812	4.86953
399.186	0.020385
402.561	0.626888
405.936	0.269414
409.311	2.07237
412.686	1.06647
416.06	1.09973
419.435	9.24749
422.81	13.629
426.185	11.8977
429.56	9.00961
432.935	9.74473
436.309	10.492
439.684	7.34231
443.059	4.97725
446.434	6.32909
449.809	10.4547
453.183	15.1665
456.558	22.9093
459.933	30.646
463.308	38.612
466.683	55.9387
470.058	80.9292
473.432	105.316
476.807	86.5849
480.182	47.8364
483.557	31.988
486.932	31.5494
490.306	36.0054
493.681	32.4916
497.056	29.5024
500.431	21.9742
503.806	23.3735
507.18	21.7438
510.555	29.3647
513.93	31.306
517.305	27.5629
520.68	39.1871
524.055	55.3023
527.429	80.2409
530.804	111.539
534.179	117.76
537.554	82.2578
540.929	41.2916
544.303	19.4605
547.678	7.03401
551.053	1.73361
554.428	0.520411
557.803	0.317647
561.178	0.93058
564.552	0.042487
567.927	0.117097
571.302	0.150595
574.677	3.22733
578.052	4.34802
581.427	1.83063
584.801	7.22297
588.176	4.62855
591.551	6.35805
594.926	2.95841
598.301	3.50021
601.675	4.77488
605.05	6.11122
608.425	8.23427
611.8	7.58263
615.175	8.22959
618.549	9.56345
621.924	6.23895
625.299	0.51092
628.674	0.008383
632.049	4.03339
635.423	0.498241
638.798	0.637326
642.173	0.107668
645.548	0.373783
648.923	2.60586
652.298	3.0016
655.672	0.476967
659.047	0.933945
662.422	1.52959
665.797	2.75146
669.172	8.41178
672.546	8.90813
675.921	13.9081
679.296	19.353
682.671	22.5778
686.046	30.3265
689.42	35.5891
692.795	43.1379
696.17	51.3357
699.545	62.1415
702.92	68.5648
706.295	71.0899
709.669	75.4583
713.044	70.9931
716.419	63.8592
719.794	56.2373
723.169	51.1106
726.543	46.4316
729.918	37.8527
733.293	33.5968
736.668	27.9387
740.043	22.1297
743.418	17.4296
746.792	13.5
750.167	8.95821
753.542	10.7033
756.917	4.51377
760.292	5.68046
763.667	4.60066
767.041	4.0559
770.416	5.71545
773.791	5.25674
777.166	6.4976
780.541	3.10387
783.915	6.33712
787.29	0.192153
790.665	0.602526
794.04	0.280545
797.415	0.084131
800.789	0.738358
804.164	0.263223
807.539	0.345982
810.914	1.16961
814.289	3.01281
817.663	0.247534
821.038	0.138234
824.413	0.901777
827.788	3.33565
831.163	5.53543
834.538	3.14226
837.912	0.254317
841.287	3.45206
844.662	2.69886
848.037	2.7608
851.412	0.322841
854.787	1.7305
858.161	7.95758
861.536	17.9712
864.911	31.2241
868.286	50.0224
871.661	76.7386
875.035	102.404
878.41	121.443
881.785	128.005
885.16	120.281
888.535	93.17
891.909	65.1084
895.284	43.1873
898.659	28.2793
902.034	21.5708
905.409	16.2524
908.784	17.0625
912.158	12.1438
915.533	10.7335
918.908	4.80478
922.283	2.83216
925.658	0.463309
929.033	0.349285
932.407	0.100792
935.782	0.324643
939.157	0.073792
942.532	2.15614
945.907	0.455971
949.281	6.76571
952.656	9.3498
956.031	7.38024
959.406	5.16678
962.781	2.76268
966.155	8.95797
969.53	22.8495
972.905	45.3731
976.28	81.2756
979.655	131.655
983.029	172.618
986.404	186.554
989.779	214.691
993.154	254.266
996.529	235.057
999.904	177.643
1003.28	151.075
1006.65	128.825
1010.03	106.585
1013.4	88.4977
1016.78	92.1169
1020.15	89.326
1023.53	60.8419
1026.9	29.2535
1030.28	15.2955
1033.65	5.62717
1037.03	2.04953
1040.4	0.334862
1043.78	1.13155
1047.15	0.0012
1050.53	1.71928
1053.9	1.89647
1057.28	1.66063
1060.65	2.3009
1064.03	0.116896
1067.4	0.017571
1070.78	0.607096
1074.15	0.040786
1077.52	0.133828
1080.9	1.25008
1084.27	5.40968
1087.65	5.32636
1091.02	7.83037
1094.4	7.22035
1097.77	9.19102
1101.15	8.59949
1104.52	11.0799
1107.9	15.2349
1111.27	18.8668
1114.65	22.7628
1118.02	24.4953
1121.4	26.36
1124.77	30.3013
1128.15	28.5767
1131.52	27.7639
1134.9	23.9733
1138.27	20.7279
1141.65	21.7617
1145.02	23.9374
1148.4	25.7088
1151.77	26.6467
1155.14	28.275
1158.52	26.6101
1161.89	18.0209
1165.27	10.84
1168.64	5.63108
1172.02	3.90647
1175.39	2.31461
1178.77	0.460421
1182.14	0.161389
1185.52	1.75611
1188.89	1.74204
1192.27	1.30315
1195.64	0.192112
1199.02	0.306834
1202.39	0.090094
1205.77	2.27067
1209.14	1.60903
1212.52	2.8166
1215.89	0.169777
1219.27	0.16065
1222.64	0.155997
1226.02	0.631712
1229.39	0.032375
1232.77	2.09828
1236.14	1.1936
1239.52	1.01973
1242.89	1.95352
1246.27	1.68414
1249.64	1.35702
1253.02	0.15876
1256.39	0.915346
1259.76	1.30604
1263.14	2.23611
1266.51	2.86489
1269.89	2.27292
1273.26	1.92825
1276.64	2.38301
1280.01	2.58757
1283.39	0.140755
1286.76	3.04679
1290.14	2.10524
1293.51	2.96593
1296.89	1.74432
1300.26	1.93814
1303.64	1.90309
