Measurement: Raman, 532 nm, unoriented, Raman Data Processed
Mineral: Elpidite
Rruff sample: R060064
Ideal chemistry: Na_2_Zr^4+^Si_6_O_15_3H_2_O
Locality: Narsarsuk, Greenland
Source: University of Arizona Mineral Museum
Description: Tan colored elongated prismatic crystals
Raman shift (cm-1)	intensity
154.385	0
157.278	6.41235
160.171	0.24219
163.063	3.59005
165.956	11.627
168.849	19.1892
171.742	32.4929
174.634	45.8103
177.527	58.9119
180.42	71.5972
183.312	79.6846
186.205	89.1956
189.098	91.7141
191.99	104.102
194.883	110.241
197.776	127.402
200.668	158.323
203.561	192.129
206.454	227.874
209.347	259.071
212.239	277.056
215.132	274.542
218.025	260.092
220.917	245.104
223.81	220.987
226.703	206.893
229.596	186.149
232.488	157.903
235.381	138.384
238.274	124.229
241.166	105.236
244.059	76.6856
246.952	50.216
249.845	30.295
252.737	14.3365
255.63	6.08574
258.523	2.65157
261.415	1.56637
264.308	4.57684
267.201	15.1247
270.093	23.6884
272.986	29.0168
275.879	44.5866
278.772	47.3213
281.664	37.2079
284.557	22.921
287.45	11.8714
290.342	0.914661
293.235	4.0445
296.128	5.54551
299.021	1.46957
301.913	12.0341
304.806	22.341
307.699	35.4211
310.591	41.72
313.484	56.5867
316.377	61.8635
319.269	63.4124
322.162	52.8984
325.055	45.13
327.947	40.6948
330.84	30.6784
333.733	25.8345
336.626	8.08633
339.518	3.08242
342.411	1.47501
345.304	1.11428
348.196	2.2706
351.089	4.75847
353.982	4.00105
356.875	1.99702
359.767	0.080268
362.66	4.55112
365.553	5.50598
368.445	13.8928
371.338	14.9432
374.231	12.8758
377.123	13.2528
380.016	13.7875
382.909	15.7523
385.802	18.0759
388.694	22.905
391.587	26.2139
394.48	28.8076
397.372	34.1907
400.265	29.4472
403.158	24.4379
406.05	18.3059
408.943	5.53697
411.836	0.952391
414.729	2.46528
417.621	1.83758
420.514	0.202092
423.407	3.13242
426.299	2.44692
429.192	2.8111
432.085	3.5853
434.978	7.46551
437.87	11.2966
440.763	13.4586
443.656	17.3658
446.548	23.7326
449.441	33.5777
452.334	55.1101
455.226	82.0561
458.119	122.637
461.012	167.342
463.905	216.11
466.797	242.566
469.69	245.079
472.583	210.982
475.475	162.507
478.368	123.08
481.261	91.0194
484.154	67.9645
487.046	58.3092
489.939	63.9853
492.832	72.7632
495.724	95.9675
498.617	116.102
501.51	140.475
504.402	160.139
507.295	161.575
510.188	153.974
513.081	134.314
515.973	116.258
518.866	93.1904
521.759	70.9433
524.651	56.678
527.544	53.3189
530.437	46.3659
533.33	39.3807
536.222	26.0079
539.115	5.74348
542.008	0.013441
544.9	2.57462
547.793	2.0341
550.686	0.144163
553.578	0.503739
556.471	1.2633
559.364	5.70398
562.256	6.64243
565.149	5.91012
568.042	5.52538
570.935	9.49028
573.827	12.7565
576.72	13.5719
579.613	19.5486
582.505	24.7365
585.398	26.7086
588.291	23.7817
591.184	24.0494
594.076	19.3607
596.969	20.0476
599.862	17.0446
602.754	11.0747
605.647	8.08983
608.54	8.14082
611.433	7.70851
614.325	8.82643
617.218	11.0878
620.111	9.6127
623.003	7.77717
625.896	6.56207
628.789	2.61349
631.682	-0.219192
634.574	3.07064
637.467	6.53329
640.36	11.1358
643.252	7.32757
646.145	0.417051
649.038	6.90333
651.93	15.3131
654.823	39.2334
657.716	55.4255
660.609	80.26
663.501	102.047
666.394	115.424
669.287	138.49
672.179	148.939
675.072	165.178
677.965	181.887
680.857	191.532
683.75	198.076
686.643	194.785
689.535	188.676
692.428	177.103
695.321	157.055
698.214	146.035
701.106	139.431
703.999	143.035
706.892	155.617
709.784	172.536
712.677	187.345
715.57	200.895
718.462	207.251
721.355	211.081
724.248	214.843
727.141	205.74
730.033	213.623
732.926	199.251
735.819	199.309
738.712	193.535
741.604	182.903
744.497	181.646
747.39	165.342
750.282	156.536
753.175	144.949
756.068	132.865
758.96	123.816
761.853	110.781
764.746	102.19
767.639	88.843
770.531	80.4117
773.424	81.2288
776.317	80.2789
779.209	79.4654
782.102	72.7851
784.995	69.0789
787.888	55.6363
790.78	41.9511
793.673	33.254
796.566	14.7426
799.458	7.16742
802.351	2.09236
805.244	7.48714
808.136	7.04239
811.029	10.1464
813.922	7.51777
816.814	2.63183
819.707	5.11056
822.6	4.49327
825.493	4.87327
828.385	1.40937
831.278	1.19925
834.171	0.816537
837.063	0.289365
839.956	13.7406
842.849	16.0095
845.741	24.0619
848.634	24.6177
851.527	31.9082
854.42	44.0232
857.312	55.5157
860.205	64.7742
863.098	72.705
865.99	92.2501
868.883	114.767
871.776	144.742
874.669	176.441
877.561	212.781
880.454	236.3
883.347	245.269
886.239	230.348
889.132	197.523
892.025	150.8
894.918	119.879
897.81	110.992
900.703	121.698
903.596	130.492
906.488	149.279
909.381	160.48
912.274	168.798
915.166	171.286
918.059	164.156
920.952	144.099
923.845	129.166
926.737	109.555
929.63	90.2938
932.523	75.1869
935.415	67.0234
938.308	62.4511
941.201	52.9246
944.093	41.5358
946.986	35.9303
949.879	21.6871
952.771	17.9462
955.664	5.73051
958.557	2.12093
961.45	2.97904
964.342	3.62545
967.235	1.98881
970.128	2.57423
973.02	5.33296
975.913	13.5928
978.806	30.3062
981.699	35.5585
984.591	49.0964
987.484	52.7941
990.377	62.5889
993.269	73.4978
996.162	73.0478
999.055	84.6938
1001.95	75.2344
1004.84	69.9541
1007.73	53.7771
1010.63	55.1391
1013.52	41.332
1016.41	39.2786
1019.3	33.2981
1022.2	19.4782
1025.09	4.66399
1027.98	2.14369
1030.88	0.002268
1033.77	1.03573
1036.66	0.026553
1039.55	0.745502
1042.44	0.476408
1045.34	6.51474
1048.23	11.8238
1051.12	13.8746
1054.02	17.8146
1056.91	19.3284
1059.8	17.6271
1062.69	17.3468
1065.59	12.0205
1068.48	16.1951
1071.37	13.8549
1074.27	12.0941
1077.16	13.8453
1080.05	20.4177
1082.94	34.0698
1085.84	39.3081
1088.73	44.3113
1091.62	42.6803
1094.51	40.5594
1097.41	36.8394
1100.3	32.4047
1103.19	24.6088
1106.09	20.2516
1108.98	9.92432
1111.87	14.4474
1114.76	7.694
1117.66	8.1178
1120.55	0.188359
1123.44	0.153458
1126.33	2.10299
1129.23	3.25233
1132.12	2.06419
1135.01	3.97397
1137.9	2.05575
1140.8	3.75667
1143.69	6.55013
1146.58	4.36217
1149.47	9.4587
1152.37	13.1943
1155.26	8.16207
1158.15	0.024963
1161.05	1.33037
1163.94	0.298289
1166.83	2.82381
1169.72	0.77966
1172.62	0.251002
1175.51	1.28241
1178.4	0.097856
1181.3	0.935646
1184.19	2.08899
1187.08	0.984477
1189.97	4.25283
1192.87	2.34291
1195.76	5.31438
1198.65	8.68327
1201.54	6.70501
1204.44	11.461
1207.33	5.77493
1210.22	5.64467
1213.12	3.24379
1216.01	8.69395
1218.9	11.1261
1221.79	11.749
1224.69	12.2173
1227.58	12.7916
1230.47	10.8437
1233.36	8.09956
1236.26	2.39712
1239.15	2.49468
1242.04	2.4624
1244.93	2.78672
1247.83	2.16859
1250.72	0.153078
1253.61	3.3524
1256.51	2.36891
1259.4	2.32066
1262.29	4.14194
1265.18	6.09497
1268.08	13.3951
1270.97	12.0643
1273.86	9.24483
1276.75	4.63565
1279.65	6.9237
1282.54	1.52847
1285.43	0.513821
1288.33	3.66873
1291.22	4.37977
1294.11	6.33267
1297	1.56651
1299.9	2.1463
