Measurement: Raman, 780 nm, unoriented, Raman Data Processed
Mineral: Elpidite
Rruff sample: R060214
Ideal chemistry: Na_2_Zr^4+^Si_6_O_15_3H_2_O
Locality: Mont Saint-Hilaire, Rouville County, Quebec, Canada
Source: Royal Ontario Museum
Description: White columnar aggregate of elongated acicular crystals
Raman shift (cm-1)	intensity
135.218	0
138.11	8.74616
141.003	49.9865
143.896	109.768
146.788	136.864
149.681	144.73
152.574	173.378
155.466	220.243
158.359	240.273
161.252	253.57
164.145	286.598
167.037	319.902
169.93	317.577
172.823	271.632
175.715	204.767
178.608	135.287
181.501	81.2141
184.393	57.2183
187.286	28.3353
190.179	12.8559
193.072	0.274962
195.964	7.60886
198.857	6.88008
201.75	5.38974
204.642	2.59696
207.535	1.1564
210.428	1.48859
213.321	0.12961
216.213	11.6735
219.106	19.8855
221.999	26.3351
224.891	38.4948
227.784	55.162
230.677	77.6246
233.569	98.5603
236.462	130.187
239.355	165.35
242.248	212.262
245.14	260.168
248.033	266.926
250.926	247.819
253.818	222.947
256.711	182.726
259.604	130.261
262.496	94.0276
265.389	79.458
268.282	62.2713
271.175	42.5348
274.067	28.3637
276.96	24.6952
279.853	16.7139
282.745	24.5154
285.638	28.2414
288.531	39.0364
291.423	46.2597
294.316	40.9398
297.209	41.8017
300.101	45.9331
302.994	56.0174
305.887	51.3095
308.78	35.3189
311.672	19.2571
314.565	7.53808
317.458	1.25824
320.35	0.028127
323.243	1.3741
326.136	0.097344
329.029	0.446676
331.921	0.124853
334.814	8.6885
337.707	7.86991
340.599	6.02243
343.492	3.1587
346.385	0.685897
349.277	1.23949
352.17	1.67399
355.063	3.2729
357.955	3.20065
360.848	4.78775
363.741	0.033597
366.634	2.09409
369.526	0.643842
372.419	4.40502
375.312	4.93978
378.204	8.4613
381.097	4.7091
383.99	4.18068
386.882	6.33327
389.775	9.33832
392.668	4.12569
395.561	0.198128
398.453	4.08554
401.346	0.15839
404.239	7.01361
407.131	17.6612
410.024	30.8544
412.917	49.0145
415.81	77.4419
418.702	104.466
421.595	123.839
424.488	104.793
427.38	72.9678
430.273	45.5907
433.166	34.5903
436.058	27.1137
438.951	13.6105
441.844	10.448
444.736	1.09165
447.629	2.57698
450.522	9.8881
453.415	26.5581
456.307	61.0922
459.2	102.408
462.093	149.872
464.985	208.525
467.878	264.514
470.771	346.731
473.663	385.394
476.556	280.536
479.449	135.36
482.342	53.2737
485.234	16.544
488.127	1.17192
491.02	1.43444
493.912	2.43317
496.805	4.00558
499.698	15.5102
502.591	25.946
505.483	44.7234
508.376	72.9266
511.269	100.569
514.161	125.654
517.054	142.418
519.947	181.541
522.839	234.655
525.732	303.448
528.625	396.696
531.518	483.27
534.41	468.805
537.303	327.303
540.196	193.92
543.088	112.933
545.981	69.185
548.874	45.5939
551.766	24.967
554.659	18.7009
557.552	8.75092
560.444	5.80435
563.337	5.01543
566.23	4.91299
569.123	2.00538
572.015	4.14814
574.908	0.02756
577.801	1.25762
580.693	0.884761
583.586	0.458549
586.479	1.40289
589.371	0.268545
592.264	1.19072
595.157	0.696425
598.05	0.175488
600.942	4.12209
603.835	7.03535
606.728	9.48821
609.62	14.3825
612.513	26.4325
615.406	31.1691
618.298	37.4903
621.191	32.2198
624.084	28.765
626.977	19.5731
629.869	14.9331
632.762	14.7075
635.655	15.9123
638.547	16.8786
641.44	19.9009
644.333	21.9465
647.226	25.8506
650.118	16.3016
653.011	16.1476
655.904	10.3647
658.796	9.81522
661.689	0.491839
664.582	1.30354
667.474	2.50124
670.367	4.5414
673.26	0.791905
676.153	0.412758
679.045	4.01837
681.938	1.34295
684.831	0.294624
687.723	2.20714
690.616	0.518358
693.509	1.58189
696.401	4.59216
699.294	0.215754
702.187	2.54045
705.08	3.94201
707.972	2.33549
710.865	7.90029
713.758	6.05924
716.65	5.99849
719.543	3.30298
722.436	2.37822
725.328	0.031902
728.221	0.056655
731.114	0.349705
734.006	3.01438
736.899	0.067307
739.792	1.29154
742.685	1.25977
745.577	0.185447
748.47	0.17793
751.363	0.477682
754.255	6.59547
757.148	4.38558
760.041	6.72716
762.933	7.91608
765.826	13.3995
768.719	16.5039
771.612	19.3976
774.504	19.3557
777.397	14.0328
780.29	13.0616
783.182	6.28176
786.075	3.3511
788.968	0.815806
791.861	0.805095
794.753	0.661091
797.646	1.65812
800.539	3.64391
803.431	9.42886
806.324	17.3163
809.217	21.3548
812.109	28.7217
815.002	32.0597
817.895	21.2837
820.788	13.3035
823.68	8.67599
826.573	7.73865
829.466	5.90501
832.358	6.7093
835.251	6.7486
838.144	5.27963
841.036	6.77962
843.929	3.77701
846.822	5.44236
849.715	6.19583
852.607	4.5492
855.5	5.1372
858.393	7.63896
861.285	5.80087
864.178	5.90788
867.071	6.89853
869.963	7.45744
872.856	3.03523
875.749	2.60576
878.641	2.15093
881.534	2.67088
884.427	5.53084
887.32	1.58444
890.212	2.45249
893.105	2.65116
895.998	4.08674
898.89	3.95717
901.783	0.708694
904.676	1.59356
907.568	0.124591
910.461	0.325029
913.354	1.51977
916.247	0.410339
919.139	0.163049
922.032	3.36094
924.925	1.79568
927.817	0.048765
930.71	0.580531
933.603	2.87362
936.495	0.32265
939.388	0.35778
942.281	1.34437
945.174	1.35295
948.066	0.641943
950.959	3.64534
953.852	5.22548
956.744	8.56449
959.637	12.0295
962.53	17.911
965.423	26.7251
968.315	44.8593
971.208	71.5524
974.101	104.696
976.993	166.773
979.886	240.343
982.779	306.244
985.671	326.142
988.564	367.453
991.457	453.205
994.35	503.32
997.242	458.311
1000.13	384.583
1003.03	353.294
1005.92	343.16
1008.81	327.217
1011.71	284.735
1014.6	285.017
1017.49	311.071
1020.38	295.868
1023.28	189.503
1026.17	102.804
1029.06	58.4542
1031.95	36.0143
1034.85	21.3499
1037.74	12.7117
1040.63	8.58272
1043.53	4.10646
1046.42	1.10484
1049.31	0.841135
1052.2	1.72653
1055.1	0.209382
1057.99	1.42697
1060.88	0.002437
1063.77	0.321326
1066.67	1.80412
1069.56	0.590815
1072.45	1.17765
1075.35	2.51543
1078.24	3.03893
1081.13	9.18729
1084.02	8.98114
1086.92	13.2359
1089.81	13.2389
1092.7	14.785
1095.59	9.90407
1098.49	10.5781
1101.38	5.21442
1104.27	1.29933
1107.16	3.11697
1110.06	5.70186
1112.95	2.43054
1115.84	0.092797
1118.74	0.13434
1121.63	1.44236
1124.52	1.99338
1127.41	3.79254
1130.31	0.39009
1133.2	4.42549
1136.09	8.20501
1138.98	11.9948
1141.88	20.3513
1144.77	32.071
1147.66	39.2841
1150.56	47.9334
1153.45	54.7776
1156.34	61.0687
1159.23	53.3954
1162.13	31.5429
1165.02	20.4409
1167.91	14.8231
1170.8	7.36165
1173.7	6.31274
1176.59	4.85838
1179.48	6.00039
1182.38	4.65549
1185.27	5.00664
1188.16	1.68789
1191.05	0.022186
1193.95	0.037688
1196.84	0.285892
1199.73	1.09428
1202.62	3.46646
1205.52	5.78948
1208.41	1.22447
1211.3	3.05488
1214.19	0.299889
1217.09	0.589882
1219.98	1.23712
1222.87	1.27086
1225.77	1.52309
1228.66	2.89757
1231.55	0.955123
1234.44	7.6699
1237.34	0.06719
1240.23	3.64112
1243.12	3.18531
1246.01	4.39751
1248.91	2.96488
1251.8	1.66148
1254.69	1.26029
1257.59	5.04995
1260.48	4.87255
1263.37	4.39904
1266.26	4.71578
1269.16	5.33409
1272.05	0.278268
1274.94	2.33109
1277.83	2.19547
1280.73	0.395562
1283.62	0.091111
