Measurement: Raman, 532 nm, unoriented, Raman Data Processed
Mineral: Elpidite
Rruff sample: R060214
Ideal chemistry: Na_2_Zr^4+^Si_6_O_15_3H_2_O
Locality: Mont Saint-Hilaire, Rouville County, Quebec, Canada
Source: Royal Ontario Museum
Description: White columnar aggregate of elongated acicular crystals
Raman shift (cm-1)	intensity
129.683	0
133.058	0.780243
136.433	12.0247
139.808	49.5856
143.183	109.55
146.557	148.167
149.932	123.086
153.307	145.823
156.682	176.65
160.057	188.041
163.431	203.66
166.806	230.666
170.181	256.06
173.556	249.313
176.931	198.811
180.305	129.48
183.68	82.0034
187.055	50.0992
190.43	30.0963
193.805	18.3417
197.179	12.9416
200.554	8.46658
203.929	8.33336
207.304	5.48968
210.679	2.20258
214.054	3.66959
217.428	2.96933
220.803	0.558701
224.178	9.5992
227.553	24.9791
230.928	37.6545
234.303	50.1317
237.677	80.8866
241.052	134.833
244.427	204.019
247.802	241.825
251.177	223.75
254.551	203.218
257.926	157.346
261.301	91.2546
264.676	62.0445
268.051	49.6202
271.425	27.775
274.8	18.2529
278.175	15.4406
281.55	20.9253
284.925	31.9385
288.3	48.977
291.674	62.5453
295.049	52.318
298.424	46.9389
301.799	59.9327
305.174	70.0413
308.548	51.476
311.923	23.5819
315.298	8.90154
318.673	0.649658
322.048	0.504585
325.423	1.88353
328.797	2.61438
332.172	2.53346
335.547	3.89754
338.922	6.16587
342.297	6.57245
345.671	9.86304
349.046	15.6248
352.421	25.8466
355.796	36.0826
359.171	40.6634
362.546	33.6125
365.92	28.3775
369.295	27.962
372.67	28.7959
376.045	33.4911
379.42	36.717
382.794	36.6033
386.169	39.4385
389.544	42.6202
392.919	32.3067
396.294	10.4924
399.668	0.316429
403.043	4.31959
406.418	3.21455
409.793	3.63034
413.168	17.5732
416.543	37.0061
419.917	60.1928
423.292	75.0014
426.667	70.9126
430.042	68.1707
433.417	76.7058
436.791	73.1397
440.166	56.7253
443.541	30.2367
446.916	20.6517
450.291	13.5099
453.666	18.9261
457.04	41.5263
460.415	85.7451
463.79	142.582
467.165	219.644
470.54	330.878
473.914	412.051
477.289	316.228
480.664	135.828
484.039	50.0918
487.414	14.2817
490.788	2.09538
494.163	2.15595
497.538	4.99227
500.913	19.5603
504.288	37.064
507.663	68.58
511.037	102.205
514.412	117.157
517.787	118.014
521.162	158.118
524.537	228.104
527.912	341.117
531.286	457.699
534.661	485.854
538.036	332.696
541.411	180.736
544.786	100.757
548.16	58.1596
551.535	32.6124
554.91	17.8641
558.285	10.6565
561.66	5.61167
565.034	3.80814
568.409	2.28116
571.784	0.796196
575.159	0.064079
578.534	0.114769
581.909	0.552818
585.283	0.956642
588.658	1.5155
592.033	0.514172
595.408	0.292198
598.783	0.993217
602.157	3.60523
605.532	5.56026
608.907	8.91891
612.282	13.9859
615.657	21.247
619.032	27.1217
622.406	24.3411
625.781	22.3371
629.156	18.7268
632.531	16.8488
635.906	18.8452
639.28	23.0003
642.655	26.5497
646.03	29.3731
649.405	30.7083
652.78	20.5066
656.154	14.6669
659.529	9.18276
662.904	7.20851
666.279	4.63524
669.654	3.37195
673.029	3.41136
676.403	1.23642
679.778	0.652695
683.153	1.62213
686.528	0.159325
689.903	1.92685
693.278	1.99567
696.652	3.92742
700.027	10.6746
703.402	15.6161
706.777	27.306
710.152	38.1587
713.526	46.0699
716.901	37.5493
720.276	23.6674
723.651	13.78
727.026	7.41446
730.4	5.08784
733.775	4.75701
737.15	3.14632
740.525	1.10284
743.9	0.49902
747.274	0.975697
750.649	1.04513
754.024	0.245789
757.399	2.15044
760.774	3.43023
764.149	6.77544
767.523	11.1103
770.898	16.5559
774.273	21.323
777.648	22.013
781.023	18.2102
784.398	10.1632
787.772	5.00056
791.147	1.84993
794.522	1.29519
797.897	0.837547
801.271	2.45984
804.646	5.23031
808.021	7.62421
811.396	13.361
814.771	17.4017
818.146	13.5971
821.52	7.99006
824.895	4.46642
828.27	3.67331
831.645	3.08123
835.02	3.71948
838.394	3.84712
841.769	4.48138
845.144	4.97147
848.519	5.36475
851.894	3.9137
855.269	4.25888
858.643	4.23481
862.018	4.81699
865.393	4.51738
868.768	2.76718
872.143	2.76313
875.518	1.87957
878.892	0.710835
882.267	0.789429
885.642	0.535549
889.017	0.029209
892.392	0.206429
895.766	0.663994
899.141	0.904331
902.516	1.10314
905.891	0.588959
909.266	1.29181
912.64	0.519127
916.015	0.054756
919.39	0.461861
922.765	0.210014
926.14	0.412415
929.515	2.62396
932.889	3.44704
936.264	3.05754
939.639	4.7587
943.014	6.58262
946.389	8.98043
949.764	9.46294
953.138	13.7677
956.513	17.3226
959.888	26.1381
963.263	37.7809
966.638	56.176
970.012	99.6919
973.387	170.218
976.762	281.634
980.137	462.586
983.512	616.566
986.886	688.276
990.261	866.527
993.636	1041.75
997.011	1024.35
1000.39	1011.43
1003.76	1057.36
1007.13	892.401
1010.51	667.206
1013.88	502.593
1017.26	437.258
1020.63	345.087
1024.01	211.34
1027.38	131.519
1030.76	86.2738
1034.13	48.8456
1037.51	28.8179
1040.88	16.8304
1044.26	8.27473
1047.63	3.55061
1051.01	1.04359
1054.38	0.335785
1057.76	2.1759
1061.13	2.19036
1064.51	2.08074
1067.88	1.29066
1071.26	3.27016
1074.63	8.27594
1078.01	17.0308
1081.38	30.2137
1084.76	46.9751
1088.13	62.261
1091.51	67.1223
1094.88	55.26
1098.26	38.8282
1101.63	25.4731
1105.01	15.2227
1108.38	7.24622
1111.76	4.03735
1115.13	2.13761
1118.5	0.126945
1121.88	0.296104
1125.25	0.13485
1128.63	2.50832
1132	7.02143
1135.38	13.183
1138.75	21.2686
1142.13	35.9552
1145.5	57.3466
1148.88	85.9579
1152.25	116.13
1155.63	153.911
1159	163.016
1162.38	110.36
1165.75	61.9532
1169.13	34.5018
1172.5	20.8819
1175.88	11.6784
1179.25	6.64081
1182.63	4.9968
1186	2.80596
1189.38	2.33096
1192.75	1.83664
1196.12	1.50065
1199.5	0.434612
1202.88	0.989578
1206.25	0.453953
1209.62	0.863853
1213	0.062389
1216.37	0.077023
1219.75	1.64514
1223.12	0.53112
1226.5	1.05156
1229.87	0.139767
1233.25	0.082615
1236.62	0.144478
1240	0.229401
1243.37	0.595554
1246.75	0.732307
1250.12	1.50354
1253.5	0.24625
1256.87	1.40568
1260.25	1.52919
1263.62	2.48285
1267	2.25379
1270.37	1.31601
1273.75	0.637241
1277.12	1.32551
1280.49	2.0998
1283.87	1.39091
1287.24	2.19262
1290.62	0.423759
1293.99	1.34375
1297.37	1.69948
1300.74	0.574127
1304.12	0
