Measurement: Raman, 780 nm, unoriented, Raman Data Processed
Mineral: Elpidite
Rruff sample: R060064
Ideal chemistry: Na_2_Zr^4+^Si_6_O_15_3H_2_O
Locality: Narsarsuk, Greenland
Source: University of Arizona Mineral Museum
Description: Tan colored elongated prismatic crystals
Raman shift (cm-1)	intensity
137.344	0
140.237	1.90631
143.13	8.828
146.022	7.73883
148.915	1.4209
151.808	0.02771
154.701	2.41449
157.593	5.42981
160.486	9.37646
163.379	11.37
166.271	18.071
169.164	18.2035
172.057	15.9674
174.949	16.6337
177.842	15.654
180.735	13.8033
183.627	14.6971
186.52	18.2988
189.413	20.5443
192.306	26.7873
195.198	25.4178
198.091	30.6721
200.984	36.6476
203.876	51.7398
206.769	62.1649
209.662	76.4533
212.554	87.8519
215.447	91.8381
218.34	90.5045
221.233	92.1224
224.125	91.1035
227.018	86.9891
229.911	82.461
232.803	73.068
235.696	67.4636
238.589	70.2667
241.482	64.2472
244.374	62.1626
247.267	60.9622
250.16	44.5834
253.052	37.7818
255.945	19.3304
258.838	11.2589
261.73	10.5289
264.623	8.61951
267.516	3.72473
270.408	5.07324
273.301	5.58118
276.194	3.152
279.087	4.3576
281.979	5.78227
284.872	4.54777
287.765	1.20514
290.657	1.86847
293.55	4.43219
296.443	0.067993
299.335	5.83575
302.228	11.0702
305.121	10.9742
308.014	20.7211
310.906	21.6834
313.799	17.3023
316.692	17.4401
319.584	18.3203
322.477	15.8153
325.37	12.8743
328.262	10.4799
331.155	7.53192
334.048	5.94751
336.94	3.41366
339.833	1.54683
342.726	0.543962
345.619	1.18954
348.511	0.378112
351.404	0.615961
354.297	0.471519
357.189	0.392825
360.082	0.718811
362.975	0.527161
365.868	0.449677
368.76	0.394422
371.653	0.94532
374.546	1.55105
377.438	0.759949
380.331	1.43051
383.224	2.19165
386.116	4.09488
389.009	3.26532
391.902	0.195404
394.795	0.901581
397.687	0.750702
400.58	0.676422
403.473	1.5502
406.365	2.44586
409.258	1.27777
412.151	0.128479
415.043	3.27557
417.936	2.54294
420.829	9.51953
423.721	8.86789
426.614	8.01965
429.507	9.0405
432.399	7.84076
435.292	8.52655
438.185	8.96585
441.078	7.81186
443.97	10.9357
446.863	12.6023
449.756	20.8163
452.648	30.4098
455.541	40.5553
458.434	54.0499
461.327	74.2386
464.219	92.1126
467.112	100.936
470.005	107.16
472.897	102.931
475.79	87.556
478.683	58.0523
481.575	40.3586
484.468	32.0684
487.361	28.3174
490.253	23.9854
493.146	31.4021
496.039	37.266
498.932	44.1542
501.824	50.2411
504.717	55.0332
507.61	56.4898
510.502	59.4337
513.395	54.7204
516.288	50.7139
519.181	46.385
522.073	42.9929
524.966	50.7908
527.859	55.2792
530.751	57.7915
533.644	58.6064
536.537	43.5493
539.429	29.7476
542.322	18.6979
545.215	13.6048
548.107	12.3338
551	6.45978
553.893	6.3945
556.785	4.96387
559.678	2.26239
562.571	1.59473
565.464	1.2464
568.356	0.568634
571.249	0.716248
574.142	1.10367
577.034	1.20578
579.927	0.132202
582.82	0.768127
585.712	1.14218
588.605	1.13077
591.498	0.417511
594.391	1.32895
597.283	0.87207
600.176	2.42242
603.069	0.979126
605.961	0.200317
608.854	1.0018
611.747	3.38547
614.639	0.772705
617.532	2.22879
620.425	0.386017
623.318	0.411438
626.21	2.27435
629.103	0.677948
631.996	3.3248
634.888	0.970795
637.781	0.736206
640.674	1.73135
643.567	4.08969
646.459	3.48581
649.352	7.69266
652.245	7.73846
655.137	10.7996
658.03	16.668
660.923	20.2587
663.815	24.0476
666.708	30.2775
669.601	35.4216
672.494	38.0374
675.386	47.991
678.279	49.3546
681.172	50.5914
684.064	52.6009
686.957	54.4775
689.85	53.9476
692.742	54.0768
695.635	54.8294
698.528	55.5531
701.42	57.6317
704.313	59.9553
707.206	62.3789
710.098	63.9091
712.991	66.3233
715.884	70.2799
718.777	67.1911
721.669	66.3726
724.562	67.5223
727.455	63.7415
730.347	64.8068
733.24	60.7668
736.133	53.2015
739.025	53.2723
741.918	50.6434
744.811	46.2882
747.704	42.229
750.596	39.7124
753.489	34.9513
756.382	28.7606
759.274	25.4743
762.167	23.5753
765.06	18.4143
767.952	17.733
770.845	17.7175
773.738	15.0609
776.631	15.0346
779.523	15.2273
782.416	14.4616
785.309	11.8713
788.201	10.759
791.094	8.65927
793.987	5.91296
796.88	6.7702
799.772	1.0965
802.665	3.61221
805.558	1.60773
808.45	2.36585
811.343	3.49863
814.236	0.283539
817.128	2.65439
820.021	1.15123
822.914	1.65281
825.807	2.58417
828.699	0.867889
831.592	0.881683
834.485	0.780548
837.377	1.56857
840.27	4.03113
843.163	3.6207
846.055	2.31314
848.948	8.48019
851.841	7.10657
854.734	9.03973
857.626	11.8218
860.519	13.3762
863.412	18.2284
866.304	22.7494
869.197	29.0335
872.09	38.9144
874.982	47.3492
877.875	57.2026
880.768	63.9055
883.66	65.2434
886.553	58.2908
889.446	50.0745
892.338	39.8994
895.231	35.4835
898.124	29.2873
901.017	30.8227
903.909	34.6227
906.802	43.1515
909.695	46.0627
912.587	47.1501
915.48	48.2104
918.373	44.796
921.265	40.8396
924.158	33.5478
927.051	28.397
929.944	21.7342
932.836	20.976
935.729	17.4952
938.622	13.4327
941.514	13.2979
944.407	8.61069
947.3	7.53101
950.192	5.86832
953.085	0.30542
955.978	0.35318
958.87	1.85349
961.763	0.697388
964.656	0.948914
967.549	1.53058
970.441	7.04764
973.334	14.2065
976.227	21.7172
979.119	34.6112
982.012	43.8828
984.905	45.7218
987.798	55.3335
990.69	70.4482
993.583	75.4334
996.476	73.4773
999.368	67.6822
1002.26	68.8384
1005.15	60.3217
1008.05	53.0791
1010.94	43.0634
1013.83	41.5398
1016.73	41.6062
1019.62	32.5359
1022.51	20.6683
1025.4	10.3724
1028.3	5.25638
1031.19	1.86499
1034.08	1.43661
1036.97	0.24173
1039.87	0.587524
1042.76	0.542694
1045.65	1.43332
1048.54	0.970612
1051.44	0.255524
1054.33	1.70663
1057.22	3.11833
1060.12	2.54153
1063.01	3.62441
1065.9	2.56554
1068.79	3.79448
1071.69	1.79575
1074.58	1.72354
1077.47	3.369
1080.36	6.26361
1083.26	7.42972
1086.15	8.9772
1089.04	11.7798
1091.93	13.0887
1094.83	10.3901
1097.72	8.47084
1100.61	7.50655
1103.51	4.98027
1106.4	3.1234
1109.29	2.41434
1112.18	2.2222
1115.08	3.38218
1117.97	1.1337
1120.86	0.66954
1123.75	1.53186
1126.65	6.93538
1129.54	9.1898
1132.43	8.94599
1135.33	11.6931
1138.22	13.224
1141.11	13.8571
1144	10.7439
1146.9	13.3404
1149.79	11.8198
1152.68	11.6671
1155.57	8.41995
1158.47	7.62933
1161.36	3.31049
1164.25	1.03144
1167.14	0.133179
1170.04	1.69675
1172.93	1.81631
1175.82	1.5462
1178.72	0.419922
1181.61	2.5592
1184.5	2.13443
1187.39	4.09491
1190.29	6.91037
1193.18	10.3943
1196.07	7.3732
1198.96	11.7363
1201.86	11.2065
1204.75	15.2658
1207.64	16.7962
1210.54	15.1593
1213.43	19.8371
1216.32	19.4298
1219.21	21.0394
1222.11	22.0726
1225	20.5555
1227.89	17.7306
1230.78	12.2724
1233.68	6.81677
1236.57	6.20856
1239.46	1.20258
1242.36	0.854614
1245.25	1.08014
1248.14	6.17877
1251.03	8.71768
1253.93	12.4657
1256.82	18.6345
1259.71	17.1254
1262.6	17.4384
1265.5	11.3887
1268.39	6.50513
1271.28	3.83536
1274.17	3.9443
1277.07	0.36319
1279.96	0.357605
1282.85	3.53989
1285.74	0.197998
