Measurement: Raman, 780 nm, unoriented, Raman Data Processed
Mineral: Elyite
Rruff sample: R090024
Ideal chemistry: Cu^2+^Pb^2+^_4_(S^6+^O_4_)O_2_(OH)_4_H_2_O
Locality: Tsumeb, Namibia
Source: William W. Pinch
Description: Lavender colored acicular crystals on matrix.
Raman shift (cm-1)	intensity
205.674	0
208.567	1.1338
211.46	0.021454
214.352	1.33559
217.245	2.42105
220.138	3.91017
223.03	1.71657
225.923	1.62218
228.816	2.67451
231.709	0.286438
234.601	1.18964
237.494	3.03819
240.387	4.26468
243.279	6.67886
246.172	9.6006
249.065	12.7799
251.958	17.4674
254.85	22.9499
257.743	31.0085
260.636	38.1726
263.528	46.0472
266.421	57.8135
269.314	68.0085
272.207	79.1208
275.099	91.859
277.992	100.671
280.885	102.453
283.777	96.8462
286.67	88.1196
289.563	83.641
292.455	83.6063
295.348	82.3222
298.241	77.5217
301.134	74.9162
304.026	68.2454
306.919	56.0772
309.812	54.3685
312.704	50.6237
315.597	44.6299
318.49	43.1821
321.382	40.3856
324.275	40.5071
327.168	36.3585
330.06	31.0909
332.953	28.1512
335.846	21.295
338.739	20.6769
341.631	18.0976
344.524	12.6056
347.417	10.8989
350.309	12.8439
353.202	10.1385
356.095	8.38621
358.987	9.96246
361.88	7.75986
364.773	7.05251
367.666	5.09122
370.558	4.27315
373.451	5.5032
376.344	5.00058
379.236	0.320282
382.129	1.17833
385.022	0.686798
387.914	1.08479
390.807	1.05601
393.7	2.14041
396.592	3.12125
399.485	0.179123
402.378	2.43608
405.271	1.30928
408.163	6.5305
411.056	8.71313
413.949	10.6246
416.841	13.3928
419.734	19.371
422.627	21.612
425.519	20.7887
428.412	23.8784
431.305	25.0469
434.198	25.9758
437.09	23.1857
439.983	18.7491
442.876	19.441
445.768	17.4287
448.661	17.4147
451.554	14.624
454.447	10.8231
457.339	8.80064
460.232	6.59221
463.125	5.35054
466.017	6.25472
468.91	4.70737
471.803	5.56784
474.695	8.94168
477.588	9.93381
480.481	12.6384
483.373	13.0441
486.266	13.6175
489.159	15.1013
492.052	17.8229
494.944	14.6156
497.837	17.2536
500.73	16.9605
503.622	17.5831
506.515	17.2682
509.408	17.6338
512.301	17.6265
515.193	16.2785
518.086	12.8685
520.979	12.2661
523.871	13.0585
526.764	11.8832
529.657	11.3029
532.549	8.25967
535.442	6.22003
538.335	6.87087
541.227	2.95491
544.12	0.23497
547.013	0.450607
549.906	0.222977
552.798	0.707367
555.691	0.645315
558.584	1.03285
561.476	2.10355
564.369	1.67699
567.262	0.557144
570.154	2.50563
573.047	2.96599
575.94	0.337372
578.833	0.645294
581.725	0.008804
584.618	2.30739
587.511	3.54236
590.403	3.99287
593.296	5.33406
596.189	4.99321
599.082	4.19067
601.974	3.97018
604.867	6.53932
607.76	4.90678
610.652	6.49812
613.545	7.80748
616.438	8.29004
619.33	6.12363
622.223	3.55005
625.116	4.64485
628.009	5.54475
630.901	5.83156
633.794	6.10263
636.687	7.42293
639.579	7.52585
642.472	9.55162
645.365	9.96463
648.257	10.0916
651.15	10.6166
654.043	7.884
656.936	7.03571
659.828	3.08964
662.721	2.01865
665.614	0.162292
668.506	2.53737
671.399	0.473068
674.292	0.889297
677.184	2.19421
680.077	2.44795
682.97	1.01903
685.862	2.25168
688.755	0.108307
691.648	2.25662
694.541	2.3291
697.433	2.92775
700.326	0.944672
703.219	0.591248
706.111	1.35979
709.004	3.6646
711.897	0.390045
714.789	0.430328
717.682	1.30849
720.575	3.4729
723.468	3.14145
726.36	0.646866
729.253	0.144409
732.146	2.85596
735.038	3.22099
737.931	2.39937
740.824	2.76979
743.716	4.78781
746.609	2.06027
749.502	2.49268
752.395	1.98645
755.287	1.12444
758.18	2.07288
761.073	1.12181
763.965	0.478302
766.858	0.92749
769.751	1.14304
772.644	0.707214
775.536	2.66927
778.429	0.844666
781.322	2.99205
784.214	2.36102
787.107	4.06657
790	5.40576
792.892	7.72704
795.785	6.88769
798.678	8.61784
801.571	8.74368
804.463	9.91113
807.356	8.80075
810.249	9.39542
813.141	9.74609
816.034	12.1744
818.927	9.17999
821.819	6.10692
824.712	3.39626
827.605	2.72906
830.497	3.67252
833.39	1.98834
836.283	4.55563
839.176	4.06285
842.068	4.13148
844.961	3.18651
847.854	3.67482
850.746	3.37776
853.639	1.15846
856.532	3.4702
859.424	3.79601
862.317	5.98537
865.21	8.91751
868.103	14.0435
870.995	23.9408
873.888	31.96
876.781	42.6401
879.673	54.8765
882.566	62.9246
885.459	55.9284
888.351	35.7778
891.244	17.6911
894.137	11.3878
897.03	6.12166
899.922	6.80305
902.815	4.8633
905.708	2.78346
908.6	0.424225
911.493	1.25299
914.386	1.10318
917.278	0.37262
920.171	2.26007
923.064	0.984207
925.957	2.38602
928.849	1.22871
931.742	0.853943
934.635	1.88045
937.527	2.01738
940.42	4.81123
943.313	4.60878
946.205	9.82996
949.098	19.8738
951.991	37.354
954.884	52.9713
957.776	72.4841
960.669	106.068
963.562	133.578
966.454	110.628
969.347	45.2554
972.24	18.3196
975.132	10.1659
978.025	6.01172
980.918	4.19479
983.811	5.22243
986.703	2.31752
989.596	3.56706
992.489	1.91577
995.381	0.327499
998.274	2.21318
1001.17	0.176559
1004.06	1.75465
1006.95	3.11752
1009.85	1.07793
1012.74	1.4947
1015.63	2.21109
1018.52	2.72261
1021.42	0.402649
1024.31	3.46306
1027.2	0.549911
1030.09	0.893539
1032.99	1.92998
1035.88	0.293869
1038.77	0.010315
1041.66	2.88196
1044.56	2.67531
1047.45	4.53528
1050.34	3.46053
1053.23	6.4402
1056.13	3.95703
1059.02	4.6124
1061.91	8.66705
1064.81	8.44392
1067.7	4.87894
1070.59	7.73517
1073.48	8.22858
1076.38	5.58903
1079.27	4.36523
1082.16	5.7045
1085.06	4.12007
1087.95	5.44315
1090.84	7.87143
1093.73	3.4554
1096.63	6.20343
1099.52	6.17758
1102.41	5.76253
1105.3	3.4505
1108.2	7.94704
1111.09	2.49603
1113.98	3.64149
1116.88	2.76588
1119.77	1.66
1122.66	3.51915
1125.55	1.02126
1128.45	3.517
1131.34	0.472046
1134.23	0.425003
1137.12	0.353973
1140.02	0.096237
1142.91	1.61366
1145.8	0.213211
1148.69	1.00832
1151.59	3.02927
1154.48	1.05774
1157.37	1.90486
1160.27	2.3759
1163.16	1.04713
1166.05	1.63887
1168.94	0.723053
1171.84	1.87199
1174.73	2.6039
1177.62	1.82915
1180.51	3.60796
1183.41	2.46771
1186.3	2.83321
1189.19	4.45949
1192.09	5.35158
1194.98	1.50209
1197.87	3.59618
1200.76	2.51858
1203.66	4.72461
1206.55	2.79625
1209.44	3.97676
1212.33	3.38994
1215.23	3.83533
1218.12	3.17487
1221.01	0.166166
1223.9	1.48918
1226.8	1.81749
1229.69	2.85564
1232.58	0.159866
1235.47	0.332138
1238.37	2.25737
1241.26	2.65741
1244.15	0.595947
1247.05	4.09203
1249.94	1.91933
1252.83	3.75046
1255.72	2.62389
1258.62	0.215652
1261.51	2.0072
1264.4	1.98582
1267.3	6.39519
1270.19	3.86472
1273.08	3.26274
1275.97	2.74039
1278.87	2.50569
1281.76	0.686996
1284.65	1.72093
