Measurement: Raman, 532 nm, unoriented, Raman Data Processed
Mineral: Elyite
Rruff sample: R090024
Ideal chemistry: Cu^2+^Pb^2+^_4_(S^6+^O_4_)O_2_(OH)_4_H_2_O
Locality: Tsumeb, Namibia
Source: William W. Pinch
Description: Lavender colored acicular crystals on matrix.
Raman shift (cm-1)	intensity
196.51	0
199.402	0.362015
202.295	0.765747
205.188	4.50339
208.08	2.79823
210.973	3.06549
213.866	6.0861
216.758	6.92629
219.651	2.5323
222.544	2.58078
225.437	2.08957
228.329	1.93878
231.222	0.728897
234.115	3.23414
237.007	3.76535
239.9	3.10863
242.793	3.54748
245.685	6.51981
248.578	8.93276
251.471	11.3631
254.364	14.5219
257.256	22.1682
260.149	28.1466
263.042	34.2499
265.934	40.5961
268.827	49.7242
271.72	57.2226
274.613	62.0103
277.505	70.8234
280.398	74.0685
283.291	72.2276
286.183	68.1031
289.076	67.7275
291.969	67.8012
294.861	67.1609
297.754	66.5133
300.647	64.6059
303.539	61.0737
306.432	55.4784
309.325	52.1541
312.218	51.493
315.11	45.2948
318.003	44.4205
320.896	41.2474
323.788	39.3868
326.681	35.4923
329.574	30.2818
332.466	26.9006
335.359	21.7066
338.252	17.358
341.145	17.9069
344.037	16.6475
346.93	11.6669
349.823	13.5345
352.715	7.94894
355.608	7.68741
358.501	7.17482
361.394	5.56043
364.286	6.94005
367.179	5.41186
370.072	2.2113
372.964	0.074951
375.857	2.24681
378.75	0.925049
381.642	0.3116
384.535	0.461304
387.428	0.491821
390.32	0.784515
393.213	1.34232
396.106	1.67377
398.999	0.631226
401.891	1.59869
404.784	2.33032
407.677	3.95915
410.569	7.21429
413.462	7.53812
416.355	8.08746
419.248	9.18889
422.14	13.9978
425.033	13.6994
427.926	18.1928
430.818	18.5386
433.711	18.1604
436.604	16.7876
439.496	14.043
442.389	13.7242
445.282	12.3788
448.174	12.0427
451.067	10.9724
453.96	7.11241
456.853	3.93468
459.745	2.77463
462.638	1.83794
465.531	2.47783
468.423	3.45726
471.316	2.80728
474.209	3.14941
477.101	4.14653
479.994	6.36203
482.887	7.13495
485.779	6.08421
488.672	9.02756
491.565	9.73918
494.458	6.59657
497.35	8.0829
500.243	8.58127
503.136	11.6648
506.028	10.0448
508.921	8.90509
511.814	9.64949
514.707	8.92532
517.599	7.39763
520.492	7.52512
523.385	8.55994
526.277	5.68431
529.17	6.40965
532.063	4.84392
534.955	5.20402
537.848	4.30389
540.741	2.18542
543.634	0.964737
546.526	2.03242
549.419	0.918732
552.312	0.112297
555.204	0.592804
558.097	0.876503
560.99	2.38634
563.882	0.138588
566.775	0.765663
569.668	2.69613
572.561	0.037704
575.453	0.301743
578.346	1.05987
581.239	1.71651
584.131	0.632496
587.024	0.869431
589.917	2.58474
592.809	3.38728
595.702	5.0321
598.595	6.84283
601.487	5.88035
604.38	7.31406
607.273	9.29354
610.166	9.09638
613.058	7.80853
615.951	8.30656
618.844	6.17328
621.736	6.0624
624.629	5.32669
627.522	5.51226
630.414	5.26427
633.307	4.89658
636.2	5.03746
639.093	4.56138
641.985	5.13554
644.878	6.43795
647.771	3.65112
650.663	5.26773
653.556	3.00545
656.449	4.07532
659.341	1.4979
662.234	1.91291
665.127	0.819496
668.02	0.364967
670.912	3.09228
673.805	0.12307
676.698	0.458839
679.59	1.85689
682.483	1.76012
685.376	1.80408
688.269	2.33682
691.161	1.15184
694.054	2.45709
696.947	3.09639
699.839	3.67602
702.732	4.17283
705.625	4.71518
708.517	4.89227
711.41	4.38235
714.303	4.32377
717.196	3.43526
720.088	4.52886
722.981	3.8706
725.874	2.37638
728.766	1.7606
731.659	2.43677
734.552	1.16287
737.444	1.54353
740.337	1.82948
743.23	1.65989
746.122	1.78425
749.015	1.8603
751.908	0.197601
754.801	1.94878
757.693	0.870659
760.586	0.262672
763.479	0.053917
766.371	0.598045
769.264	0.419243
772.157	1.44385
775.049	1.58188
777.942	2.15707
780.835	2.64425
783.727	2.44698
786.62	4.4603
789.513	3.5216
792.406	4.57811
795.298	5.12878
798.191	5.13293
801.084	6.10973
803.976	4.29644
806.869	7.22271
809.762	7.39644
812.654	6.80371
815.547	5.18307
818.44	4.95244
821.333	3.51158
824.225	3.56239
827.118	3.36598
830.011	2.8988
832.903	2.38789
835.796	1.94913
838.689	0.888931
841.582	0.471207
844.474	1.91668
847.367	1.19025
850.26	1.90361
853.152	3.08194
856.045	3.5059
858.938	4.03815
861.83	8.93992
864.723	12.1684
867.616	19.6046
870.509	29.2086
873.401	41.6079
876.294	55.7228
879.187	70.9739
882.079	76.3865
884.972	65.6056
887.865	53.0491
890.757	38.672
893.65	28.6412
896.543	21.374
899.436	12.5969
902.328	7.38767
905.221	4.58645
908.114	3.02342
911.006	1.3101
913.899	0.674461
916.792	0.127617
919.684	0.028343
922.577	0.206467
925.47	0.008812
928.362	0.325104
931.255	1.21452
934.148	1.54385
937.041	5.58049
939.933	8.90282
942.826	13.02
945.719	19.0371
948.611	29.1891
951.504	45.8033
954.397	66.319
957.29	85.6797
960.182	107.741
963.075	111.825
965.968	92.1058
968.86	55.318
971.753	31.6743
974.646	18.8652
977.538	13.5009
980.431	9.04619
983.324	4.47818
986.216	2.74812
989.109	2.48164
992.002	1.65316
994.895	1.70922
997.787	0.011711
1000.68	1.96014
1003.57	1.24831
1006.47	1.70434
1009.36	0.025017
1012.25	0.365204
1015.14	0.14257
1018.04	0.030167
1020.93	0.146896
1023.82	2.43762
1026.71	1.17687
1029.61	1.53833
1032.5	2.54596
1035.39	3.07978
1038.29	2.47736
1041.18	5.41859
1044.07	5.12048
1046.96	6.09637
1049.86	5.66654
1052.75	5.16786
1055.64	2.85332
1058.53	3.64501
1061.43	4.58514
1064.32	4.89161
1067.21	3.21298
1070.11	4.56882
1073	5.20873
1075.89	5.57472
1078.78	4.66558
1081.68	5.73696
1084.57	5.11499
1087.46	4.09428
1090.35	3.17385
1093.25	4.26268
1096.14	4.27438
1099.03	4.53222
1101.92	5.32052
1104.82	4.11156
1107.71	4.27955
1110.6	3.72962
1113.49	3.67265
1116.39	2.95056
1119.28	2.67741
1122.17	2.47315
1125.07	1.0554
1127.96	2.01185
1130.85	1.58775
1133.74	2.04972
1136.64	0.817562
1139.53	0.433491
1142.42	0.282101
1145.32	0.806622
1148.21	0.512238
1151.1	1.14961
1153.99	0.448124
1156.89	0.883129
1159.78	1.00578
1162.67	0.069542
1165.56	1.2617
1168.46	0.306122
1171.35	0.350327
1174.24	0.248371
1177.13	1.17576
1180.03	0.229347
1182.92	0.773945
1185.81	0.862865
1188.7	0.234871
1191.6	0.615295
1194.49	0.593594
1197.38	1.41774
1200.28	2.73988
1203.17	2.44083
1206.06	2.57195
1208.95	2.55555
1211.85	2.18496
1214.74	2.62247
1217.63	2.79435
1220.53	0.977066
1223.42	2.86286
1226.31	2.00832
1229.2	2.67944
1232.1	1.88858
1234.99	1.4133
1237.88	1.57386
1240.77	2.09929
1243.67	1.53045
1246.56	0.811501
1249.45	1.57792
1252.35	2.62359
1255.24	0.533649
1258.13	2.31228
1261.02	2.37196
1263.92	2.33807
1266.81	2.31388
1269.7	2.41464
1272.59	2.14777
1275.49	1.82174
1278.38	1.37057
1281.27	2.82776
1284.16	1.9465
1287.06	2.65493
1289.95	2.32658
1292.84	2.22773
1295.73	1.31038
1298.63	0.110622
1301.52	0.250027
