Measurement: Raman, 532 nm, unoriented, Raman Data Processed
Mineral: Emeleusite
Rruff sample: R061034
Ideal chemistry: Na_2_LiFe^3+^Si_6_O_15_
Locality: Igdlutalig, Ilimaussaq, Greenland
Source: Michael Scott
Description: Light pink massive associated with albite and aegirine, co-type specimen
Measured chemistry: (Na_1.57_K_0.43_)_Σ=2_Li_1.00_(Fe^3+^_0.77_Al_0.18_Ti_0.02_Mg_0.02_)_Σ=1_Si_6.00_O_15_; (lighter areas) Li estimated by difference; dark: albite
Raman shift (cm-1)	intensity
128.755	0
132.13	42.4448
135.504	564.824
138.879	1441.05
142.254	2361.34
145.629	3598.72
149.004	4692.7
152.379	4835.09
155.753	3579.42
159.128	3222.34
162.503	3418.96
165.878	3134.26
169.252	2901.72
172.627	2910.52
176.002	2729.68
179.377	3711.14
182.752	5105.74
186.127	5826.75
189.501	4871.89
192.876	3494.55
196.251	2419.78
199.626	2221.23
203.001	2613.66
206.375	3514.99
209.75	3842.04
213.125	2231.19
216.5	840.602
219.875	360.765
223.25	150.474
226.624	33.7141
229.999	8.4627
233.374	-9.8974
236.749	17.3349
240.124	47.0049
243.498	365.474
246.873	1106.74
250.248	2028.04
253.623	2331.8
256.998	1316.27
260.373	1370.48
263.747	1960.13
267.122	2689.34
270.497	2906.78
273.872	2485.06
277.247	2799.89
280.621	4329.72
283.996	7118.07
287.371	10218.3
290.746	12591.8
294.121	8821.36
297.495	4037.26
300.87	2098.99
304.245	1297.78
307.62	868.924
310.995	617.385
314.37	682.391
317.744	930.093
321.119	1446.35
324.494	2016.01
327.869	3190.71
331.244	3473.48
334.618	2816.96
337.993	3066.19
341.368	3181.53
344.743	2928.61
348.118	2308.3
351.493	1618.94
354.867	1128.86
358.242	861.168
361.617	898.465
364.992	1093.23
368.366	1165.29
371.741	1096.96
375.116	722.428
378.491	300.014
381.866	47.1159
385.241	-53.5263
388.615	-116.121
391.99	-139.269
395.365	-146.27
398.74	-96.0908
402.115	-14.2496
405.49	85.3122
408.864	415.239
412.239	357.424
415.614	939.494
418.989	1457.8
422.364	2551.67
425.738	4893.51
429.113	8256.42
432.488	11169.2
435.863	9589.25
439.238	6998.19
442.612	6315.48
445.987	7128.53
449.362	7988.75
452.737	7200.29
456.112	5177.69
459.486	3423.9
462.861	2708.64
466.236	3001.74
469.611	4202.13
472.986	6133.01
476.361	9118.63
479.735	10647.5
483.11	5849.9
486.485	2524.68
489.86	1613.36
493.235	2305.13
496.61	4375.8
499.984	8069.63
503.359	13443.2
506.734	19412.1
510.109	15100.2
513.484	6641.57
516.858	3270.08
520.233	1814.26
523.608	1105.47
526.983	673.648
530.358	359.712
533.732	184.652
537.107	61.0855
540.482	12.0737
543.857	12.4976
547.232	13.1201
550.606	55.2573
553.981	76.0303
557.356	91.4468
560.731	7.46729
564.106	8.95605
567.481	90.5601
570.855	255.006
574.23	498.432
577.605	672.74
580.98	698.888
584.355	463.095
587.729	330.622
591.104	310.727
594.479	317.011
597.854	247.65
601.229	328.111
604.604	383.54
607.978	377.177
611.353	475.921
614.728	519.951
618.103	714.134
621.477	856.497
624.852	1049.38
628.227	1153.31
631.602	1161.56
634.977	1071.46
638.352	926.277
641.726	928.731
645.101	871.178
648.476	803.08
651.851	661.202
655.226	455.237
658.601	437.985
661.975	378.89
665.35	242.613
668.725	192.568
672.1	105.183
675.475	103.406
678.849	19.5488
682.224	55.7837
685.599	26.1186
688.974	62.8047
692.349	95.9023
695.723	117.76
699.098	83.7109
702.473	16.376
705.848	40.313
709.223	14.4165
712.597	33.4365
715.972	17.9609
719.347	44.9683
722.722	60.2353
726.097	13.2915
729.472	2.28906
732.846	1.68066
736.221	67.5581
739.596	18.6821
742.971	126.036
746.346	228.291
749.721	373.853
753.095	515.635
756.47	1121.02
759.845	1724.7
763.22	2149.71
766.595	1590.29
769.969	866.7
773.344	468.833
776.719	259.172
780.094	213.368
783.469	143.976
786.843	108.199
790.218	191.58
793.593	245.447
796.968	317.683
800.343	535.574
803.717	820.574
807.092	1364.41
810.467	2323.55
813.842	3106.16
817.217	2691.23
820.592	1544.75
823.966	869.907
827.341	669.835
830.716	530.638
834.091	435.295
837.466	409.365
840.841	290.498
844.215	230.028
847.59	197.313
850.965	126.241
854.34	86.833
857.715	74.1357
861.089	131.418
864.464	127.778
867.839	106.348
871.214	73.3672
874.589	12.5752
877.963	113.278
881.338	44.1626
884.713	13.7476
888.088	69.8242
891.463	18.6348
894.837	123.227
898.212	81.3574
901.587	7.95606
904.962	29.1362
908.337	7.58838
911.712	12.2002
915.086	73.0757
918.461	35.6538
921.836	46.3706
925.211	19.9565
928.586	58.2041
931.96	43.602
935.335	163.858
938.71	321.608
942.085	490.658
945.46	425.485
948.835	490.46
952.209	550.697
955.584	581.354
958.959	616.355
962.334	719.162
965.709	970.025
969.083	1301.75
972.458	1588.84
975.833	1800.98
979.208	1895.12
982.583	1758.95
985.957	1851.8
989.332	2355.21
992.707	3414.32
996.082	4944.96
999.457	7008.43
1002.83	9642.66
1006.21	11522.3
1009.58	11563.5
1012.96	10172.7
1016.33	8156.55
1019.71	6385.47
1023.08	5085.32
1026.45	4347.2
1029.83	3939.19
1033.2	3486.02
1036.58	3068.48
1039.95	2484.32
1043.33	1774.98
1046.7	1194.43
1050.08	736.872
1053.45	464.94
1056.83	219.231
1060.2	73.305
1063.58	35.0909
1066.95	15.8123
1070.33	8.31287
1073.7	30.3673
1077.08	57.6335
1080.45	154.248
1083.83	333.305
1087.2	675.878
1090.58	1018.99
1093.95	1606.23
1097.33	2294.63
1100.7	2591.02
1104.08	2354.2
1107.45	2303.58
1110.83	2433.72
1114.2	2670.93
1117.58	2878.16
1120.95	2869.9
1124.33	3175.51
1127.7	3923.7
1131.07	4945.62
1134.45	5697.46
1137.82	5344.25
1141.2	4292.29
1144.57	3345.15
1147.95	2483.74
1151.32	1841.81
1154.7	1215.8
1158.07	769.834
1161.45	473.984
1164.82	236.852
1168.2	151.421
1171.57	72.5811
1174.95	33.7246
1178.32	93.9795
1181.7	131.758
1185.07	167.509
1188.45	127.975
1191.82	57.6943
1195.2	26.1699
1198.57	46.2676
1201.94	14.8105
1205.32	30.0142
1208.69	26.4273
1212.07	32.9609
1215.44	14.3413
1218.82	25.8652
1222.19	28.5464
1225.57	2.23877
1228.94	21.7046
1232.32	13.9014
1235.69	58.0107
1239.07	9.00342
1242.44	118.128
1245.82	106.454
1249.19	162.724
1252.57	98.8491
1255.94	69.1875
1259.32	79.0498
1262.69	80.9102
1266.07	43.1602
1269.44	43.7764
1272.82	65.5234
1276.19	63.3105
1279.57	103.33
1282.94	35.3848
1286.32	77.6924
1289.69	20.1445
