Measurement: Raman, 532 nm, unoriented, Raman Data Processed
Mineral: Emmonsite
Rruff sample: R060802
Ideal chemistry: Fe^3+^_2_(Te^4+^O_3_)_3_2H_2_O
Locality: Moctezuma mine, Moctezuma, Sonora, Mexico
Source: Michael Scott
Description: Spray of green globular aggregates associated with pale yellow schmitterite, R060524
Measured chemistry: (Fe^3+^_1.89_Al_0.11_)_Σ=2_(Te^4+^_1.00_O_3_)_3_·2.01H_2_O; H_2_O estimated by difference
Raman shift (cm-1)	intensity
151.569	0
154.462	100.79
157.354	46.8181
160.247	6.97568
163.14	71.249
166.032	280.99
168.925	579.181
171.818	984.849
174.71	1324.57
177.603	1470.36
180.496	1582.33
183.388	1778.63
186.281	1930.1
189.174	1528.62
192.067	767.952
194.959	256.707
197.852	9.82138
200.745	9.53075
203.637	2.74284
206.53	45.6414
209.423	14.2752
212.315	92.2535
215.208	201.488
218.101	351.744
220.994	483.313
223.886	530.419
226.779	488.566
229.672	446.33
232.564	471.55
235.457	542.875
238.35	642.602
241.243	742.16
244.135	856.749
247.028	929.233
249.921	920.774
252.813	876.919
255.706	875.87
258.599	888.636
261.491	944.426
264.384	1068.16
267.277	1251.42
270.17	1430.26
273.062	1481.03
275.955	1315.55
278.848	1009.42
281.74	701.755
284.633	475.605
287.526	319.357
290.418	215.115
293.311	149.069
296.204	94.7799
299.096	47.2102
301.989	26.2257
304.882	42.7934
307.775	89.6261
310.667	168.487
313.56	262.25
316.453	367.732
319.345	460.248
322.238	496.981
325.131	454.657
328.024	327.69
330.916	180.238
333.809	40.9738
336.702	56.6473
339.594	11.3893
342.487	10.8605
345.38	10.6837
348.272	17.1322
351.165	58.0731
354.058	61.0618
356.95	6.44879
359.843	70.415
362.736	142.147
365.629	229.248
368.521	312.447
371.414	399.19
374.307	489.032
377.199	614.4
380.092	790.515
382.985	1032.35
385.877	1340.6
388.77	1668.18
391.663	1937.69
394.556	2098.87
397.448	2152.18
400.341	2138.27
403.234	2047.34
406.126	1898.13
409.019	1733.54
411.912	1564.06
414.805	1445.32
417.697	1348.83
420.59	1280.9
423.483	1243.64
426.375	1261.44
429.268	1327.25
432.161	1424.26
435.053	1507.89
437.946	1535.58
440.839	1477.97
443.731	1357.23
446.624	1251.28
449.517	1151.46
452.409	1075.83
455.302	971.995
458.195	833.386
461.088	701.586
463.98	596.052
466.873	521.988
469.766	493.847
472.658	499.011
475.551	506.512
478.444	481.184
481.337	446.519
484.229	354.657
487.122	275.164
490.015	189.706
492.907	113.694
495.8	48.3783
498.693	0.37114
501.585	33.281
504.478	58.7365
507.371	37.8268
510.264	15.2809
513.156	3.11077
516.049	0.506386
518.942	6.80835
521.834	10.1483
524.727	8.48504
527.62	9.59484
530.513	4.93258
533.405	16.3337
536.298	31.503
539.191	48.6241
542.083	63.6945
544.976	76.2343
547.869	88.0542
550.761	97.0168
553.654	102.816
556.547	110.559
559.439	111.766
562.332	109.167
565.225	91.3452
568.118	83.7275
571.01	73.1947
573.903	67.671
576.796	58.0137
579.688	42.3386
582.581	26.8056
585.474	14.8508
588.366	3.90573
591.259	0.271476
594.152	6.90767
597.044	3.46135
599.937	0.060991
602.83	6.46496
605.723	10.1304
608.615	23.8156
611.508	45.4184
614.401	68.382
617.293	107.104
620.186	151.108
623.079	210.328
625.971	291.338
628.864	401.786
631.757	544.821
634.65	727.361
637.542	959.164
640.435	1242.99
643.328	1556.79
646.22	1880.2
649.113	2187.69
652.006	2429.92
654.899	2567.77
657.791	2533.05
660.684	2356.12
663.577	2116.57
666.469	1891.94
669.362	1716.95
672.255	1583.34
675.147	1432.53
678.04	1242.76
680.933	1016.14
683.826	772.904
686.718	560.095
689.611	392.047
692.504	275.862
695.396	172.352
698.289	104.745
701.182	48.6907
704.074	8.65977
706.967	17.5
709.86	7.02789
712.753	0.865208
715.645	2.22493
718.538	8.32482
721.431	13.0556
724.323	15.7407
727.216	46.573
730.109	92.9361
733.001	150.148
735.894	231.061
738.787	324.413
741.679	428.755
744.572	531.069
747.465	631.667
750.358	710.284
753.25	771.692
756.143	819.621
759.036	856.732
761.928	856.266
764.821	837.103
767.714	792.255
770.606	769.659
773.499	781.979
776.392	825.887
779.285	898.22
782.177	990.203
785.07	1055.49
787.963	1021.37
790.855	900.512
793.748	753.837
796.641	609.463
799.533	486.908
802.426	390.128
805.319	307.365
808.212	229.829
811.104	172.924
813.997	118.502
816.89	88.1096
819.782	61.905
822.675	42.5337
825.568	26.1788
828.46	15.6247
831.353	4.745
834.246	2.69401
837.139	5.18585
840.031	8.21401
842.924	4.57574
845.817	1.63579
848.709	1.31598
851.602	0.645987
854.495	2.65162
857.388	1.1004
860.28	2.40364
863.173	2.8979
866.066	0.305766
868.958	9.29439
871.851	8.03189
874.744	9.9501
877.636	15.2137
880.529	19.3326
883.422	16.8931
886.314	24.7806
889.207	24.8235
892.1	29.7218
894.993	30.5905
897.885	28.9474
900.778	26.707
903.671	27.3049
906.563	24.0227
909.456	20.205
912.349	16.4836
915.241	15.2003
918.134	10.8858
921.027	14.9981
923.92	9.39686
926.812	13.5816
929.705	8.83585
932.598	11.1511
935.49	6.4097
938.383	7.67429
941.276	10.2002
944.168	5.5912
947.061	3.61031
949.954	6.14736
952.847	1.47197
955.739	2.15738
958.632	3.40453
961.525	3.04937
964.417	3.04749
967.31	1.49116
970.203	0.422398
973.096	6.02592
975.988	3.84258
978.881	0.895378
981.774	0.19555
984.666	5.21836
987.559	0.778073
990.452	1.84873
993.344	0.565275
996.237	0.853117
999.13	1.35938
1002.02	4.43374
1004.91	3.80366
1007.81	1.62391
1010.7	4.80808
1013.59	3.13905
1016.49	5.52864
1019.38	2.75965
1022.27	4.93356
1025.16	2.31047
1028.06	1.14549
1030.95	2.90245
1033.84	3.82744
1036.73	0.531991
1039.63	0.948768
1042.52	1.11269
1045.41	6.05153
1048.31	2.1338
1051.2	0.335338
1054.09	2.55896
1056.98	0.165311
1059.88	2.14756
1062.77	0.725519
1065.66	1.71325
1068.56	3.93179
1071.45	3.16294
1074.34	0.02949
1077.23	1.42777
1080.12	0.323824
1083.02	3.58256
1085.91	1.94091
1088.8	1.09436
1091.7	3.72533
1094.59	4.69954
1097.48	2.38956
1100.37	1.90872
1103.27	4.98504
1106.16	2.90769
1109.05	4.01706
1111.94	3.87098
1114.84	6.91767
1117.73	2.91841
1120.62	4.14702
1123.52	1.23418
1126.41	4.72751
1129.3	2.65937
1132.19	2.41388
1135.09	3.08526
1137.98	4.88184
1140.87	1.32027
1143.77	2.37723
1146.66	7.07377
1149.55	8.21825
1152.44	10.0013
1155.34	5.57217
1158.23	4.74404
1161.12	1.54993
1164.01	2.67822
1166.91	6.76636
1169.8	5.27604
1172.69	5.782
1175.58	6.9895
1178.48	5.01704
1181.37	5.44968
1184.26	7.34268
1187.15	7.98196
1190.05	0.530872
1192.94	0.592666
1195.83	2.83267
1198.73	1.13292
1201.62	2.06695
1204.51	2.11806
1207.4	4.97445
1210.3	1.50017
1213.19	0.804121
1216.08	3.20867
1218.97	5.30829
1221.87	5.25356
1224.76	3.37755
1227.65	3.32892
1230.55	2.18153
1233.44	2.95845
1236.33	4.46249
1239.22	0.437791
1242.12	0.051666
1245.01	1.55004
1247.9	3.30552
1250.8	3.61878
1253.69	4.95315
1256.58	0.447218
1259.47	7.74794
1262.37	5.2785
1265.26	4.42852
1268.15	1.12358
1271.04	10.9127
1273.94	6.49781
1276.83	0.22998
1279.72	5.14177
1282.61	1.89589
1285.51	0.959748
1288.4	2.08234
