Measurement: Raman, 532 nm, unoriented, Raman Data Processed
Mineral: Emmonsite
Rruff sample: R120126
Ideal chemistry: Fe^3+^_2_(Te^4+^O_3_)_3_2H_2_O
Locality: Wendy open pit, Tambo mine, El Indio deposit, Elqui Province, Coquimbo Region, Chile
Source: Robert A. Jenkins
Description: Globular green rosettes
Raman shift (cm-1)	intensity
172.286	0
175.178	54.2977
178.071	150.607
180.964	261.595
183.857	425.053
186.749	608.098
189.642	605.959
192.535	373.153
195.427	155.97
198.32	29.868
201.213	23.47
204.105	21.7562
206.998	15.5604
209.891	70.917
212.784	141.372
215.676	240.867
218.569	339.305
221.462	426.035
224.354	454.546
227.247	415.291
230.14	352.072
233.032	328.692
235.925	338.532
238.818	325.51
241.71	296.519
244.603	301.684
247.496	327.61
250.389	341.049
253.281	353.56
256.174	375.981
259.067	408.04
261.959	455.252
264.852	552.915
267.745	698.633
270.637	848.425
273.53	916.64
276.423	806.53
279.316	587.967
282.208	387.697
285.101	262.511
287.994	194.32
290.886	157.783
293.779	128.931
296.672	91.1702
299.565	53.6934
302.457	34.4817
305.35	48.8304
308.243	86.9561
311.135	149.401
314.028	221.527
316.921	303.01
319.813	387.195
322.706	440.907
325.599	430.005
328.491	339.386
331.384	221.528
334.277	106.843
337.17	27.3915
340.062	17.9023
342.955	41.1385
345.848	51.1083
348.74	41.8875
351.633	23.2496
354.526	3.87042
357.418	34.5395
360.311	72.5742
363.204	116.775
366.097	162.543
368.989	210.893
371.882	266.861
374.775	330.88
377.667	409.678
380.56	517.205
383.453	667.42
386.346	864.713
389.238	1085.51
392.131	1282.35
395.024	1413.62
397.916	1466.76
400.809	1448.22
403.702	1388.4
406.594	1302.89
409.487	1211.86
412.38	1150.62
415.272	1117.64
418.165	1101.12
421.058	1087.11
423.951	1074.52
426.843	1085.32
429.736	1146.56
432.629	1241.07
435.521	1348.14
438.414	1398.89
441.307	1342.95
444.2	1203.09
447.092	1052.64
449.985	940.299
452.878	863.777
455.77	791.584
458.663	707.764
461.556	587.987
464.448	473.31
467.341	370.85
470.234	298.914
473.127	255.616
476.019	226.993
478.912	210.964
481.805	191.218
484.697	171.294
487.59	145.23
490.483	119.716
493.375	89.4553
496.268	58.551
499.161	32.9072
502.053	14.4523
504.946	0.519897
507.839	10.196
510.732	15.4121
513.624	17.6042
516.517	19.3402
519.41	17.45
522.302	14.7381
525.195	8.66093
528.088	2.8744
530.981	3.20876
533.873	8.13245
536.766	12.6924
539.659	17.4565
542.551	20.3505
545.444	22.3533
548.337	27.117
551.229	31.8898
554.122	40.5118
557.015	35.9173
559.908	37.85
562.8	39.8734
565.693	40.2123
568.586	40.1413
571.478	36.3582
574.371	30.5119
577.264	24.9161
580.156	16.2597
583.049	9.42029
585.942	5.91844
588.835	0.540726
591.727	1.21339
594.62	0.546509
597.513	0.894043
600.405	2.04706
603.298	8.57132
606.191	14.8823
609.083	21.6355
611.976	33.7908
614.869	49.4099
617.761	70.064
620.654	99.2317
623.547	135.011
626.44	178.891
629.332	245.162
632.225	329.981
635.118	439.539
638.01	583.637
640.903	752.823
643.796	949.791
646.688	1152.38
649.581	1361.09
652.474	1558.53
655.367	1704.08
658.259	1731.29
661.152	1631.04
664.045	1458.18
666.937	1295.85
669.83	1182.48
672.723	1105.3
675.615	1027.1
678.508	916.884
681.401	769.674
684.294	602.678
687.186	444.661
690.079	322.148
692.972	227.274
695.864	155.675
698.757	101.959
701.65	62.3369
704.543	35.7871
707.435	15.6484
710.328	0.807312
713.221	8.5686
716.113	12.6853
719.006	10.6503
721.899	4.77957
724.791	6.00226
727.684	22.9502
730.577	50.5192
733.47	89.0549
736.362	128.295
739.255	183.326
742.148	251.741
745.04	325.896
747.933	408.513
750.826	485.844
753.718	558.007
756.611	620.094
759.504	673.739
762.396	699.255
765.289	682.198
768.182	625.789
771.075	551.124
773.967	496.669
776.86	462.836
779.753	459.803
782.645	482.204
785.538	505.131
788.431	502.087
791.323	454.545
794.216	382.411
797.109	308.173
800.002	249.346
802.894	204.336
805.787	163.084
808.68	128.95
811.572	94.4816
814.465	71.7181
817.358	51.0517
820.25	37.5486
823.143	29.917
826.036	20.8755
828.929	12.9451
831.821	9.55142
834.714	4.2177
837.607	2.21165
840.5	0.336456
843.392	1.4933
846.285	2.87297
849.178	3.45827
852.07	4.13359
854.963	1.95201
857.856	0.704727
860.748	2.61345
863.641	3.37584
866.534	6.57591
869.427	7.48949
872.319	10.4281
875.212	9.84349
878.105	10.1629
880.997	8.98955
883.89	8.44687
886.783	7.97806
889.675	7.18181
892.568	8.05644
895.461	9.75902
898.354	8.5791
901.246	10.1956
904.139	11.4835
907.032	7.21033
909.924	5.97357
912.817	4.98662
915.71	1.79054
918.602	2.67862
921.495	1.79405
924.388	1.72696
927.28	2.20369
930.173	1.00746
933.066	2.678
935.959	3.26771
938.851	3.52963
941.744	3.8382
944.637	3.34082
947.529	3.26697
950.422	3.19488
953.315	1.12233
956.207	1.47437
959.1	1.88783
961.993	1.51559
964.886	0.696182
967.778	1.63585
970.671	1.88372
973.564	1.77093
976.456	2.22063
979.349	2.20882
982.242	1.88861
985.135	1.62632
988.027	1.01872
990.92	0.971657
993.813	1.36174
996.705	0.028259
999.598	1.92668
1002.49	3.16055
1005.38	2.41495
1008.28	4.10287
1011.17	3.32127
1014.06	3.26052
1016.95	3.59145
1019.85	1.71967
1022.74	3.14134
1025.63	4.87463
1028.53	2.71722
1031.42	0.456474
1034.31	2.52058
1037.2	0.263367
1040.1	0.299393
1042.99	0.447456
1045.88	0.946182
1048.77	0.015121
1051.67	0.763878
1054.56	0.734428
1057.45	0.405014
1060.35	0.810585
1063.24	0.112556
1066.13	0.171356
1069.02	1.3531
1071.92	0.165413
1074.81	1.3953
1077.7	2.09145
1080.59	2.02245
1083.49	1.39761
1086.38	1.49693
1089.27	1.62232
1092.16	1.95653
1095.06	2.39503
1097.95	3.08461
1100.84	4.03954
1103.73	3.41083
1106.63	3.18938
1109.52	3.35394
1112.41	2.53911
1115.31	1.23739
1118.2	2.09735
1121.09	2.20149
1123.98	0.334419
1126.88	0.042351
1129.77	0.249847
1132.66	1.07578
1135.56	1.47738
1138.45	0.232796
1141.34	1.24503
1144.23	1.68749
1147.13	2.59019
1150.02	2.4262
1152.91	2.41918
1155.8	2.16698
1158.7	2.54314
1161.59	1.86491
1164.48	1.94914
1167.38	2.16563
1170.27	2.01145
1173.16	3.0642
1176.05	2.91655
1178.94	2.215
1181.84	4.28597
1184.73	1.8122
1187.62	1.66749
1190.52	2.38316
1193.41	2.46298
1196.3	1.09334
1199.19	1.40199
1202.09	2.09
1204.98	0.211456
1207.87	0.955704
1210.77	0.585358
1213.66	0.515709
1216.55	0.383423
1219.44	0.271378
1222.34	0.429459
1225.23	0.559906
1228.12	0.559921
1231.01	0.420105
1233.91	1.39358
1236.8	0.204651
1239.69	0.769905
1242.59	0.33786
1245.48	0.942703
1248.37	1.03458
1251.26	1.61661
1254.16	0.854599
1257.05	0.862381
1259.94	1.50491
1262.83	3.53331
1265.73	2.37704
1268.62	1.94752
1271.51	1.5794
1274.4	0.935661
1277.3	1.2564
1280.19	1.54218
1283.08	0.262222
1285.97	1.48045
1288.87	1.39426
1291.76	0.662994
1294.65	2.07766
1297.55	0.365967
1300.44	0.775925
