Measurement: Raman, 780 nm, unoriented, Raman Data Processed
Mineral: Emmonsite
Rruff sample: R060802
Ideal chemistry: Fe^3+^_2_(Te^4+^O_3_)_3_2H_2_O
Locality: Moctezuma mine, Moctezuma, Sonora, Mexico
Source: Michael Scott
Description: Spray of green globular aggregates associated with pale yellow schmitterite, R060524
Measured chemistry: (Fe^3+^_1.89_Al_0.11_)_Σ=2_(Te^4+^_1.00_O_3_)_3_·2.01H_2_O; H_2_O estimated by difference
Raman shift (cm-1)	intensity
147.485	0
150.378	13.7422
153.27	100.022
156.163	89.3718
159.056	77.556
161.948	150.764
164.841	311.196
167.734	488.003
170.627	648.667
173.519	815.85
176.412	937.616
179.305	912.518
182.197	895.807
185.09	858.774
187.983	657.19
190.875	338.763
193.768	114.394
196.661	2.93103
199.554	29.3047
202.446	22.6587
205.339	8.08227
208.232	26.5712
211.124	71.6352
214.017	121.2
216.91	189.604
219.802	252.442
222.695	287.136
225.588	300.417
228.481	316.368
231.373	351.67
234.266	404.334
237.159	467.658
240.051	522.734
242.944	570.364
245.837	594.91
248.729	583.475
251.622	558.191
254.515	544.964
257.408	538.671
260.3	558.078
263.193	595.78
266.086	657.986
268.978	700.636
271.871	698.469
274.764	624.754
277.656	486.526
280.549	348.03
283.442	240.789
286.334	164.476
289.227	105.724
292.12	64.3216
295.013	36.7821
297.905	22.6516
300.798	26.3776
303.691	49.8849
306.583	82.3068
309.476	126.999
312.369	175.377
315.262	225.132
318.154	265.697
321.047	277.67
323.94	241.114
326.832	177.455
329.725	106.885
332.618	44.0589
335.51	3.63568
338.403	32.9584
341.296	42.294
344.188	38.5393
347.081	25.7741
349.974	2.78912
352.867	24.92
355.759	58.7273
358.652	96.3843
361.545	137.409
364.437	181.901
367.33	230.262
370.223	272.562
373.115	331.2
376.008	404.168
378.901	491.132
381.794	599.522
384.686	726.108
387.579	847.661
390.472	945.707
393.364	1017.91
396.257	1038.51
399.15	1026.78
402.043	984.851
404.935	925.006
407.828	869.047
410.721	807.554
413.613	769.945
416.506	743.556
419.399	712.93
422.291	709.192
425.184	712.006
428.077	735.709
430.969	773.848
433.862	798.971
436.755	803.092
439.648	776.495
442.54	711.656
445.433	656.828
448.326	589.734
451.218	548.481
454.111	501.55
457.004	451.384
459.897	403.642
462.789	363.401
465.682	346.974
468.575	336.495
471.467	336.662
474.36	324.225
477.253	310.452
480.145	280.009
483.038	233.975
485.931	184.12
488.823	131.823
491.716	94.1374
494.609	60.9913
497.502	30.8092
500.394	13.451
503.287	2.8443
506.18	10.5329
509.072	15.8459
511.965	16.6966
514.858	15.3775
517.75	14.3041
520.643	9.99442
523.536	6.16507
526.428	0.977936
529.321	2.38245
532.214	7.73587
535.107	13.4617
537.999	15.8933
540.892	18.8007
543.785	24.1212
546.677	23.4363
549.57	30.2444
552.463	34.1467
555.356	34.4914
558.248	37.5599
561.141	40.5433
564.034	41.0699
566.926	37.9773
569.819	35.5062
572.712	28.5372
575.604	21.503
578.497	16.5095
581.39	11.0275
584.283	8.07004
587.175	0.062531
590.068	0.90451
592.961	1.03265
595.853	2.55252
598.746	2.82678
601.639	6.92212
604.531	12.7819
607.424	21.4194
610.317	32.4211
613.21	46.9866
616.102	63.0442
618.995	88.1025
621.888	118.22
624.78	160.012
627.673	217.371
630.566	285.317
633.458	369.303
636.351	479.45
639.244	594.999
642.136	723.218
645.029	846.258
647.922	958.493
650.815	1045.58
653.707	1076.31
656.6	1049.46
659.493	966.136
662.385	848.35
665.278	738.09
668.171	647.864
671.063	572.226
673.956	494.804
676.849	421.024
679.742	334.033
682.634	249.252
685.527	184.778
688.42	126.571
691.312	83.8142
694.205	52.4512
697.098	27.1739
699.99	10.4144
702.883	2.76572
705.776	5.35541
708.669	12.2939
711.561	7.79175
714.454	3.2099
717.347	4.92679
720.239	19.7
723.132	38.4646
726.025	64.5448
728.917	95.8765
731.81	132.326
734.703	180.435
737.596	235.89
740.488	296.142
743.381	353.364
746.274	415.249
749.166	465.596
752.059	510.086
754.952	536.809
757.844	554.678
760.737	559.062
763.63	547.527
766.523	532.631
769.415	521.81
772.308	524.721
775.201	553.652
778.093	595.913
780.986	634.408
783.879	647.076
786.771	617.662
789.664	543.401
792.557	446.507
795.449	361.641
798.342	287.246
801.235	223.896
804.128	171.84
807.02	133.538
809.913	99.4259
812.806	72.3863
815.698	54.7178
818.591	39.6918
821.484	26.5596
824.376	16.2954
827.269	14.0031
830.162	7.36655
833.055	3.98001
835.947	1.56964
838.84	1.8193
841.733	2.91794
844.625	2.96645
847.518	2.28389
850.411	2.57892
853.303	1.59648
856.196	0.424408
859.089	1.20541
861.982	1.25514
864.874	4.60808
867.767	3.82465
870.66	6.93515
873.552	6.1655
876.445	9.23607
879.338	9.49449
882.231	11.0358
885.123	11.0645
888.016	11.7396
890.909	13.3973
893.801	14.5617
896.694	16.6613
899.587	13.9023
902.479	14.0897
905.372	14.6257
908.265	11.4152
911.158	11.5144
914.05	11.6082
916.943	8.73
919.836	7.44563
922.728	6.0833
925.621	7.56807
928.514	5.88283
931.406	5.62405
934.299	7.88968
937.192	4.87485
940.085	5.7442
942.977	5.82886
945.87	5.36508
948.763	3.82588
951.655	6.18112
954.548	3.76558
957.441	2.9834
960.333	4.62328
963.226	2.89363
966.119	2.33357
969.011	4.32202
971.904	3.21642
974.797	3.13794
977.69	1.8096
980.582	2.45009
983.475	3.54231
986.368	0.141052
989.26	1.17223
992.153	1.75342
995.046	0.393829
997.938	1.05957
1000.83	0.080002
1003.72	1.10504
1006.62	0.449158
1009.51	1.01146
1012.4	0.240662
1015.29	0.181549
1018.19	0.380356
1021.08	0.074921
1023.97	1.09218
1026.87	0.115524
1029.76	1.26314
1032.65	0.634033
1035.54	0.746368
1038.44	1.46394
1041.33	0.47702
1044.22	1.11708
1047.11	0.555573
1050.01	1.47702
1052.9	1.70013
1055.79	2.51523
1058.68	1.36417
1061.58	2.33589
1064.47	1.43784
1067.36	0.289902
1070.26	2.04286
1073.15	0.134857
1076.04	0.26152
1078.93	1.77899
1081.83	1.30881
1084.72	1.46628
1087.61	2.06404
1090.51	0.340866
1093.4	2.04909
1096.29	0.923416
1099.18	0.710983
1102.08	1.44185
1104.97	1.55406
1107.86	0.420715
1110.75	2.66545
1113.65	1.13541
1116.54	1.34766
1119.43	0.154221
1122.32	1.10347
1125.22	1.83633
1128.11	0.443619
1131	1.49188
1133.89	0.965149
1136.79	1.40392
1139.68	1.90207
1142.57	1.74631
1145.47	1.70053
1148.36	3.21049
1151.25	1.75851
1154.14	1.15004
1157.04	3.70306
1159.93	1.99123
1162.82	1.73566
1165.71	3.49878
1168.61	3.46208
1171.5	1.17625
1174.39	1.49002
1177.29	0.000748
1180.18	3.2648
1183.07	1.09319
1185.96	1.50569
1188.86	0.528275
1191.75	0.928864
1194.64	1.87073
1197.54	1.79421
1200.43	2.32838
1203.32	1.24783
1206.21	3.47443
1209.11	2.06589
1212	1.44031
1214.89	2.28372
1217.78	1.4283
1220.68	0.795074
1223.57	2.38213
1226.46	1.88173
1229.35	0.380356
1232.25	1.62972
1235.14	0.99025
1238.03	1.42436
1240.92	0.65036
1243.82	1.76819
1246.71	2.03511
1249.6	0.12027
1252.5	1.86786
1255.39	1.13477
1258.28	1.88397
1261.17	1.16722
1264.07	0.376907
1266.96	1.40546
1269.85	1.67017
1272.74	1.29042
