Measurement: Raman, 780 nm, unoriented, Raman Data Processed
Mineral: Emmonsite
Rruff sample: R120126
Ideal chemistry: Fe^3+^_2_(Te^4+^O_3_)_3_2H_2_O
Locality: Wendy open pit, Tambo mine, El Indio deposit, Elqui Province, Coquimbo Region, Chile
Source: Robert A. Jenkins
Description: Globular green rosettes
Raman shift (cm-1)	intensity
134.108	0
137.001	14.3049
139.893	143.141
142.786	336.073
145.679	384.573
148.571	358.033
151.464	412.347
154.357	464.092
157.25	333.108
160.142	245.075
163.035	284.697
165.928	423.83
168.82	677.731
171.713	902.227
174.606	1074.82
177.498	1136.44
180.391	1143.18
183.284	1185.52
186.177	1164.05
189.069	840.031
191.962	394.155
194.855	113.123
197.747	13.7892
200.64	52.5331
203.533	44.2871
206.425	7.38855
209.318	41.7623
212.211	105.447
215.103	196.138
217.996	301.596
220.889	391.687
223.782	440.824
226.674	452.406
229.567	456.611
232.46	481.54
235.352	502.921
238.245	493.723
241.138	482.583
244.03	500.105
246.923	514.451
249.816	496.09
252.709	467.059
255.601	445.104
258.494	438.107
261.387	453.181
264.279	522.694
267.172	646.244
270.065	770.06
272.957	817.599
275.85	730.78
278.743	541.135
281.635	363.88
284.528	241.952
287.421	171.122
290.314	130.039
293.206	93.7521
296.099	52.6995
298.992	22.8947
301.884	25.7396
304.777	46.9207
307.67	95.0626
310.562	157.91
313.455	240.347
316.348	333.038
319.241	417.166
322.133	467.951
325.026	439.455
327.919	346.695
330.811	220.421
333.704	107.933
336.597	27.4088
339.49	23.8591
342.382	48.9412
345.275	51.4617
348.168	40.4507
351.06	18.1356
353.953	14.324
356.846	56.6532
359.738	94.8726
362.631	141.921
365.524	186.023
368.416	235.997
371.309	282.922
374.202	332.762
377.095	401.678
379.987	506.776
382.88	648.844
385.773	830.688
388.665	1025.92
391.558	1205.2
394.451	1330.52
397.344	1395.6
400.236	1402.26
403.129	1364.89
406.022	1303.6
408.914	1232.25
411.807	1182.74
414.7	1156.48
417.592	1140.06
420.485	1129.23
423.378	1110.5
426.27	1119.34
429.163	1173.19
432.056	1256.26
434.949	1351.79
437.841	1387.73
440.734	1325.02
443.627	1185.06
446.519	1029.74
449.412	903.868
452.305	817.365
455.197	737.156
458.09	646.06
460.983	538.268
463.875	432.282
466.768	348.289
469.661	290.149
472.554	255.226
475.446	229.941
478.339	210.262
481.232	193.322
484.124	168.312
487.017	138.189
489.91	109.166
492.803	79.2555
495.695	50.4965
498.588	24.3605
501.481	6.45904
504.373	7.50162
507.266	14.5636
510.159	18.9361
513.051	19.6616
515.944	19.2059
518.837	13.3173
521.73	9.67349
524.622	6.09551
527.515	1.05716
530.408	4.67703
533.3	11.5562
536.193	15.3194
539.086	20.6185
541.978	23.9374
544.871	27.0484
547.764	31.1463
550.656	33.656
553.549	37.8536
556.442	40.325
559.335	42.8366
562.227	45.6545
565.12	45.6697
568.013	41.782
570.905	36.4284
573.798	29.1038
576.691	21.7713
579.583	14.9645
582.476	9.51242
585.369	5.60712
588.261	1.90343
591.154	0.193237
594.047	0.530304
596.94	0.34935
599.832	2.52899
602.725	7.10201
605.618	14.3714
608.51	22.7395
611.403	33.9838
614.296	49.6162
617.188	70.044
620.081	96.4459
622.974	133.401
625.867	179.273
628.759	242.48
631.652	327.514
634.545	434.424
637.437	574.14
640.33	746.622
643.223	942.165
646.115	1155.66
649.008	1361.53
651.901	1567.41
654.794	1715.13
657.686	1734.67
660.579	1611.64
663.472	1394.54
666.364	1176.19
669.257	1005.27
672.15	874.98
675.043	762.664
677.935	650.24
680.828	529.217
683.721	407.219
686.613	297.76
689.506	209.805
692.399	145.668
695.291	96.138
698.184	58.6895
701.077	29.8226
703.97	10.6149
706.862	0.333221
709.755	9.39581
712.648	13.0983
715.54	10.5582
718.433	2.5068
721.326	8.88852
724.218	26.7318
727.111	52.3126
730.004	92.0739
732.896	136.155
735.789	197.068
738.682	270.365
741.574	357.563
744.467	460.768
747.36	572.796
750.253	683.198
753.145	789.999
756.038	885.852
758.931	960.955
761.823	996.165
764.716	967.577
767.609	880.021
770.501	776.686
773.394	685.312
776.287	635.069
779.18	619.796
782.072	633.986
784.965	653.007
787.858	635.992
790.75	563.186
793.643	460.556
796.536	362.667
799.428	283.288
802.321	220.782
805.214	173.695
808.107	133.173
810.999	99.0087
813.892	73.6367
816.785	54.8269
819.677	40.6877
822.57	31.6166
825.463	24.7514
828.356	18.8009
831.248	13.5508
834.141	8.84085
837.034	3.89594
839.926	0.373611
842.819	2.93083
845.712	3.35457
848.604	5.85803
851.497	4.46352
854.39	2.19559
857.283	1.66951
860.175	0.552696
863.068	0.801529
865.961	3.28626
868.853	5.65745
871.746	6.57822
874.639	6.97571
877.531	8.286
880.424	8.84647
883.317	8.48714
886.209	10.5795
889.102	9.88913
891.995	11.7128
894.888	11.9829
897.78	15.8378
900.673	12.5636
903.566	11.8567
906.458	11.2131
909.351	7.87063
912.244	9.33451
915.136	7.69598
918.029	6.20069
920.922	5.15823
923.814	4.44782
926.707	4.30022
929.6	5.79373
932.493	5.35963
935.385	4.36231
938.278	4.86265
941.171	5.17506
944.063	4.85243
946.956	4.60221
949.849	4.80276
952.741	3.73468
955.634	3.15968
958.527	2.34637
961.42	2.0374
964.312	2.00934
967.205	2.13568
970.098	1.82875
972.99	1.79095
975.883	1.53657
978.776	1.39792
981.668	0.733551
984.561	1.00392
987.454	1.37785
990.347	1.75177
993.239	1.16019
996.132	1.83892
999.025	1.47181
1001.92	0.222916
1004.81	4.93687
1007.7	0.474197
1010.6	0.657803
1013.49	0.381634
1016.38	1.05104
1019.27	0.345245
1022.17	1.26728
1025.06	0.549999
1027.95	0.854061
1030.84	0.123734
1033.74	0.077202
1036.63	0.046722
1039.52	0.200478
1042.41	0.633724
1045.31	0.257359
1048.2	0.190456
1051.09	0.144161
1053.99	0.162285
1056.88	0.360199
1059.77	0.420528
1062.66	0.124783
1065.56	1.07115
1068.45	0.193874
1071.34	0.933609
1074.23	0.136765
1077.13	0.588478
1080.02	0.720005
1082.91	0.107822
1085.81	0.560707
1088.7	0.83123
1091.59	0.480213
1094.48	0.566288
1097.38	0.088455
1100.27	1.4459
1103.16	1.02351
1106.05	0.81966
1108.95	0.006901
1111.84	1.02803
1114.73	0.945511
1117.62	0.515881
1120.52	1.08628
1123.41	1.87814
1126.3	1.04138
1129.2	1.47798
1132.09	0.496532
1134.98	1.27472
1137.87	1.48606
1140.77	1.41305
1143.66	1.83161
1146.55	1.2089
1149.44	1.81397
1152.34	1.34588
1155.23	1.5471
1158.12	1.77201
1161.02	1.69756
1163.91	1.09481
1166.8	1.17189
1169.69	0.70681
1172.59	1.45941
1175.48	2.53091
1178.37	1.67731
1181.27	1.10494
1184.16	1.63901
1187.05	1.72839
1189.94	0.851433
1192.84	1.30756
1195.73	3.58522
1198.62	0.619789
1201.51	0.743908
1204.41	0.824512
1207.3	1.18451
1210.19	2.97965
1213.08	0.978996
1215.98	0.167419
1218.87	0.595196
1221.76	0.647259
1224.65	0.110619
1227.55	0.506409
1230.44	0.997032
1233.33	0.105675
1236.23	1.04823
1239.12	0.738266
1242.01	0.479988
1244.9	0.860756
1247.8	0.793713
1250.69	0.146103
1253.58	0.344425
1256.47	0.701977
1259.37	0.522434
1262.26	1.00914
1265.15	0.470627
1268.05	1.21566
1270.94	0.566254
1273.83	0.089539
1276.72	1.75293
1279.62	0.481995
1282.51	0.008995
