Measurement: Raman, 532 nm, unoriented, Raman Data Processed
Mineral: Emplectite
Rruff sample: R070307
Ideal chemistry: Cu^1+^Bi^3+^S^2-^_2_
Locality: Schwarzenberg District, Erzgebirge, Saxony, Germany
Source: James Shigley
Description: Pale yellow metallic prisms associated with siderite and quartz
Measured chemistry: Cu^1+^_1.00_Bi_1.00_S_2.00_
Raman shift (cm-1)	intensity
134.716	0
138.091	39.785
141.466	86.8721
144.841	129.71
148.215	164.968
151.59	209.873
154.965	288.21
158.34	213.19
161.715	179.191
165.09	118.614
168.464	114.963
171.839	97.7317
175.214	77.9545
178.589	63.9967
181.964	62.4833
185.339	46.7964
188.713	45.963
192.088	8.1626
195.463	4.95691
198.838	37.5729
202.213	2.78857
205.587	19.8398
208.962	21.0542
212.337	16.5085
215.712	7.1709
219.087	27.6133
222.462	35.2433
225.836	35.0459
229.211	56.1344
232.586	68.4321
235.961	86.2271
239.336	116.664
242.71	84.7312
246.085	112.064
249.46	95.6224
252.835	71.3979
256.21	92.5175
259.584	91.7291
262.959	145.109
266.334	238.471
269.709	393.463
273.084	690.064
276.459	1177.21
279.833	1959.79
283.208	3034.87
286.583	4301.1
289.958	5381.24
293.333	5385.1
296.707	3916.18
300.082	2365.3
303.457	1621.76
306.832	1186.92
310.207	846.244
313.582	477.607
316.956	266.516
320.331	134.316
323.706	74.1084
327.081	9.97424
330.456	7.14026
333.83	12.4858
337.205	8.95813
340.58	2.07507
343.955	38.0299
347.33	26.4476
350.705	21.3733
354.079	27.4028
357.454	22.8744
360.829	44.2054
364.204	15.4811
367.579	16.9236
370.954	12.3978
374.328	7.33093
377.703	3.05859
381.078	6.96594
384.453	8.9436
387.828	3.54285
391.202	8.17297
394.577	10.6151
397.952	17.0959
401.327	15.4886
404.702	24.2258
408.077	37.322
411.451	37.694
414.826	34.1116
418.201	54.8694
421.576	47.7109
424.951	51.5277
428.325	64.4482
431.7	31.4703
435.075	20.3496
438.45	62.8883
441.825	57.1311
445.2	100.115
448.574	111.585
451.949	142.644
455.324	156.945
458.699	188.387
462.074	234.132
465.448	239.105
468.823	262.805
472.198	209.052
475.573	127.287
478.948	60.1388
482.322	59.0319
485.697	45.5621
489.072	14.3608
492.447	17.3273
495.822	28.4298
499.197	32.2098
502.571	28.8781
505.946	23.8229
509.321	2.2981
512.696	9.88001
516.071	6.5929
519.446	7.83008
522.82	11.3877
526.195	27.2344
529.57	32.3935
532.945	21.772
536.32	24.3087
539.694	43.2953
543.069	34.9766
546.444	29.8966
549.819	28.8434
553.194	14.6821
556.568	27.1333
559.943	8.52918
563.318	46.8861
566.693	5.27661
570.068	42.1537
573.443	53.0862
576.817	50.3712
580.192	48.9536
583.567	49.8563
586.942	115.582
590.317	69.2992
593.692	81.1732
597.066	40.4974
600.441	49.3694
603.816	48.0596
607.191	30.0681
610.566	18.8821
613.94	22.5104
617.315	12.8013
620.69	22.7873
624.065	12.0535
627.44	13.4937
630.814	0.085571
634.189	19.4425
637.564	15.4322
640.939	13.3629
644.314	39.477
647.689	3.86853
651.063	2.24268
654.438	22.0942
657.813	28.1484
661.188	16.2108
664.563	8.76209
667.938	5.07104
671.312	0.857056
674.687	27.7313
678.062	15.064
681.437	36.9377
684.812	26.833
688.186	17.9087
691.561	24.3219
694.936	13.5762
698.311	17.7212
701.686	5.11609
705.061	10.4617
708.435	18.7368
711.81	48.5277
715.185	41.8702
718.56	1.32593
721.935	17.4332
725.309	18.3174
728.684	5.04797
732.059	28.8024
735.434	27.6746
738.809	25.9482
742.183	3.09436
745.558	62.5991
748.933	34.927
752.308	12.7354
755.683	14.5168
759.058	5.27246
762.432	43.01
765.807	55.1393
769.182	0.816284
772.557	25.7114
775.932	50.7325
779.307	24.3274
782.681	6.14075
786.056	34.6176
789.431	32.7505
792.806	25.8494
796.181	43.8103
799.555	9.05688
802.93	39.8984
806.305	20.5947
809.68	34.7439
813.055	14.6814
816.429	17.397
819.804	17.684
823.179	25.5581
826.554	22.2805
829.929	31.3151
833.304	20.9546
836.678	2.70618
840.053	40.418
843.428	26.943
846.803	31.6301
850.178	39.2667
853.553	36.6761
856.927	41.2787
860.302	20.7544
863.677	33.9425
867.052	17.6973
870.427	11.3882
873.801	50.4923
877.176	36.9043
880.551	28.8395
883.926	37.6311
887.301	17.4418
890.676	3.15991
894.05	13.7845
897.425	45.5266
900.8	42.1652
904.175	28.8446
907.55	32.4155
910.924	30.8606
914.299	34.9085
917.674	23.1842
921.049	48.0225
924.424	24.8572
927.798	34.5364
931.173	13.3613
934.548	25.3866
937.923	21.3635
941.298	5.76294
944.673	5.81409
948.047	53.9857
951.422	26.2082
954.797	38.8032
958.172	41.7993
961.547	2.60034
964.922	1.83508
968.296	24.0527
971.671	0.669434
975.046	32.5067
978.421	34.3735
981.796	12.6875
985.17	54.9836
988.545	15.9312
991.92	14.4171
995.295	71.0606
998.67	29.6799
1002.04	42.2828
1005.42	31.3491
1008.79	54.3253
1012.17	9.15222
1015.54	18.886
1018.92	4.79053
1022.29	33.8554
1025.67	62.4843
1029.04	27.6665
1032.42	41.4519
1035.79	30.6661
1039.17	26.0552
1042.54	36.3176
1045.92	31.4147
1049.29	11.724
1052.67	28.4163
1056.04	48.5784
1059.42	6.55872
1062.79	10.0727
1066.17	12.1509
1069.54	31.5155
1072.92	38.4293
1076.29	64.6005
1079.66	34.9038
1083.04	37.8595
1086.41	48.9735
1089.79	43.7057
1093.16	1.64331
1096.54	23.8644
1099.91	27.2352
1103.29	13.7662
1106.66	37.1565
1110.04	33.6569
1113.41	12.061
1116.79	43.3926
1120.16	44.5488
1123.54	0.237671
1126.91	22.8152
1130.29	32.919
1133.66	22.4971
1137.04	20.8149
1140.41	4.70947
1143.79	7.99561
1147.16	53.9853
1150.54	41.2565
1153.91	9.70935
1157.29	47.6992
1160.66	63.629
1164.04	34.8223
1167.41	17.3281
1170.79	48.2561
1174.16	13.2404
1177.54	46.2477
1180.91	22.2682
1184.29	42.2207
1187.66	47.8843
1191.03	39.7561
1194.41	65.1569
1197.78	43.0004
1201.16	62.1187
1204.53	31.9669
1207.91	11.7886
1211.28	26.0736
1214.66	48.5416
1218.03	24.0701
1221.41	53.0898
1224.78	30.86
1228.16	49.0413
1231.53	72.1243
1234.91	24.2096
1238.28	29.601
1241.66	6.49707
1245.03	36.3301
1248.41	25.4477
1251.78	22.0172
1255.16	16.0463
1258.53	33.7511
1261.91	1.53052
1265.28	50.0161
1268.65	20.7014
1272.03	43.113
1275.4	22.41
1278.78	76.0147
1282.15	30.1644
1285.53	39.0087
1288.9	18.9362
1292.28	13.9718
1295.65	33.1019
1299.03	39.9292
1302.4	11.4241
1305.78	6.08057
