Measurement: Raman, 780 nm, unoriented, Raman Data Processed
Mineral: Enargite
Rruff sample: R050435
Ideal chemistry: Cu_3_AsS_4_
Locality: Longfellow mine, Red Mountain Pass, Ouray, Colorado, USA
Source: University of Arizona Mineral Museum
Description: Grayish black prismatic crystals
Measured chemistry: Cu_2.97_As_0.95_Sb_0.02_S_4_
Raman shift (cm-1)	intensity
127.236	0
130.129	0.058495
133.021	0.020599
135.914	0.596519
138.807	3.21758
141.699	3.01409
144.592	3.96693
147.485	5.11153
150.377	6.42844
153.27	7.90447
156.163	10.132
159.055	10.2879
161.948	10.6395
164.841	11.0304
167.734	11.4879
170.626	9.40977
173.519	6.91969
176.412	5.3056
179.304	4.738
182.197	4.04737
185.09	1.08661
187.982	1.93153
190.875	0.597878
193.768	1.78239
196.661	1.25941
199.553	1.51415
202.446	0.366096
205.339	0.834953
208.231	0.103172
211.124	0.187767
214.017	0.501785
216.91	1.04253
219.802	1.30664
222.695	0.182953
225.588	1.03713
228.48	0.668159
231.373	2.17561
234.266	4.43861
237.158	6.15998
240.051	8.61584
242.944	13.8909
245.837	20.3127
248.729	25.9316
251.622	30.925
254.515	39.3893
257.407	45.5949
260.3	52.3789
263.193	51.4643
266.085	46.3088
268.978	34.0618
271.871	24.7802
274.764	15.6518
277.656	11.2764
280.549	8.2925
283.442	5.03808
286.334	3.47771
289.227	1.75224
292.12	1.77177
295.012	0.510796
297.905	0.565834
300.798	0.200203
303.69	1.54179
306.583	5.73982
309.476	9.53915
312.369	17.9144
315.261	33.6757
318.154	59.0785
321.047	98.7864
323.939	133.541
326.832	165.581
329.725	203.796
332.618	246.134
335.51	277.045
338.403	278.266
341.296	206.138
344.188	104.748
347.081	48.3974
349.974	22.4546
352.866	13.28
355.759	4.68533
358.652	0.524338
361.545	3.07735
364.437	6.49366
367.33	11.156
370.223	14.1008
373.115	20.9987
376.008	23.7901
378.901	29.3299
381.793	32.6922
384.686	30.3241
387.579	22.1474
390.471	19.3812
393.364	17.2779
396.257	16.0154
399.15	12.8198
402.042	6.73965
404.935	3.87147
407.828	2.30316
410.72	1.00932
413.613	0.20356
416.506	0.452698
419.399	0.735916
422.291	0.834373
425.184	0.067581
428.077	0.180771
430.969	0.164772
433.862	0.095322
436.755	0.426918
439.647	0.414642
442.54	0.08136
445.433	0.404427
448.325	0.412231
451.218	0.559959
454.111	0.336227
457.004	0.862
459.896	1.4006
462.789	0.589737
465.682	2.2232
468.574	1.27999
471.467	2.33088
474.36	2.37492
477.252	2.67863
480.145	1.89275
483.038	4.16463
485.931	3.40544
488.823	4.28368
491.716	2.74471
494.609	3.43867
497.501	2.68002
500.394	3.50809
503.287	3.21147
506.18	3.46905
509.072	2.61085
511.965	2.06508
514.858	1.48292
517.75	0.884735
520.643	1.90169
523.536	1.88132
526.428	1.74812
529.321	3.37574
532.214	2.86985
535.106	1.60129
537.999	1.98731
540.892	2.02016
543.785	1.84174
546.677	1.46821
549.57	0.415329
552.463	2.38967
555.355	1.02787
558.248	0.794334
561.141	0.204491
564.034	0.486649
566.926	1.43973
569.819	0.73172
572.712	0.438766
575.604	0.394028
578.497	0.773094
581.39	2.99152
584.282	2.83968
587.175	5.71172
590.068	7.10033
592.961	7.52834
595.853	9.13247
598.746	10.2099
601.639	12.0542
604.531	11.4127
607.424	12.8473
610.317	12.8379
613.209	11.0693
616.102	10.6853
618.995	9.83737
621.888	8.24918
624.78	7.81165
627.673	5.88666
630.566	6.15635
633.458	5.2485
636.351	3.79224
639.244	4.09362
642.136	3.81083
645.029	6.79656
647.922	7.22253
650.814	10.8734
653.707	13.2337
656.6	19.9084
659.493	27.661
662.385	38.1997
665.278	46.9565
668.171	58.9845
671.063	66.9025
673.956	74.8062
676.849	76.621
679.741	69.5408
682.634	58.3399
685.527	46.8523
688.42	33.6212
691.312	21.9312
694.205	13.6709
697.098	6.79147
699.99	2.13956
702.883	0.400696
705.776	0.547379
708.668	0.093071
711.561	1.90348
714.454	1.33062
717.347	2.12254
720.239	2.09266
723.132	4.35903
726.025	3.31055
728.917	2.16991
731.81	3.69044
734.703	2.1429
737.596	1.87445
740.488	0.048645
743.381	1.39342
746.274	0.668053
749.166	0.253365
752.059	1.87534
754.952	0.230713
757.844	0.091934
760.737	0.898956
763.63	1.68865
766.523	1.07059
769.415	1.70549
772.308	3.35893
775.201	4.14327
778.093	3.78427
780.986	3.43623
783.879	2.97916
786.771	3.03314
789.664	2.76783
792.557	2.87043
795.449	2.34939
798.342	1.54421
801.235	2.17908
804.128	2.07946
807.02	2.09789
809.913	1.60969
812.806	1.30085
815.698	0.127792
818.591	2.32707
821.484	0.554176
824.376	1.0492
827.269	1.93359
830.162	1.09318
833.055	1.65064
835.947	0.741074
838.84	0.72509
841.733	1.48631
844.625	1.00101
847.518	2.14378
850.411	1.58427
853.303	2.66441
856.196	2.73744
859.089	1.01605
861.982	1.74834
864.874	2.15077
867.767	1.32671
870.66	0.701881
873.552	1.04376
876.445	2.14907
879.338	1.31467
882.231	1.36531
885.123	0.823807
888.016	0.66803
890.909	1.49332
893.801	1.41809
896.694	1.02369
899.587	0.050262
902.479	0.507896
905.372	0.50367
908.265	0.338829
911.158	0.880737
914.05	1.11825
916.943	0.693695
919.836	0.68763
922.728	1.36993
925.621	1.39134
928.514	1.61333
931.406	3.44184
934.299	1.89701
937.192	2.61861
940.085	1.9484
942.977	3.92839
945.87	1.49391
948.763	4.08096
951.655	4.36855
954.548	3.87927
957.441	3.6731
960.333	2.65089
963.226	4.34708
966.119	2.89326
969.011	2.55557
971.904	1.45821
974.797	0.300903
977.69	1.62511
980.582	0.755066
983.475	1.18936
986.368	0.840668
989.26	1.75354
992.153	2.81757
995.046	2.20085
997.938	6.07677
1000.83	7.95036
1003.72	10.0173
1006.62	10.6541
1009.51	11.1736
1012.4	13.102
1015.29	14.0227
1018.19	15.6141
1021.08	15.099
1023.97	11.6773
1026.87	12.4835
1029.76	9.96506
1032.65	5.82007
1035.54	4.84003
1038.44	3.15697
1041.33	2.05662
1044.22	1.48827
1047.11	0.382568
1050.01	2.01683
1052.9	0.079727
1055.79	0.439301
1058.68	0.52803
1061.58	1.47374
1064.47	0.056366
1067.36	0.500717
1070.26	2.32039
1073.15	3.03017
1076.04	1.21578
1078.93	1.19292
1081.83	0.026382
1084.72	2.71849
1087.61	1.05042
1090.51	2.70395
1093.4	2.67151
1096.29	1.18042
1099.18	2.08315
1102.08	1.68649
1104.97	0.981049
1107.86	1.0399
1110.75	1.76201
1113.65	0.110077
1116.54	1.39156
1119.43	2.29028
1122.33	1.76947
1125.22	2.68953
1128.11	0.983597
1131	1.88188
1133.89	0.778625
1136.79	0.805573
1139.68	1.70477
1142.57	2.11961
1145.47	0.97673
1148.36	3.33653
1151.25	0.340088
1154.14	0.678253
1157.04	0.791412
1159.93	2.82227
1162.82	1.92651
1165.71	0.967087
1168.61	1.62204
1171.5	0.42894
1174.39	4.2395
1177.29	0.805389
1180.18	2.89963
1183.07	4.23138
1185.96	2.36119
1188.86	2.23671
1191.75	2.19327
1194.64	2.09062
1197.54	0.320297
1200.43	1.14497
1203.32	2.9808
1206.21	2.08961
1209.11	0.018799
1212	2.30673
1214.89	0.98819
1217.78	1.48296
1220.68	1.30788
1223.57	0.328812
1226.46	1.11565
1229.35	0.089798
1232.25	1.13411
1235.14	1.39423
1238.03	1.4971
1240.92	1.9384
1243.82	2.45331
1246.71	0.831177
1249.6	3.16138
1252.5	0.866089
1255.39	2.95299
1258.28	1.91908
1261.17	1.87151
1264.07	3.88917
1266.96	2.4154
1269.85	3.42879
1272.74	2.33429
1275.64	3.79831
1278.53	0.766769
1281.42	0.991394
