Measurement: Raman, 780 nm, unoriented, Raman Data Processed
Mineral: Enargite
Rruff sample: R050442
Ideal chemistry: Cu_3_AsS_4_
Locality: Butte, Silver Bow County, Montana, USA
Source: University of Arizona Mineral Museum
Description: Black prismatic crystals associated with pyrite
Measured chemistry: Cu_2.98_As_0.97_Sb_0.03_S_4_
Raman shift (cm-1)	intensity
121.45	0
124.825	1.31047
128.2	2.34125
131.575	1.3121
134.95	1.94786
138.325	3.95543
141.699	5.62801
145.074	3.36316
148.449	5.43599
151.824	3.30989
155.199	6.50461
158.573	7.49931
161.948	6.81172
165.323	7.62584
168.698	6.24618
172.073	6.25378
175.447	6.15686
178.822	1.90805
182.197	0.958527
185.572	1.55144
188.947	1.29379
192.322	2.4554
195.696	2.35024
199.071	4.31111
202.446	1.26549
205.821	1.78064
209.196	1.0974
212.571	0.175125
215.945	0.859039
219.32	0.715439
222.695	0.662354
226.07	0.780228
229.445	2.96884
232.819	5.94919
236.194	10.4849
239.569	15.7603
242.944	25.7777
246.319	36.4851
249.694	48.8608
253.068	60.2292
256.443	72.3987
259.818	83.1656
263.193	88.58
266.567	85.9587
269.942	68.2343
273.317	52.0562
276.692	41.6865
280.067	30.4591
283.442	20.587
286.816	9.13869
290.191	6.02425
293.566	3.57742
296.941	1.40569
300.316	2.83078
303.69	0.223083
307.065	7.84525
310.44	19.9213
313.815	42.8783
317.19	85.7864
320.565	158.128
323.939	231.936
327.314	299.02
330.689	377.914
334.064	451.502
337.439	483.95
340.813	396.07
344.188	188.777
347.563	80.2749
350.938	34.0333
354.313	14.2042
357.688	3.95218
361.062	1.52032
364.437	5.08023
367.812	11.8631
371.187	22.7267
374.562	38.2295
377.937	56.7506
381.311	71.8983
384.686	81.7298
388.061	89.1796
391.436	95.6475
394.81	95.5445
398.185	78.1542
401.56	47.2048
404.935	30.05
408.31	25.7263
411.685	17.9499
415.059	11.3562
418.434	8.15826
421.809	5.12558
425.184	5.16507
428.559	1.06613
431.933	0.491516
435.308	0.12262
438.683	2.64981
442.058	2.45908
445.433	0.810486
448.808	1.07178
452.182	2.12808
455.557	3.42279
458.932	5.20981
462.307	3.8053
465.682	6.35019
469.057	3.00766
472.431	2.42972
475.806	1.88785
479.181	0.161865
482.556	1.71085
485.931	3.95453
489.305	4.55057
492.68	5.10879
496.055	7.30914
499.43	7.16214
502.805	5.77124
506.18	8.61792
509.554	11.3332
512.929	15.5433
516.304	21.2527
519.679	23.9031
523.054	28.4914
526.428	28.9563
529.803	33.5149
533.178	33.606
536.553	30.9441
539.928	29.7033
543.303	24.0164
546.677	20.0089
550.052	13.694
553.427	7.25659
556.802	3.14575
560.177	2.13712
563.551	1.647
566.926	1.80563
570.301	1.2727
573.676	0.874481
577.051	0.55368
580.426	3.41727
583.8	9.15485
587.175	16.0102
590.55	22.8023
593.925	31.0341
597.299	36.9651
600.674	42.3443
604.049	44.8751
607.424	46.2152
610.799	45.1416
614.174	39.3897
617.548	34.9035
620.923	33.0708
624.298	29.3556
627.673	24.0977
631.048	23.6904
634.423	23.0718
637.797	22.4797
641.172	28.926
644.547	39.5257
647.922	49.9607
651.297	65.8903
654.671	86.9302
658.046	117.458
661.421	154.346
664.796	193.902
668.171	231.108
671.545	259.43
674.92	271.736
678.295	247.468
681.67	199.88
685.045	146.463
688.42	98.4066
691.794	59.2473
695.169	29.6481
698.544	11.7754
701.919	0.117859
705.294	0.599884
708.668	2.51346
712.043	1.36762
715.418	2.30808
718.793	2.16104
722.168	4.44034
725.543	5.96493
728.917	7.47676
732.292	8.07968
735.667	4.87799
739.042	2.12848
742.417	0.683456
745.791	2.36093
749.166	0.402939
752.541	0.072418
755.916	2.11075
759.291	8.03915
762.665	10.4098
766.04	15.6966
769.415	17.1737
772.79	18.1217
776.165	19.6604
779.54	19.2772
782.914	20.9153
786.289	20.4897
789.664	18.2679
793.039	18.2974
796.414	12.339
799.788	6.58697
803.163	4.68909
806.538	1.94687
809.913	0.406189
813.288	1.00944
816.663	0.820908
820.037	0.25209
823.412	0.890961
826.787	1.24609
830.162	1.09187
833.537	1.28781
836.912	1.90002
840.286	2.29001
843.661	2.55682
847.036	1.88136
850.411	1.73799
853.786	1.49124
857.16	2.36668
860.535	4.12523
863.91	5.97478
867.285	4.095
870.66	2.76334
874.034	3.11997
877.409	4.99977
880.784	3.15564
884.159	3.31578
887.534	2.1523
890.909	1.35562
894.283	3.12245
897.658	2.40004
901.033	0.272339
904.408	1.0634
907.783	0.125763
911.158	1.6001
914.532	1.87839
917.907	1.26334
921.282	1.64511
924.657	2.52753
928.032	5.65219
931.406	5.19498
934.781	5.90909
938.156	6.87418
941.531	8.09378
944.906	8.47928
948.28	6.73898
951.655	7.52936
955.03	6.31894
958.405	6.37582
961.78	4.63702
965.154	4.96951
968.529	2.02936
971.904	0.108459
975.279	0.99939
978.654	3.18518
982.029	0.862213
985.403	3.01532
988.778	3.24979
992.153	3.069
995.528	7.42661
998.903	11.6117
1002.28	14.0974
1005.65	18.5843
1009.03	22.5864
1012.4	22.8346
1015.78	25.3292
1019.15	26.1667
1022.53	23.3972
1025.9	19.7778
1029.28	12.9015
1032.65	11.5249
1036.03	8.21387
1039.4	2.94501
1042.78	3.24985
1046.15	2.03949
1049.53	0.27533
1052.9	0.757202
1056.28	1.65125
1059.65	3.42178
1063.02	1.83878
1066.4	0.197144
1069.77	0.388092
1073.15	5.14774
1076.52	3.8353
1079.9	1.9935
1083.27	3.68094
1086.65	2.44217
1090.02	2.96793
1093.4	1.84055
1096.77	0.235077
1100.15	0.950287
1103.52	2.48758
1106.9	2.55688
1110.27	2.55411
1113.65	0.570068
1117.02	1.69635
1120.4	3.92221
1123.77	2.93793
1127.15	1.88245
1130.52	0.727509
1133.89	2.20984
1137.27	2.50635
1140.64	0.692169
1144.02	2.43625
1147.39	1.94742
1150.77	4.03705
1154.14	1.97098
1157.52	2.32458
1160.89	3.51663
1164.27	3.7543
1167.64	4.01547
1171.02	3.4476
1174.39	5.18201
1177.77	3.12369
1181.14	6.24716
1184.52	5.38705
1187.89	5.06934
1191.27	3.99619
1194.64	3.63925
1198.02	3.61023
1201.39	2.28891
1204.77	6.34692
1208.14	3.22244
1211.52	2.20709
1214.89	1.18198
1218.27	3.29147
1221.64	0.133118
1225.02	1.58423
1228.39	1.31451
1231.77	0.127991
1235.14	1.76508
1238.52	0.649536
1241.89	1.88025
1245.26	2.97083
1248.64	4.97687
1252.01	2.8844
1255.39	4.5661
1258.76	2.91595
1262.14	6.09564
1265.51	5.71991
1268.89	2.81244
1272.26	0.763
1275.64	2.0144
1279.01	0.142151
