Measurement: Raman, 785 nm, unoriented, Raman Data Processed
Mineral: Enargite
Rruff sample: R070176
Ideal chemistry: Cu_3_AsS_4_
Locality: Zuni Mine (Zu√±i Mine), Anvil Mountain, Silverton, Silverton District, San Juan County, Colorado, USA
Source: Michael Scott
Description: Massive fine grained dark gray metallic, associated with zunyite
Raman shift (cm-1)	intensity
138.184	0
141.076	3.8103
143.969	88.4769
146.862	263.638
149.754	399.93
152.647	364.793
155.54	303.787
158.432	232.154
161.325	273.325
164.218	364.259
167.111	456.785
170.003	451.02
172.896	456.29
175.789	354.548
178.681	343.949
181.574	331.63
184.467	328.68
187.359	367.056
190.252	348.393
193.145	319.338
196.037	307.58
198.93	338.625
201.823	251.328
204.716	229.108
207.608	152.236
210.501	153.016
213.394	102.914
216.286	71.3091
219.179	41.9468
222.072	33.4273
224.964	29.9419
227.857	1.3457
230.75	16.6055
233.643	9.42676
236.535	15.6973
239.428	50.9946
242.321	99.0654
245.213	237.75
248.106	392.362
250.999	500.335
253.892	627.832
256.784	874.178
259.677	1089.42
262.57	1270.22
265.462	1407.75
268.355	1299.47
271.248	991.687
274.14	842.46
277.033	685.788
279.926	564.669
282.818	380.588
285.711	257.16
288.604	245.615
291.497	187.96
294.389	115.186
297.282	44.9609
300.175	52.7168
303.067	18.6167
305.96	54.727
308.853	221.797
311.745	372.805
314.638	682.271
317.531	980.665
320.424	1720.62
323.316	2894.64
326.209	4596.32
329.102	6406.77
331.994	8583.3
334.887	11973.1
337.78	15853.3
340.673	15032.8
343.565	8193.94
346.458	3406.43
349.351	1571.53
352.243	726.333
355.136	352.066
358.029	124.853
360.921	80.166
363.814	42.7461
366.707	20.2129
369.599	16.2124
372.492	138.027
375.385	266.233
378.278	359.867
381.17	431.025
384.063	552.181
386.956	609.361
389.848	689.422
392.741	838.085
395.634	989.813
398.526	941.192
401.419	566.36
404.312	308.8
407.205	244.152
410.097	216.359
412.99	205.746
415.883	102.572
418.775	96.979
421.668	46.3677
424.561	47.8267
427.454	2.15478
430.346	44.9688
433.239	7.59521
436.132	45.75
439.024	0.805176
441.917	33.6372
444.81	67.793
447.702	42.6519
450.595	47.3018
453.488	53.9961
456.38	100.362
459.273	63.9531
462.166	81.2402
465.059	63.7461
467.951	70.7285
470.844	61.8696
473.737	110.406
476.629	70.4482
479.522	73.6245
482.415	30.7109
485.308	57.9404
488.2	74.3838
491.093	27.6665
493.986	74.2329
496.878	10.4937
499.771	21.0708
502.664	26.4399
505.556	19.0977
508.449	29.373
511.342	86.6362
514.235	85.8418
517.127	88.6494
520.02	96.8887
522.913	99.9507
525.805	171.762
528.698	203.827
531.591	157.271
534.483	142.774
537.376	123.092
540.269	104.679
543.162	124.4
546.054	85.7119
548.947	66.9644
551.84	89.1221
554.732	13.5669
557.625	18.7598
560.518	64.4585
563.41	36.6548
566.303	14.7969
569.196	68.4795
572.088	54.0757
574.981	15.0034
577.874	19.6006
580.767	56.1221
583.659	67.2549
586.552	80.0615
589.445	60.707
592.337	63.3506
595.23	89.1309
598.123	179.72
601.015	169.101
603.908	180.069
606.801	208.088
609.694	156.587
612.586	163.168
615.479	133.612
618.372	127.561
621.264	150.501
624.157	129.997
627.05	140.533
629.942	99.8213
632.835	25.585
635.728	28.415
638.621	9.09375
641.513	14.044
644.406	5.4668
647.299	47.7363
650.191	75.5596
653.084	86.0186
655.977	217.234
658.87	313.664
661.762	425.573
664.655	466.245
667.548	641.707
670.44	735.749
673.333	879.57
676.226	1045.78
679.118	1039.72
682.011	957.731
684.904	792.696
687.797	566.155
690.689	427.062
693.582	245.44
696.475	156.043
699.367	142.859
702.26	95.6475
705.153	33.0557
708.045	9.91992
710.938	18.0332
713.831	51.9365
716.723	33.0059
719.616	54.3008
722.509	56.7344
725.402	84.542
728.294	96.6318
731.187	86.1103
734.08	52.8633
736.972	119.348
739.865	68.751
742.758	60.4355
745.65	55.6162
748.543	72.7754
751.436	87.5859
754.329	7.94043
757.221	51.2266
760.114	36.833
763.007	3.5957
765.899	123.42
768.792	137.872
771.685	131.594
774.577	76.7119
777.47	203.601
780.363	87.8281
783.256	87.4648
786.148	221.215
789.041	105.01
791.934	75.0918
794.826	95.957
797.719	207.552
800.612	132.656
803.505	54.2637
806.397	84.5938
809.29	118.747
812.183	26.1768
815.075	47.1309
817.968	68.666
820.861	122.281
823.753	26.998
826.646	26.7676
829.539	105.193
832.432	40.125
835.324	69.0098
838.217	26.75
841.11	77.6348
844.002	129.902
846.895	21.6797
849.788	60.5273
852.68	109.494
855.573	138.654
858.466	114.506
861.359	71.3301
864.251	132.217
867.144	61.4688
870.037	2.50195
872.929	115.791
875.822	33.373
878.715	31.291
881.607	112.506
884.5	36.25
887.393	23.002
890.285	81.6523
893.178	27.1816
896.071	53.6172
898.964	96.9297
901.856	113.014
904.749	55.043
907.642	102.311
910.534	94.6465
913.427	140.445
916.32	88.0664
919.212	93.9805
922.105	16.2578
924.998	15.6992
927.891	22.1641
930.783	53.5859
933.676	95.9394
936.569	66.1309
939.461	167.055
942.354	50.0801
945.247	141.016
948.139	11.4258
951.032	133.711
953.925	212.525
956.818	129.059
959.71	108.377
962.603	118.799
965.496	129.586
968.388	88.7246
971.281	78.9062
974.174	70.5195
977.067	105.998
979.959	66.3125
982.852	28.9023
985.745	96.6289
988.637	121.772
991.53	26.9355
994.423	85.1875
997.315	20.2363
1000.21	48.1992
1003.1	26.1426
1005.99	216.852
1008.89	128.606
1011.78	223.684
1014.67	168.291
1017.56	223.004
1020.46	282.598
1023.35	220.748
1026.24	220.518
1029.13	244.377
1032.03	2.06836
1034.92	111.602
1037.81	151.18
1040.71	117.57
1043.6	110.971
1046.49	156.291
1049.38	90.8066
1052.28	134.221
1055.17	188.957
1058.06	157.242
1060.95	104.488
1063.85	176.215
1066.74	132.312
1069.63	77.4883
1072.53	134.102
1075.42	229.379
1078.31	212.312
1081.2	268.938
1084.1	208.152
1086.99	287.988
1089.88	240.023
1092.77	80.7422
1095.67	89.3477
1098.56	148.594
1101.45	123.625
1104.35	35.7305
1107.24	59.2539
1110.13	144.465
1113.02	110.246
1115.92	210.32
1118.81	237.93
1121.7	65.5742
1124.59	72.6289
1127.49	221.062
1130.38	42.3516
1133.27	34.957
1136.16	3.66406
1139.06	149.754
1141.95	242.363
1144.84	245.496
1147.74	320.07
1150.63	355.066
1153.52	277.828
1156.41	324.957
1159.31	263.106
1162.2	225.418
1165.09	169.809
1167.98	219.523
1170.88	358.391
1173.77	110.644
1176.66	334.508
1179.56	317.766
1182.45	165.699
1185.34	96.6562
1188.23	171.394
1191.13	76.8359
