Measurement: Raman, 532 nm, unoriented, Raman Data Processed
Mineral: Enargite
Rruff sample: R050373
Ideal chemistry: Cu_3_AsS_4_
Locality: Butte, Silver Bow County, Montana, USA
Source: Eugene Schlepp
Description: Black tabular crystals associated with quartz
Measured chemistry: Cu_2.97_As_0.96_Sb_0.01_S_4_
Raman shift (cm-1)	intensity
113.567	0
116.942	4.93267
120.316	7.97973
123.691	23.0987
127.066	17.6284
130.441	29.2216
133.816	33.0564
137.19	35.8279
140.565	37.1408
143.94	24.3697
147.315	25.8755
150.69	22.8604
154.065	27.0629
157.439	25.6348
160.814	26.3193
164.189	31.7582
167.564	29.0492
170.939	23.1354
174.313	14.0502
177.688	9.85736
181.063	6.46751
184.438	4.85622
187.813	4.44476
191.187	0.049301
194.562	1.96082
197.937	0.520622
201.312	0.10453
204.687	2.23447
208.061	1.7701
211.436	2.69586
214.811	0.95697
218.186	0.317604
221.561	1.37817
224.936	0.942337
228.31	3.85905
231.685	9.28899
235.06	15.2151
238.435	22.9888
241.81	35.8265
245.185	46.1157
248.559	57.5622
251.934	67.945
255.309	86.9819
258.684	103.77
262.059	116.975
265.433	109.395
268.808	90.1276
272.183	70.3446
275.558	58.3628
278.933	44.1225
282.308	29.5143
285.682	16.604
289.057	8.46194
292.432	8.11851
295.807	10.4152
299.182	22.1761
302.556	34.9488
305.931	36.6307
309.306	31.4636
312.681	27.4374
316.056	39.8451
319.43	62.9099
322.805	99.802
326.18	140.836
329.555	197.892
332.93	284.176
336.305	372.374
339.679	334.298
343.054	169.177
346.429	60.0958
349.804	15.0425
353.179	1.21214
356.553	3.80936
359.928	2.22315
363.303	20.6865
366.678	43.9907
370.053	80.986
373.428	121.431
376.802	150.559
380.177	150.735
383.552	124.681
386.927	65.9021
390.302	28.1646
393.676	16.0354
397.051	11.6237
400.426	8.23602
403.801	6.31806
407.176	5.78142
410.55	2.89901
413.925	0.944199
417.3	1.37128
420.675	0.907322
424.05	0.817703
427.425	0.806931
430.799	2.24017
434.174	3.93144
437.549	4.29663
440.924	5.69871
444.299	4.411
447.673	3.27991
451.048	3.97206
454.423	2.88929
457.798	3.82742
461.173	5.11166
464.548	5.45091
467.922	4.57349
471.297	5.29738
474.672	5.05021
478.047	4.62327
481.422	3.71758
484.796	3.13959
488.171	1.81136
491.546	1.43629
494.921	0.486572
498.296	0.936348
501.671	2.32405
505.045	1.22797
508.42	1.91717
511.795	0.953617
515.17	1.88143
518.545	0.616592
521.919	1.18302
525.294	2.35366
528.669	3.00199
532.044	2.21389
535.419	2.97258
538.794	1.78955
542.168	2.32417
545.543	3.08487
548.918	0.587223
552.293	1.21855
555.668	1.50507
559.043	0.937172
562.417	0.931728
565.792	0.226772
569.167	0.453224
572.542	0.589001
575.917	0.905056
579.291	0.581081
582.666	2.11351
586.041	2.76999
589.416	1.30839
592.791	3.41875
596.165	5.03129
599.54	4.85721
602.915	5.56452
606.29	5.28785
609.665	5.91437
613.039	5.15032
616.414	4.61715
619.789	3.82075
623.164	3.6878
626.539	2.70887
629.914	1.27771
633.288	1.12404
636.663	0.460831
640.038	1.46967
643.413	0.483624
646.788	1.08969
650.163	2.3503
653.537	3.11729
656.912	5.69323
660.287	7.9076
663.662	10.9751
667.037	13.6189
670.411	18.7713
673.786	20.2885
677.161	20.4913
680.536	18.1232
683.911	14.6529
687.285	10.0714
690.66	4.80685
694.035	0.719604
697.41	0.348873
700.785	0.174225
704.159	1.23445
707.534	2.68815
710.909	4.89068
714.284	7.838
717.659	8.52533
721.034	9.85964
724.408	9.33517
727.783	9.63653
731.158	6.67591
734.533	5.59663
737.908	3.01709
741.283	2.08543
744.657	1.48636
748.032	0.678593
751.407	0.41716
754.782	1.80545
758.157	0.592995
761.531	1.9236
764.906	0.888248
768.281	1.21071
771.656	0.373116
775.031	2.3312
778.405	0.351036
781.78	0.572933
785.155	0.259148
788.53	0.276787
791.905	1.05408
795.28	0.823536
798.654	0.006413
802.029	0.101936
805.404	0.712059
808.779	0.560852
812.154	0.69503
815.529	1.12793
818.903	0.986107
822.278	2.02385
825.653	1.76141
829.028	0.995621
832.403	2.84882
835.777	2.82564
839.152	2.37866
842.527	2.92692
845.902	1.74947
849.277	2.5936
852.652	1.56558
856.026	1.86527
859.401	2.69285
862.776	2.71314
866.151	3.25632
869.526	1.34118
872.9	1.89444
876.275	1.76683
879.65	1.21795
883.025	0.86565
886.4	0.718571
889.774	1.76998
893.149	1.1394
896.524	1.39331
899.899	0.10807
903.274	1.1082
906.649	0.709305
910.023	1.24744
913.398	0.457783
916.773	0.803051
920.148	0.59881
923.523	0.012562
926.898	2.03667
930.272	1.68534
933.647	0.996758
937.022	1.24719
940.397	1.73026
943.771	0.24712
947.146	1.51976
950.521	1.93462
953.896	1.4958
957.271	1.80913
960.646	1.03611
964.02	1.03194
967.395	0.481232
970.77	0.733269
974.145	0.216896
977.52	0.448486
980.894	0.789753
984.269	0.470844
987.644	0.412865
991.019	1.37383
994.394	1.39327
997.769	1.81744
1001.14	2.91812
1004.52	4.09766
1007.89	3.94782
1011.27	5.63359
1014.64	6.64813
1018.02	6.0012
1021.39	5.34623
1024.77	5.3361
1028.14	4.13232
1031.52	2.57822
1034.89	1.68912
1038.27	1.12133
1041.64	0.842934
1045.02	0.894045
1048.39	1.38885
1051.77	2.77573
1055.14	1.36523
1058.52	2.44388
1061.89	2.44132
1065.27	3.29747
1068.64	1.93025
1072.02	2.5058
1075.39	1.66229
1078.76	1.44132
1082.14	1.06401
1085.51	1.15192
1088.89	0.387423
1092.26	0.083073
1095.64	1.23403
1099.01	0.778839
1102.39	0.657654
1105.76	0.476484
1109.14	1.4329
1112.51	0.235384
1115.89	0.159676
1119.26	0.031666
1122.64	0.178894
1126.01	0.864473
1129.39	0.848534
1132.76	1.10812
1136.14	0.885105
1139.51	1.47689
1142.89	0.706375
1146.26	0.942499
1149.63	0.876844
1153.01	0.956133
1156.38	0.607449
1159.76	0.647518
1163.13	1.5984
1166.51	0.456129
1169.88	0.363321
1173.26	1.35831
1176.63	1.27509
1180.01	1.66168
1183.38	0.450443
1186.76	0.80184
1190.13	0.619265
1193.51	0.942425
1196.88	0.925127
1200.26	0.353266
1203.63	0.915295
1207.01	2.06144
1210.38	1.92387
1213.76	2.27166
1217.13	1.60559
1220.51	1.65906
1223.88	0.220837
1227.26	1.16446
1230.63	1.17626
1234.01	2.09734
1237.38	0.498507
1240.76	1.39187
1244.13	1.452
1247.51	1.72548
1250.88	0.052015
1254.26	0.696682
1257.63	0.449398
1261	2.25733
1264.38	0.912489
1267.75	0.972015
1271.13	1.50792
1274.5	1.04126
1277.88	2.14396
