Measurement: Raman, 532 nm, unoriented, Raman Data Processed
Mineral: Enargite
Rruff sample: R050435
Ideal chemistry: Cu_3_AsS_4_
Locality: Longfellow mine, Red Mountain Pass, Ouray, Colorado, USA
Source: University of Arizona Mineral Museum
Description: Grayish black prismatic crystals
Measured chemistry: Cu_2.97_As_0.95_Sb_0.02_S_4_
Raman shift (cm-1)	intensity
128.03	0
131.405	2.9083
134.78	7.91968
138.155	15.1994
141.529	11.8844
144.904	13.1484
148.279	20.2189
151.654	18.5203
155.029	21.8749
158.404	21.7243
161.778	21.9663
165.153	24.203
168.528	19.881
171.903	17.6433
175.278	9.54975
178.652	5.20476
182.027	2.07671
185.402	2.08883
188.777	0.071693
192.152	0.513474
195.526	0.020767
198.901	0.70269
202.276	0.500008
205.651	0.742569
209.026	3.79789
212.401	2.85821
215.775	3.33076
219.15	2.81451
222.525	5.88274
225.9	10.0859
229.275	14.7815
232.649	23.7036
236.024	33.4574
239.399	44.9339
242.774	59.6746
246.149	75.5009
249.524	87.8256
252.898	108.175
256.273	123.871
259.648	144.248
263.023	136.562
266.398	104.066
269.772	65.3266
273.147	38.0558
276.522	19.377
279.897	5.83432
283.272	0.927185
286.647	2.06226
290.021	0.880699
293.396	0.504868
296.771	6.12688
300.146	12.7395
303.521	24.1242
306.895	30.2702
310.27	35.6388
313.645	50.3438
317.02	83.8364
320.395	144.834
323.769	205.834
327.144	270.878
330.519	374.912
333.894	525.362
337.269	602.379
340.644	408.274
344.018	159.57
347.393	52.5338
350.768	16.8112
354.143	12.0859
357.518	16.3482
360.892	37.9244
364.267	76.7527
367.642	124.444
371.017	153.517
374.392	151.092
377.767	195.852
381.141	199.985
384.516	98.2199
387.891	33.2753
391.266	13.5824
394.641	5.37643
398.015	2.37771
401.39	2.75876
404.765	3.12672
408.14	0.959213
411.515	0.182785
414.89	2.20707
418.264	2.35849
421.639	0.794563
425.014	0.893745
428.389	2.89022
431.764	5.06273
435.139	6.30677
438.513	6.20798
441.888	7.34141
445.263	4.82906
448.638	5.34345
452.012	5.67099
455.387	5.91779
458.762	6.44478
462.137	7.12523
465.512	6.30502
468.887	7.61261
472.261	5.92668
475.636	4.90213
479.011	3.08149
482.386	2.79544
485.761	2.23116
489.135	2.04225
492.51	2.69199
495.885	2.21369
499.26	0.579842
502.635	1.40877
506.01	1.83223
509.384	2.05654
512.759	1.70152
516.134	2.47958
519.509	2.82034
522.884	2.87957
526.259	3.34483
529.633	3.56531
533.008	2.76231
536.383	3.3024
539.758	2.20834
543.133	2.9669
546.507	1.26726
549.882	0.090069
553.257	1.54178
556.632	0.694706
560.007	0.472111
563.381	0.561966
566.756	0.655785
570.131	1.05984
573.506	0.478714
576.881	0.678341
580.256	2.09478
583.63	2.24138
587.005	1.89862
590.38	4.88696
593.755	5.98216
597.13	5.71254
600.505	6.91029
603.879	6.95735
607.254	5.28734
610.629	4.97427
614.004	4.46346
617.379	4.72093
620.753	4.04253
624.128	3.0976
627.503	2.56762
630.878	1.64004
634.253	0.68552
637.627	0.245842
641.002	0.410851
644.377	0.244877
647.752	2.032
651.127	2.22866
654.501	4.70196
657.876	6.11381
661.251	9.80733
664.626	13.7003
668.001	17.9016
671.376	20.7382
674.75	20.7137
678.125	22.2342
681.5	17.2075
684.875	14.2085
688.25	8.1533
691.625	4.75727
694.999	1.54358
698.374	1.24329
701.749	1.52823
705.124	2.21101
708.499	3.83574
711.873	6.14423
715.248	6.90161
718.623	7.76558
721.998	7.82975
725.373	8.05049
728.747	6.03567
732.122	4.3144
735.497	1.62698
738.872	2.19089
742.247	0.228531
745.622	0.996254
748.996	2.72379
752.371	0.664398
755.746	1.39838
759.121	1.7498
762.496	3.08056
765.87	2.4455
769.245	2.1373
772.62	2.16493
775.995	2.65313
779.37	1.56245
782.745	1.66414
786.119	1.35041
789.494	0.534397
792.869	0.248272
796.244	1.46801
799.619	0.110264
802.994	0.655293
806.368	0.245838
809.743	0.765854
813.118	1.08782
816.493	2.74986
819.868	1.756
823.242	3.80935
826.617	0.002548
829.992	3.35296
833.367	2.58448
836.742	3.17451
840.116	2.91691
843.491	3.0938
846.866	2.47831
850.241	2.11551
853.616	3.11705
856.99	2.2324
860.365	3.10819
863.74	3.93542
867.115	2.08133
870.49	2.39067
873.865	2.41907
877.239	1.96232
880.614	1.37347
883.989	1.85503
887.364	1.50918
890.739	2.33804
894.114	1.43679
897.488	0.047791
900.863	0.860695
904.238	0.564072
907.613	1.1778
910.988	0.256233
914.362	0.201702
917.737	0.663887
921.112	0.771511
924.487	0.544601
927.862	0.790535
931.236	0.815369
934.611	2.73062
937.986	1.17298
941.361	0.780125
944.736	1.45651
948.111	1.76163
951.485	1.11921
954.86	2.48857
958.235	1.20847
961.61	0.943794
964.985	0.282307
968.36	1.16731
971.734	1.82355
975.109	0.607262
978.484	0.748108
981.859	0.033588
985.234	0.90538
988.608	0.904392
991.983	1.75871
995.358	2.57291
998.733	2.95329
1002.11	2.54271
1005.48	2.51535
1008.86	3.90386
1012.23	5.06343
1015.61	5.60704
1018.98	4.63449
1022.36	4.49955
1025.73	3.87815
1029.11	2.42129
1032.48	3.4436
1035.86	1.17055
1039.23	2.26394
1042.61	0.927612
1045.98	2.39745
1049.36	2.08351
1052.73	1.94113
1056.11	2.19563
1059.48	3.20691
1062.85	1.73241
1066.23	2.22317
1069.6	2.18079
1072.98	2.30067
1076.35	1.24647
1079.73	1.65902
1083.1	0.940523
1086.48	1.32896
1089.85	0.263206
1093.23	0.100954
1096.6	0.215103
1099.98	1.42205
1103.35	0.67194
1106.73	1.20293
1110.1	1.76724
1113.48	1.3397
1116.85	1.56734
1120.23	0.772587
1123.6	0.145773
1126.98	0.749931
1130.35	1.24019
1133.72	2.70103
1137.1	1.74047
1140.47	1.1247
1143.85	0.732414
1147.22	0.782541
1150.6	0.376482
1153.97	1.57702
1157.35	1.67112
1160.72	2.11388
1164.1	1.45578
1167.47	0.071081
1170.85	0.904417
1174.22	2.60604
1177.6	0.384495
1180.97	0.760605
1184.35	2.23385
1187.72	1.68243
1191.1	0.781063
1194.47	0.015539
1197.85	0.697821
1201.22	1.4507
1204.6	2.18795
1207.97	0.228319
1211.35	2.04517
1214.72	1.57466
1218.1	0.88114
1221.47	1.36116
1224.85	1.06448
1228.22	1.89976
1231.6	1.29698
1234.97	0.413538
1238.35	1.05796
1241.72	0.294743
1245.09	0.756235
1248.47	1.10951
1251.84	1.89872
1255.22	1.35696
1258.59	3.16346
1261.97	0.32378
1265.34	2.03198
1268.72	1.25789
1272.09	2.86442
1275.47	0.216
1278.84	1.4743
1282.22	2.3379
1285.59	0.790771
1288.97	0.7099
1292.34	0.640882
1295.72	0.395618
1299.09	1.01454
1302.47	0.441906
