Measurement: Raman, 514 nm, unoriented, Raman Data Processed
Mineral: Enargite
Rruff sample: R050442
Ideal chemistry: Cu_3_AsS_4_
Locality: Butte, Silver Bow County, Montana, USA
Source: University of Arizona Mineral Museum
Description: Black prismatic crystals associated with pyrite
Measured chemistry: Cu_2.98_As_0.97_Sb_0.03_S_4_
Raman shift (cm-1)	intensity
143.401	0
147.557	64.054
151.711	90.171
155.863	249.854
160.013	310.226
164.161	560.781
168.308	458.109
172.452	363.308
176.594	159.412
180.734	79.086
184.872	104.53
189.008	74.555
193.143	152.834
197.275	136.17
201.405	103.709
205.534	234.333
209.66	135.881
213.784	234.458
217.907	92.701
222.027	58.006
226.146	1.623
230.263	0.176
234.377	38.431
238.49	96.901
242.601	222.408
246.709	392.82
250.816	673.944
254.921	1106.75
259.024	1966.29
263.125	2563.56
267.224	2476.16
271.321	2159.97
275.416	1603.53
279.51	1075.15
283.601	557.281
287.69	395.741
291.778	276.861
295.863	182.944
299.947	125.431
304.029	186.331
308.108	289.034
312.186	534.369
316.262	819.622
320.336	1188.26
324.408	1991.09
328.478	3355.45
332.546	7362.61
336.612	11668.6
340.677	8337.6
344.739	3308.99
348.799	1145.9
352.858	576.347
356.915	266.221
360.969	241.22
365.022	327.052
369.073	473.106
373.122	1040.59
377.169	2613.02
381.215	5233.95
385.258	3952.78
389.299	1745.75
393.339	619.297
397.376	360.5
401.412	284.16
405.446	123.576
409.478	181.801
413.508	78.27
417.536	12.383
421.562	39.406
425.586	7.5
429.609	17.222
433.629	42.773
437.648	11.182
441.665	55.261
445.68	30.598
449.693	8.511
453.704	31.67
457.713	24.925
461.721	3.398
465.726	8.86
469.73	21.2
473.731	70.068
477.731	8.228
481.729	22.346
485.725	9.697
489.72	93.9
493.712	67.963
497.703	74.882
501.691	24.686
505.678	88.359
509.663	22.934
513.646	2.577
517.627	59.846
521.607	55.206
525.584	100.479
529.56	41.68
533.534	89.793
537.506	74.835
541.476	77.812
545.444	125.843
549.41	117.945
553.375	76.49
557.337	64.246
561.298	79.366
565.257	1.647
569.214	86.322
573.17	96.163
577.123	47.571
581.075	36.085
585.024	32.352
588.972	60.614
592.918	57.381
596.863	84.314
600.805	88.982
604.746	100.475
608.685	102.001
612.621	95.769
616.557	95.501
620.49	94.264
624.421	56.983
628.351	127.99
632.279	85.176
636.205	63.457
640.129	67.909
644.051	82.563
647.972	141.707
651.89	94.453
655.807	153.397
659.722	216.577
663.636	248.145
667.547	362.426
671.457	455.666
675.365	476.985
679.271	464.025
683.175	419.229
687.077	295.227
690.978	171.682
694.877	67.492
698.774	35.73
702.669	115.478
706.562	141.804
710.454	241.01
714.344	305.45
718.232	285.499
722.118	356.738
726.002	276.666
729.885	255.232
733.766	184.284
737.645	187
741.522	123.905
745.397	101.032
749.271	32.075
753.143	101.076
757.013	120.067
760.881	55.037
764.748	58.991
768.613	74.854
772.476	87.815
776.337	48.762
780.196	86.909
784.054	62.734
787.91	30.35
791.764	28.466
795.616	2.184
799.467	26.097
803.316	18.545
807.163	44.157
811.008	25.731
814.851	44.25
818.693	18.747
822.533	16.782
826.371	16.362
830.208	2.992
834.042	37.304
837.875	12.404
841.706	85.843
845.536	22.068
849.363	39.257
853.189	27.621
857.013	25.462
860.836	16.519
864.656	56.538
868.475	24.534
872.292	63.493
876.108	9.403
879.922	55.289
883.733	69.154
887.544	37.991
891.352	77.834
895.159	83.668
898.964	62.489
902.767	77.239
906.568	79.013
910.368	100.822
914.166	76.626
917.962	83.415
921.757	179.159
925.55	95.886
929.341	86.43
933.13	134.156
936.918	113.785
940.703	142.825
944.488	124.269
948.27	113.593
952.051	119.366
955.83	156.609
959.607	127.044
963.383	184.618
967.156	167.175
970.928	189.702
974.699	169.091
978.468	219.964
982.234	199.17
986	230.746
989.763	253.343
993.525	226.939
997.285	237.835
1001.04	277.854
1004.8	265.662
1008.55	254.941
1012.31	303.637
1016.06	285.33
1019.81	295.782
1023.56	275.657
1027.31	257.269
1031.05	219.372
1034.79	283.768
1038.53	177.23
1042.27	280.126
1046.01	227.795
1049.75	221.9
1053.48	259.406
1057.22	273.088
1060.95	309.558
1064.68	312.188
1068.4	279.116
1072.13	213.712
1075.86	251.185
1079.58	213.806
1083.3	193.183
1087.02	179.743
1090.74	188.959
1094.45	152.821
1098.17	123.406
1101.88	113.016
1105.59	100.099
1109.3	129.933
1113.01	90.629
1116.71	69.171
1120.42	129.364
1124.12	86.055
1127.82	84.806
1131.52	103.676
1135.22	98.831
1138.91	83.499
1142.61	103.625
1146.3	67.878
1149.99	86.461
1153.68	35.721
1157.37	16.738
1161.06	21.155
1164.74	8.525
1168.42	44.744
1172.1	35.002
1175.78	110.132
1179.46	5.749
1183.14	18.592
1186.81	17.459
1190.48	30.418
1194.15	5.859
1197.83	54.796
1201.49	37.392
1205.16	102.927
1208.82	45.623
1212.49	13.066
1216.15	39.11
1219.81	47.678
1223.46	22.914
1227.12	3.101
1230.78	31.223
1234.43	53.278
1238.08	52.467
1241.73	33.423
1245.38	9.901
1249.03	67.813
1252.67	17.391
1256.31	10.046
1259.95	53.097
1263.6	45.713
1267.23	57.207
1270.87	22.601
1274.51	68.92
1278.14	17.171
1281.77	61.345
1285.4	19.439
1289.03	59.473
1292.66	19.416
1296.28	11.096
1299.91	14.103
1303.53	18.861
1307.15	23.376
1310.77	3.886
1314.38	62.342
1318	27.757
1321.61	85.955
1325.23	0.825
1328.84	42.423
1332.45	23.534
1336.06	60.665
1339.66	72.541
1343.27	99.415
1346.87	101.523
1350.47	115.536
1354.07	94.578
1357.67	67.296
1361.26	113.886
1364.86	42.672
1368.45	49.431
1372.04	98.973
1375.63	97.672
1379.22	3.19
1382.81	88.423
1386.39	103.792
1389.98	97.609
1393.56	105.583
1397.14	78.881
1400.72	78.037
1404.3	105.884
1407.87	12.423
1411.45	84.35
1415.02	88.955
1418.59	98.934
1422.16	85.956
1425.73	79.345
1429.29	73.67
1432.86	78.915
1436.42	116.843
1439.98	126.975
1443.54	16.033
1447.1	120.052
1450.66	94.601
1454.21	72.538
1457.77	5.512
1461.32	123.495
1464.87	40.422
1468.42	64.546
1471.96	129.881
1475.51	65.364
1479.06	50.045
1482.6	71.863
1486.14	54.905
1489.68	44.221
1493.22	21.896
1496.75	50.296
1500.29	24.451
1503.82	15.829
1507.35	4.256
1510.88	47.863
1514.41	0
