Measurement: Raman, 532 nm, unoriented, Raman Data Processed
Mineral: Enargite
Rruff sample: R070176
Ideal chemistry: Cu_3_AsS_4_
Locality: Zuni Mine (Zu√±i Mine), Anvil Mountain, Silverton, Silverton District, San Juan County, Colorado, USA
Source: Michael Scott
Description: Massive fine grained dark gray metallic, associated with zunyite
Raman shift (cm-1)	intensity
136.682	0
140.057	11.4203
143.432	5.62326
146.807	10.989
150.182	20.113
153.556	21.7481
156.931	30.6762
160.306	41.2769
163.681	40.9017
167.056	37.283
170.43	85.9571
173.805	47.1321
177.18	16.9143
180.555	13.7703
183.93	12.3851
187.305	29.7647
190.679	18.544
194.054	2.92107
197.429	18.4223
200.804	0.206848
204.179	17.6906
207.553	10.724
210.928	10.8307
214.303	4.75009
217.678	0.926575
221.053	10.6093
224.428	17.712
227.802	12.7564
231.177	24.8462
234.552	24.3229
237.927	37.6145
241.302	67.807
244.676	76.1172
248.051	121.258
251.426	134.039
254.801	237.848
258.176	271.977
261.55	359.759
264.925	348.179
268.3	266.934
271.675	228.04
275.05	183.968
278.425	135.909
281.799	96.4688
285.174	49.0041
288.549	2.6076
291.924	20.2734
295.299	21.0018
298.673	23.901
302.048	40.3178
305.423	72.3052
308.798	68.1621
312.173	47.6716
315.548	33.8337
318.922	61.8569
322.297	103.072
325.672	224.716
329.047	361.001
332.421	568.22
335.796	815.505
339.171	1050.46
342.546	712.739
345.921	334.275
349.296	123.472
352.67	12.459
356.045	12.0678
359.42	0.822144
362.795	40.8723
366.17	42.5519
369.545	149.218
372.919	256.74
376.294	364.39
379.669	379.744
383.044	354.653
386.418	326.552
389.793	145.586
393.168	68.6548
396.543	34.4511
399.918	51.2046
403.293	36.8548
406.667	48.2435
410.042	13.3339
413.417	27.4398
416.792	8.50398
420.167	13.1653
423.541	16.9195
426.916	1.41753
430.291	0.116074
433.666	21.8251
437.041	28.0896
440.416	22.771
443.79	12.4952
447.165	27.61
450.54	43.2414
453.915	5.09012
457.29	20.7817
460.664	13.2643
464.039	30.7635
467.414	2.63945
470.789	23.866
474.164	14.8728
477.538	32.4372
480.913	19.3657
484.288	26.1134
487.663	27.0859
491.038	27.338
494.413	34.5838
497.787	31.7882
501.162	20.9806
504.537	15.8181
507.912	15.0596
511.287	0.390381
514.662	7.26732
518.036	26.5829
521.411	4.91832
524.786	27.9448
528.161	16.9364
531.536	30.2775
534.91	34.4645
538.285	47.2602
541.66	20.3634
545.035	13.6332
548.41	31.459
551.784	8.91486
555.159	15.0432
558.534	14.9269
561.909	2.24853
565.284	17.1107
568.659	2.5321
572.033	16.8881
575.408	21.6361
578.783	5.01129
582.158	2.94292
585.533	16.3712
588.907	4.11543
592.282	15.7976
595.657	16.832
599.032	0.129074
602.407	31.2003
605.781	28.9918
609.156	23.6411
612.531	32.4743
615.906	30.5952
619.281	11.2381
622.655	4.68388
626.03	21.6055
629.405	25.911
632.78	1.06903
636.155	8.56789
639.53	25.9968
642.904	18.8856
646.279	9.34163
649.654	4.76254
653.029	15.0648
656.404	1.82632
659.779	29.383
663.153	31.1953
666.528	44.1745
669.903	49.8736
673.278	79.7209
676.653	79.5343
680.027	91.2854
683.402	68.6857
686.777	62.6414
690.152	42.2326
693.527	22.1924
696.901	26.321
700.276	13.4952
703.651	6.93234
707.026	1.90683
710.401	10.0854
713.775	42.2773
717.15	36.3584
720.525	46.9505
723.9	48.5391
727.275	39.9091
730.649	40.3281
734.024	24.3771
737.399	18.1241
740.774	3.22125
744.149	11.9628
747.524	24.2987
750.898	10.2688
754.273	6.93036
757.648	25.1543
761.023	19.5825
764.398	5.14702
767.773	12.2192
771.147	1.63611
774.522	4.69276
777.897	9.21559
781.272	5.48178
784.647	19.8947
788.021	4.89697
791.396	20.1249
794.771	3.4201
798.146	4.4425
801.521	17.8558
804.895	16.645
808.27	33.8159
811.645	17.2145
815.02	15.0695
818.395	17.5271
821.769	6.4173
825.144	2.45496
828.519	24.2499
831.894	35.0092
835.269	22.6155
838.644	11.8836
842.018	23.5646
845.393	11.1897
848.768	24.0736
852.143	23.199
855.518	8.39548
858.893	4.31703
862.267	7.33731
865.642	18.5428
869.017	25.0789
872.392	15.2701
875.766	6.33838
879.141	14.8443
882.516	18.5129
885.891	11.0112
889.266	28.268
892.641	8.84061
896.015	40.9626
899.39	32.1161
902.765	7.47745
906.14	15.7272
909.515	21.812
912.889	26.682
916.264	15.557
919.639	27.5735
923.014	16.9384
926.389	9.17571
929.764	22.21
933.138	17.7713
936.513	29.1134
939.888	2.67944
943.263	16.6593
946.638	22.06
950.013	18.7492
953.387	20.8949
956.762	26.0444
960.137	17.6205
963.512	14.0378
966.886	33.8328
970.261	34.9562
973.636	15.0093
977.011	1.92845
980.386	44.9452
983.761	6.74315
987.135	39.0028
990.51	37.223
993.885	1.61264
997.26	3.6299
1000.63	1.04582
1004.01	17.9401
1007.38	18.864
1010.76	12.817
1014.13	33.9435
1017.51	35.1983
1020.88	55.0997
1024.26	34.2087
1027.63	34.0661
1031.01	36.5362
1034.38	24.4969
1037.76	8.30635
1041.13	10.5724
1044.51	28.5981
1047.88	16.4998
1051.26	19.8985
1054.63	23.622
1058.01	36.0171
1061.38	22.49
1064.76	31.4585
1068.13	42.857
1071.51	47.8908
1074.88	17.9425
1078.26	11.0961
1081.63	23.6318
1085.01	34.3813
1088.38	7.72366
1091.76	14.6082
1095.13	32.9909
1098.5	27.0894
1101.88	1.98883
1105.25	32.3714
1108.63	22.2261
1112	6.63902
1115.38	19.358
1118.75	14.5032
1122.13	3.84135
1125.5	15.7679
1128.88	15.4405
1132.25	16.5117
1135.63	22.451
1139	39.7964
1142.38	18.1798
1145.75	39.7161
1149.13	30.0628
1152.5	20.4501
1155.88	16.1663
1159.25	19.4398
1162.63	17.3755
1166	5.35408
1169.38	18.0506
1172.75	14.767
1176.12	20.3542
1179.5	6.92551
1182.88	17.0269
1186.25	8.12703
1189.62	11.001
1193	17.9237
1196.37	25.5696
1199.75	42.8283
1203.12	7.94301
1206.5	33.5194
1209.87	38.5348
1213.25	15.3601
1216.62	45.722
1220	4.00618
1223.37	14.9319
1226.75	31.992
1230.12	16.9366
1233.5	9.02371
1236.87	13.7424
1240.25	9.42352
1243.62	1.68713
1247	12.3703
1250.37	9.29456
1253.75	23.1823
1257.12	23.8139
1260.49	27.3676
1263.87	18.3575
1267.24	9.35297
1270.62	16.1129
1273.99	24.9386
1277.37	0.627991
1280.74	15.257
1284.12	15.3421
1287.49	14.8255
1290.87	4.35059
1294.24	28.1077
1297.62	32.8818
1300.99	16.3386
1304.37	27.4049
1307.74	0
