Measurement: Raman, 532 nm, unoriented, Raman Data Processed
Mineral: Enargite
Rruff sample: R050442
Ideal chemistry: Cu_3_AsS_4_
Locality: Butte, Silver Bow County, Montana, USA
Source: University of Arizona Mineral Museum
Description: Black prismatic crystals associated with pyrite
Measured chemistry: Cu_2.98_As_0.97_Sb_0.03_S_4_
Raman shift (cm-1)	intensity
120.798	0
123.691	10.0749
126.584	3.58641
129.476	9.68954
132.369	17.0795
135.262	22.2861
138.155	30.6377
141.047	31.2044
143.94	24.4268
146.833	27.3004
149.725	27.6999
152.618	29.8003
155.511	32.7013
158.404	30.1827
161.296	30.4922
164.189	33.1625
167.082	30.6393
169.974	26.0772
172.867	19.4518
175.76	15.8684
178.652	12.5991
181.545	8.75415
184.438	5.61169
187.331	5.13687
190.223	0.484009
193.116	0.629211
196.009	0.193985
198.901	0.220734
201.794	0.976135
204.687	1.21497
207.579	3.03336
210.472	0.893539
213.365	0.079605
216.257	0.284714
219.15	2.6568
222.043	4.0679
224.936	7.92824
227.828	11.0318
230.721	14.7071
233.614	20.629
236.506	32.272
239.399	40.9854
242.292	60.1353
245.185	73.4943
248.077	88.1123
250.97	102.585
253.863	118.733
256.755	135.159
259.648	145.985
262.541	139.972
265.433	119.145
268.326	88.3197
271.219	67.5199
274.111	48.7604
277.004	31.3822
279.897	21.3622
282.79	8.56703
285.682	3.45882
288.575	2.0463
291.468	1.43884
294.36	1.30351
297.253	7.53438
300.146	14.4693
303.038	21.3791
305.931	21.7935
308.824	24.7465
311.717	32.038
314.609	49.4758
317.502	76.6718
320.395	112.747
323.287	149.484
326.18	192.65
329.073	248.602
331.966	324.995
334.858	384.199
337.751	357.077
340.644	229.137
343.536	105.384
346.429	40.8379
349.322	12.6357
352.214	4.01669
355.107	8.05321
358	16.3249
360.892	38.2953
363.785	66.7065
366.678	96.7309
369.571	127.824
372.463	145.988
375.356	167.468
378.249	190.615
381.141	169.834
384.034	108.142
386.927	51.8231
389.82	23.9087
392.712	12.9663
395.605	7.28058
398.498	5.98971
401.39	2.62749
404.283	3.58492
407.176	0.806442
410.068	0.715767
412.961	0.821724
415.854	2.21417
418.747	1.19826
421.639	0.902168
424.532	1.3426
427.425	2.95334
430.317	4.60646
433.21	5.07163
436.103	6.34322
438.995	6.27978
441.888	5.50998
444.781	6.8104
447.673	6.13297
450.566	6.72999
453.459	7.57056
456.352	7.72371
459.244	7.3051
462.137	7.97929
465.03	8.9221
467.922	8.90164
470.815	8.03442
473.708	7.45415
476.601	6.81612
479.493	4.98982
482.386	4.6127
485.279	5.92445
488.171	5.41124
491.064	4.68447
493.957	3.39204
496.849	3.08143
499.742	2.60491
502.635	3.07435
505.527	2.02686
508.42	2.53902
511.313	1.03818
514.206	1.06442
517.098	1.85674
519.991	3.34998
522.884	2.19675
525.776	1.61452
528.669	3.44739
531.562	2.57132
534.455	3.38928
537.347	2.73795
540.24	2.48337
543.133	1.12991
546.025	2.4089
548.918	1.02582
551.811	0.462242
554.703	0.219025
557.596	1.07819
560.489	0.578873
563.381	0.632622
566.274	0.012024
569.167	1.14105
572.06	0.575714
574.952	0.018959
577.845	0.992821
580.738	1.00674
583.63	1.057
586.523	1.5878
589.416	3.42292
592.308	3.74537
595.201	3.81828
598.094	3.92555
600.987	4.24403
603.879	4.96021
606.772	4.33736
609.665	4.51366
612.557	3.90483
615.45	3.90161
618.343	4.23591
621.236	2.18387
624.128	0.926041
627.021	1.26765
629.914	1.06184
632.806	0.513969
635.699	0.933701
638.592	0.764786
641.484	0.154816
644.377	0.005203
647.27	1.62835
650.163	2.65469
653.055	4.22134
655.948	6.39054
658.841	8.92205
661.733	12.6502
664.626	15.2674
667.519	17.6225
670.411	20.5897
673.304	19.679
676.197	20.0346
679.09	15.6337
681.982	12.9587
684.875	9.36717
687.768	6.36759
690.66	2.8496
693.553	1.44914
696.446	0.602417
699.338	1.56901
702.231	1.77794
705.124	2.42714
708.016	4.8647
710.909	5.98828
713.802	7.9879
716.695	8.17482
719.587	7.94797
722.48	6.80138
725.373	6.07564
728.265	5.40105
731.158	4.5433
734.051	3.45309
736.943	1.61964
739.836	2.16296
742.729	1.87535
745.622	1.4448
748.514	1.01114
751.407	0.240326
754.3	0.380661
757.192	0.040825
760.085	1.09171
762.978	1.89143
765.87	0.681931
768.763	0.793854
771.656	0.61628
774.549	1.49087
777.441	1.53866
780.334	1.50712
783.227	1.07906
786.119	0.721443
789.012	0.100128
791.905	0.607071
794.798	1.27169
797.69	0.143112
800.583	0.268806
803.476	1.90516
806.368	1.89233
809.261	1.16848
812.154	0.190804
815.046	0.851463
817.939	2.42004
820.832	0.690369
823.725	2.14634
826.617	1.74838
829.51	1.10738
832.403	1.40523
835.295	1.93017
838.188	1.21345
841.081	2.2392
843.973	1.90056
846.866	3.21924
849.759	1.67932
852.652	1.64194
855.544	2.95616
858.437	2.82602
861.33	1.69573
864.222	1.90765
867.115	2.45623
870.008	1.84144
872.9	1.86488
875.793	2.54043
878.686	1.05696
881.578	1.44197
884.471	0.933563
887.364	0.245033
890.257	1.45234
893.149	0.759377
896.042	0.709312
898.935	0.471046
901.827	0.122986
904.72	1.25034
907.613	0.650055
910.505	0.668716
913.398	0.604431
916.291	0.542938
919.184	0.468002
922.076	0.818985
924.969	0.843277
927.862	0.186844
930.754	1.0885
933.647	2.04611
936.54	2.05875
939.433	1.03243
942.325	1.03914
945.218	0.268196
948.111	0.822685
951.003	0.976563
953.896	1.20127
956.789	1.64314
959.681	2.35908
962.574	0.106422
965.467	1.13435
968.36	0.601738
971.252	1.88701
974.145	0.478798
977.038	1.65995
979.93	1.68449
982.823	1.1108
985.716	2.17857
988.608	3.76482
991.501	2.06116
994.394	3.06076
997.287	3.42973
1000.18	3.2798
1003.07	3.93509
1005.97	5.077
1008.86	5.65485
1011.75	7.25847
1014.64	7.02979
1017.53	5.81002
1020.43	4.29896
1023.32	3.94674
1026.21	2.65237
1029.11	3.85194
1032	2.36473
1034.89	2.43841
1037.78	1.67864
1040.68	2.25284
1043.57	1.45235
1046.46	0.120094
1049.36	1.60757
1052.25	3.31548
1055.14	1.47778
1058.03	2.57289
1060.93	2.32536
1063.82	1.0705
1066.71	2.05178
1069.6	0.892418
1072.5	1.12212
1075.39	0.575165
1078.28	0.880188
1081.17	0.813171
1084.07	0.629852
1086.96	1.13521
1089.85	0.479683
1092.75	0.011604
1095.64	1.22608
1098.53	1.07275
1101.42	0.964745
1104.32	0.390884
1107.21	0.150101
1110.1	0.492538
1112.99	0.178497
1115.89	0.863976
1118.78	1.07047
1121.67	0.123062
1124.57	0.910019
1127.46	0.061287
1130.35	2.84463
1133.24	1.04181
1136.14	2.27059
1139.03	1.33125
1141.92	1.67762
1144.81	2.03691
1147.71	1.93397
1150.6	1.22694
1153.49	0.182449
1156.38	1.48388
1159.28	0.813766
1162.17	1.91929
1165.06	1.47176
1167.96	1.20544
1170.85	1.297
1173.74	2.00537
1176.63	1.76794
1179.53	1.20869
1182.42	1.7421
1185.31	1.61726
1188.2	0.404411
1191.1	1.06915
1193.99	2.11982
1196.88	1.55399
1199.78	1.15986
1202.67	1.76842
1205.56	0.426422
1208.45	0.34198
1211.35	0.055595
1214.24	1.14618
1217.13	0.869522
1220.02	0.871002
1222.92	1.56413
1225.81	0.941063
1228.7	1.31527
1231.6	1.43827
1234.49	1.31798
1237.38	0.584938
1240.27	2.12996
1243.17	1.25764
1246.06	0.660713
1248.95	0.239609
1251.84	1.07345
1254.74	1.64668
1257.63	0.891556
1260.52	1.20023
1263.41	0.912827
1266.31	1.76081
1269.2	0.762154
1272.09	0.871918
1274.99	1.52415
