Measurement: Raman, 780 nm, unoriented, Raman Data Processed
Mineral: Enargite
Rruff sample: R050373
Ideal chemistry: Cu_3_AsS_4_
Locality: Butte, Silver Bow County, Montana, USA
Source: Eugene Schlepp
Description: Black tabular crystals associated with quartz
Measured chemistry: Cu_2.97_As_0.96_Sb_0.01_S_4_
Raman shift (cm-1)	intensity
111.326	0
114.701	1.01645
118.076	3.18446
121.45	1.66626
124.825	6.41063
128.2	6.12447
131.575	5.36375
134.95	5.008
138.325	6.20799
141.699	8.80029
145.074	7.80417
148.449	10.2154
151.824	10.4864
155.199	13.6357
158.573	12.7487
161.948	15.6121
165.323	15.7385
168.698	16.6758
172.073	11.9541
175.447	8.48912
178.822	4.75107
182.197	5.52773
185.572	4.96965
188.947	3.94038
192.322	3.61925
195.696	3.74211
199.071	0.072235
202.446	1.75014
205.821	0.391022
209.196	0.159958
212.571	0.26712
215.945	0.337448
219.32	0.373962
222.695	1.16925
226.07	2.07204
229.445	2.1299
232.819	3.2057
236.194	6.21306
239.569	11.5649
242.944	17.5983
246.319	27.6724
249.694	42.1726
253.068	55.6499
256.443	68.6315
259.818	84.2907
263.193	98.3231
266.567	89.0947
269.942	66.0738
273.317	49.0704
276.692	36.2339
280.067	23.7264
283.442	15.5915
286.816	13.2791
290.191	8.61233
293.566	6.76648
296.941	2.66748
300.316	4.72433
303.69	4.5155
307.065	12.9323
310.44	26.0158
313.815	48.3469
317.19	88.242
320.565	172.482
323.939	287.859
327.314	378.027
330.689	511.517
334.064	671.843
337.439	813.581
340.813	716.7
344.188	327.613
347.563	124.59
350.938	52.3628
354.313	22.6609
357.688	7.55682
361.062	0.525452
364.437	2.75117
367.812	0.908051
371.187	6.86366
374.562	15.4128
377.937	26.2065
381.311	34.8521
384.686	39.2815
388.061	37.9658
391.436	38.9003
394.81	44.2219
398.185	39.1729
401.56	22.776
404.935	15.0516
408.31	11.3149
411.685	7.99771
415.059	6.05237
418.434	2.32741
421.809	2.24684
425.184	0.353638
428.559	0.852081
431.933	0.867355
435.308	0.071045
438.683	0.018661
442.058	0.965805
445.433	0.405853
448.808	0.558502
452.182	1.08525
455.557	2.62785
458.932	0.859772
462.307	5.42941
465.682	3.77989
469.057	4.88092
472.431	3.87184
475.806	3.46535
479.181	2.11629
482.556	3.14597
485.931	4.56242
489.305	4.26738
492.68	4.33638
496.055	3.71014
499.43	3.32924
502.805	3.07922
506.18	4.72986
509.554	2.05429
512.929	7.01405
516.304	6.75607
519.679	4.76593
523.054	7.61735
526.428	7.12653
529.803	7.49026
533.178	7.53622
536.553	8.84392
539.928	6.88826
543.303	8.01361
546.677	3.9379
550.052	3.03836
553.427	4.7896
556.802	1.02649
560.177	0.398102
563.551	0.603348
566.926	0.29007
570.301	0.398041
573.676	2.05901
577.051	0.823212
580.426	1.98613
583.8	2.30641
587.175	4.98822
590.55	9.81856
593.925	9.94721
597.299	13.6664
600.674	15.6761
604.049	19.7245
607.424	21.0565
610.799	17.2
614.174	18.7999
617.548	16.145
620.923	14.4596
624.298	14.5002
627.673	11.9828
631.048	8.29356
634.423	8.0068
637.797	6.06673
641.172	4.63795
644.547	8.80586
647.922	10.5422
651.297	12.9623
654.671	22.288
658.046	30.5175
661.421	42.8717
664.796	57.0778
668.171	76.1358
671.545	95.5542
674.92	111.416
678.295	114.615
681.67	105.392
685.045	83.1599
688.42	62.3591
691.794	39.3881
695.169	21.5625
698.544	9.32632
701.919	3.83995
705.294	2.21115
708.668	0.270935
712.043	0.03421
715.418	0.646606
718.793	2.46541
722.168	1.31612
725.543	1.76761
728.917	2.38913
732.292	3.4805
735.667	2.63174
739.042	2.43588
742.417	0.296646
745.791	0.46936
749.166	0.846893
752.541	0.671432
755.916	2.57239
759.291	0.868683
762.665	2.03778
766.04	2.69658
769.415	3.30698
772.79	4.07364
776.165	5.39958
779.54	5.94827
782.914	4.87999
786.289	5.82732
789.664	6.16046
793.039	5.78967
796.414	5.44022
799.788	4.63798
803.163	1.91982
806.538	1.72911
809.913	2.19515
813.288	1.65607
816.663	0.620712
820.037	0.598389
823.412	0.113159
826.787	1.7352
830.162	1.56163
833.537	2.51082
836.912	2.88818
840.286	1.92834
843.661	2.37318
847.036	1.10684
850.411	2.3578
853.786	3.42639
857.16	2.31358
860.535	2.62219
863.91	2.02124
867.285	1.65888
870.66	1.46139
874.034	2.01196
877.409	0.215714
880.784	2.04274
884.159	2.01088
887.534	0.925583
890.909	0.274612
894.283	2.09959
897.658	1.76746
901.033	0.56427
904.408	1.37087
907.783	1.46529
911.158	0.134125
914.532	0.24971
917.907	2.05728
921.282	0.218964
924.657	2.3454
928.032	1.47653
931.406	3.27173
934.781	0.60965
938.156	1.93185
941.531	6.2945
944.906	2.89832
948.28	3.37854
951.655	3.52806
955.03	4.29596
958.405	1.80402
961.78	4.3262
965.154	3.1974
968.529	1.20284
971.904	2.27939
975.279	0.640121
978.654	1.85341
982.029	1.81094
985.403	2.15207
988.778	2.02156
992.153	1.30185
995.528	4.20697
998.903	2.9249
1002.28	5.36108
1005.65	5.26428
1009.03	8.82935
1012.4	10.5481
1015.78	11.8936
1019.15	15.1117
1022.53	13.0797
1025.9	12.3167
1029.28	11.0118
1032.65	6.96549
1036.03	4.08752
1039.4	1.1626
1042.78	2.39081
1046.15	1.05832
1049.53	0.50473
1052.9	0.660004
1056.28	1.06973
1059.65	2.4408
1063.02	1.19919
1066.4	1.30463
1069.77	2.63049
1073.15	0.444733
1076.52	1.56238
1079.9	1.63254
1083.27	0.22406
1086.65	0.724213
1090.02	0.881989
1093.4	3.15951
1096.77	1.24249
1100.15	1.61468
1103.52	0.262543
1106.9	1.47678
1110.27	1.80582
1113.65	0.390137
1117.02	0.815582
1120.4	0.941803
1123.77	4.9335
1127.15	1.03284
1130.52	2.14935
1133.89	1.63214
1137.27	0.076447
1140.64	2.15067
1144.02	1.73636
1147.39	2.13904
1150.77	3.32129
1154.14	2.71307
1157.52	3.40884
1160.89	2.09183
1164.27	1.61468
1167.64	2.32132
1171.02	2.8753
1174.39	3.68546
1177.77	4.02466
1181.14	3.46228
1184.52	3.93692
1187.89	4.5535
1191.27	7.49182
1194.64	2.85504
1198.02	4.24982
1201.39	4.2821
1204.77	2.28595
1208.14	1.75482
1211.52	1.2594
1214.89	2.67343
1218.27	0.539825
1221.64	1.78683
1225.02	0.559296
1228.39	2.06232
1231.77	5.90216
1235.14	3.69681
1238.52	1.80203
1241.89	5.55222
1245.26	4.71423
1248.64	3.35538
1252.01	4.36444
1255.39	4.92429
1258.76	6.50308
1262.14	4.55298
1265.51	5.29135
1268.89	4.58884
1272.26	0.138367
1275.64	2.46674
