Measurement: Raman, 532 nm, unoriented, Raman Data Processed
Mineral: Enstatite
Rruff sample: R100093
Ideal chemistry: MgSiO_3_
Locality: Hunan Province, China
Source: William W. Pinch
Description: Massive green polished slab
Raman shift (cm-1)	intensity
195.594	0
198.486	2.5098
201.379	0.495167
204.272	1.13312
207.164	2.32804
210.057	4.17373
212.95	8.75034
215.843	13.3226
218.735	18.9063
221.628	25.1075
224.521	29.2607
227.413	36.8627
230.306	45.0132
233.199	47.0648
236.091	41.5598
238.984	27.3464
241.877	16.1958
244.769	10.3154
247.662	7.05134
250.555	4.43199
253.448	1.74879
256.34	0.815857
259.233	1.12254
262.126	1.44641
265.018	0.087006
267.911	1.5981
270.804	0.058636
273.697	1.27847
276.589	0.626141
279.482	0.611977
282.375	0.440075
285.267	2.23476
288.16	1.28119
291.053	2.4154
293.945	4.19996
296.838	3.8057
299.731	6.13632
302.623	8.05513
305.516	13.1548
308.409	15.5544
311.302	22.4757
314.194	27.976
317.087	31.9149
319.98	36.4047
322.872	41.0907
325.765	50.0213
328.658	61.2191
331.55	72.9403
334.443	87.0214
337.336	98.1506
340.229	103.468
343.121	102.346
346.014	88.5324
348.907	72.9803
351.799	58.524
354.692	48.8154
357.585	41.4429
360.478	37.4846
363.37	35.6502
366.263	34.363
369.156	34.2817
372.048	36.4205
374.941	40.69
377.834	44.5606
380.726	47.5297
383.619	51.9921
386.512	58.212
389.404	64.4892
392.297	75.5987
395.19	82.0978
398.083	82.5875
400.975	74.5306
403.868	63.7052
406.761	49.0199
409.653	36.7508
412.546	24.8042
415.439	16.0073
418.332	10.3758
421.224	6.4439
424.117	3.00225
427.01	1.54662
429.902	0.627087
432.795	1.6238
435.688	0.241596
438.58	0.006775
441.473	1.45681
444.366	1.09057
447.259	1.07534
450.151	1.74112
453.044	1.74023
455.937	0.449615
458.829	1.43342
461.722	0.713428
464.615	0.316986
467.507	1.7006
470.4	1.53819
473.293	1.33298
476.185	1.67648
479.078	2.22811
481.971	2.33919
484.864	2.34765
487.756	2.56918
490.649	2.44695
493.542	2.09095
496.434	2.50017
499.327	3.98828
502.22	5.42805
505.113	8.78873
508.005	11.8387
510.898	14.524
513.791	18.6961
516.683	20.3101
519.576	21.1767
522.469	20.086
525.361	19.3917
528.254	20.6516
531.147	20.5918
534.04	23.5565
536.932	21.5657
539.825	20.0908
542.718	20.1242
545.61	21.2156
548.503	21.5185
551.396	21.373
554.288	17.7146
557.181	18.586
560.074	20.3392
562.967	21.6031
565.859	24.7421
568.752	23.1588
571.645	21.4662
574.537	18.4078
577.43	14.3412
580.323	11.0144
583.216	9.59997
586.108	7.39495
589.001	5.98105
591.894	4.29501
594.786	3.25918
597.679	2.7191
600.572	1.35757
603.464	1.69056
606.357	2.07348
609.25	0.83003
612.142	0.367136
615.035	0.313396
617.928	0.666082
620.821	0.278397
623.713	1.38229
626.606	4.06048
629.499	4.96864
632.391	5.98047
635.284	9.23637
638.177	9.74052
641.069	13.6343
643.962	21.3913
646.855	29.0901
649.747	38.6716
652.64	49.7517
655.533	60.1028
658.426	63.431
661.318	63.7342
664.211	61.8205
667.104	66.7519
669.996	78.7436
672.889	94.664
675.782	114.423
678.674	128.862
681.567	124.009
684.46	101.437
687.353	73.29
690.245	51.4431
693.138	34.8618
696.031	25.9028
698.923	19.6062
701.816	14.0995
704.709	11.1546
707.601	8.93533
710.494	6.74181
713.387	6.06381
716.28	5.16113
719.172	3.5842
722.065	5.79073
724.958	5.08405
727.85	6.5467
730.743	5.01113
733.636	5.1657
736.529	3.36443
739.421	3.25338
742.314	3.10359
745.207	2.35047
748.099	2.60964
750.992	2.80558
753.885	2.50722
756.777	0.983017
759.67	1.25728
762.563	1.15277
765.456	0.311264
768.348	0.328497
771.241	1.42439
774.134	1.12703
777.026	0.922342
779.919	0.084974
782.812	0.087856
785.704	1.82752
788.597	0.743343
791.49	0.385082
794.383	1.49613
797.275	1.9567
800.168	1.6463
803.061	4.09837
805.953	5.11149
808.846	4.65551
811.739	6.90305
814.631	6.20329
817.524	6.14204
820.417	6.40908
823.309	7.13607
826.202	5.58625
829.095	5.98159
831.988	6.29227
834.88	6.85307
837.773	4.96395
840.666	5.3021
843.558	5.47291
846.451	7.00479
849.344	4.43163
852.236	4.81035
855.129	3.7512
858.022	4.34536
860.915	3.22935
863.807	3.70905
866.7	2.0843
869.593	2.03374
872.485	1.75692
875.378	2.3001
878.271	0.590752
881.163	0.475929
884.056	0.449358
886.949	0.064543
889.842	0.085941
892.734	0.170561
895.627	0.331715
898.52	1.60673
901.412	0.767603
904.305	0.842583
907.198	0.589958
910.091	2.32541
912.983	3.05314
915.876	4.8404
918.769	5.87761
921.661	9.1393
924.554	10.8211
927.447	14.0654
930.339	18.3813
933.232	19.0617
936.125	21.2797
939.018	22.2597
941.91	23.28
944.803	23.8395
947.696	21.7892
950.588	22.0372
953.481	17.245
956.374	14.3026
959.266	9.64754
962.159	5.7217
965.052	2.98577
967.944	0.66687
970.837	0.472595
973.73	0.25119
976.623	4.79985
979.515	8.75345
982.408	16.5725
985.301	30.1833
988.193	50.742
991.086	76.5275
993.979	110.007
996.871	148.806
999.764	187.299
1002.66	212.367
1005.55	208.637
1008.44	183.064
1011.34	152.902
1014.23	125.57
1017.12	107.055
1020.01	93.6805
1022.91	79.142
1025.8	70.3505
1028.69	57.7643
1031.58	50.6903
1034.48	44.2111
1037.37	36.4747
1040.26	28.5389
1043.15	22.931
1046.05	18.8215
1048.94	14.6453
1051.83	11.3185
1054.73	6.56102
1057.62	4.44118
1060.51	3.91898
1063.4	1.89547
1066.3	1.09306
1069.19	0.012552
1072.08	0.474144
1074.97	0.358313
1077.87	0.927261
1080.76	0.381762
1083.65	0.48357
1086.55	0.169426
1089.44	0.62661
1092.33	1.02416
1095.22	0.562836
1098.12	0.295507
1101.01	0.559895
1103.9	0.473858
1106.79	1.23391
1109.69	1.97568
1112.58	0.789318
1115.47	0.466572
1118.37	2.78434
1121.26	2.50708
1124.15	1.48997
1127.04	2.85842
1129.94	1.99185
1132.83	1.5241
1135.72	2.32475
1138.61	0.348116
1141.51	0.903208
1144.4	1.12798
1147.29	0.36919
1150.18	1.76459
1153.08	0.734404
1155.97	0.660507
1158.86	1.19591
1161.76	0.574377
1164.65	1.41406
1167.54	0.818703
1170.43	2.08992
1173.33	0.462526
1176.22	0.808641
1179.11	0.158592
1182	1.49921
1184.9	1.18944
1187.79	0.808813
1190.68	0.343277
1193.58	0.835153
1196.47	0.315703
1199.36	1.0905
1202.25	0.70644
1205.15	0.428346
1208.04	0.556956
1210.93	1.44183
1213.82	1.99154
1216.72	0.361311
1219.61	0.982611
1222.5	1.73339
1225.39	1.31237
1228.29	1.72623
1231.18	1.08282
1234.07	1.24835
1236.97	0.906607
1239.86	1.21746
1242.75	0.881161
1245.64	0.885354
1248.54	1.27844
1251.43	2.16441
1254.32	1.23379
1257.21	0.51675
1260.11	1.49621
1263	1.07664
1265.89	2.4969
1268.79	1.25856
1271.68	2.29296
1274.57	0.642111
1277.46	1.92195
1280.36	1.29309
1283.25	0.55169
1286.14	1.22011
1289.03	2.19864
1291.93	2.36259
1294.82	0.149543
1297.71	0.22868
1300.61	0.946188
