Measurement: Raman, 785 nm, unoriented, Raman Data Processed
Mineral: Enstatite
Rruff sample: R060744
Ideal chemistry: MgSiO_3_
Locality: Orissa, India
Source: Herb Obodda
Description: Brown transparent fragment
Measured chemistry: (Mg_0.85_Fe^2+^_0.13_Fe^3+^_0.01_Mn_0.01_)_Σ=1_(Si_0.99_Al_0.01_)_Σ=1_O_3_; trace amounts of Ca; Fe^2+^ and Fe^3+^ splitted by charge balance
Raman shift (cm-1)	intensity
191.917	0
194.809	66.6123
197.702	83.6973
200.595	70.3379
203.488	164.928
206.38	88.6689
209.273	30.0947
212.166	94.3809
215.058	100.176
217.951	144.502
220.844	420.9
223.736	634.377
226.629	1070.82
229.522	1665.11
232.415	2439.73
235.307	2988.05
238.2	1985.38
241.093	851.953
243.985	477.799
246.878	295.47
249.771	142.379
252.663	96.2314
255.556	179.565
258.449	64.6894
261.342	129.885
264.234	94.4453
267.127	115.183
270.02	126.267
272.912	86.9473
275.805	106.3
278.698	43.169
281.591	23.1738
284.483	22.7588
287.376	78.3193
290.269	42.1807
293.161	226.435
296.054	183.639
298.947	318.147
301.839	266.862
304.732	259.126
307.625	214.067
310.517	244.45
313.41	235.004
316.303	313.791
319.196	469.851
322.088	726.31
324.981	1130.51
327.874	1804.08
330.766	2638.2
333.659	3906.06
336.552	5172.34
339.444	5634.79
342.337	4536.65
345.23	2855.52
348.123	1729.15
351.015	1208.67
353.908	815.224
356.801	668.365
359.693	450.397
362.586	240.166
365.479	134.565
368.371	202.694
371.264	361.984
374.157	596.692
377.05	789.618
379.942	896.916
382.835	753.087
385.728	628.087
388.62	647.275
391.513	708.641
394.406	826.243
397.298	799.727
400.191	782.54
403.084	609.864
405.977	550.27
408.869	566.246
411.762	687.359
414.655	616.131
417.547	393.821
420.44	266.897
423.333	110.244
426.225	15.751
429.118	81.8447
432.011	35.4482
434.904	50.0713
437.796	1.22754
440.689	103.218
443.582	120.042
446.474	108.064
449.367	62.4453
452.26	50.1318
455.152	79.5615
458.045	87.1025
460.938	88.6397
463.831	73.5664
466.723	148.717
469.616	88.7207
472.509	181.843
475.401	76.4531
478.294	70.2324
481.187	3.98535
484.079	60.1533
486.972	84.7666
489.865	88.2852
492.758	93.8711
495.65	61.9121
498.543	16.5176
501.436	35.3935
504.328	15.4453
507.221	62.4033
510.114	194.045
513.006	281.756
515.899	501.481
518.792	599.492
521.685	442.082
524.577	416.815
527.47	356.64
530.363	418.742
533.255	435.905
536.148	453.304
539.041	632.166
541.933	583.083
544.826	384.789
547.719	474.915
550.612	344.871
553.504	280.246
556.397	213.077
559.29	234.128
562.182	258.552
565.075	294.844
567.968	357.611
570.86	375.435
573.753	525.429
576.646	536.203
579.539	417.246
582.431	188.138
585.324	137.008
588.217	162.091
591.109	82.0439
594.002	105.712
596.895	27.8711
599.788	36.9424
602.68	52.9853
605.573	13.1172
608.466	40.2803
611.358	101.648
614.251	28.417
617.144	0.8125
620.036	25.8643
622.929	2.46875
625.822	106.254
628.715	8.17188
631.607	139.644
634.5	99.3701
637.393	268.648
640.285	275.704
643.178	453.185
646.071	571.383
648.964	1014.84
651.856	1652.64
654.749	2591.43
657.642	3700.26
660.534	4375.26
663.427	3767.11
666.32	2875.45
669.212	2544.39
672.105	2838.94
674.998	3750.59
677.891	5153.5
680.783	6068.59
683.676	5595.46
686.569	3828.22
689.461	2281.57
692.354	1372.7
695.247	814.664
698.139	660.456
701.032	383.204
703.925	236.769
706.818	129.606
709.71	67.5996
712.603	50.3037
715.496	67.4287
718.388	89.0869
721.281	0.821289
724.174	74.6397
727.066	46.0889
729.959	31.5967
732.852	31.5947
735.745	63.1123
738.637	6.05176
741.53	7.00684
744.423	47.1504
747.315	93.0898
750.208	120.681
753.101	135.322
755.993	23.0117
758.886	56.2422
761.779	60.7129
764.672	29.4941
767.564	12.3145
770.457	60.5322
773.35	136.426
776.242	133.177
779.135	103.907
782.028	157.147
784.92	140.667
787.813	148.929
790.706	102.936
793.599	100.334
796.491	73.665
799.384	10.5625
802.277	13.6738
805.169	81.9551
808.062	113.783
810.955	169.579
813.847	239.094
816.74	90.4551
819.633	152.677
822.526	136.148
825.418	150.293
828.311	93.0391
831.204	192.041
834.096	181.947
836.989	136.638
839.882	151.964
842.774	118.098
845.667	132.918
848.56	243.518
851.453	218.514
854.345	282.69
857.238	324.083
860.131	209.196
863.023	314.715
865.916	146.209
868.809	107.954
871.701	138.835
874.594	76.3144
877.487	66.7647
880.38	30.1924
883.272	71.4775
886.165	2.70898
889.058	27.0713
891.95	91.4775
894.843	18.0273
897.736	79.4873
900.628	19.648
903.521	30.96
906.414	11.7261
909.307	74.106
912.199	20.8252
915.092	25.4854
917.985	0.294434
920.877	8.58203
923.77	54.9102
926.663	230.286
929.555	364.252
932.448	478.797
935.341	542.794
938.234	589.597
941.126	363.878
944.019	314.408
946.912	178.924
949.804	110.927
952.697	57.6528
955.59	13.7842
958.482	70.6392
961.375	10.4111
964.268	11.4497
967.161	4.55957
970.053	63.2837
972.946	30.6196
975.839	51.3677
978.731	32.5391
981.624	121.171
984.517	185.974
987.409	313.987
990.302	436.845
993.195	704.329
996.088	1337.58
998.98	2391.72
1001.87	3844.37
1004.77	5794.35
1007.66	7300.6
1010.55	6388.59
1013.44	4407.32
1016.34	3031.92
1019.23	2310.87
1022.12	2005.59
1025.02	1486.95
1027.91	1477.55
1030.8	1343.83
1033.69	1036.85
1036.59	925.978
1039.48	702.09
1042.37	602.677
1045.26	392.35
1048.16	196.93
1051.05	219.046
1053.94	177.925
1056.83	99.4253
1059.73	88.2393
1062.62	89.4385
1065.51	54.7783
1068.4	19.1411
1071.3	38.2017
1074.19	12.1621
1077.08	14.3896
1079.98	90.0967
1082.87	0.709961
1085.76	16.4194
1088.65	49.728
1091.55	31.0483
1094.44	23.269
1097.33	40.5942
1100.22	44.2764
1103.12	23.0566
1106.01	4.37646
1108.9	31.8306
1111.8	74.0713
1114.69	168.492
1117.58	110.575
1120.47	117.92
1123.37	179.068
1126.26	88.2705
1129.15	90.7749
1132.05	77.2661
1134.94	134.917
1137.83	143.304
1140.72	7.34326
1143.62	101.439
1146.51	74.644
1149.4	79.1416
1152.29	116.207
1155.19	132.348
1158.08	36.1069
1160.97	114.087
1163.86	40.251
1166.76	79.0947
1169.65	167.575
1172.54	81.0669
1175.43	5.82129
1178.33	203.433
1181.22	139.438
1184.11	179.129
1187.01	157.867
1189.9	125.441
1192.79	166.777
1195.68	207.583
1198.58	128.194
1201.47	121.701
1204.36	87.7183
1207.26	37.8852
1210.15	75.5527
1213.04	130.212
1215.93	152.333
1218.83	152.081
1221.72	229.898
1224.61	242.829
1227.5	197.772
1230.4	225.057
1233.29	183.251
1236.18	109.874
1239.07	32.5801
1241.97	38.4619
1244.86	156.093
1247.75	218.859
1250.64	223.714
1253.54	171.692
1256.43	23.5601
1259.32	58.3037
1262.22	100.344
1265.11	9.00488
