Measurement: Raman, 785 nm, unoriented, Raman Data Processed
Mineral: Enstatite
Rruff sample: R070418
Ideal chemistry: MgSiO_3_
Locality: India
Source: Michael Scott
Description: Brown translucent fragments
Measured chemistry: (Mg_0.86_Fe_0.14_)_Î£=1_Si_1.00_O_3_; trace amounts of Al, Ca, Mn
Raman shift (cm-1)	intensity
133.554	0
136.447	69.0909
139.34	84.91
142.232	74.946
145.125	134.242
148.018	249.414
150.911	398.844
153.803	398.478
156.696	210.663
159.589	88.3721
162.481	88.452
165.374	64.9998
168.267	77.9261
171.16	22.8303
174.052	25.2895
176.945	9.47138
179.838	6.7345
182.73	19.9199
185.623	8.54828
188.516	1.34412
191.408	17.5436
194.301	41.6809
197.194	88.1166
200.087	128.593
202.979	137.419
205.872	157.862
208.765	159.425
211.657	151.894
214.55	145.036
217.443	172.267
220.335	245.48
223.228	353.526
226.121	431.94
229.013	569.587
231.906	830.358
234.799	1203.1
237.692	1210.08
240.584	756.993
243.477	310.056
246.37	144.064
249.262	79.4106
252.155	12.0898
255.048	17.8262
257.941	17.0023
260.833	4.98608
263.726	26.2404
266.619	8.84638
269.511	1.44153
272.404	44.8945
275.297	79.0788
278.19	107.523
281.082	65.7639
283.975	22.6154
286.868	11.159
289.76	7.73267
292.653	30.7578
295.546	67.721
298.438	82.3588
301.331	23.8234
304.224	20.0001
307.116	64.8067
310.009	104.422
312.902	220.352
315.795	322.697
318.687	471.529
321.58	606.855
324.473	666.439
327.365	782.964
330.258	910.402
333.151	1110
336.043	1353.56
338.936	1716.85
341.829	2039.34
344.721	2204.38
347.614	2054.99
350.507	1644.99
353.4	1234.88
356.292	948.32
359.185	710.207
362.078	527.67
364.97	365.246
367.863	257.715
370.756	210.293
373.649	179.94
376.541	191.866
379.434	218.86
382.327	209.602
385.219	180.054
388.112	110.065
391.005	78.764
393.897	83.2422
396.79	127.717
399.683	151.615
402.575	156.029
405.468	153.055
408.361	144.534
411.254	184.385
414.146	196.865
417.039	208.332
419.932	112.34
422.824	40.3429
425.717	9.13397
428.61	24.6416
431.502	39.0233
434.395	5.53857
437.288	37.4304
440.181	96.7639
443.073	132.322
445.966	109.889
448.859	66.8919
451.751	53.9131
454.644	53.4774
457.537	52.6859
460.43	71.4591
463.322	60.0094
466.215	76.7402
469.108	36.7623
472	26.1478
474.893	13.4861
477.786	3.1391
480.678	8.52332
483.571	11.829
486.464	6.13916
489.356	2.22589
492.249	4.58319
495.142	4.14716
498.035	7.05511
500.927	18.3666
503.82	8.50476
506.713	23.3481
509.605	48.8734
512.498	46.068
515.391	59.1124
518.284	64.7361
521.176	53.0007
524.069	101.712
526.962	136.39
529.854	168.391
532.747	237.491
535.64	288.986
538.533	307.547
541.425	245.191
544.318	174.316
547.211	117.662
550.103	124.464
552.996	114.466
555.889	54.827
558.781	68.4436
561.674	39.5962
564.567	30.6415
567.459	42.4975
570.352	27.2117
573.245	49.1038
576.138	37.455
579.03	24.1133
581.923	4.57526
584.816	24.0433
587.708	24.8908
590.601	2.11981
593.494	7.66095
596.386	8.26502
599.279	3.80225
602.172	0.282654
605.064	10.3451
607.957	14.2256
610.85	6.87201
613.743	14.8138
616.635	9.60901
619.528	33.1981
622.421	71.0297
625.313	127.085
628.206	168.513
631.099	235.022
633.991	278.119
636.884	366.483
639.777	357.206
642.67	497.732
645.562	703.192
648.455	988.722
651.348	1347.88
654.24	1870.62
657.133	2365.28
660.026	2757.26
662.918	2638.56
665.811	2328.14
668.704	2132.99
671.597	2356.55
674.489	2932.93
677.382	3850.94
680.275	4988.06
683.167	5738.98
686.06	5457.15
688.953	4066.56
691.846	2694.46
694.738	1651.63
697.631	1081.26
700.524	708.104
703.416	490.633
706.309	365.044
709.202	247.255
712.094	195.646
714.987	119.538
717.88	102.989
720.773	68.2035
723.665	48.4374
726.558	21.0319
729.451	29.1578
732.343	19.8444
735.236	21.249
738.129	13.3552
741.021	11.423
743.914	3.36725
746.807	25.5628
749.699	10.1581
752.592	0.510742
755.485	7.96637
758.378	10.4027
761.27	9.54199
764.163	12.1782
767.056	13.7419
769.948	11.0174
772.841	14.1664
775.734	12.4468
778.626	2.36603
781.519	11.5754
784.412	17.8096
787.305	6.35998
790.197	20.1252
793.09	2.88629
795.983	24.1777
798.875	13.0253
801.768	22.5754
804.661	17.976
807.553	13.5487
810.446	30.3853
813.339	27.3644
816.232	40.165
819.124	46.2465
822.017	50.8626
824.91	48.3279
827.802	41.2588
830.695	56.3127
833.588	69.4481
836.481	74.7872
839.373	94.4877
842.266	95.3751
845.159	133.727
848.051	159.138
850.944	180.401
853.837	191.802
856.729	159.217
859.622	162.381
862.515	126.042
865.408	86.0122
868.3	85.4745
871.193	40.7562
874.086	35.6144
876.978	24.5732
879.871	22.3569
882.764	29.944
885.656	4.46283
888.549	1.09375
891.442	8.04553
894.335	23.2002
897.227	6.34638
900.12	4.10266
903.013	0.513062
905.905	6.28058
908.798	7.39343
911.691	11.3914
914.583	34.7685
917.476	53.041
920.369	68.2808
923.261	108.244
926.154	151.093
929.047	222.506
931.94	239.19
934.832	271.13
937.725	297.71
940.618	289.93
943.51	262.905
946.403	237.826
949.296	210.154
952.188	170.153
955.081	151.023
957.974	67.6234
960.867	46.2224
963.759	17.4153
966.652	12.0067
969.545	2.54755
972.437	27.0978
975.33	69.0825
978.223	124.54
981.115	243.347
984.008	383.545
986.901	631.983
989.794	995.75
992.686	1514.69
995.579	2260.8
998.472	3207.24
1001.36	4356.22
1004.26	5534.79
1007.15	6374.05
1010.04	6183.35
1012.93	4974.11
1015.83	3535.47
1018.72	2518
1021.61	1891.56
1024.51	1490.17
1027.4	1256.49
1030.29	1083
1033.18	926.93
1036.08	709.874
1038.97	536.938
1041.86	395.792
1044.76	279.67
1047.65	212.865
1050.54	141.834
1053.43	141.923
1056.33	88.3675
1059.22	37.5356
1062.11	30.5685
1065	0.47876
1067.9	9.96777
1070.79	0.985779
1073.68	2.19727
1076.58	8.46252
1079.47	9.95886
1082.36	11.3486
1085.25	9.97784
1088.14	3.83679
1091.04	21.5303
1093.93	14.2338
1096.82	11.4434
1099.72	16.394
1102.61	21.5446
1105.5	24.0702
1108.39	28.7985
1111.29	29.4034
1114.18	30.3394
1117.07	13.1463
1119.96	35.3935
1122.86	23.8104
1125.75	37.4246
1128.64	36.584
1131.54	37.799
1134.43	46.5921
1137.32	20.4674
1140.21	10.8128
1143.11	14.8604
1146	12.5749
1148.89	19.0773
1151.79	23.0257
1154.68	19.1782
1157.57	7.15073
1160.46	29.4029
1163.36	24.4081
1166.25	18.2042
1169.14	16.8384
1172.03	10.0448
1174.93	21.7246
1177.82	9.36044
1180.71	29.5721
1183.6	26.6137
1186.5	4.01169
1189.39	9.27924
1192.28	27.7045
1195.17	26.9869
1198.07	12.9463
1200.96	20.8397
1203.85	2.09207
1206.75	18.1924
1209.64	15.424
1212.53	2.81802
1215.42	13.9937
1218.32	4.86401
1221.21	16.4302
1224.1	4.0105
1226.99	13.382
1229.89	0.484497
1232.78	16.6699
1235.67	1.33542
