Measurement: Raman, 785 nm, unoriented, Raman Data Processed
Mineral: Enstatite
Rruff sample: R070550
Ideal chemistry: MgSiO_3_
Locality: Tanzania
Source: www.multicolour.com
Description: Brown, translucent, vitreous crystal fragment
Measured chemistry: (Mg_0.90_Fe_0.10_)_Î£=1_Si_1.00_O_3_
Raman shift (cm-1)	intensity
125.739	0
128.632	138.882
131.524	352.211
134.417	132.62
137.31	3.44434
140.203	25.8137
143.095	76.1819
145.988	224.309
148.881	391.433
151.773	512.014
154.666	437.12
157.559	384.975
160.452	392.442
163.344	402.207
166.237	559.174
169.13	297.167
172.022	162.458
174.915	139.401
177.808	132.392
180.7	210.082
183.593	253.022
186.486	332.388
189.379	496.231
192.271	624.713
195.164	422.641
198.057	278.323
200.949	207.706
203.842	129.593
206.735	55.7097
209.627	30.886
212.52	75.5747
215.413	175.826
218.305	314.746
221.198	528.24
224.091	790.264
226.984	1144.08
229.876	1625.59
232.769	2458.54
235.662	3389.91
238.554	2722.67
241.447	1525.4
244.34	786.149
247.232	391.459
250.125	181.011
253.018	77.8843
255.911	72.35
258.803	0.819824
261.696	2.58167
264.589	40.5917
267.481	48.1066
270.374	34.5604
273.267	3.41711
276.159	32.1281
279.052	6.26935
281.945	34.2734
284.838	66.1055
287.73	85.6007
290.623	188.038
293.516	297.056
296.408	484.143
299.301	588.292
302.194	420.153
305.087	371.6
307.979	366.315
310.872	332.73
313.765	397.22
316.657	646.346
319.55	925.788
322.443	1070.09
325.335	1319.8
328.228	1914.66
331.121	2675.27
334.014	3882.94
336.906	5688.02
339.799	7354.59
342.692	6806.27
345.584	4313.27
348.477	2343.26
351.37	1339.16
354.262	851.671
357.155	606.8
360.048	454.971
362.94	256.934
365.833	154.68
368.726	198.634
371.619	276.425
374.511	445.849
377.404	688.654
380.297	813.716
383.189	690.571
386.082	710.444
388.975	948.678
391.868	1338.8
394.76	1891.84
397.653	2284.59
400.546	2277.59
403.438	1957.46
406.331	1614.74
409.224	1463.52
412.116	1357.37
415.009	1360.07
417.902	1193.5
420.795	937.731
423.687	491.405
426.58	208.307
429.473	22.5454
432.365	12.7379
435.258	29.2719
438.151	126.626
441.043	238.018
443.936	196.151
446.829	15.5931
449.721	19.9992
452.614	47.9503
455.507	24.7013
458.399	9.04492
461.292	7.69019
464.185	13.4471
467.078	10.6317
469.97	4.2356
472.863	13.7423
475.756	7.00708
478.648	31.6007
481.541	21.4781
484.434	54.9111
487.327	20.4645
490.219	52.6097
493.112	44.9068
496.005	65.0977
498.897	41.9277
501.79	65.1193
504.683	125.071
507.575	215.337
510.468	318.671
513.361	465.606
516.254	679.881
519.146	819.258
522.039	867.47
524.932	874.377
527.824	746.988
530.717	591.487
533.61	558.598
536.502	709.195
539.395	758.792
542.288	665.68
545.181	634.353
548.073	593.102
550.966	554.957
553.859	367.786
556.751	237.238
559.644	168.971
562.537	142.188
565.429	125.98
568.322	134.191
571.215	155.469
574.107	183.8
577	178.241
579.893	141.79
582.786	92.6
585.678	68.4464
588.571	27.0128
591.464	32.0905
594.356	27.5168
597.249	33.6208
600.142	35.3509
603.034	26.9305
605.927	1.89502
608.82	12.4477
611.713	6.88794
614.605	1.67569
617.498	3.90906
620.391	10.1254
623.283	24.7416
626.176	30.7424
629.069	33.0389
631.962	50.1157
634.854	69.9538
637.747	102.14
640.64	165.234
643.532	265.404
646.425	372.241
649.318	611.137
652.21	926.932
655.103	1348.51
657.996	1885.31
660.889	2426.44
663.781	2305.3
666.674	1756.84
669.567	1381.71
672.459	1384.68
675.352	1614.58
678.245	2036.76
681.138	2543.7
684.03	2719.5
686.923	2144.43
689.816	1298.83
692.708	733.92
695.601	455.614
698.494	276.681
701.386	165.129
704.279	108.362
707.172	64.7686
710.064	47.7018
712.957	24.7759
715.85	21.1244
718.743	13.9021
721.635	9.73224
724.528	5.7533
727.421	15.8584
730.313	31.1974
733.206	32.0809
736.099	67.0443
738.991	95.8593
741.884	108.947
744.777	147.617
747.67	187.289
750.562	201.918
753.455	153.026
756.348	93.8688
759.24	33.5647
762.133	14.2223
765.026	17.1704
767.918	7.38022
770.811	6.34622
773.704	1.1955
776.597	2.25833
779.489	2.41034
782.382	9.41898
785.275	1.02191
788.167	6.35141
791.06	9.01825
793.953	6.35675
796.846	2.7041
799.738	7.35837
802.631	2.58685
805.524	3.61343
808.416	8.92941
811.309	13.4167
814.202	10.2787
817.094	15.1637
819.987	18.0495
822.88	18.911
825.773	13.8995
828.665	0.668976
831.558	1.78937
834.451	10.5823
837.343	11.0646
840.236	20.2877
843.129	50.9877
846.021	61.9212
848.914	102.937
851.807	179.869
854.699	215.182
857.592	218.856
860.485	165.935
863.378	101.497
866.27	64.4734
869.163	43.2034
872.056	29.1882
874.948	17.562
877.841	1.35037
880.734	10.0106
883.626	5.14011
886.519	19.0224
889.412	3.57227
892.304	34.705
895.197	36.0036
898.09	24.1871
900.983	52.8518
903.875	25.1766
906.768	12.0438
909.661	15.006
912.553	17.0312
915.446	44.2947
918.339	84.2433
921.231	146.58
924.124	225.643
927.017	276.69
929.91	283.116
932.802	264.743
935.695	250.945
938.588	196.953
941.48	163.23
944.373	104.226
947.266	62.5102
950.159	45.2592
953.051	30.9683
955.944	2.94415
958.837	1.07602
961.729	1.50528
964.622	9.08041
967.515	3.13983
970.407	3.23352
973.3	2.24612
976.193	7.72684
979.086	19.2429
981.978	24.728
984.871	55.0868
987.764	92.8486
990.656	123.37
993.549	196.028
996.442	328.253
999.334	499.292
1002.23	720.048
1005.12	1038.53
1008.01	1367.53
1010.9	1531.4
1013.8	1498.53
1016.69	1480.5
1019.58	1534.01
1022.48	1664.18
1025.37	1771.87
1028.26	1857.63
1031.15	1790.24
1034.05	1475.72
1036.94	1142.08
1039.83	854.259
1042.72	585.49
1045.62	447.262
1048.51	314.745
1051.4	236.454
1054.3	192.059
1057.19	149.68
1060.08	156.352
1062.97	95.332
1065.87	85.8754
1068.76	50.3913
1071.65	17.3732
1074.55	18.4889
1077.44	17.3498
1080.33	8.435
1083.22	2.15674
1086.12	17.9725
1089.01	7.45111
1091.9	13.9896
1094.79	15.612
1097.69	18.1878
1100.58	17.7006
1103.47	13.4726
1106.36	3.94037
1109.26	1.07837
1112.15	16.6235
1115.04	5.96121
1117.93	15.9548
1120.83	19.7004
1123.72	13.3658
1126.61	3.20657
1129.51	12.4565
1132.4	16.3988
1135.29	26.197
1138.18	31.0907
1141.08	16.6181
1143.97	22.641
1146.86	3.70038
1149.76	24.4146
1152.65	7.16617
1155.54	19.6673
1158.43	9.32648
1161.33	6.7634
1164.22	12.8463
1167.11	4.44019
1170	9.8768
1172.9	11.5484
1175.79	20.2127
1178.68	2.60376
1181.57	10.7071
1184.47	4.77508
1187.36	18.8413
1190.25	13.3717
1193.14	10.4588
1196.04	7.32754
1198.93	9.84662
1201.82	10.7086
1204.72	9.38415
1207.61	26.1618
1210.5	4.98062
1213.39	26.9229
1216.29	22.8664
1219.18	23.5791
1222.07	11.6729
1224.96	2.80359
1227.86	4.25717
1230.75	1.54422
1233.64	25.3241
1236.54	27.2309
1239.43	10.9967
1242.32	15.5297
1245.21	1.31729
1248.11	19.953
1251	22.1487
1253.89	4.99219
1256.79	9.9165
1259.68	41.826
1262.57	0.548737
1265.46	14.3956
1268.36	4.52508
