Measurement: Raman, 785 nm, unoriented, Raman Data Processed
Mineral: Enstatite
Rruff sample: R040094
Ideal chemistry: MgSiO_3_
Locality: unknown
Source: University of Arizona Mineral Museum
Description: Dark green massive, associated with anthophyllite
Measured chemistry: (Mg_0.84_Fe_0.15_)(Si_0.99_Al_0.01_)O_3_; = Enstatite :  [box](Mg_0.83_Fe_0.14_Na_0.01_Ca_0.01_)_7_(Si_0.99_Al_0.01_)_8_O_22_(OH)_2_ = Anthophyllite
Raman shift (cm-1)	intensity
109.576	0
112.469	15.7722
115.362	64.9071
118.255	68.5801
121.147	2.27203
124.04	125.248
126.933	573.679
129.825	1158.47
132.718	1409.22
135.611	714.133
138.504	400.772
141.396	531.212
144.289	907.66
147.182	1234.34
150.074	1060.8
152.967	738.756
155.86	567.474
158.752	546.344
161.645	597
164.538	628.271
167.43	412.399
170.323	275.248
173.216	184.727
176.109	158.964
179.001	182.689
181.894	169.416
184.787	211.754
187.679	315.065
190.572	301.848
193.465	193.881
196.357	121.882
199.25	51.4509
202.143	57.2396
205.036	26.8702
207.928	3.38629
210.821	25.3411
213.714	85.6242
216.606	139.759
219.499	250.476
222.392	418.539
225.285	733.614
228.177	1267.51
231.07	1994.47
233.963	2487.93
236.855	2047.34
239.748	1146.88
242.641	602.856
245.533	305.325
248.426	161.928
251.319	72.3248
254.212	34.6349
257.104	6.32477
259.997	11.4907
262.89	22.2225
265.782	31.8116
268.675	43.5854
271.568	3.49353
274.46	8.68652
277.353	18.605
280.246	9.09729
283.139	22.0619
286.031	39.7099
288.924	124.998
291.817	226.796
294.709	324.667
297.602	328.439
300.495	254.165
303.387	222.561
306.28	229.968
309.173	258.873
312.065	381.865
314.958	576.1
317.851	683.085
320.744	635.787
323.636	680.106
326.529	960.007
329.422	1517.37
332.314	2599.79
335.207	4044.88
338.1	5169.81
340.992	4721.52
343.885	3100.27
346.778	1827.69
349.671	1101.04
352.563	729.684
355.456	560.121
358.349	419.369
361.241	234.918
364.134	197.545
367.027	207.995
369.919	279.714
372.812	441.124
375.705	568.276
378.598	526.174
381.49	456.415
384.383	524.537
387.276	780.494
390.168	1212.3
393.061	1612.01
395.954	1874.26
398.846	1930.55
401.739	1670.25
404.632	1385.55
407.524	1143.48
410.417	952.618
413.31	781.36
416.203	673.882
419.095	519.729
421.988	294.612
424.881	109.942
427.773	14.454
430.666	1.32605
433.559	21.2455
436.452	78.8362
439.344	105.024
442.237	30.1474
445.13	23.7409
448.022	52.6249
450.915	29.871
453.808	2.82318
456.7	10.7212
459.593	51.8591
462.486	56.0534
465.378	53.3929
468.271	30.2344
471.164	7.08951
474.057	2.3371
476.949	1.44278
479.842	5.44611
482.735	0.759735
485.627	18.6352
488.52	26.6382
491.413	52.1631
494.305	48.1077
497.198	46.6605
500.091	84.6584
502.984	96.0642
505.876	130.726
508.769	212.785
511.662	323.787
514.554	534.343
517.447	725.837
520.34	800.01
523.232	756.107
526.125	625.726
529.018	496.024
531.911	471.172
534.803	540.202
537.696	615.722
540.589	600.981
543.481	588.711
546.374	598.451
549.267	510.197
552.159	353.074
555.052	221.241
557.945	139.3
560.838	92.5743
563.73	69.3708
566.623	45.8787
569.516	48.6119
572.408	49.2163
575.301	32.8441
578.194	50.7999
581.087	49.6335
583.979	30.7141
586.872	17.8778
589.765	25.1179
592.657	15.6581
595.55	16.2602
598.443	0.326385
601.335	7.90149
604.228	1.41876
607.121	18.9062
610.014	9.29196
612.906	6.01294
615.799	5.78204
618.692	11.2438
621.584	9.91415
624.477	17.9005
627.37	19.0421
630.262	28.0312
633.155	50.4879
636.048	42.6331
638.941	83.848
641.833	115.536
644.726	182.515
647.619	248.63
650.511	410.272
653.404	646.102
656.297	992.629
659.189	1291.1
662.082	1309.05
664.975	970.59
667.867	733.633
670.76	708.269
673.653	832.159
676.546	1098.6
679.438	1398.24
682.331	1495.32
685.224	1188.96
688.116	718.269
691.009	427.106
693.902	239.318
696.794	154.191
699.687	108.422
702.58	76.9647
705.473	47.0046
708.365	26.9573
711.258	20.1121
714.151	1.0842
717.043	9.36853
719.936	22.3599
722.829	0.600983
725.721	8.81232
728.614	13.0452
731.507	36.6915
734.4	34.0468
737.292	77.0064
740.185	89.4702
743.078	121.246
745.97	140.685
748.863	187.768
751.756	185.969
754.649	105.393
757.541	56.8628
760.434	21.4751
763.327	3.56459
766.219	3.93965
769.112	4.33055
772.005	8.95671
774.897	4.06227
777.79	20.9776
780.683	1.74106
783.576	1.59264
786.468	16.6489
789.361	15.2583
792.254	6.66667
795.146	10.404
798.039	4.47624
800.932	4.77133
803.824	14.6372
806.717	27.6484
809.61	13.9166
812.503	28.4477
815.395	17.7395
818.288	17.0774
821.181	4.6891
824.073	13.6078
826.966	25.6061
829.859	17.5353
832.751	11.4226
835.644	5.69127
838.537	11.612
841.429	6.58681
844.322	24.3581
847.215	25.7288
850.108	40.368
853	77.849
855.893	101.243
858.786	101.37
861.678	111.802
864.571	80.4425
867.464	46.6057
870.356	28.6901
873.249	23.3473
876.142	19.084
879.035	10.4845
881.927	3.51495
884.82	1.88614
887.713	1.61014
890.605	25.2499
893.498	46.1806
896.391	57.7814
899.284	53.6406
902.176	26.7051
905.069	5.39862
907.962	13.632
910.854	3.62131
913.747	3.2652
916.64	50.0788
919.532	50.9848
922.425	119.618
925.318	173.316
928.21	181.639
931.103	187.797
933.996	183.46
936.889	194.109
939.781	165.139
942.674	139.448
945.567	90.3269
948.459	77.0033
951.352	44.8063
954.245	44.3234
957.138	13.5862
960.03	27.3074
962.923	3.39316
965.816	14.0373
968.708	9.39203
971.601	6.72089
974.494	16.7436
977.386	17.5298
980.279	7.90097
983.172	21.5604
986.064	48.2553
988.957	70.7852
991.85	108.251
994.743	212.612
997.635	317.602
1000.53	491.378
1003.42	692.262
1006.31	913.005
1009.21	1008.64
1012.1	1032.66
1014.99	1004.69
1017.88	1043.1
1020.78	1057.19
1023.67	1056.5
1026.56	1042.82
1029.45	1004.9
1032.35	826.46
1035.24	720.955
1038.13	522.297
1041.03	380.351
1043.92	291.476
1046.81	207.64
1049.7	145.834
1052.6	138.655
1055.49	110.678
1058.38	76.9443
1061.28	60.5311
1064.17	50.5522
1067.06	16.9125
1069.95	15.5534
1072.85	14.8276
1075.74	7.47383
1078.63	4.46516
1081.52	3.58031
1084.42	2.50687
1087.31	5.1324
1090.2	22.8877
1093.09	15.4883
1095.99	9.75984
1098.88	10.657
1101.77	9.54378
1104.66	29.2181
1107.56	4.76121
1110.45	3.52878
1113.34	6.68224
1116.24	20.6247
1119.13	0.451462
1122.02	4.86031
1124.91	12.8481
1127.81	5.77947
1130.7	7.80434
1133.59	9.09187
1136.48	11.5294
1139.38	16.1644
1142.27	5.20879
1145.16	6.09801
1148.06	2.34541
1150.95	11.7114
1153.84	22.3467
1156.73	10.37
1159.63	13.3177
1162.52	18.7626
1165.41	20.5946
1168.31	19.5233
1171.2	14.8662
1174.09	17.4285
1176.98	18.8765
1179.88	9.75168
1182.77	14.4998
1185.66	18.612
1188.55	13.2635
1191.45	6.35049
1194.34	8.91435
1197.23	11.5212
1200.12	28.9807
1203.02	9.0206
1205.91	6.48881
1208.8	7.68811
1211.69	18.6424
1214.59	22.6768
1217.48	18.4825
1220.37	27.5325
1223.27	34.6799
1226.16	15.4251
1229.05	31.2913
1231.94	7.9325
1234.84	12.9204
1237.73	5.12134
1240.62	25.6054
1243.52	28.8498
1246.41	21.337
1249.3	20.5572
1252.19	17.1447
1255.09	37.1058
1257.98	11.2665
1260.87	22.7288
