Measurement: Raman, 532 nm, unoriented, Raman Data Processed
Mineral: Enstatite
Rruff sample: R050644
Ideal chemistry: MgSiO_3_
Locality: Morogoro, Tanzania
Source: Jibamitra Ganguly
Description: Light brown crystal fragment
Measured chemistry: (Mg_0.90_Fe_0.10_)SiO_3_
Raman shift (cm-1)	intensity
126.905	0
130.279	186.381
133.654	181.974
137.029	42.2331
140.404	4.99423
143.779	3.65781
147.154	18.9115
150.528	77.1856
153.903	84.7809
157.278	53.624
160.653	40.7182
164.028	57.4209
167.402	60.5388
170.777	4.02045
174.152	1.91428
177.527	6.38406
180.902	15.3049
184.277	28.3066
187.651	55.5703
191.026	90.3201
194.401	70.3857
197.776	59.8217
201.151	57.577
204.525	38.5777
207.9	14.1794
211.275	14.323
214.65	44.1852
218.025	107.287
221.4	181.73
224.774	262.213
228.149	368.092
231.524	518.459
234.899	711.362
238.274	587.75
241.649	298.279
245.023	143.24
248.398	60.2127
251.773	30.5463
255.148	13.4029
258.523	8.89648
261.897	1.0257
265.272	3.37317
268.647	6.26904
272.022	3.54047
275.397	5.9617
278.772	9.41467
282.146	3.42462
285.521	9.27762
288.896	17.0538
292.271	37.5313
295.646	61.9219
299.02	84.3961
302.395	65.9131
305.77	58.4324
309.145	57.1898
312.52	53.7069
315.895	88.3572
319.269	178.848
322.644	336.917
326.019	564.357
329.394	849.177
332.769	1215.99
336.144	1749.02
339.518	2240.89
342.893	1921.33
346.268	1052.07
349.643	529.177
353.018	291.921
356.392	187.386
359.767	120.977
363.142	53.319
366.517	21.5083
369.892	22.5966
373.267	44.0336
376.641	77.7977
380.016	97.6309
383.391	90.6918
386.766	112.766
390.141	182.787
393.515	295.781
396.89	403.068
400.265	437.495
403.64	387.944
407.015	335.253
410.39	323.782
413.764	332.186
417.139	304.895
420.514	236.943
423.889	133.333
427.264	73.6849
430.639	67.3566
434.013	99.1262
437.388	173.038
440.763	241.558
444.138	178.715
447.513	51.6829
450.887	6.87878
454.262	4.29758
457.637	4.60397
461.012	2.5809
464.387	4.44226
467.762	3.71506
471.136	2.93933
474.511	1.71884
477.886	4.64542
481.261	3.6427
484.636	1.71756
488.01	5.50299
491.385	2.74014
494.76	3.32028
498.135	11.1402
501.51	16.4065
504.885	36.208
508.259	56.4927
511.634	88.9822
515.009	128.408
518.384	167.859
521.759	159.597
525.134	146.755
528.508	124.598
531.883	118.974
535.258	142.257
538.633	163.28
542.008	142.341
545.382	126.845
548.757	115.296
552.132	84.0908
555.507	49.2141
558.882	34.9026
562.256	27.7324
565.631	23.4674
569.006	31.3098
572.381	33.643
575.756	34.0896
579.131	31.9685
582.505	23.5149
585.88	15.9012
589.255	12.7256
592.63	9.57059
596.005	5.9314
599.38	4.76172
602.754	3.22494
606.129	1.42276
609.504	3.57297
612.879	1.97067
616.254	0.278778
619.629	5.31509
623.003	13.4774
626.378	19.0639
629.753	32.085
633.128	48.9031
636.503	82.7015
639.877	124.475
643.252	166.895
646.627	278.557
650.002	446.316
653.377	663.693
656.751	952.798
660.126	1259.89
663.501	1280.87
666.876	975.409
670.251	850.233
673.626	940.841
677	1171.2
680.375	1470.05
683.75	1580.29
687.125	1189.77
690.5	652.766
693.875	338.926
697.249	190.776
700.624	116.686
703.999	71.5662
707.374	41.658
710.749	28.5302
714.124	18.109
717.498	9.66751
720.873	6.32819
724.248	6.68341
727.623	11.3534
730.998	16.2793
734.372	29.2109
737.747	34.5301
741.122	39.2186
744.497	45.1692
747.872	62.8947
751.246	62.3173
754.621	29.8581
757.996	12.9355
761.371	0.243134
764.746	2.33316
768.121	1.36658
771.495	1.94534
774.87	1.33469
778.245	0.998444
781.62	0.09436
784.995	0.890015
788.37	0.651733
791.744	3.8671
795.119	3.23581
798.494	7.565
801.869	15.7609
805.244	19.8679
808.619	28.0126
811.993	29.1935
815.368	33.4679
818.743	41.0442
822.118	44.1683
825.493	40.9106
828.867	42.8797
832.242	39.2712
835.617	42.2414
838.992	45.2819
842.367	51.059
845.741	63.5121
849.116	80.8446
852.491	122.377
855.866	140.348
859.241	113.261
862.616	69.2596
865.99	44.661
869.365	25.9096
872.74	14.0991
876.115	7.11313
879.49	3.21542
882.865	3.2941
886.239	2.20755
889.614	3.00928
892.989	4.50418
896.364	5.71536
899.739	4.8772
903.113	2.0087
906.488	1.76147
909.863	3.74762
913.238	10.6771
916.613	19.5032
919.987	27.5301
923.362	48.975
926.737	71.1595
930.112	74.8112
933.487	79.5228
936.862	74.8881
940.236	52.6255
943.611	30.909
946.986	18.9692
950.361	12.9795
953.736	8.23651
957.111	0.688049
960.485	0.085388
963.86	2.1517
967.235	0.829224
970.61	0.672882
973.985	1.3558
977.36	8.96896
980.734	10.685
984.109	21.5193
987.484	37.9831
990.859	72.0044
994.234	116.719
997.608	195.762
1000.98	305.639
1004.36	431.218
1007.73	596.333
1011.11	694.959
1014.48	649.117
1017.86	641.269
1021.23	684.263
1024.61	719.045
1027.98	730.882
1031.36	678.205
1034.73	537.924
1038.11	380.678
1041.48	260.171
1044.86	167.135
1048.23	110.153
1051.61	74.9334
1054.98	58.0216
1058.36	51.5019
1061.73	36.2808
1065.11	21.4748
1068.48	7.29623
1071.85	6.73498
1075.23	1.3093
1078.6	3.66693
1081.98	1.12805
1085.35	1.76312
1088.73	1.24399
1092.1	1.13394
1095.48	3.14279
1098.85	5.86029
1102.23	13.8518
1105.6	18.4416
1108.98	36.9959
1112.35	47.9759
1115.73	35.3693
1119.1	26.3708
1122.48	13.547
1125.85	12.6547
1129.23	10.2104
1132.6	5.6051
1135.98	5.47824
1139.35	2.59158
1142.73	5.24442
1146.1	7.42297
1149.47	6.70691
1152.85	2.44418
1156.22	1.76932
1159.6	0.53891
1162.97	2.34177
1166.35	1.94318
1169.72	1.94965
1173.1	7.37534
1176.47	10.6458
1179.85	17.5482
1183.22	24.4079
1186.6	26.9247
1189.97	16.5461
1193.35	5.00439
1196.72	0.929474
1200.1	0.167755
1203.47	0.122833
1206.85	2.45203
1210.22	3.65308
1213.6	8.02124
1216.97	9.12982
1220.35	14.7854
1223.72	15.554
1227.1	20.1832
1230.47	19.0041
1233.85	17.7734
1237.22	15.4088
1240.6	12.63
1243.97	10.7004
1247.35	11.4945
1250.72	9.51477
1254.1	7.50961
1257.47	5.04755
1260.84	1.7377
1264.22	4.28574
1267.59	0.175049
1270.97	1.15195
1274.34	0.205231
1277.72	2.57455
1281.09	1.33749
1284.47	3.20389
1287.84	5.73746
1291.22	6.5527
1294.59	11.114
1297.97	4.83099
1301.34	1.07446
