Measurement: Raman, 532 nm, unoriented, Raman Data Processed
Mineral: Enstatite
Rruff sample: R040094
Ideal chemistry: MgSiO_3_
Locality: unknown
Source: University of Arizona Mineral Museum
Description: Dark green massive, associated with anthophyllite
Measured chemistry: (Mg_0.84_Fe_0.15_)(Si_0.99_Al_0.01_)O_3_; = Enstatite :  [box](Mg_0.83_Fe_0.14_Na_0.01_Ca_0.01_)_7_(Si_0.99_Al_0.01_)_8_O_22_(OH)_2_ = Anthophyllite
Raman shift (cm-1)	intensity
114.815	0
118.19	155.848
121.565	974.188
124.94	2805.45
128.314	5367
131.689	3482.85
135.064	1257.45
138.439	632.726
141.814	332.985
145.189	200.369
148.563	73.3284
151.938	9.46851
155.313	14.9166
158.688	18.2932
162.063	85.4929
165.437	153.674
168.812	14.6548
172.187	22.0599
175.562	8.21332
178.937	12.0049
182.311	83.2641
185.686	178.501
189.061	328.464
192.436	193.498
195.811	105.183
199.185	91.8359
202.56	50.2839
205.935	21.3026
209.31	21.5405
212.685	9.01691
216.06	117.597
219.434	259.532
222.809	570.865
226.184	1046.22
229.559	1681.19
232.934	2233.35
236.309	2036.7
239.683	1021.41
243.058	466.013
246.433	229.22
249.808	128.636
253.183	71.7851
256.557	31.8929
259.932	33.2601
263.307	28.3339
266.682	1.8378
270.057	9.44086
273.431	38.7125
276.806	49.1749
280.181	40.9672
283.556	18.2138
286.931	64.2663
290.305	159.361
293.68	257.271
297.055	308.155
300.43	208.94
303.805	208.066
307.18	251.588
310.554	287.723
313.929	484.635
317.304	709.21
320.679	911.101
324.054	1398.15
327.428	2510.77
330.803	4234.69
334.178	6353.8
337.553	8387.53
340.928	7764.53
344.303	4824.69
347.677	2509.64
351.052	1424.43
354.427	886.911
357.802	571.4
361.177	306.916
364.551	145.783
367.926	184.012
371.301	268.818
374.676	442.712
378.051	445.422
381.425	369.878
384.8	552.943
388.175	985.061
391.55	1571.04
394.925	2075.34
398.3	2293.2
401.674	2088.02
405.049	1733.06
408.424	1445.41
411.799	1178.85
415.174	943.144
418.548	730.005
421.923	434.601
425.298	237.378
428.673	253.69
432.048	428.917
435.423	701.266
438.797	870.323
442.172	522.03
445.547	129.907
448.922	3.17609
452.297	19.6649
455.671	0.721252
459.046	18.8522
462.421	34.6119
465.796	21.6282
469.171	3.36047
472.546	18.111
475.92	21.6191
479.295	21.4011
482.67	21.9487
486.045	7.71585
489.42	17.3378
492.794	34.258
496.169	54.0479
499.544	67.5512
502.919	136.286
506.294	233.922
509.668	413.777
513.043	571.194
516.418	791.104
519.793	878.949
523.168	869.712
526.543	752.904
529.917	661.919
533.292	741.377
536.667	892.96
540.042	811.718
543.417	725.112
546.791	662.37
550.166	525.76
553.541	320.79
556.916	208.567
560.291	158.446
563.665	123.062
567.04	118.479
570.415	89.4814
573.79	77.7199
577.165	87.987
580.54	77.6959
583.914	68.2546
587.289	66.402
590.664	56.5506
594.039	57.4772
597.414	15.7862
600.788	6.12042
604.163	3.98706
607.538	5.55948
610.913	18.5355
614.288	21.0238
617.663	2.66235
621.037	2.72357
624.412	39.3171
627.787	70.0627
631.162	130.069
634.537	179.066
637.911	290.803
641.286	497.694
644.661	891.055
648.036	1436.21
651.411	2243.99
654.785	3375.19
658.16	4613.3
661.535	5079.95
664.91	4000.13
668.285	3349.52
671.659	3599.59
675.034	4505.14
678.409	5751.35
681.784	6348.76
685.159	4969.55
688.534	2823.94
691.908	1582.3
695.283	927.048
698.658	558.194
702.033	363.547
705.408	244.403
708.783	157.714
712.157	80.4262
715.532	58.3525
718.907	23.1837
722.282	27.3586
725.657	29.3691
729.031	58.2756
732.406	81.2613
735.781	108.568
739.156	160.786
742.531	168.324
745.905	227.8
749.28	274.347
752.655	207.489
756.03	81.9357
759.405	37.2142
762.779	18.7566
766.154	19.7714
769.529	8.0954
772.904	2.90967
776.279	10.0783
779.654	1.39566
783.028	1.52978
786.403	0.809326
789.778	7.0249
793.153	11.9612
796.528	16.0298
799.903	8.97653
803.277	26.2935
806.652	29.8134
810.027	27.0095
813.402	16.5246
816.777	14.3835
820.151	14.8087
823.526	24.6365
826.901	23.8062
830.276	37.3456
833.651	32.3347
837.025	39.8807
840.4	70.2384
843.775	94.7456
847.15	176
850.525	265.449
853.899	420.094
857.274	474.473
860.649	462.282
864.024	335.24
867.399	227.862
870.774	141.469
874.148	80.5374
877.523	26.4665
880.898	9.34686
884.273	10.6686
887.648	23.4695
891.023	7.19574
894.397	43.1229
897.772	47.8784
901.147	9.51849
904.522	0.479065
907.896	20.7857
911.271	15.2288
914.646	41.7707
918.021	113.136
921.396	222.732
924.771	378.214
928.145	423.029
931.52	463.909
934.895	483.246
938.27	464.326
941.645	384.185
945.019	276.764
948.394	186.258
951.769	119.333
955.144	60.8915
958.519	22.9658
961.894	19.6999
965.268	2.37134
968.643	14.5903
972.018	4.20776
975.393	31.338
978.768	57.7039
982.143	134.147
985.517	242.535
988.892	459.717
992.267	784.19
995.642	1333.31
999.016	2027
1002.39	2862.8
1005.77	3777.64
1009.14	4276.36
1012.52	4155.46
1015.89	4126.31
1019.26	4235.12
1022.64	4119.25
1026.02	3880.01
1029.39	3455.08
1032.77	2755.62
1036.14	2030.79
1039.51	1428.5
1042.89	984.321
1046.26	670.805
1049.64	502.857
1053.01	376.946
1056.39	294.171
1059.76	195.801
1063.14	122.19
1066.51	75.1363
1069.89	52.3245
1073.26	31.0747
1076.64	4.0542
1080.01	4.27835
1083.39	3.63812
1086.76	2.40826
1090.14	2.80106
1093.51	3.22223
1096.89	7.75864
1100.26	12.9824
1103.64	11.6641
1107.01	5.16031
1110.38	6.03137
1113.76	12.4526
1117.13	14.1063
1120.51	17.6921
1123.88	17.7848
1127.26	24.3199
1130.63	24.2136
1134.01	39.3147
1137.38	31.1676
1140.76	14.673
1144.13	0.08374
1147.51	13.066
1150.88	17.878
1154.26	12.3264
1157.63	2.67969
1161.01	28.5847
1164.38	19.3318
1167.76	24.6224
1171.13	4.39041
1174.51	18.4164
1177.88	20.8111
1181.26	13.6515
1184.63	13.5267
1188.01	5.79947
1191.38	0.133911
1194.76	5.34982
1198.13	3.26398
1201.51	14.0714
1204.88	0.783478
1208.26	13.3023
1211.63	8.32398
1215.01	6.1019
1218.38	5.94913
1221.75	11.8245
1225.13	10.1193
1228.5	0.021729
1231.88	20.1897
1235.25	6.00037
1238.63	12.8233
1242	31.3378
1245.38	15.1219
1248.75	18.7128
1252.13	10.4657
1255.5	17.2617
1258.88	19.2948
1262.25	11.8312
1265.63	16.85
1269	14.0972
1272.38	22.2608
1275.75	4.98953
1279.13	34.7428
1282.5	25.1556
