Measurement: Raman, 785 nm, unoriented, Raman Data Processed
Mineral: Enstatite
Rruff sample: R040093
Ideal chemistry: MgSiO_3_
Locality: Castle Rock, Pennsylvania, USA
Source: University of Arizona Mineral Museum
Description: Dark green massive
Measured chemistry: (Mg_0.84_Fe_0.15_Al_0.01_)Si_1.00_O_3_
Raman shift (cm-1)	intensity
114.398	0
117.29	17.8791
120.183	9.39398
123.076	130.525
125.968	616.077
128.861	1655.22
131.754	1712.59
134.647	843.346
137.539	457.079
140.432	568.431
143.325	817.905
146.217	983.916
149.11	823.853
152.003	570.212
154.895	407.245
157.788	256.35
160.681	217.477
163.573	209.86
166.466	185.211
169.359	166.974
172.252	163.156
175.144	148.715
178.037	159.906
180.93	149.916
183.822	172.953
186.715	213.03
189.608	266.623
192.5	253.82
195.393	247.249
198.286	182.415
201.179	190.527
204.071	145.333
206.964	70.9146
209.857	24.7384
212.749	30.5383
215.642	51.1724
218.535	98.8987
221.428	161.322
224.32	301.233
227.213	464.98
230.106	717.866
232.998	1011.34
235.891	957.387
238.784	415.403
241.676	148.083
244.569	34.4902
247.462	7.56445
250.355	5.87115
253.247	12.0679
256.14	16.0065
259.033	8.711
261.925	30.0542
264.818	31.1487
267.711	36.2578
270.603	82.606
273.496	54.2486
276.389	22.6121
279.281	49.3353
282.174	53.2988
285.067	40.2094
287.96	16.0379
290.852	124.616
293.745	136.233
296.638	148.433
299.53	117.284
302.423	86.306
305.316	72.8425
308.209	66.6399
311.101	132.511
313.994	220.988
316.887	337.698
319.779	441.519
322.672	628.284
325.565	985.087
328.457	1574.49
331.35	2505.81
334.243	3960.1
337.135	5358.37
340.028	5550.41
342.921	4092.25
345.814	2458.72
348.706	1432.63
351.599	948.12
354.492	651.529
357.384	452.546
360.277	282.763
363.17	193.594
366.062	92.7792
368.955	103.305
371.848	133.83
374.741	206.717
377.633	230.699
380.526	185.523
383.419	101.486
386.311	151.152
389.204	222.429
392.097	423.082
394.99	603.042
397.882	723.416
400.775	725.077
403.668	647.846
406.56	586.41
409.453	525.964
412.346	485.16
415.238	349.766
418.131	240.269
421.024	175.144
423.916	103.625
426.809	107.426
429.702	179.523
432.595	335.861
435.487	555.935
438.38	650.889
441.273	438.578
444.165	195.932
447.058	57.173
449.951	39.7073
452.844	6.84967
455.736	10.8063
458.629	17.4102
461.522	22.1534
464.414	26.9079
467.307	23.7507
470.2	8.01111
473.092	11.4422
475.985	28.5613
478.878	22.6888
481.771	17.6853
484.663	11.3216
487.556	5.14761
490.449	8.99362
493.341	4.78574
496.234	46.2073
499.127	35.7465
502.019	46.2532
504.912	57.3028
507.805	84.7123
510.697	116.174
513.59	133.646
516.483	159.977
519.376	198.636
522.268	207.019
525.161	212.998
528.054	209.397
530.946	232.426
533.839	300.523
536.732	379.991
539.625	315.133
542.517	207.477
545.41	191.117
548.303	162.724
551.195	132.741
554.088	90.824
556.981	79.1553
559.873	61.9961
562.766	29.2662
565.659	29.7319
568.552	31.0881
571.444	48.3908
574.337	44.2696
577.23	45.4168
580.122	54.3483
583.015	14.0594
585.908	13.5207
588.8	12.4094
591.693	4.93634
594.586	9.9296
597.479	6.6409
600.371	8.89523
603.264	5.2142
606.157	9.83273
609.049	6.09973
611.942	22.3845
614.835	6.24191
617.727	0.589783
620.62	25.6436
623.513	42.6377
626.405	58.3988
629.298	94.7856
632.191	124.511
635.084	150.234
637.976	208.352
640.869	336.363
643.762	484.17
646.654	732.815
649.547	1118.66
652.44	1764.3
655.332	2653.49
658.225	3596.29
661.118	3949.83
664.011	3229.26
666.903	2624.62
669.796	2607.68
672.689	3045.35
675.581	3930.81
678.474	4896.2
681.367	5470.32
684.26	4704.21
687.152	3070.57
690.045	1891.91
692.938	1140.33
695.83	742.779
698.723	497.658
701.616	361.74
704.508	245.781
707.401	174.227
710.294	148.221
713.187	78.6557
716.079	64.5054
718.972	39.3877
721.865	24.7041
724.757	30.504
727.65	21.2556
730.543	17.9109
733.435	14.941
736.328	11.4119
739.221	3.46661
742.114	19.0056
745.006	8.79541
747.899	6.4303
750.792	6.71011
753.684	9.67426
756.577	16.6981
759.47	13.5504
762.362	2.40976
765.255	13.047
768.148	19.9908
771.04	1.79605
773.933	13.2637
776.826	19.5627
779.719	7.43704
782.611	14.5737
785.504	22.8777
788.397	14.3019
791.289	0.664551
794.182	19.2258
797.075	12.0305
799.967	2.00095
802.86	27.9758
805.753	26.3378
808.646	23.2982
811.538	30.7038
814.431	40.869
817.324	24.2736
820.216	41.6873
823.109	30.9154
826.002	26.7506
828.894	12.1842
831.787	21.869
834.68	20.1407
837.573	39.1516
840.465	45.8225
843.358	75.8765
846.251	72.6187
849.143	125.846
852.036	206.585
854.929	284.227
857.822	339.745
860.714	318.509
863.607	260.595
866.5	196.854
869.392	137.56
872.285	99.5381
875.178	50.4127
878.07	45.0862
880.963	34.0557
883.856	1.52646
886.749	20.2925
889.641	29.7509
892.534	6.77151
895.427	14.8612
898.319	6.6944
901.212	4.41446
904.105	12.2491
906.997	12.451
909.89	12.1964
912.783	6.99393
915.676	18.5205
918.568	34.2548
921.461	46.973
924.354	95.444
927.246	128.35
930.139	177.336
933.032	183.504
935.924	212.068
938.817	194.053
941.71	156.758
944.602	126.35
947.495	106.151
950.388	85.0753
953.281	46.2519
956.173	30.4008
959.066	6.83292
961.959	1.10782
964.851	25.3849
967.744	0.659027
970.637	15.7367
973.529	23.5675
976.422	35.7268
979.315	39.1731
982.208	75.7863
985.1	133.524
987.993	208.272
990.886	310.586
993.778	533.055
996.671	860.133
999.564	1347.67
1002.46	2075.54
1005.35	2944.16
1008.24	3361.45
1011.13	2771.36
1014.03	2018.07
1016.92	1631.63
1019.81	1386.73
1022.71	1153.64
1025.6	1028.35
1028.49	900.543
1031.38	731.349
1034.28	571.524
1037.17	466.177
1040.06	322.489
1042.95	227.39
1045.85	158.255
1048.74	124.401
1051.63	91.1242
1054.53	77.0546
1057.42	44.7123
1060.31	30.7513
1063.2	20.256
1066.1	10.1412
1068.99	20.0214
1071.88	2.29394
1074.77	0.580383
1077.67	2.06665
1080.56	4.02737
1083.45	5.91815
1086.35	3.34753
1089.24	7.90848
1092.13	20.8585
1095.02	14.5604
1097.92	1.39307
1100.81	23.9562
1103.7	12.4792
1106.59	25.195
1109.49	17.7821
1112.38	17.5135
1115.27	15.9212
1118.16	11.5953
1121.06	8.98947
1123.95	16.7588
1126.84	5.61289
1129.73	26.1025
1132.63	8.74713
1135.52	0.90033
1138.41	24.7715
1141.31	23.6925
1144.2	5.11417
1147.09	8.83377
1149.98	21.0814
1152.88	17.1701
1155.77	5.11044
1158.66	21.78
1161.56	17.2426
1164.45	19.9417
1167.34	27.2189
1170.23	6.40299
1173.13	22.9507
1176.02	17.7466
1178.91	17.5294
1181.8	10.4094
1184.7	21.6797
1187.59	24.28
1190.48	12.2465
1193.38	30.0578
1196.27	9.88138
1199.16	29.7528
1202.05	12.7921
1204.94	3.39569
1207.84	26.523
1210.73	38.1422
1213.62	30.5309
1216.52	35.893
1219.41	23.5585
1222.3	33.6754
1225.19	31.6407
1228.09	37.7138
1230.98	59.2586
1233.87	14.4734
1236.77	13.7594
1239.66	2.63803
1242.55	0.498962
1245.44	30.3196
1248.34	29.0763
1251.23	37.7104
1254.12	18.6298
1257.01	19.5505
1259.91	16.8436
1262.8	11.7302
1265.69	0
