Measurement: Raman, 780 nm, unoriented, Raman Data Processed
Mineral: Enstatite
Rruff sample: R050644
Ideal chemistry: MgSiO_3_
Locality: Morogoro, Tanzania
Source: Jibamitra Ganguly
Description: Light brown crystal fragment
Measured chemistry: (Mg_0.90_Fe_0.10_)SiO_3_
Raman shift (cm-1)	intensity
119.988	0
123.363	6.31851
126.738	27.976
130.113	93.6798
133.487	57.0518
136.862	5.73061
140.237	1.04381
143.612	5.50789
146.987	12.0986
150.362	17.8033
153.736	10.4517
157.111	2.49156
160.486	6.4561
163.861	7.41133
167.236	12.0164
170.61	2.70833
173.985	2.13736
177.36	0.306686
180.735	2.19382
184.11	11.1731
187.484	23.4895
190.859	45.0654
194.234	38.9616
197.609	24.3987
200.984	16.0921
204.358	11.8759
207.733	7.82158
211.108	8.70287
214.483	15.5059
217.858	26.3706
221.233	34.2097
224.607	48.3928
227.982	68.4192
231.357	101.696
234.732	172.747
238.107	162.07
241.482	77.0492
244.856	39.3864
248.231	17.7953
251.606	11.0371
254.981	6.34894
258.356	3.6178
261.73	2.20551
265.105	0.863861
268.48	0.478439
271.855	2.44725
275.23	1.41519
278.604	0.528107
281.979	1.41083
285.354	3.16821
288.729	4.05837
292.104	13.7699
295.478	24.3398
298.853	30.4435
302.228	22.9799
305.603	15.9361
308.978	14.7378
312.353	15.467
315.727	29.2148
319.102	46.2033
322.477	66.2145
325.852	80.9603
329.227	115.079
332.601	175.055
335.976	273.851
339.351	393.924
342.726	363.262
346.101	198.399
349.476	96.8259
352.85	51.1253
356.225	32.6083
359.6	21.8052
362.975	11.044
366.35	8.758
369.724	10.3603
373.099	14.167
376.474	29.3467
379.849	40.3891
383.224	39.4449
386.599	43.6238
389.973	55.1401
393.348	82.2955
396.723	109.691
400.098	113.275
403.473	92.9293
406.847	71.4334
410.222	67.7615
413.597	67.7815
416.972	61.9227
420.347	47.1852
423.721	24.3519
427.096	6.90834
430.471	0.299713
433.846	0.229126
437.221	1.57581
440.596	7.37907
443.97	7.2523
447.345	0.245857
450.72	2.63128
454.095	0.248108
457.47	0.012222
460.844	0.178833
464.219	0.645828
467.594	1.00835
470.969	0.334427
474.344	1.78221
477.719	1.13605
481.093	2.2219
484.468	1.90678
487.843	1.7141
491.218	4.82423
494.592	1.84078
497.967	3.03048
501.342	3.39738
504.717	7.33897
508.092	9.66248
511.467	14.6483
514.841	23.6644
518.216	35.4229
521.591	37.9985
524.966	41.0837
528.341	32.3034
531.716	24.4908
535.09	28.0971
538.465	34.0412
541.84	27.1171
545.215	23.8161
548.59	25.5425
551.964	19.6555
555.339	12.7296
558.714	7.54556
562.089	6.21341
565.464	5.95443
568.838	9.73752
572.213	12.0958
575.588	12.942
578.963	12.2599
582.338	8.09312
585.712	4.53707
589.087	3.62357
592.462	2.70016
595.837	2.15758
599.212	1.50692
602.587	0.353218
605.961	1.01521
609.336	0.463646
612.711	2.25628
616.086	1.49768
619.461	0.969467
622.836	2.2461
626.21	3.80708
629.585	2.40745
632.96	4.65881
636.335	8.21355
639.71	15.9269
643.084	16.516
646.459	26.4956
649.834	36.974
653.209	57.9107
656.584	86.29
659.958	121.345
663.333	132.379
666.708	100.116
670.083	78.7892
673.458	81.3096
676.832	97.7808
680.207	128.136
683.582	150.612
686.957	119.388
690.332	65.5728
693.707	34.5329
697.081	19.3266
700.456	11.5722
703.831	8.41244
707.206	3.78618
710.581	0.94706
713.955	0.835106
717.33	1.18253
720.705	0.113495
724.08	0.246635
727.455	0.333878
730.83	1.24548
734.204	2.79695
737.579	6.17522
740.954	3.73148
744.329	3.06633
747.704	3.86556
751.078	6.17706
754.453	4.48353
757.828	1.23334
761.203	1.61716
764.578	1.17502
767.952	1.83327
771.327	0.304909
774.702	1.32024
778.077	0.201324
781.452	2.01155
784.827	1.25182
788.201	0.795959
791.576	1.43417
794.951	2.4384
798.326	1.28687
801.701	2.36522
805.075	2.26897
808.45	5.18307
811.825	5.44604
815.2	7.1674
818.575	8.41302
821.949	4.51913
825.324	7.95425
828.699	5.91984
832.074	6.23713
835.449	7.57834
838.824	5.68513
842.198	8.02241
845.573	5.73982
848.948	7.97967
852.323	10.8819
855.698	12.7415
859.072	13.584
862.447	5.48566
865.822	4.61909
869.197	4.45418
872.572	1.78634
875.947	0.98468
879.321	0.302437
882.696	0.169609
886.071	0.495781
889.446	0.441231
892.821	0.221649
896.195	0.708595
899.57	0.287292
902.945	0.406502
906.32	0.768578
909.695	0.203842
913.069	2.88065
916.444	4.39509
919.819	4.85162
923.194	8.23118
926.569	12.1242
929.944	11.7195
933.318	11.8046
936.693	10.3056
940.068	9.53683
943.443	6.78123
946.818	1.18842
950.192	4.34959
953.567	2.92023
956.942	0.248062
960.317	0.493599
963.692	0.542427
967.067	0.853462
970.441	3.11889
973.816	1.5965
977.191	0.528732
980.566	1.22565
983.941	2.83602
987.315	4.32036
990.69	6.61609
994.065	13.8431
997.44	19.7376
1000.82	31.9552
1004.19	48.95
1007.56	66.767
1010.94	75.5323
1014.31	70.6067
1017.69	69.4659
1021.06	72.0655
1024.44	76.6192
1027.81	80.0787
1031.19	77.5427
1034.56	61.289
1037.94	45.548
1041.31	33.4186
1044.69	20.53
1048.06	14.4782
1051.44	10.1168
1054.81	8.54558
1058.19	6.30991
1061.56	3.4579
1064.94	1.68587
1068.31	1.11379
1071.69	1.28242
1075.06	1.25551
1078.43	0.505081
1081.81	0.539436
1085.18	0.08659
1088.56	0.358624
1091.93	1.96515
1095.31	0.565231
1098.68	2.05454
1102.06	1.34483
1105.43	0.670246
1108.81	3.4057
1112.18	5.70639
1115.56	4.45598
1118.93	3.68095
1122.31	1.71528
1125.68	3.02899
1129.06	2.48249
1132.43	1.28784
1135.81	1.1989
1139.18	2.84741
1142.56	2.11999
1145.93	2.62383
1149.31	1.94305
1152.68	0.049953
1156.06	1.66732
1159.43	1.50687
1162.81	2.17316
1166.18	0.118809
1169.56	2.10452
1172.93	1.82616
1176.31	3.64873
1179.68	2.5862
1183.06	2.44477
1186.43	4.25571
1189.8	4.85907
1193.18	1.46252
1196.55	1.8262
1199.93	2.57316
1203.3	0.288998
1206.68	2.66689
1210.05	1.05621
1213.43	3.51218
1216.8	2.53935
1220.18	3.06617
1223.55	4.12333
1226.93	3.23332
1230.3	3.07655
1233.68	1.32179
1237.05	1.53109
1240.43	4.14334
1243.8	1.75517
1247.18	3.7349
1250.55	1.37648
1253.93	1.94912
1257.3	2.47994
1260.67	1.6428
1264.05	2.60278
1267.42	2.1446
1270.8	1.36868
1274.17	0.125443
1277.55	0.008648
1280.92	3.17763
1284.3	0.263992
