Measurement: Raman, 532 nm, unoriented, Raman Data Processed
Mineral: Enstatite
Rruff sample: R060744
Ideal chemistry: MgSiO_3_
Locality: Orissa, India
Source: Herb Obodda
Description: Brown transparent fragment
Measured chemistry: (Mg_0.85_Fe^2+^_0.13_Fe^3+^_0.01_Mn_0.01_)_Σ=1_(Si_0.99_Al_0.01_)_Σ=1_O_3_; trace amounts of Ca; Fe^2+^ and Fe^3+^ splitted by charge balance
Raman shift (cm-1)	intensity
124.898	0
128.273	4047.99
131.648	2084.89
135.022	508.912
138.397	687.713
141.772	1222.67
145.147	1006.04
148.521	784.354
151.896	701.148
155.271	630.367
158.646	876.59
162.021	1214.2
165.396	1380.64
168.77	1240.74
172.145	1159.15
175.52	1170.06
178.895	1334.41
182.27	1561.66
185.645	1764.22
189.019	1631.27
192.394	1756.67
195.769	1554.56
199.144	1336.39
202.519	1279.08
205.893	1244.89
209.268	1216.52
212.643	1020.49
216.018	1077.32
219.393	1307.65
222.767	1635.95
226.142	2002.43
229.517	2912.15
232.892	4188.13
236.267	3997.05
239.641	2115.59
243.016	1461.11
246.391	1121.77
249.766	1061.91
253.141	909.535
256.516	804.174
259.89	697.049
263.265	1000.25
266.64	982.145
270.015	872.936
273.39	851.787
276.764	740.258
280.139	726.996
283.514	759.828
286.889	781.885
290.264	907.779
293.638	1106.73
297.013	1080.57
300.388	867.238
303.763	1031.57
307.138	1135.51
310.513	1175.11
313.887	1289.15
317.262	1504.85
320.637	1922.31
324.012	3186.52
327.387	4989.91
330.762	7759.09
334.136	11934.9
337.511	16307.5
340.886	15770.4
344.261	10046
347.635	6094.07
351.01	4216.62
354.385	3112.22
357.76	2381.94
361.135	1695.73
364.51	1304.84
367.884	1289.19
371.259	1304.06
374.634	1421.87
378.009	1743.63
381.384	1597.37
384.759	1526.49
388.133	1986.89
391.508	2501.78
394.883	2959.34
398.258	3236.97
401.633	3133.78
405.007	2988.32
408.382	2711.64
411.757	2439.81
415.132	2191.43
418.507	1879.69
421.881	1315.69
425.256	1081.29
428.631	981.521
432.006	1438.5
435.381	1974.4
438.755	2385.75
442.13	1837.21
445.505	910.039
448.88	483.746
452.255	395.344
455.63	319.629
459.004	160.383
462.379	146.184
465.754	365.355
469.129	195.852
472.504	335.398
475.878	211.871
479.253	19.301
482.628	34.727
486.003	202.176
489.378	130.781
492.753	154.973
496.127	26.125
499.502	70.496
502.877	35.586
506.252	183.34
509.627	378.773
513.001	435.551
516.376	800.977
519.751	821.316
523.126	1033.27
526.501	785.879
529.875	965.598
533.25	1146.96
536.625	1251.37
540	1052.57
543.375	1101.22
546.75	1116.61
550.124	1020.9
553.499	536.117
556.874	567.656
560.249	483.105
563.624	782.977
566.998	824.32
570.373	1115.32
573.748	1118.17
577.123	1005.89
580.498	724.406
583.872	636.723
587.247	783.008
590.622	789.516
593.997	581.605
597.372	515.434
600.747	598.059
604.121	659.238
607.496	438.195
610.871	596.75
614.246	777.344
617.621	1000.52
620.995	1041.56
624.37	1105.61
627.745	1029.52
631.12	1183.28
634.495	1172.95
637.87	1385.4
641.244	1742.4
644.619	2479.21
647.994	3678.6
651.369	5793.19
654.744	8337.6
658.118	12164.4
661.493	13811.4
664.868	10799.4
668.243	8483.49
671.618	9238.52
674.992	11586
678.367	15544.9
681.742	18085.8
685.117	14471.9
688.492	8599.71
691.867	5032.57
695.241	3319.35
698.616	2122.45
701.991	1515.58
705.366	1164.22
708.741	756.125
712.115	530.758
715.49	567.117
718.865	667.039
722.24	619.676
725.615	426.34
728.99	397.961
732.364	345.762
735.739	368.172
739.114	322.094
742.489	314.012
745.864	500.012
749.238	630.77
752.613	185.371
755.988	189.332
759.363	97.656
762.738	109.227
766.112	57.379
769.487	60.199
772.862	62.016
776.237	72.039
779.612	121.383
782.987	2.789
786.361	196.777
789.736	217.172
793.111	41.684
796.486	80.137
799.86	76.367
803.235	26.648
806.61	88.637
809.985	83.922
813.36	21.242
816.735	191.145
820.109	68.309
823.484	187.664
826.859	55.391
830.234	111.645
833.609	80.008
836.984	29.574
840.358	85.457
843.733	58.191
847.108	210.785
850.483	541.586
853.858	750.793
857.232	843.898
860.607	1067.14
863.982	1095.21
867.357	668.332
870.732	453.441
874.106	264.379
877.481	266.895
880.856	262.559
884.231	477.383
887.606	509.805
890.981	463.523
894.355	737.312
897.73	708.926
901.105	444.84
904.48	417.641
907.855	120.48
911.229	304.574
914.604	214.277
917.979	249.668
921.354	405.547
924.729	1003.8
928.104	1164.99
931.478	1464.23
934.853	1422.48
938.228	1340.7
941.603	1355.86
944.977	942.301
948.352	766.023
951.727	427.469
955.102	548.934
958.477	449.348
961.852	379.012
965.226	440.133
968.601	357.684
971.976	286.559
975.351	434.215
978.726	689.859
982.101	775.117
985.475	861.523
988.85	1414.26
992.225	2350.3
995.6	3691.83
998.974	6344.24
1002.35	9960.74
1005.72	14345.4
1009.1	15976.7
1012.47	11911.3
1015.85	8907.45
1019.22	7496.31
1022.6	6607.19
1025.97	5917.84
1029.35	5105.02
1032.72	4082.76
1036.1	3045.37
1039.47	2486.25
1042.85	1523.95
1046.22	801.344
1049.6	648.371
1052.97	598.082
1056.35	548.797
1059.72	340.484
1063.1	283.883
1066.47	197.359
1069.85	39
1073.22	7.285
1076.6	214.574
1079.97	297.062
1083.35	260.867
1086.72	4.273
1090.09	4
1093.47	19.18
1096.84	179.684
1100.22	204.551
1103.59	189.922
1106.97	141.352
1110.34	178.953
1113.72	142.441
1117.09	125.473
1120.47	4.133
1123.84	140.184
1127.22	64.574
1130.59	432.242
1133.97	315.375
1137.34	197.594
1140.72	237.547
1144.09	111.391
1147.47	5.039
1150.84	9.863
1154.22	18.145
1157.59	250.316
1160.97	118.578
1164.34	38.18
1167.71	125.945
1171.09	17.906
1174.46	179.887
1177.84	184.008
1181.21	251.641
1184.59	382.699
1187.96	356.254
1191.34	108.926
1194.71	105.34
1198.09	165.43
1201.46	11.395
1204.84	154.051
1208.21	91.938
1211.59	292.031
1214.96	191.137
1218.34	12.414
1221.71	17.91
1225.09	16.449
1228.46	458.645
1231.84	74.66
1235.21	332.777
1238.59	110.957
1241.96	230.938
1245.34	262.895
1248.71	497.129
1252.09	182.02
1255.46	229.113
1258.84	408.258
1262.21	75.266
1265.59	251.719
1268.96	103.84
1272.33	495.492
1275.71	361.543
1279.08	244.863
1282.46	43.926
1285.83	308.195
1289.21	195.539
1292.58	181.438
1295.96	18.379
1299.33	40.672
