Measurement: Raman, 780 nm, unoriented, Raman Data Processed
Mineral: Enstatite
Rruff sample: R070641
Ideal chemistry: MgSiO_3_
Locality: Sri Lanka
Source: Jibamitra Ganguly
Description: Translucent colorless crystalline fragment
Raman shift (cm-1)	intensity
121.934	0
124.827	15.4476
127.719	16.7078
130.612	136.078
133.505	276.308
136.398	367.818
139.29	390.357
142.183	327.127
145.076	255.27
147.968	400.383
150.861	506.507
153.754	554.789
156.646	433.153
159.539	347.474
162.432	298.269
165.325	216.367
168.217	106.402
171.11	102.614
174.003	27.4257
176.895	10.1605
179.788	19.5176
182.681	87.2601
185.573	242.293
188.466	460.178
191.359	769.678
194.251	1134.7
197.144	1248.63
200.037	1032.61
202.93	687.852
205.822	482.872
208.715	379.939
211.608	341.361
214.5	290.645
217.393	324.876
220.286	453.613
223.179	688.274
226.071	1043.93
228.964	1367.73
231.857	1899.54
234.749	2751.62
237.642	3930.14
240.535	3541.12
243.427	1949.47
246.32	858.773
249.213	325.762
252.106	75.684
254.998	8.26025
257.891	21.5458
260.784	41.7349
263.676	72.353
266.569	50.4961
269.462	48.6121
272.354	1.04748
275.247	120.268
278.14	230.048
281.033	179.525
283.925	74.0203
286.818	8.32996
289.711	26.7872
292.603	66.6956
295.496	245.832
298.389	425.283
301.281	513.495
304.174	311.17
307.067	218.78
309.959	272.698
312.852	394.834
315.745	589.476
318.638	946.692
321.53	1417.4
324.423	1729.26
327.316	1872.44
330.208	2354.78
333.101	3042.16
335.994	3931.7
338.887	5249.2
341.779	6563.69
344.672	7074.38
347.565	6126.63
350.457	4289.23
353.35	2833.36
356.243	1835.18
359.135	1240.09
362.028	850.645
364.921	617.275
367.813	449.328
370.706	423.2
373.599	435.091
376.492	579.333
379.384	726.871
382.277	1092.03
385.17	1260.28
388.062	1161.98
390.955	1030.56
393.848	1164.67
396.74	1484.94
399.633	1813.92
402.526	1836.6
405.419	1627.63
408.311	1432.84
411.204	1332.4
414.097	1426.1
416.989	1548.89
419.882	1366.5
422.775	1051.36
425.668	645.225
428.56	326.341
431.453	85.3705
434.346	19.5513
437.238	120.892
440.131	63.2364
443.024	41.2612
445.916	5.37439
448.809	40.0837
451.702	51.6439
454.594	122.474
457.487	138.436
460.38	173.081
463.273	102.474
466.165	104.957
469.058	103.942
471.951	108.154
474.843	67.4575
477.736	67.9446
480.629	76.7458
483.522	89.7785
486.414	107.931
489.307	109.15
492.2	72.9806
495.092	47.2115
497.985	2.55933
500.878	8.71161
503.77	15.5084
506.663	40.9252
509.556	134.284
512.448	230.186
515.341	376.122
518.234	512.008
521.127	595.179
524.019	606.173
526.912	637.119
529.805	611.599
532.697	542.998
535.59	526.322
538.483	654.871
541.375	606.756
544.268	447.584
547.161	382.412
550.054	395.06
552.946	335.096
555.839	286.466
558.732	188.272
561.624	169.943
564.517	183.13
567.41	210.586
570.303	307.495
573.195	447.937
576.088	584.185
578.981	643.725
581.873	495.635
584.766	277.572
587.659	159.966
590.551	124.489
593.444	115.601
596.337	67.9026
599.23	32.7248
602.122	7.89417
605.015	5.77258
607.908	37.8319
610.8	4.46088
613.693	34.0262
616.586	4.20325
619.478	26.5544
622.371	33.1401
625.264	78.088
628.157	142.7
631.049	185.734
633.942	251.424
636.835	341.607
639.727	377.935
642.62	501.122
645.513	747.319
648.405	1080.03
651.298	1585.06
654.191	2301.72
657.083	3206.94
659.976	4200.92
662.869	4843.15
665.762	4404.16
668.654	3581.39
671.547	3191.29
674.44	3474.88
677.332	4396.01
680.225	5786.74
683.118	7242.22
686.01	7705.3
688.903	6430.67
691.796	4180.83
694.689	2569.54
697.581	1529.32
700.474	962.615
703.367	615.289
706.259	433.739
709.152	294.774
712.045	192.85
714.938	150.218
717.83	130.424
720.723	83.6154
723.616	54.2569
726.508	48.3939
729.401	27.996
732.294	32.9984
735.186	29.3381
738.079	14.8127
740.972	11.0041
743.865	13.3815
746.757	41.0592
749.65	55.6889
752.543	30.4888
755.435	21.3702
758.328	17.0878
761.221	4.70355
764.113	4.64056
767.006	2.71136
769.899	28.4852
772.792	6.84363
775.684	1.2951
778.577	15.0175
781.47	36.8925
784.362	14.1219
787.255	2.07098
790.148	17.958
793.04	15.124
795.933	17.8124
798.826	17.6163
801.718	17.9297
804.611	37.3973
807.504	24.1573
810.397	31.9552
813.289	37.7317
816.182	44.1677
819.075	48.8885
821.967	45.3796
824.86	69.4041
827.753	64.9651
830.645	43.2247
833.538	65.7245
836.431	107.121
839.323	86.6096
842.216	138.54
845.109	153.643
848.002	239.85
850.894	257.206
853.787	250.459
856.68	224.069
859.572	120.565
862.465	118.334
865.358	81.5216
868.25	64.6237
871.143	31.6293
874.036	1.21149
876.929	19.4374
879.821	8.59528
882.714	5.92816
885.607	1.6311
888.5	7.89679
891.392	11.296
894.285	25.4559
897.178	4.01428
900.07	6.08868
902.963	13.0597
905.856	7.0816
908.748	0.661804
911.641	26.3171
914.534	53.757
917.427	106.999
920.319	168.563
923.212	251.855
926.105	384.541
928.997	480.099
931.89	547.505
934.783	547.932
937.675	529.239
940.568	483.324
943.461	410.524
946.354	314.51
949.246	228.565
952.139	173.058
955.032	94.8303
957.924	79.5402
960.817	25.8805
963.71	0.564758
966.602	3.01984
969.495	12.3235
972.388	7.23407
975.28	24.9177
978.173	73.992
981.066	154.5
983.959	206.493
986.851	374.504
989.744	612.002
992.637	947.047
995.529	1528.64
998.422	2336.5
1001.32	3521.37
1004.21	5198.8
1007.1	6959.34
1009.99	8362.34
1012.89	8129.26
1015.78	6163.04
1018.67	4533.62
1021.56	3550.88
1024.46	3241.16
1027.35	3149.36
1030.24	3148.1
1033.13	2981.04
1036.03	2560.51
1038.92	2042.59
1041.81	1565.07
1044.7	1157.93
1047.6	817.223
1050.49	580.301
1053.38	425.911
1056.28	312.762
1059.17	230.715
1062.06	154.617
1064.95	122.875
1067.85	86.0599
1070.74	70.7474
1073.63	17.8972
1076.53	2.74115
1079.42	35.6275
1082.31	3.47333
1085.2	12.0655
1088.1	4.97925
1090.99	17.8614
1093.88	17.5154
1096.77	18.1642
1099.67	6.20764
1102.56	12.529
1105.45	23.2127
1108.35	9.17578
1111.24	5.1629
1114.13	33.029
1117.02	27.4987
1119.91	16.9236
1122.81	15.1206
1125.7	32.8967
1128.59	29.7711
1131.49	33.2424
1134.38	53.7157
1137.27	27.8115
1140.16	47.3078
1143.06	64.226
1145.95	37.9416
1148.84	4.77173
1151.73	15.846
1154.63	23.0059
1157.52	20.5892
1160.41	30.0985
1163.31	30.1738
1166.2	25.396
1169.09	22.0583
1171.98	48.0073
1174.88	20.1484
1177.77	39.7368
1180.66	21.4516
1183.56	22.6485
1186.45	9.23126
1189.34	26.0238
1192.23	31.773
1195.13	21.8608
1198.02	3.99976
1200.91	15.2596
1203.8	15.4922
1206.7	9.7821
1209.59	16.5862
1212.48	29.1598
1215.38	22.3962
1218.27	16.7527
1221.16	20.5215
1224.05	20.7265
1226.94	27.7217
1229.84	11.8158
1232.73	8.65723
1235.62	2.4295
1238.52	23.9738
1241.41	26.7463
1244.3	14.2781
1247.19	6.35303
1250.09	15.5905
1252.98	23.6268
1255.87	26.9106
1258.77	34.6015
1261.66	13.0727
1264.55	34.7111
1267.44	21.6861
1270.34	13.6
1273.23	0.812439
1276.12	7.84363
