Measurement: Raman, 532 nm, unoriented, Raman Data Processed
Mineral: Enstatite
Rruff sample: R040093
Ideal chemistry: MgSiO_3_
Locality: Castle Rock, Pennsylvania, USA
Source: University of Arizona Mineral Museum
Description: Dark green massive
Measured chemistry: (Mg_0.84_Fe_0.15_Al_0.01_)Si_1.00_O_3_
Raman shift (cm-1)	intensity
116.261	0
119.636	128.023
123.011	523.613
126.386	1120.44
129.761	1252.2
133.136	610.582
136.51	422.025
139.885	538.207
143.26	506.255
146.635	416.002
150.01	215.449
153.385	57.7255
156.759	17.5645
160.134	12.948
163.509	14.5536
166.884	11.8153
170.258	32.5624
173.633	29.1185
177.008	47.9161
180.383	71.6189
183.758	177.798
187.133	260.093
190.507	391.577
193.882	412.435
197.257	274.619
200.632	245.889
204.007	209.849
207.381	156.157
210.756	132.271
214.131	158.314
217.506	207.958
220.881	305.661
224.256	499.455
227.63	813.674
231.005	1067.37
234.38	1301.68
237.755	646.133
241.13	169.123
244.505	70.6425
247.879	56.7588
251.254	52.6089
254.629	31.5436
258.004	7.55151
261.378	42.2736
264.753	75.7573
268.128	150.986
271.503	174.196
274.878	65.9888
278.253	49.8663
281.627	66.3556
285.002	4.46735
288.377	84.8375
291.752	137.921
295.127	206.577
298.502	185.259
301.876	108.397
305.251	133.009
308.626	207.853
312.001	335.071
315.375	545.25
318.75	677.687
322.125	826.118
325.5	1189.45
328.875	1762.48
332.25	2613.81
335.625	3481.92
338.999	3930.98
342.374	2881.3
345.749	1572.48
349.124	866.564
352.498	558.642
355.873	382.982
359.248	275.168
362.623	140.01
365.998	149.982
369.373	175.135
372.747	248.839
376.122	342.074
379.497	275.64
382.872	165.117
386.247	109.714
389.622	133.007
392.996	217.321
396.371	256.225
399.746	234.663
403.121	239.194
406.495	216.033
409.87	215.049
413.245	184.746
416.62	59.6031
419.995	2.53973
423.37	4.23621
426.744	20.9912
430.119	12.4396
433.494	74.1682
436.869	136.036
440.244	102.721
443.618	38.26
446.993	3.88336
450.368	11.0515
453.743	29.2721
457.118	49.7006
460.493	49.8079
463.867	56.8764
467.242	68.0169
470.617	61.3891
473.992	4.61975
477.367	9.36417
480.741	19.1008
484.116	3.96643
487.491	5.15405
490.866	8.2157
494.241	4.46851
497.615	14.066
500.99	29.2561
504.365	25.0117
507.74	50.3748
511.115	95.9342
514.49	117.339
517.864	155.333
521.239	183.205
524.614	214.038
527.989	270.681
531.364	334.949
534.739	447.558
538.113	428.671
541.488	284.911
544.863	219.741
548.238	205.149
551.612	144.542
554.987	94.1464
558.362	84.2938
561.737	72.4798
565.112	54.9598
568.487	55.5447
571.861	72.3194
575.236	63.6236
578.611	47.751
581.986	11.0493
585.361	16.9399
588.736	13.7088
592.11	4.82831
595.485	5.89444
598.86	17.3207
602.235	24.4941
605.61	0.650421
608.984	1.74582
612.359	18.2427
615.734	34.77
619.109	61.7685
622.484	81.1357
625.859	137.107
629.233	168.177
632.608	233.257
635.983	329.376
639.358	495.321
642.732	831.435
646.107	1310.53
649.482	1984.92
652.857	2911.82
656.232	4044.08
659.607	4917.24
662.981	4600.48
666.356	4065.87
669.731	4377.26
673.106	5300.86
676.481	6416.37
679.856	7240.49
683.23	6584.5
686.605	4212.33
689.98	2313.31
693.355	1312.41
696.73	806.294
700.104	522.35
703.479	328.897
706.854	222.361
710.229	110.376
713.604	93.4791
716.979	50.3555
720.353	41.926
723.728	22.2997
727.103	3.74249
730.478	8.24213
733.852	12.5652
737.227	11.6065
740.602	2.50076
743.977	7.49905
747.352	3.98956
750.727	8.31631
754.101	10.4952
757.476	8.78323
760.851	9.87924
764.226	5.42627
767.601	8.37128
770.976	5.07632
774.35	19.3555
777.725	11.2264
781.1	19.2729
784.475	2.84247
787.85	4.41846
791.224	13.9144
794.599	6.01234
797.974	32.1898
801.349	10.9681
804.724	36.2082
808.098	27.8701
811.473	32.6127
814.848	17.3948
818.223	39.3145
821.598	36.2084
824.972	52.9554
828.347	49.0501
831.722	43.5848
835.097	48.4955
838.472	64.9908
841.847	78.2267
845.221	121.018
848.596	161.365
851.971	271.052
855.346	350.564
858.721	372.942
862.096	308.944
865.47	214.555
868.845	130.098
872.22	84.6843
875.595	39.0871
878.97	26.3854
882.344	31.7997
885.719	10.9424
889.094	6.60547
892.469	6.18414
895.844	5.51727
899.218	11.9825
902.593	3.54794
905.968	28.6225
909.343	8.93433
912.718	20.8808
916.092	50.6671
919.467	142.003
922.842	233.631
926.217	364.729
929.592	480.866
932.967	592.081
936.341	595.713
939.716	548.274
943.091	370.621
946.466	257.068
949.841	169.028
953.216	105.139
956.59	45.9892
959.965	33.2907
963.34	5.10138
966.715	8.06165
970.09	26.6851
973.464	55.9674
976.839	141.082
980.214	270.613
983.589	488.947
986.964	843.158
990.338	1485.5
993.713	2708.08
997.088	4581.63
1000.46	7043.72
1003.84	10075.7
1007.21	12592.9
1010.59	10183.5
1013.96	6065.16
1017.34	3991.64
1020.71	3001.16
1024.09	2461.01
1027.46	2005.3
1030.84	1640.49
1034.21	1322.48
1037.59	1093.69
1040.96	823.001
1044.34	548.215
1047.71	379.882
1051.09	249.926
1054.46	189.266
1057.84	122.68
1061.21	67.0437
1064.58	21.5354
1067.96	14.8524
1071.33	3.6456
1074.71	1.50018
1078.08	6.94754
1081.46	18.9261
1084.83	8.80267
1088.21	11.2694
1091.58	1.68793
1094.96	6.10126
1098.33	6.02939
1101.71	3.25467
1105.08	12.7967
1108.46	21.1979
1111.83	20.4797
1115.21	21.8738
1118.58	30.1484
1121.96	14.7346
1125.33	23.6881
1128.71	44.098
1132.08	45.1577
1135.45	27.5705
1138.83	7.50766
1142.2	28.7532
1145.58	28.886
1148.95	23.2685
1152.33	16.4979
1155.7	6.30087
1159.08	23.0244
1162.45	27.7221
1165.83	31.8134
1169.2	27.425
1172.58	21.933
1175.95	24.994
1179.33	7.78449
1182.7	25.9676
1186.08	7.052
1189.45	17.5659
1192.83	21.6053
1196.2	9.60425
1199.58	12.6556
1202.95	14.672
1206.33	8.85001
1209.7	18.1667
1213.08	10.7799
1216.45	17.5596
1219.83	11.2388
1223.2	34.7174
1226.58	24.0783
1229.95	17.7417
1233.33	23.3791
1236.7	9.39447
1240.08	21.3649
1243.45	10.6382
1246.82	16.8814
1250.2	12.567
1253.57	16.4717
1256.95	24.511
1260.32	15.3764
1263.7	25.7658
1267.07	32.1177
1270.45	6.53436
1273.82	24.6918
1277.2	1.52203
1280.57	12.0844
1283.95	14.61
