Measurement: Raman, 780 nm, unoriented, Raman Data Processed
Mineral: Enstatite
Rruff sample: R120168
Ideal chemistry: MgSiO_3_
Locality: Merensky Reef, Rustenburg, Brushveld District, South Africa
Source: Rock Currier
Description: Dark green, massive
Raman shift (cm-1)	intensity
102.288	0
105.663	18.3772
109.038	0.696045
112.413	11.1484
115.787	46.2063
119.162	82.3562
122.537	165.533
125.912	183.1
129.287	129.312
132.662	82.2098
136.036	71.108
139.411	67.5515
142.786	35.5389
146.161	17.7455
149.536	4.71228
152.911	1.66809
156.285	1.21814
159.66	1.06384
163.035	0.725342
166.41	1.88678
169.785	1.60437
173.159	8.52515
176.534	12.0956
179.909	20.309
183.284	27.9261
186.659	37.377
190.033	30.4965
193.408	12.0364
196.783	2.45697
200.158	2.08099
203.533	4.92438
206.907	13.6511
210.282	23.8702
213.657	34.6652
217.032	52.0599
220.407	70.5029
223.782	94.2482
227.156	115.15
230.531	133.225
233.906	105.948
237.281	58.6633
240.656	43.739
244.03	27.8298
247.405	20.8761
250.78	13.9357
254.155	6.50146
257.53	0.553955
260.904	0.271606
264.279	1.33887
267.654	6.44763
271.029	0.206177
274.404	4.22662
277.779	0.087219
281.153	4.02637
284.528	3.97614
287.903	11.9857
291.278	11.1807
294.653	6.8269
298.027	8.64703
301.402	10.0675
304.777	14.503
308.152	20.2498
311.527	39.4134
314.902	62.6365
318.276	103.383
321.651	144.259
325.026	193.296
328.401	267.048
331.776	340.849
335.151	383.224
338.525	331.197
341.9	235.02
345.275	159.102
348.65	103.218
352.024	72.0506
355.399	52.49
358.774	38.3107
362.149	35.1022
365.524	34.192
368.899	36.8266
372.273	37.2518
375.648	34.904
379.023	37.0794
382.398	40.8953
385.773	55.5513
389.147	68.2482
392.522	76.2929
395.897	73.8663
399.272	60.7198
402.647	47.514
406.022	30.9427
409.396	18.734
412.771	12.7459
416.146	12.5956
419.521	6.11041
422.896	7.98853
426.27	13.1691
429.645	24.0861
433.02	29.9784
436.395	19.5718
439.77	7.67847
443.144	1.50738
446.519	3.96002
449.894	3.27673
453.269	1.20843
456.644	1.10681
460.019	1.50885
463.393	2.63043
466.768	2.37073
470.143	1.39899
473.518	2.08752
476.893	0.538391
480.267	2.44299
483.642	4.20489
487.017	4.93298
490.392	6.05042
493.767	7.93207
497.142	8.85358
500.516	18.6444
503.891	27.6057
507.266	28.5656
510.641	41.9023
514.016	43.7812
517.39	42.8577
520.765	38.9972
524.14	35.5118
527.515	37.0322
530.89	41.5825
534.264	40.8388
537.639	36.4452
541.014	34.5066
544.389	28.3607
547.764	26.4828
551.139	19.6291
554.513	19.4142
557.888	17.6718
561.263	19.7214
564.638	21.8742
568.013	20.4048
571.388	16.625
574.762	15.0483
578.137	8.95026
581.512	8.71716
584.887	9.38953
588.261	7.31769
591.636	7.95282
595.011	1.36957
598.386	1.18988
601.761	0.80072
605.136	0.696289
608.51	1.90729
611.885	0.414551
615.26	0.615662
618.635	2.77087
622.01	6.67255
625.385	10.9469
628.759	15.2844
632.134	19.9778
635.509	30.1829
638.884	48.312
642.259	72.1031
645.633	106.39
649.008	147.872
652.383	207.622
655.758	259.886
659.133	264.874
662.507	246.407
665.882	262.875
669.257	311.576
672.632	373.473
676.007	414.906
679.381	364.934
682.756	253.669
686.131	155.185
689.506	92.7047
692.881	60.165
696.256	37.887
699.63	30.2413
703.005	18.0209
706.38	12.9644
709.755	8.16687
713.13	3.11816
716.505	5.04828
719.879	4.37543
723.254	4.26257
726.629	2.00739
730.004	5.10284
733.379	5.12421
736.753	5.78204
740.128	8.41602
743.503	4.6864
746.878	4.70465
750.253	7.56811
753.627	2.35889
757.002	0.061951
760.377	0.117615
763.752	1.74487
767.127	2.12763
770.501	1.78027
773.876	2.41656
777.251	1.77649
780.626	1.70447
784.001	2.65051
787.376	2.9494
790.75	2.40027
794.125	4.08435
797.5	3.96796
800.875	1.2218
804.25	1.27728
807.625	5.54181
810.999	3.55267
814.374	7.07379
817.749	6.0531
821.124	9.29022
824.499	9.76654
827.873	11.1242
831.248	10.4415
834.623	10.91
837.998	8.60419
841.373	8.81244
844.747	10.185
848.122	11.1915
851.497	12.7753
854.872	19.7673
858.247	24.2786
861.621	23.3742
864.996	21.0513
868.371	12.3315
871.746	13.8093
875.121	8.81866
878.495	4.92761
881.87	4.99017
885.245	3.57947
888.62	0.80127
891.995	4.51447
895.37	2.90021
898.744	3.04883
902.119	1.05865
905.494	0.459839
908.869	2.38916
912.244	3.90564
915.619	2.51746
918.993	3.78912
922.368	5.06879
925.743	9.25446
929.118	11.1825
932.493	12.3417
935.867	14.9284
939.242	14.6688
942.617	13.5522
945.992	10.7194
949.367	9.53125
952.741	3.7959
956.116	3.20258
959.491	1.92389
962.866	2.0318
966.241	2.07605
969.615	0.063049
972.99	1.69415
976.365	2.68329
979.74	11.0531
983.115	20.731
986.49	32.4202
989.864	56.6173
993.239	86.3927
996.614	124.956
999.989	165.202
1003.36	187.646
1006.74	180.082
1010.11	155.941
1013.49	134.093
1016.86	114.93
1020.24	92.2003
1023.61	74.1604
1026.99	61.0407
1030.36	49.9085
1033.74	36.1205
1037.11	27.2844
1040.49	19.5568
1043.86	14.6528
1047.24	12.657
1050.61	9.0838
1053.99	7.24704
1057.36	4.57419
1060.74	5.9447
1064.11	5.34848
1067.48	0.804321
1070.86	2.39868
1074.23	0.14447
1077.61	1.44864
1080.98	1.73673
1084.36	2.10925
1087.73	4.02801
1091.11	2.51538
1094.48	1.50629
1097.86	0.492584
1101.23	0.69812
1104.61	0.651184
1107.98	0.10141
1111.36	0.737061
1114.73	1.06256
1118.11	1.69943
1121.48	2.95245
1124.86	1.81027
1128.23	0.906494
1131.61	0.257721
1134.98	1.45828
1138.36	1.73541
1141.73	3.87448
1145.11	6.33975
1148.48	3.14807
1151.86	4.22046
1155.23	4.74554
1158.61	4.03394
1161.98	6.16052
1165.36	7.10736
1168.73	7.52103
1172.1	7.01135
1175.48	10.4979
1178.85	11.7378
1182.23	11.7698
1185.6	11.4326
1188.98	11.9776
1192.35	11.7817
1195.73	10.7892
1199.1	8.06781
1202.48	4.43424
1205.85	7.71988
1209.23	5.4231
1212.6	5.97897
1215.98	3.39743
1219.35	3.16339
1222.73	1.66556
1226.1	0.928955
1229.48	1.10623
1232.85	1.65128
1236.23	3.43549
1239.6	0.935608
1242.97	0.80542
1246.35	3.33359
1249.72	3.30099
1253.1	6.97406
1256.47	5.04019
1259.85	4.24747
1263.22	5.06897
1266.6	3.92181
1269.97	5.19757
1273.35	6.07724
1276.72	0.772827
1280.1	2.11487
1283.47	0.189362
