Measurement: Raman, 532 nm, unoriented, Raman Data Processed
Mineral: Enstatite
Rruff sample: R070418
Ideal chemistry: MgSiO_3_
Locality: India
Source: Michael Scott
Description: Brown translucent fragments
Measured chemistry: (Mg_0.86_Fe_0.14_)_Î£=1_Si_1.00_O_3_; trace amounts of Al, Ca, Mn
Raman shift (cm-1)	intensity
127.484	0
130.859	200.126
134.234	719.264
137.609	1262.89
140.984	1030.98
144.358	649.683
147.733	516.421
151.108	516.316
154.483	448.186
157.858	245.704
161.233	115.369
164.607	51.7382
167.982	9.69086
171.357	5.33093
174.732	17.9992
178.107	21.2673
181.482	15.9018
184.856	10.737
188.231	27.5123
191.606	82.5114
194.981	115.519
198.356	196.469
201.73	298.186
205.105	336.623
208.48	320.563
211.855	303.132
215.23	291.908
218.605	346.344
221.979	443.22
225.354	610.857
228.729	914.512
232.104	1396.55
235.479	1933.69
238.853	1626.19
242.228	671.136
245.603	242.543
248.978	110.45
252.353	46.2673
255.727	33.4098
259.102	1.04938
262.477	31.3862
265.852	14.6837
269.227	26.9721
272.602	43.5277
275.976	60.2429
279.351	78.0738
282.726	2.64844
286.101	20.7346
289.476	3.11609
292.851	51.7914
296.225	97.6193
299.6	55.525
302.975	13.4747
306.35	28.8669
309.725	163.446
313.099	292.893
316.474	522.631
319.849	754.031
323.224	987.533
326.599	1231.71
329.974	1755.76
333.348	2434.05
336.723	3398.55
340.098	4497.38
343.473	5207.3
346.848	4938.95
350.222	3790.89
353.597	2651.58
356.972	1863.61
360.347	1304.38
363.722	860.102
367.096	531.7
370.471	374.31
373.846	330.565
377.221	403.301
380.596	404.595
383.971	318.989
387.345	158.866
390.72	162.119
394.095	270.577
397.47	459.628
400.845	533.281
404.219	575.287
407.594	608.191
410.969	657.179
414.344	724.026
417.719	591.699
421.094	353.015
424.468	138.63
427.843	12.9288
431.218	4.02551
434.593	215.46
437.968	468.697
441.342	706.828
444.717	606.142
448.092	320.345
451.467	163.222
454.842	95.2324
458.217	70.7043
461.591	61.5981
464.966	31.4493
468.341	38.8025
471.716	11.2327
475.091	22.825
478.466	34.429
481.84	27.8823
485.215	2.58899
488.59	9.0423
491.965	12.9146
495.34	22.0446
498.714	35.4212
502.089	56.4197
505.464	80.3781
508.839	97.0577
512.214	134.046
515.589	163.772
518.963	209.909
522.338	283.424
525.713	322.917
529.088	414.154
532.463	520.349
535.837	652.501
539.212	603.449
542.587	431.856
545.962	352.15
549.337	327.918
552.712	264.525
556.086	213.712
559.461	143.895
562.836	145.102
566.211	89.2602
569.586	98.9687
572.96	93.4388
576.335	125.311
579.71	86.1231
583.085	78.1398
586.46	69.397
589.835	53.3121
593.209	21.9668
596.584	14.4716
599.959	5.05945
603.334	20.6124
606.709	16.9283
610.083	35.8043
613.458	23.0889
616.833	2.97229
620.208	59.3217
623.583	146.795
626.957	270.747
630.332	418.349
633.707	571.539
637.082	706.594
640.457	863.2
643.832	1274.55
647.206	1966.65
650.581	3037.87
653.956	4236.24
657.331	5606.51
660.706	6327.45
664.081	5597.42
667.455	4853.27
670.83	5085.65
674.205	6547.57
677.58	8920.42
680.955	11719
684.33	12802
687.704	10022.5
691.079	6194.71
694.454	3651.85
697.829	2200.95
701.204	1426.15
704.578	936.304
707.953	636.441
711.328	433.861
714.703	324.188
718.078	196.015
721.452	117.189
724.827	117.863
728.202	65.8242
731.577	40.5548
734.952	53.4233
738.327	40.0143
741.701	20.9966
745.076	14.458
748.451	22.8109
751.826	11.058
755.201	28.9332
758.575	26.5267
761.95	20.2217
765.325	37.928
768.7	0.933411
772.075	6.66968
775.449	20.6204
778.824	0.436035
782.199	20.1617
785.574	27.8652
788.949	17.5852
792.324	2.05542
795.698	19.1046
799.073	26.0142
802.448	29.9157
805.823	43.5566
809.198	62.4751
812.572	94.094
815.947	104.934
819.322	110.633
822.697	152.726
826.072	153.511
829.447	155.589
832.821	185.704
836.196	238.415
839.571	369.582
842.946	502.89
846.321	632.179
849.696	786.937
853.07	832.918
856.445	718.508
859.82	541.779
863.195	416.135
866.57	281.227
869.944	199.644
873.319	140.279
876.694	90.4913
880.069	48.1246
883.444	16.8689
886.818	12.0748
890.193	14.884
893.568	5.49451
896.943	5.85828
900.318	10.0832
903.693	20.4104
907.067	12.7234
910.442	27.8137
913.817	67.8757
917.192	117.04
920.567	235.817
923.942	374.784
927.316	513.852
930.691	703.403
934.066	781.849
937.441	807.399
940.816	739.075
944.19	631.67
947.565	588.32
950.94	504.3
954.315	378.168
957.69	232.98
961.064	143.887
964.439	25.8882
967.814	15.0455
971.189	26.2952
974.564	81.2408
977.939	217.941
981.313	467.033
984.688	917.82
988.063	1632.73
991.438	2752.22
994.813	4428.87
998.188	6765.73
1001.56	9628.02
1004.94	12380.5
1008.31	13486.6
1011.69	11613.1
1015.06	8290.81
1018.44	5827.07
1021.81	4533.19
1025.19	3818.79
1028.56	3295.69
1031.94	2791.69
1035.31	2203.7
1038.68	1564.82
1042.06	1083.38
1045.43	752.881
1048.81	521.935
1052.18	338.822
1055.56	214.949
1058.93	127.812
1062.31	67.6715
1065.68	45.9832
1069.06	6.4043
1072.43	21.9576
1075.81	18.1437
1079.18	17.9097
1082.56	6.87439
1085.93	7.89575
1089.31	3.77234
1092.68	13.0739
1096.06	17.0928
1099.43	59.7998
1102.81	38.8613
1106.18	54.4735
1109.56	55.6876
1112.93	71.8336
1116.31	61.0271
1119.68	56.1675
1123.06	93.7993
1126.43	99.3577
1129.81	93.7434
1133.18	71.3694
1136.56	91.1718
1139.93	62.3543
1143.31	47.0076
1146.68	30.1172
1150.05	35.1273
1153.43	18.5017
1156.8	37.7056
1160.18	53.5696
1163.55	52.984
1166.93	36.2015
1170.3	41.3433
1173.68	41.4353
1177.05	22.9255
1180.43	43.7004
1183.8	49.1227
1187.18	38.4326
1190.55	27.6885
1193.93	13.9629
1197.3	34.2756
1200.68	18.1016
1204.05	3.21716
1207.43	34.3361
1210.8	6.74793
1214.18	20.476
1217.55	11.1227
1220.93	24.0353
1224.3	18.7571
1227.67	32.8884
1231.05	16.0411
1234.42	14.1053
1237.8	0.521118
1241.17	25.0986
1244.55	29.2579
1247.92	10.4796
1251.3	17.4535
1254.67	34.5851
1258.05	8.69885
1261.42	14.1699
1264.8	8.39929
1268.17	56.2647
1271.55	27.3307
1274.92	8.49402
1278.3	21.4003
1281.67	25.9611
1285.05	38.2212
1288.42	28.0193
1291.8	1.47705
1295.17	11.7863
1298.55	23.875
1301.92	13.8585
1305.3	20.5859
