Measurement: Raman, 785 nm, unoriented, Raman Data Processed
Mineral: Enstatite
Rruff sample: X050193
Ideal chemistry: MgSiO_3_
Locality: India
Source: G.R. Rossman
Raman shift (cm-1)	intensity
206	0
210	11.135
214	3.366
218	9.784
222	18.234
226	33.111
230	74.876
234	115.16
238	71.966
242	20.58
246	7.759
250	5.71
254	3.205
258	1.104
262	1.883
266	8.81
270	14
274	8.959
278	1.428
282	4.481
286	0.398
290	8.25
294	17.083
298	17.346
302	13.208
306	16.5
310	27.068
314	45.829
318	57.647
322	69.614
326	97.529
330	153.761
334	269.557
338	384.463
342	353.322
346	223.839
350	134.773
354	90.488
358	64.071
362	49.213
366	40.638
370	42.705
374	49.764
378	51.135
382	42.114
386	38.271
390	43.143
394	56.787
398	68.095
402	67.985
406	63.469
410	56.637
414	42.664
418	31.128
422	25.081
426	23.469
430	29.881
434	42.488
438	47.584
442	31.817
446	19.931
450	15.445
454	15.547
458	17.023
462	16.641
466	16.397
470	14.637
474	11.82
478	9.499
482	10.584
486	11.202
490	12.286
494	10.342
498	7.79
502	4.224
506	1.207
510	5.195
514	3.079
518	1.234
522	0.262
526	0.252
530	5.786
534	16.425
538	20.595
542	11.599
546	7.259
550	4.564
554	0.863
558	1.764
562	1.736
566	1.017
570	0.193
574	0.272
578	0.221
582	0.132
586	0.856
590	2.56
594	2.248
598	3.241
602	3.415
606	4.211
610	3.995
614	3.757
618	5.556
622	6.82
626	9.934
630	12.25
634	15.539
638	22.118
642	32.857
646	52.241
650	89.777
654	163.129
658	265.597
662	283.627
666	217.022
670	198.638
674	264.996
678	392.408
682	422.685
686	292.545
690	157.449
694	85.903
698	52.447
702	33.938
706	23.498
710	16.681
714	12.455
718	9.522
722	7.198
726	6.331
730	4.615
734	3.729
738	2.899
742	2.059
746	1.663
750	0.349
754	0.476
758	0.41
762	0.313
766	1.13
770	0.173
774	0.816
778	1.796
782	1.996
786	2.059
790	2.17
794	2.247
798	2.851
802	2.564
806	2.482
810	2.236
814	2.591
818	1.824
822	0.059
826	1.731
830	2.751
834	2.781
838	1.925
842	2.757
846	2.068
850	3.697
854	7.41
858	12.281
862	14.791
866	14.653
870	11.214
874	6.98
878	3.419
882	0.84
886	0.086
890	0.448
894	0.032
898	0.542
902	0.037
906	0.495
910	0.113
914	1.154
918	2.017
922	5.059
926	8.514
930	13.151
934	18.213
938	20.45
942	19.661
946	16.705
950	13.197
954	10.253
958	8.273
962	6.871
966	6.432
970	6.044
974	6.566
978	9.864
982	15.909
986	26.166
990	47.06
994	86.793
998	158.924
1002	275.762
1006	360.108
1010	294.463
1014	190.863
1018	129.289
1022	91.901
1026	68.782
1030	51.753
1034	37.934
1038	26.358
1042	18.035
1046	12.632
1050	9.128
1054	6.173
1058	4.884
1062	3.75
1066	2.778
1070	2.141
1074	1.363
1078	0.565
1082	0.225
1086	0.017
1090	0.227
1094	0.522
1098	0.733
1102	0.011
1106	0.225
1110	0.449
1114	0.662
1118	0.028
1122	0.024
1126	0.233
1130	0.14
1134	0.162
1138	1.05
1142	0.392
1146	0.454
1150	0.658
1154	0.107
1158	0.644
1162	0.232
1166	0.731
1170	0.599
1174	0.776
1178	0.813
1182	0.416
1186	0.289
1190	1.06
1194	0.374
1198	0.193
1202	0.904
1206	0.052
1210	0.195
1214	0.334
1218	0.469
1222	0.599
1226	0.1
1230	0.825
1234	0.81
1238	0.924
1242	0.038
1246	0.23
1250	0.802
1254	0.269
1258	1.148
1262	0.454
1266	0.545
1270	0.627
1274	0.712
1278	1.665
1282	0.873
1286	0.949
1290	1.44
1294	1.272
1298	2.105
1302	1.178
1306	1.206
1310	1.97
1314	1.237
1318	1.265
1322	1.768
1326	0.546
1330	0.418
1334	1.296
1338	1.341
1342	1.389
1346	0.562
1350	1.441
1354	1.478
1358	1.521
1362	1.544
1366	0.575
1370	1.647
1374	1.544
1378	0.711
1382	0.743
1386	1.728
1390	0.795
1394	0.82
1398	0.857
1402	0.192
1406	0.074
1410	0.908
1414	0.993
1418	0.418
1422	0.069
1426	1.11
1430	1.524
1434	0.222
1438	1.237
1442	0.28
1446	0.325
1450	0.373
1454	1.375
1458	1.407
1462	0.936
1466	1.47
1470	0.744
1474	0.91
1478	0.561
1482	1.218
1486	0.659
1490	0.334
1494	0.18
1498	0.018
