Measurement: Raman, 780 nm, unoriented, Raman Data Processed
Mineral: Enstatite
Rruff sample: R120174
Ideal chemistry: MgSiO_3_
Locality: Nuestra Se√±ora del Carmen Mines, La Celia, Jumilla, Murcia, Spain
Source: Bob Jenkins
Description: Transparent, pale greenish-brown bladed crystals associated with R120173 pseudobrookite
Raman shift (cm-1)	intensity
109.038	0
112.413	3.83327
115.787	14.9595
119.162	30.9517
122.537	51.6728
125.912	52.0265
129.287	34.1172
132.662	20.5704
136.036	14.5547
139.411	12.9349
142.786	10.1836
146.161	8.09245
149.536	2.78613
152.911	1.66789
156.285	0.798737
159.66	0.958038
163.035	0.228867
166.41	0.954079
169.785	0.694801
173.159	0.315552
176.534	0.031425
179.909	0.821579
183.284	1.62593
186.659	3.29527
190.033	1.47449
193.408	1.09206
196.783	2.25132
200.158	2.34258
203.533	3.63251
206.907	4.41751
210.282	7.23108
213.657	10.6105
217.032	14.0925
220.407	20.9082
223.782	27.8751
227.156	35.4459
230.531	38.9913
233.906	34.4116
237.281	23.7085
240.656	16.0075
244.03	7.7553
247.405	4.15871
250.78	1.67194
254.155	1.30066
257.53	0.655273
260.904	0.102928
264.279	0.770878
267.654	1.23845
271.029	1.04047
274.404	0.192062
277.779	0.995834
281.153	2.19843
284.528	4.29193
287.903	6.60645
291.278	8.60801
294.653	8.76774
298.027	9.4077
301.402	9.60161
304.777	10.2008
308.152	12.2065
311.527	14.9421
314.902	18.1803
318.276	23.6735
321.651	33.5221
325.026	46.7055
328.401	63.4964
331.776	78.8986
335.151	85.608
338.525	76.7945
341.9	60.8537
345.275	43.0479
348.65	30.8027
352.024	20.9727
355.399	13.7341
358.774	8.98587
362.149	7.53174
365.524	7.96296
368.899	7.93106
372.273	8.93645
375.648	9.54829
379.023	9.98
382.398	12.9654
385.773	16.8321
389.147	22.5859
392.522	27.577
395.897	28.5189
399.272	25.4477
402.647	19.5131
406.022	14.0755
409.396	10.4473
412.771	9.08097
416.146	7.39565
419.521	4.57974
422.896	2.81605
426.27	3.09352
429.645	4.80706
433.02	6.10816
436.395	3.12062
439.77	1.09378
443.144	0.166553
446.519	1.23565
449.894	0.153721
453.269	0.058533
456.644	0.35392
460.019	0.333515
463.393	0.195728
466.768	0.742306
470.143	1.18752
473.518	0.111557
476.893	0.68507
480.267	0.746624
483.642	0.964466
487.017	1.26011
490.392	1.72023
493.767	1.98494
497.142	2.91756
500.516	4.5882
503.891	5.74924
507.266	7.89206
510.641	12.0569
514.016	15.1654
517.39	16.2528
520.765	16.2559
524.14	15.2209
527.515	15.2295
530.89	15.6929
534.264	18.6493
537.639	18.1608
541.014	19.1309
544.389	16.9173
547.764	14.402
551.139	11.5482
554.513	9.24216
557.888	8.59027
561.263	9.22232
564.638	9.09815
568.013	9.17375
571.388	8.1109
574.762	8.21521
578.137	6.96593
581.512	5.33998
584.887	5.4933
588.261	4.10237
591.636	3.9821
595.011	2.34583
598.386	1.60321
601.761	0.883099
605.136	0.143936
608.51	0.304298
611.885	0.151516
615.26	0.541252
618.635	0.338589
622.01	0.374504
625.385	0.311802
628.759	1.34432
632.134	1.55583
635.509	2.82364
638.884	4.86717
642.259	8.17788
645.633	13.8193
649.008	21.7941
652.383	31.9977
655.758	40.3761
659.133	42.2425
662.507	39.0906
665.882	39.2349
669.257	46.6367
672.632	59.3147
676.007	68.0846
679.381	62.7212
682.756	46.0578
686.131	29.5554
689.506	18.0651
692.881	11.9865
696.256	7.60146
699.63	5.67905
703.005	3.36641
706.38	2.68079
709.755	1.93766
713.13	1.55821
716.505	0.551579
719.879	1.06487
723.254	1.08207
726.629	0.424152
730.004	1.19004
733.379	1.90083
736.753	2.32746
740.128	2.74983
743.503	3.51682
746.878	3.55377
750.253	2.45084
753.627	1.09157
757.002	0.503546
760.377	0.350946
763.752	0.290226
767.127	0.376234
770.501	0.172842
773.876	0.501919
777.251	0.326889
780.626	0.695379
784.001	0.865154
787.376	0.420248
790.75	0.018387
794.125	0.010397
797.5	0.639748
800.875	0.284019
804.25	0.056107
807.625	0.089941
810.999	0.485353
814.374	0.161987
817.749	0.842585
821.124	1.49806
824.499	1.66288
827.873	2.10516
831.248	1.6196
834.623	2.11052
837.998	1.14665
841.373	1.72354
844.747	2.02812
848.122	1.88711
851.497	1.968
854.872	2.21478
858.247	2.55769
861.621	2.29581
864.996	1.75795
868.371	1.55818
871.746	1.03887
875.121	0.868155
878.495	0.219292
881.87	0.842346
885.245	0.802889
888.62	0.253593
891.995	1.01501
895.37	0.566217
898.744	0.671103
902.119	0.58946
905.494	1.66316
908.869	0.609663
912.244	2.15772
915.619	2.92121
918.993	3.38342
922.368	4.43445
925.743	4.97653
929.118	5.56547
932.493	5.53768
935.867	5.57402
939.242	4.84343
942.617	4.44997
945.992	3.46333
949.367	2.69718
952.741	1.92647
956.116	1.23397
959.491	0.490513
962.866	0.085297
966.241	0.014931
969.615	0.215607
972.99	0.022842
976.365	0.450773
979.74	1.85994
983.115	3.22555
986.49	5.98196
989.864	9.9436
993.239	14.7152
996.614	21.642
999.989	29.7826
1003.36	34.613
1006.74	36.2024
1010.11	34.9584
1013.49	34.4255
1016.86	32.7782
1020.24	29.5756
1023.61	26.6008
1026.99	23.6726
1030.36	19.8639
1033.74	15.6534
1037.11	12.1669
1040.49	9.44012
1043.86	6.71197
1047.24	5.95393
1050.61	3.7261
1053.99	3.19918
1057.36	2.56402
1060.74	1.61066
1064.11	1.48886
1067.48	1.30322
1070.86	0.614441
1074.23	0.169983
1077.61	0.078716
1080.98	0.013943
1084.36	0.504213
1087.73	0.078463
1091.11	0.87891
1094.48	0.328405
1097.86	0.130524
1101.23	0.251616
1104.61	0.476603
1107.98	0.294146
1111.36	0.707735
1114.73	0.818068
1118.11	0.688589
1121.48	0.899401
1124.86	0.674013
1128.23	1.05428
1131.61	0.489132
1134.98	0.064758
1138.36	0.496815
1141.73	0.100176
1145.11	0.307535
1148.48	0.422878
1151.86	0.759222
1155.23	0.24457
1158.61	0.220228
1161.98	0.856125
1165.36	0.530277
1168.73	1.20289
1172.1	0.905912
1175.48	0.970018
1178.85	1.20404
1182.23	1.10002
1185.6	1.10183
1188.98	0.713373
1192.35	1.47348
1195.73	1.44451
1199.1	0.791729
1202.48	0.745998
1205.85	1.0383
1209.23	0.685497
1212.6	0.94874
1215.98	0.958344
1219.35	0.398849
1222.73	0.125542
1226.1	0.889133
1229.48	0.706263
1232.85	0.123045
1236.23	0.840302
1239.6	0.352167
1242.97	1.59115
1246.35	1.38974
1249.72	0.633215
1253.1	0.358236
1256.47	0.303062
1259.85	0.67231
1263.22	0.761374
1266.6	0.493477
1269.97	0.930414
1273.35	0.849997
1276.72	0.404926
1280.1	0.283165
1283.47	0.239937
