Measurement: Raman, 532 nm, unoriented, Raman Data Processed
Mineral: Enstatite
Rruff sample: R120168
Ideal chemistry: MgSiO_3_
Locality: Merensky Reef, Rustenburg, Brushveld District, South Africa
Source: Rock Currier
Description: Dark green, massive
Raman shift (cm-1)	intensity
204.588	0
207.48	6.03174
210.373	11.3077
213.266	25.3679
216.158	37.0938
219.051	46.2958
221.944	51.3642
224.836	65.1088
227.729	86.9843
230.622	108.374
233.514	98.8484
236.407	67.6168
239.3	42.6239
242.193	30.3355
245.085	21.3952
247.978	16.712
250.871	11.3575
253.763	10.347
256.656	8.8526
259.549	6.84345
262.442	4.65027
265.334	1.57971
268.227	4.2016
271.12	0.588135
274.012	1.6156
276.905	5.89862
279.798	3.88324
282.69	3.09668
285.583	9.76849
288.476	5.80652
291.368	10.2275
294.261	6.05139
297.154	0.490479
300.047	3.09851
302.939	0.491455
305.832	4.53949
308.725	12.694
311.617	28.5561
314.51	44.6158
317.403	76.3131
320.296	117.635
323.188	181.074
326.081	251.539
328.974	341.058
331.866	443.292
334.759	536.62
337.652	554.878
340.544	477.81
343.437	350.598
346.33	244.343
349.223	172.024
352.115	122.097
355.008	86.5818
357.901	61.8216
360.793	47.0074
363.686	33.3675
366.579	37.4133
369.471	30.0594
372.364	31.1453
375.257	30.0311
378.149	33.1089
381.042	34.7313
383.935	42.1071
386.828	60.2264
389.72	80.6894
392.613	98.3973
395.506	107.658
398.398	101.345
401.291	86.0502
404.184	61.9135
407.077	47.3668
409.969	34.0981
412.862	23.8164
415.755	20.7381
418.647	17.3023
421.54	19.7125
424.433	25.7734
427.325	34.4471
430.218	52.0237
433.111	64.7951
436.003	62.7012
438.896	41.8539
441.789	23.5274
444.682	9.74823
447.574	8.52246
450.467	2.38678
453.36	2.71136
456.252	1.01996
459.145	2.34662
462.038	0.763428
464.93	1.09576
467.823	4.91925
470.716	4.2807
473.609	3.18195
476.501	1.14368
479.394	0.187317
482.287	0.26947
485.179	0.147766
488.072	0.021851
490.965	2.66315
493.858	0.249756
496.75	2.01019
499.643	6.89874
502.536	15.5004
505.428	13.8766
508.321	20.0869
511.214	26.8252
514.106	31.96
516.999	35.3202
519.892	34.0978
522.784	33.8305
525.677	37.7831
528.57	42.4302
531.463	48.8156
534.355	56.5564
537.248	51.4654
540.141	44.2025
543.033	35.1133
545.926	32.7672
548.819	30.8105
551.712	19.1169
554.604	17.8133
557.497	14.4587
560.39	18.3329
563.282	18.8122
566.175	19.5387
569.068	21.785
571.96	17.8618
574.853	16.7297
577.746	14.7174
580.639	12.0206
583.531	11.6596
586.424	11.8313
589.317	9.63818
592.209	11.568
595.102	7.54883
597.995	6.97693
600.888	3.05084
603.78	0.412659
606.673	0.801208
609.566	3.41016
612.458	1.68542
615.351	1.54413
618.244	2.22553
621.136	6.73645
624.029	11.0538
626.922	12.5041
629.814	14.8456
632.707	24.1519
635.6	34.28
638.493	49.6277
641.385	72.3329
644.278	109.218
647.171	161.386
650.063	229.907
652.956	317.203
655.849	396.077
658.741	436.067
661.634	412.081
664.527	386.5
667.42	415.803
670.312	492.118
673.205	596.547
676.098	682.571
678.99	680.836
681.883	561.358
684.776	385.101
687.668	249.174
690.561	162.636
693.454	109.237
696.347	74.381
699.239	50.6727
702.132	36.698
705.025	27.7094
707.917	23.1527
710.81	15.0161
713.703	8.19214
716.596	6.01666
719.488	5.40118
722.381	7.87293
725.274	4.46503
728.166	3.62695
731.059	1.16913
733.952	4.38605
736.844	4.4726
739.737	3.38336
742.63	4.67163
745.523	9.1806
748.415	10.1765
751.308	6.27911
754.201	1.21783
757.093	2.03705
759.986	1.8363
762.879	3.38763
765.771	0.447754
768.664	1.56274
771.557	0.83197
774.449	2.66736
777.342	8.41559
780.235	8.66309
783.128	5.79364
786.02	5.03204
788.913	1.45001
791.806	0.684143
794.698	4.38159
797.591	1.03656
800.484	1.97821
803.376	0.90802
806.269	0.561462
809.162	3.80841
812.055	4.93164
814.947	3.40247
817.84	5.82428
820.733	7.73767
823.625	15.58
826.518	12.5815
829.411	10.3747
832.303	12.6116
835.196	14.1424
838.089	9.47546
840.982	9.99548
843.874	11.7368
846.767	15.2119
849.66	13.3895
852.552	16.1617
855.445	22.0599
858.338	25.2637
861.231	32.7023
864.123	32.6979
867.016	28.3534
869.909	21.1786
872.801	17.4613
875.694	10.1326
878.587	8.11902
881.479	6.427
884.372	0.511963
887.265	2.12885
890.158	2.64978
893.05	0.240601
895.943	2.34741
898.836	6.27557
901.728	0.887634
904.621	1.13538
907.514	0.223633
910.406	1.72388
913.299	3.80341
916.192	5.59662
919.085	10.3614
921.977	13.0905
924.87	17.3473
927.763	19.3524
930.655	21.4577
933.548	27.3647
936.441	30.0876
939.333	31.1932
942.226	30.6382
945.119	25.9766
948.011	23.0652
950.904	15.9794
953.797	11.2233
956.69	2.75751
959.582	4.82886
962.475	0.038574
965.368	0.354187
968.26	1.15655
971.153	0.041931
974.046	1.37952
976.938	6.95312
979.831	13.3565
982.724	25.432
985.617	40.2274
988.509	67.194
991.402	100.981
994.295	147.949
997.187	210.002
1000.08	280.296
1002.97	332.885
1005.87	354.089
1008.76	328.677
1011.65	292.657
1014.54	260.947
1017.44	224.315
1020.33	188.661
1023.22	158.588
1026.11	134.071
1029.01	114.999
1031.9	91.5208
1034.79	72.6081
1037.68	52.943
1040.58	43.4699
1043.47	32.4811
1046.36	29.6153
1049.26	22.1263
1052.15	16.292
1055.04	9.66681
1057.93	9.27423
1060.83	5.91376
1063.72	8.58966
1066.61	5.43329
1069.51	3.03748
1072.4	1.52441
1075.29	0.08429
1078.18	0.480408
1081.08	1.67511
1083.97	3.38141
1086.86	1.04907
1089.75	0.320374
1092.65	0.137207
1095.54	1.46484
1098.43	2.67133
1101.33	2.98175
1104.22	1.61005
1107.11	0.409851
1110	1.93481
1112.89	6.84717
1115.79	6.32745
1118.68	5.59692
1121.57	3.8407
1124.47	4.83606
1127.36	4.45843
1130.25	0.846252
1133.14	5.24237
1136.04	6.56909
1138.93	2.69244
1141.82	3.35199
1144.71	1.02539
1147.61	3.05969
1150.5	3.84039
1153.39	3.7962
1156.29	2.94977
1159.18	0.645264
1162.07	3.1579
1164.96	2.86664
1167.86	0.425293
1170.75	2.12439
1173.64	2.24927
1176.54	4.87195
1179.43	4.94952
1182.32	3.62073
1185.21	3.37903
1188.11	1.56555
1191	0.554688
1193.89	0.842163
1196.78	5.06867
1199.68	4.09955
1202.57	0.269714
1205.46	1.89777
1208.35	4.04645
1211.25	2.78027
1214.14	3.88501
1217.03	2.98193
1219.92	0.509521
1222.82	2.58337
1225.71	1.88391
1228.6	0.458496
1231.5	4.37482
1234.39	0.033997
1237.28	0.691223
1240.17	0.220581
1243.07	3.95373
1245.96	1.19788
1248.85	2.133
1251.74	3.54114
1254.64	2.23224
1257.53	4.85718
1260.42	2.88959
1263.32	7.68817
1266.21	8.04327
1269.1	6.19189
1271.99	5.41534
1274.89	4.00952
1277.78	4.10309
1280.67	4.19049
1283.57	3.90173
1286.46	2.87115
1289.35	4.50885
1292.24	4.07074
1295.13	1.15613
1298.03	3.53107
1300.92	0.632935
