Measurement: Raman, 532 nm, unoriented, Raman Data Processed
Mineral: Enstatite
Rruff sample: R070550
Ideal chemistry: MgSiO_3_
Locality: Tanzania
Source: www.multicolour.com
Description: Brown, translucent, vitreous crystal fragment
Measured chemistry: (Mg_0.90_Fe_0.10_)_Î£=1_Si_1.00_O_3_
Raman shift (cm-1)	intensity
128.942	0
132.317	227.395
135.692	51.0956
139.067	11.3702
142.441	14.4734
145.816	76.7003
149.191	96.5477
152.566	124.196
155.941	122.652
159.316	115.674
162.69	164.096
166.065	274.456
169.44	54.6361
172.815	15.395
176.19	12.8616
179.565	27.1484
182.939	64.624
186.314	167.695
189.689	292.774
193.064	335.085
196.439	176.762
199.813	149.254
203.188	141.239
206.563	34.3554
209.938	26.8844
213.313	21.2717
216.688	78.407
220.062	158.21
223.437	313.612
226.812	538.869
230.187	961.04
233.562	1761.45
236.936	2207.52
240.311	1261.24
243.686	666.409
247.061	276.798
250.436	120.641
253.81	64.6129
257.185	28.4558
260.56	19.8547
263.935	10.9288
267.31	4.72116
270.685	18.0455
274.059	9.34537
277.434	14.7239
280.809	14.3507
284.184	4.70312
287.559	27.5497
290.933	73.9702
294.308	156.498
297.683	273.482
301.058	275.186
304.433	222.361
307.808	234.814
311.182	169.666
314.557	215.208
317.932	351.241
321.307	464.536
324.682	545.688
328.057	872.639
331.431	1565.42
334.806	2872.39
338.181	4742.37
341.556	5680.34
344.931	3646.23
348.305	1807.8
351.68	952.673
355.055	612.449
358.43	455.561
361.805	281.779
365.18	56.5111
368.554	63.7289
371.929	146.389
375.304	283.747
378.679	441.508
382.054	375.95
385.428	268.085
388.803	376.7
392.178	674.886
395.553	1125.96
398.928	1415.45
402.303	1309.84
405.677	1048.49
409.052	936.341
412.427	929.227
415.802	952.978
419.177	815.245
422.551	526.561
425.926	182.67
429.301	73.1279
432.676	50.6905
436.051	161.987
439.425	338.533
442.8	437.721
446.175	168.565
449.55	27.9929
452.925	30.292
456.3	1.26874
459.674	16.7721
463.049	3.44415
466.424	2.6521
469.799	10.0263
473.174	9.06497
476.548	2.39163
479.923	0.57312
483.298	7.29544
486.673	28.375
490.048	5.84866
493.423	9.24326
496.797	5.23932
500.172	37.759
503.547	49.2454
506.922	92.3457
510.297	186.324
513.672	297.301
517.046	507.226
520.421	557.937
523.796	564.135
527.171	490.252
530.546	351.465
533.92	370.76
537.295	516.507
540.67	526.069
544.045	449.676
547.42	465.572
550.794	360.17
554.169	241.225
557.544	135.679
560.919	87.781
564.294	96.8767
567.669	92.9656
571.043	119.391
574.418	127.849
577.793	119.393
581.168	73.7055
584.543	53.0525
587.918	56.688
591.292	70.0588
594.667	39.4409
598.042	29.4883
601.417	10.2875
604.792	4.44278
608.166	17.0673
611.541	10.7959
614.916	16.5272
618.291	4.32944
621.666	17.8352
625.04	18.3785
628.415	40.4941
631.79	47.6248
635.165	77.5261
638.54	106.371
641.915	175.909
645.289	292.412
648.664	475.319
652.039	878.424
655.414	1385.88
658.789	2168.14
662.163	2774.5
665.538	2225.08
668.913	1546.51
672.288	1425.64
675.663	1761.15
679.038	2431.65
682.412	3123.4
685.787	2999.74
689.162	1824.02
692.537	934.529
695.912	494.531
699.287	297.36
702.661	148.829
706.036	122.009
709.411	73.0557
712.786	29.5591
716.161	16.1948
719.535	10.3433
722.91	12.5398
726.285	10.6026
729.66	20.2131
733.035	30.7527
736.409	46.6012
739.784	93.8462
743.159	122.552
746.534	175.392
749.909	224.69
753.284	194.607
756.658	80.0469
760.033	15.0534
763.408	1.21075
766.783	11.4723
770.158	0.456116
773.533	6.55933
776.907	2.77264
780.282	9.17459
783.657	1.59845
787.032	11.2681
790.407	0.576996
793.781	8.1156
797.156	4.90613
800.531	2.51404
803.906	6.12943
807.281	14.5352
810.655	8.2179
814.03	11.2624
817.405	12.0431
820.78	16.1144
824.155	29.093
827.529	34.9303
830.904	25.6909
834.279	16.1085
837.654	17.4766
841.029	36.8857
844.404	60.9699
847.779	101.994
851.153	172.883
854.528	270.211
857.903	279.374
861.278	209.921
864.653	117.36
868.027	66.6967
871.402	41.8474
874.777	14.6323
878.152	16.16
881.527	0.204163
884.902	9.88129
888.276	2.73587
891.651	18.3413
895.026	22.4078
898.401	26.6537
901.776	22.8409
905.15	1.93698
908.525	5.04275
911.9	23.8616
915.275	40.6862
918.65	73.8268
922.024	157.59
925.399	237.99
928.774	271.787
932.149	283.953
935.524	261.426
938.899	223.208
942.273	165.18
945.648	109.748
949.023	61.4613
952.398	29.3757
955.773	6.81894
959.148	7.20721
962.522	7.35068
965.897	6.33453
969.272	12.843
972.647	5.7652
976.021	0.752319
979.396	17.3802
982.771	33.6005
986.146	68.3744
989.521	137.101
992.896	221.047
996.27	374.325
999.645	585.484
1003.02	934.773
1006.39	1436.59
1009.77	1917.73
1013.14	1902.7
1016.52	1766.24
1019.89	1909.87
1023.27	2143.27
1026.64	2294.45
1030.02	2302.49
1033.39	2003.27
1036.77	1537.25
1040.14	1049.9
1043.52	703.934
1046.89	466.186
1050.27	320.828
1053.64	228.374
1057.02	191.287
1060.39	177.68
1063.77	98.4266
1067.14	55.8547
1070.52	31.203
1073.89	24.6777
1077.27	14.4437
1080.64	17.1963
1084.02	4.12936
1087.39	17.1661
1090.77	9.06851
1094.14	0.276733
1097.52	1.72385
1100.89	4.30411
1104.27	3.63678
1107.64	5.80609
1111.01	18.4315
1114.39	23.1307
1117.76	23.4425
1121.14	6.22846
1124.51	9.867
1127.89	17.1776
1131.26	21.0774
1134.64	19.6325
1138.01	25.9831
1141.39	24.9549
1144.76	17.2576
1148.14	19.2141
1151.51	8.82994
1154.89	22.7995
1158.26	13.2829
1161.64	33.7184
1165.01	6.73534
1168.39	5.63771
1171.76	7.90146
1175.14	9.49031
1178.51	12.872
1181.88	20.5163
1185.26	14.6964
1188.63	19.6337
1192.01	4.79747
1195.38	7.9626
1198.76	1.83256
1202.13	2.63876
1205.51	4.44002
1208.88	3.9771
1212.26	17.5293
1215.63	16.8002
1219.01	7.85327
1222.38	6.20377
1225.76	6.24222
1229.13	24.6772
1232.51	13.2718
1235.88	0.79303
1239.26	18.4381
1242.63	19.5326
1246.01	14.5676
1249.38	20.0069
1252.76	8.92497
1256.13	3.33437
1259.51	17.7381
1262.88	19.6584
1266.26	8.89188
1269.63	12.2261
1273.01	3.05258
1276.38	17.7608
1279.76	3.56459
1283.13	13.6074
1286.51	13.9266
1289.88	13.3887
1293.26	16.9302
1296.63	7.81818
