Measurement: Raman, 532 nm, unoriented, Raman Data Processed
Mineral: Enstatite
Rruff sample: R120174
Ideal chemistry: MgSiO_3_
Locality: Nuestra Se√±ora del Carmen Mines, La Celia, Jumilla, Murcia, Spain
Source: Bob Jenkins
Description: Transparent, pale greenish-brown bladed crystals associated with R120173 pseudobrookite
Raman shift (cm-1)	intensity
179.035	0
181.928	0.0576
184.821	1.78074
187.713	2.19926
190.606	3.2405
193.499	3.81422
196.392	3.84084
199.284	4.12506
202.177	4.96286
205.07	6.01615
207.962	6.29648
210.855	7.33003
213.748	6.97302
216.64	8.81052
219.533	11.6309
222.426	14.3355
225.319	17.5011
228.211	20.1671
231.104	20.2914
233.997	17.568
236.889	12.7005
239.782	8.44284
242.675	5.41747
245.567	3.83136
248.46	2.66606
251.353	1.16913
254.245	0.855057
257.138	0.49353
260.031	0.314598
262.924	0.080505
265.816	0.326132
268.709	0.846235
271.602	1.01824
274.494	0.711105
277.387	0.45153
280.28	0.3263
283.173	0.800787
286.065	1.16822
288.958	2.83224
291.851	3.26766
294.743	3.6525
297.636	3.39128
300.529	4.33334
303.421	5.7058
306.314	7.60095
309.207	9.84102
312.099	12.0534
314.992	13.3857
317.885	14.4345
320.778	17.5134
323.67	24.1483
326.563	30.4076
329.456	38.0554
332.348	44.857
335.241	47.176
338.134	44.364
341.027	38.4176
343.919	30.2434
346.812	22.7115
349.705	17.9845
352.597	13.9094
355.49	9.9935
358.383	8.65426
361.276	7.90648
364.168	8.24291
367.061	9.86671
369.954	10.1454
372.846	12.0591
375.739	14.0226
378.632	15.0642
381.524	18.5816
384.417	22.1203
387.31	27.0249
390.202	33.74
393.095	36.5563
395.988	37.009
398.881	32.8535
401.773	25.4788
404.666	19.1856
407.559	15.0052
410.451	11.2719
413.344	9.00615
416.237	6.62676
419.13	4.50171
422.022	3.08521
424.915	2.47238
427.808	2.0316
430.7	2.00963
433.593	1.54915
436.486	0.955223
439.378	0.010481
442.271	0.553116
445.164	0.390112
448.057	0.491978
450.949	0.147055
453.842	0.00713
456.735	0.404127
459.627	0.028685
462.52	0.100822
465.413	0.28698
468.305	0.118217
471.198	0.129221
474.091	0.279699
476.983	1.08512
479.876	0.749914
482.769	1.21954
485.662	0.882637
488.554	1.77878
491.447	2.09728
494.34	2.1022
497.232	2.50542
500.125	2.43659
503.018	3.63717
505.911	4.63609
508.803	6.37912
511.696	8.04403
514.589	9.35612
517.481	10.6121
520.374	11.3509
523.267	10.8751
526.159	10.0815
529.052	10.3121
531.945	12.8413
534.837	12.5824
537.73	13.1338
540.623	12.8471
543.516	12.7641
546.408	10.9411
549.301	8.70819
552.194	7.32337
555.086	6.69468
557.979	6.32403
560.872	6.62588
563.764	5.76209
566.657	5.81106
569.55	6.15353
572.443	6.10253
575.335	5.64373
578.228	5.57131
581.121	4.87805
584.013	4.38073
586.906	4.11918
589.799	3.46715
592.692	3.18525
595.584	2.13179
598.477	1.50669
601.37	1.53045
604.262	0.465084
607.155	0.207464
610.048	0.003633
612.94	0.558273
615.833	0.468892
618.726	0.208635
621.619	0.041524
624.511	0.456133
627.404	0.060195
630.297	0.650696
633.189	0.756641
636.082	1.41835
638.975	2.57001
641.867	4.23015
644.76	6.84601
647.653	9.22561
650.545	14.4489
653.438	19.5577
656.331	22.2139
659.224	22.5381
662.116	21.3659
665.009	20.4674
667.902	23.4513
670.794	27.4273
673.687	32.3948
676.58	34.3804
679.472	31.9573
682.365	24.385
685.258	17.0651
688.151	10.855
691.043	7.74497
693.936	5.6595
696.829	3.67469
699.721	2.76872
702.614	1.34713
705.507	0.939033
708.399	0.91784
711.292	0.260751
714.185	0.028008
717.078	0.272958
719.97	0.010963
722.863	0.340777
725.756	0.191157
728.648	0.417567
731.541	0.59469
734.434	1.37712
737.327	1.48166
740.219	1.93615
743.112	1.97901
746.005	2.46153
748.897	2.68388
751.79	2.09257
754.683	1.49732
757.575	0.733768
760.468	1.48729
763.361	0.636698
766.254	0.524237
769.146	0.993282
772.039	0.903845
774.932	1.19321
777.824	1.60191
780.717	1.41666
783.61	1.22779
786.502	1.17725
789.395	0.740624
792.288	0.383956
795.181	0.124809
798.073	0.2834
800.966	0.465433
803.859	0.292999
806.751	0.022613
809.644	0.161711
812.537	0.0071
815.429	0.246787
818.322	0.295728
821.215	1.31025
824.107	1.46425
827	1.55724
829.893	1.98143
832.786	1.55982
835.678	1.76585
838.571	1.835
841.464	1.92797
844.356	2.12407
847.249	2.68317
850.142	2.05979
853.034	2.26389
855.927	2.02276
858.82	1.47605
861.713	1.5106
864.605	1.11398
867.498	0.744319
870.391	0.413551
873.283	0.465837
876.176	0.127582
879.069	0.116633
881.962	0.007291
884.854	0.051823
887.747	0.429989
890.64	0.541341
893.532	0.311255
896.425	0.596489
899.318	1.06824
902.21	0.626825
905.103	1.42932
907.996	1.84659
910.889	2.53337
913.781	3.2292
916.674	4.41221
919.567	6.10564
922.459	7.32915
925.352	7.92309
928.245	8.61333
931.137	8.5875
934.03	8.48672
936.923	8.02664
939.816	7.60429
942.708	6.01663
945.601	5.43717
948.494	4.21694
951.386	3.07339
954.279	1.61608
957.172	1.12056
960.064	0.126373
962.957	0.042891
965.85	0.000952
968.742	0.594915
971.635	0.000961
974.528	0.525311
977.421	1.82095
980.313	3.0147
983.206	5.60433
986.099	8.82093
988.991	13.4136
991.884	19.7373
994.777	27.705
997.669	35.4852
1000.56	43.8064
1003.46	50.0551
1006.35	52.7333
1009.24	51.5675
1012.13	51.0998
1015.03	49.7517
1017.92	46.3356
1020.81	42.994
1023.7	39.7129
1026.6	36.0481
1029.49	31.2507
1032.38	25.4964
1035.28	20.9225
1038.17	17.1801
1041.06	12.9302
1043.95	10.2419
1046.85	8.12436
1049.74	6.27084
1052.63	4.92782
1055.52	3.71725
1058.42	2.80046
1061.31	1.4569
1064.2	1.00764
1067.09	0.628152
1069.99	0.541668
1072.88	0.284445
1075.77	0.261339
1078.66	0.094361
1081.56	0.587839
1084.45	0.061403
1087.34	0.43248
1090.24	0.171466
1093.13	0.115141
1096.02	0.576538
1098.91	0.491684
1101.81	0.854692
1104.7	0.613065
1107.59	1.39638
1110.48	0.713523
1113.38	0.900767
1116.27	1.4834
1119.16	1.07163
1122.06	1.08934
1124.95	1.15028
1127.84	1.14667
1130.73	1.31032
1133.63	1.13273
1136.52	0.549906
1139.41	0.691129
1142.3	0.356557
1145.2	0.025857
1148.09	0.426291
1150.98	0.44207
1153.88	0.053688
1156.77	0.439566
1159.66	0.170855
1162.55	0.220846
1165.45	0.313986
1168.34	0.081062
1171.23	0.256539
1174.12	0.456121
1177.02	0.737185
1179.91	0.00164
1182.8	0.75055
1185.69	0.238508
1188.59	0.201087
1191.48	0.367974
1194.37	0.376788
1197.27	0.59885
1200.16	0.554576
1203.05	0.182017
1205.94	0.743543
1208.84	0.491635
1211.73	0.600194
1214.62	0.41235
1217.52	1.53914
1220.41	0.380459
1223.3	0.806691
1226.19	0.090366
1229.09	0.078635
1231.98	0.120063
1234.87	0.855996
1237.76	0.381519
1240.66	0.229474
1243.55	0.096115
1246.44	0.302292
1249.33	0.065529
1252.23	0.320793
1255.12	0.00193
1258.01	0.4291
1260.9	0.195572
1263.8	0.208676
1266.69	0.282337
1269.58	0.312077
1272.48	0.356215
1275.37	0.377152
1278.26	0.371323
1281.15	0.311563
1284.05	0.460192
1286.94	0.016008
1289.83	0.275726
1292.72	0.457053
1295.62	0.198075
1298.51	0.159054
1301.4	0.085941
