Measurement: Raman, 532 nm, unoriented, Raman Data Processed
Mineral: Enstatite
Rruff sample: R070641
Ideal chemistry: MgSiO_3_
Locality: Sri Lanka
Source: Jibamitra Ganguly
Description: Translucent colorless crystalline fragment
Raman shift (cm-1)	intensity
127.359	0
130.734	154.92
134.109	550.558
137.483	558.365
140.858	339.095
144.233	374.371
147.608	456.118
150.983	639.939
154.358	728.428
157.732	432.381
161.107	422.323
164.482	285.573
167.857	158.07
171.232	20.0214
174.607	55.7948
177.981	7.16016
181.356	124.262
184.731	317.13
188.106	687.13
191.481	1387.95
194.855	2021.19
198.23	1889.8
201.605	1156.3
204.98	767.988
208.355	590.081
211.729	500.025
215.104	518.863
218.479	704.098
221.854	1015.86
225.229	1533.27
228.603	2145.58
231.978	3327.66
235.353	5693.94
238.728	6519.1
242.103	3193.41
245.478	1207.29
248.852	368.572
252.227	116.24
255.602	32.5281
258.977	0.362305
262.352	73.0449
265.726	128.224
269.101	27.2449
272.476	146.401
275.851	364.283
279.226	373.404
282.601	66.4199
285.975	15.5615
289.35	36.4988
292.725	170.543
296.1	543.498
299.475	868.358
302.849	572.43
306.224	334.179
309.599	467.483
312.974	794.319
316.349	1204.5
319.724	2152.4
323.098	2937.58
326.473	3030.51
329.848	4049.93
333.223	5366.58
336.598	7505.85
339.972	10555.8
343.347	12331.4
346.722	10515.2
350.097	6829.85
353.472	4160.65
356.846	2584.25
360.221	1752.07
363.596	1144.89
366.971	784.69
370.346	614.151
373.721	744.602
377.095	1133.88
380.47	1803.8
383.845	2277.72
387.22	1850.09
390.595	1570.03
393.969	1880.23
397.344	2603.52
400.719	3012.42
404.094	2615.82
407.469	2185.43
410.844	2199.08
414.218	2548.9
417.593	2586.83
420.968	2028.42
424.343	1080.43
427.718	408.908
431.092	24.0564
434.467	171.233
437.842	134.281
441.217	58.5093
444.592	41.564
447.967	113.631
451.341	235.079
454.716	333.913
458.091	320.228
461.466	309.824
464.841	258.47
468.215	210.395
471.59	233.225
474.965	174.495
478.34	141.9
481.715	200.539
485.089	279.7
488.464	213.359
491.839	119.618
495.214	14.4951
498.589	49.6211
501.964	20.3464
505.338	94.8259
508.713	230.135
512.088	467.133
515.463	814.461
518.838	1113.79
522.212	1203.14
525.587	1311.93
528.962	1115.56
532.337	998.666
535.712	1250.43
539.087	1453.15
542.461	1080.11
545.836	757.842
549.211	733.936
552.586	711.095
555.961	509.27
559.335	353.792
562.71	334.885
566.085	458.355
569.46	670.154
572.835	1042.83
576.21	1464.04
579.584	1425.51
582.959	801.314
586.334	468.418
589.709	326.767
593.084	242.46
596.458	176.367
599.833	50.093
603.208	44.3281
606.583	51.061
609.958	83.7485
613.332	65.731
616.707	33
620.082	42.3477
623.457	140.871
626.832	261.267
630.207	401.454
633.581	571.392
636.956	747.892
640.331	956.82
643.706	1439.2
647.081	2256.69
650.456	3683.36
653.83	5342.17
657.205	8012.82
660.58	10763.9
663.955	11130.3
667.33	8683.55
670.704	7451.88
674.079	8281.37
677.454	11019.6
680.829	15211.4
684.204	19006.5
687.578	16949.2
690.953	10477.9
694.328	5788.69
697.703	3251.8
701.078	1961.54
704.452	1275.45
707.827	779.295
711.202	530.45
714.577	367.112
717.952	248.138
721.327	196.142
724.701	95.1724
728.076	120.565
731.451	63.0862
734.826	24.8872
738.201	63.1846
741.576	59.8867
744.95	87.0132
748.325	140.214
751.7	177.751
755.075	81.175
758.45	61.4556
761.824	30.739
765.199	7.07007
768.574	22.4082
771.949	9.03882
775.324	19.043
778.698	0.068726
782.073	10.1636
785.448	11.0521
788.823	42.3013
792.198	4.88684
795.573	47.3158
798.947	52.1344
802.322	59.4672
805.697	83.74
809.072	92.8713
812.447	91.9923
815.822	108.65
819.196	150.264
822.571	145.369
825.946	155.092
829.321	152.699
832.696	192.317
836.07	222.933
839.445	267.582
842.82	404.335
846.195	504.667
849.57	642.944
852.944	746.764
856.319	558.103
859.694	355.18
863.069	235.56
866.444	118.492
869.818	75.9414
873.193	3.27246
876.568	20.3137
879.943	30.9736
883.318	15.072
886.693	31.7471
890.067	22.5884
893.442	27.6096
896.817	9.97559
900.192	25.3962
903.567	37.0239
906.942	11.9551
910.316	65.4192
913.691	133.264
917.066	282.018
920.441	520.217
923.816	911.95
927.19	1334.27
930.565	1546.49
933.94	1546.07
937.315	1462.51
940.69	1195.88
944.064	1007.1
947.439	726.85
950.814	494.6
954.189	354.372
957.564	137.462
960.938	47.2358
964.313	51.1003
967.688	56.5276
971.063	28.7395
974.438	77.2095
977.813	246.492
981.187	488.199
984.562	901.061
987.937	1467.81
991.312	2599.19
994.687	4360.72
998.062	7252.39
1001.44	11573.5
1004.81	17123.6
1008.19	23406
1011.56	25575
1014.94	19560.5
1018.31	13364.9
1021.68	10435.6
1025.06	9718.02
1028.43	9765.85
1031.81	9584.16
1035.18	8217.8
1038.56	6170.41
1041.93	4536.1
1045.31	3166.37
1048.68	2120.03
1052.06	1413.99
1055.43	975.068
1058.81	696.646
1062.18	496.881
1065.56	304.246
1068.93	148.661
1072.31	75.4731
1075.68	59.2266
1079.06	12.0654
1082.43	19.043
1085.81	3.63599
1089.18	17.9404
1092.56	10.803
1095.93	10.8696
1099.31	34.2461
1102.68	10.5244
1106.06	27.8406
1109.43	72.5767
1112.81	44.7344
1116.18	52.6011
1119.56	82.0417
1122.93	70.4583
1126.3	55.1807
1129.68	94.2268
1133.05	122.449
1136.43	121.419
1139.8	119.942
1143.18	97.0798
1146.55	58.3115
1149.93	43.3455
1153.3	73.9038
1156.68	68.7581
1160.05	31.5601
1163.43	38.2268
1166.8	38.0151
1170.18	61.8726
1173.55	59.2065
1176.93	19.0986
1180.3	40.4285
1183.68	35.9836
1187.05	36.1011
1190.43	38.4265
1193.8	46.7698
1197.18	43.1895
1200.55	31.7053
1203.92	36.8645
1207.3	147.602
1210.67	20.5222
1214.05	1.16504
1217.42	10.6531
1220.8	40.7864
1224.17	44.7666
1227.55	25.4255
1230.92	1.18921
1234.3	15.4551
1237.67	28.4526
1241.05	47.2258
1244.42	26.6882
1247.8	55.2183
1251.17	32.7046
1254.55	33.1457
1257.92	65.3247
1261.3	39.7353
1264.67	23.2795
1268.05	47.769
1271.42	7.6145
1274.8	19.5571
1278.17	42.9763
1281.55	25.5427
1284.92	72.3772
1288.3	25.3306
