Measurement: Raman, 780 nm, unoriented, Raman Data Processed
Mineral: Eosphorite
Rruff sample: R050570
Ideal chemistry: Mn^2+^AlPO_4_(OH)_2_H_2_O
Locality: Lavra da Ilha, Minas Gerais, Brazil
Source: University of Arizona Mineral Museum
Description: Pale brown prismatic crystals with wedge-shaped terminations
Measured chemistry: (Mn_0.42_Fe^2+^_0.40_Ca_0.13_Mg_0.05_)Al(PO_4_)((OH)_0.96_F_0.04_)_2_Î‡H_2_O
Raman shift (cm-1)	intensity
118.582	0
121.957	10.2007
125.332	39.803
128.706	48.8177
132.081	47.4239
135.456	54.5796
138.831	48.5057
142.206	20.7804
145.58	2.71106
148.955	5.43176
152.33	-0.227749
155.705	1.27039
159.08	16.4926
162.454	31.0339
165.829	57.7165
169.204	89.6562
172.579	121.079
175.954	146.095
179.328	148.153
182.703	159.422
186.078	176.065
189.453	189.604
192.828	205.825
196.203	223.305
199.577	238.087
202.952	252.664
206.327	275.26
209.702	283.863
213.077	278.501
216.451	268.693
219.826	260.252
223.201	252.645
226.576	248.237
229.951	221.182
233.326	168.954
236.7	131.71
240.075	109.755
243.45	96.0347
246.825	78.4006
250.2	63.33
253.574	45.3633
256.949	26.4965
260.324	20.3124
263.699	4.11572
267.074	10.5161
270.449	7.55432
273.823	4.71606
277.198	23.2017
280.573	52.1574
283.948	92.4509
287.322	143.794
290.697	185.599
294.072	234.424
297.447	273.585
300.822	314.354
304.197	331.932
307.571	341.532
310.946	316.501
314.321	272.568
317.696	219.987
321.071	168.099
324.445	128.056
327.82	83.3386
331.195	75.0503
334.57	63.3209
337.945	62.4071
341.32	54.5524
344.694	50.4845
348.069	48.1865
351.444	42.8989
354.819	37.6154
358.194	40.0338
361.568	23.8478
364.943	21.1533
368.318	11.1514
371.693	0.378418
375.068	1.12463
378.442	12.1708
381.817	8.12878
385.192	1.71289
388.567	7.30139
391.942	21.1719
395.317	41.0825
398.691	59.8081
402.066	63.6951
405.441	71.6753
408.816	70.6558
412.191	71.4009
415.565	63.7894
418.94	56.0787
422.315	61.0902
425.69	73.6484
429.065	81.2517
432.44	97.0815
435.814	121.794
439.189	148.095
442.564	189.408
445.939	256.779
449.314	329.149
452.688	419.892
456.063	502.776
459.438	602.067
462.813	658.001
466.188	662.852
469.562	597.657
472.937	484.238
476.312	363.617
479.687	259.637
483.062	174.488
486.437	118.253
489.811	81.6644
493.186	54.4338
496.561	35.0566
499.936	24.4561
503.311	20.337
506.685	8.0564
510.06	4.86499
513.435	1.28503
516.81	4.40601
520.185	0.948486
523.56	5.36487
526.934	0.4823
530.309	4.47021
533.684	0.964233
537.059	7.57666
540.434	20.5186
543.808	45.7446
547.183	63.9955
550.558	98.1953
553.933	129.624
557.308	183.712
560.683	181.281
564.057	137.313
567.432	114.105
570.807	117.485
574.182	147.047
577.557	195.366
580.931	247.235
584.306	329.693
587.681	443.568
591.056	581.722
594.431	675.174
597.806	618.747
601.18	467.018
604.555	336.213
607.93	242.588
611.305	182.133
614.68	147.507
618.054	116.229
621.429	95.6753
624.804	76.686
628.179	58.7568
631.554	43.386
634.928	32.602
638.303	16.9796
641.678	21.9468
645.053	11.8695
648.428	5.31641
651.803	1.36145
655.177	4.1676
658.552	2.23486
661.927	0.384521
665.302	5.77014
668.677	7.55493
672.051	1.97058
675.426	3.47485
678.801	6.53833
682.176	4.64441
685.551	1.29724
688.926	9.04895
692.3	0.94873
695.675	5.00024
699.05	9.27856
702.425	8.72961
705.8	2.27685
709.174	10.9459
712.549	11.3478
715.924	10.2873
719.299	4.71619
722.674	10.6919
726.048	2.50354
729.423	12.6945
732.798	8.72571
736.173	0.464355
739.548	5.87695
742.923	1.55408
746.297	2.04443
749.672	6.11621
753.047	4.8717
756.422	9.18799
759.797	4.09705
763.171	3.81775
766.546	4.25232
769.921	1.57764
773.296	3.48059
776.671	6.57849
780.045	6.79736
783.42	2.02637
786.795	10.1729
790.17	9.3385
793.545	14.4935
796.919	16.7681
800.294	13.0369
803.669	13.1251
807.044	25.3072
810.419	28.5664
813.794	19.7342
817.168	17.1267
820.543	20.7207
823.918	24.7914
827.293	7.06451
830.668	16.3402
834.043	20.0575
837.417	14.6486
840.792	12.7364
844.167	16.431
847.542	9.87268
850.917	10.8195
854.291	16.5155
857.666	16.4809
861.041	23.4548
864.416	23.6063
867.791	22.5971
871.165	29.065
874.54	22.8013
877.915	22.3615
881.29	22.4425
884.665	22.5105
888.039	14.1735
891.414	12.8045
894.789	7.20807
898.164	7.47528
901.539	5.06445
904.914	2.25085
908.288	1.79205
911.663	0.640625
915.038	1.46143
918.413	3.13879
921.788	4.18518
925.163	3.40387
928.537	0.830566
931.912	8.60284
935.287	4.8949
938.662	20.5658
942.037	42.1573
945.411	78.0518
948.786	136.275
952.161	247.784
955.536	418.513
958.911	642.344
962.285	918.202
965.66	1214.1
969.035	1299.13
972.41	1072.44
975.785	788.009
979.159	586.576
982.534	471.857
985.909	404.119
989.284	354.354
992.659	334.38
996.034	347.957
999.408	376.325
1002.78	434.014
1006.16	496.809
1009.53	538.451
1012.91	551.601
1016.28	500.135
1019.66	412.151
1023.03	313.667
1026.41	235.749
1029.78	186.968
1033.16	140.155
1036.53	107.575
1039.91	75.2377
1043.28	59.814
1046.66	35.3199
1050.03	22.9956
1053.4	12.7909
1056.78	5.66412
1060.15	0.905029
1063.53	1.54608
1066.9	0.944946
1070.28	4.27808
1073.65	1.70184
1077.03	1.71643
1080.4	1.60065
1083.78	2.38849
1087.15	5.00018
1090.53	5.79236
1093.9	10.7018
1097.28	0.009033
1100.65	0.299064
1104.03	10.908
1107.4	5.66565
1110.78	5.79303
1114.15	1.87268
1117.53	9.99927
1120.9	9.87476
1124.28	9.81049
1127.65	8.92059
1131.03	19.5032
1134.4	23.4193
1137.78	33.2919
1141.15	44.1728
1144.53	44.5013
1147.9	44.7974
1151.28	32.5018
1154.65	20.4017
1158.03	15.9004
1161.4	15.0571
1164.77	11.9705
1168.15	14.4498
1171.52	10.9164
1174.9	8.25189
1178.27	5.70508
1181.65	1.39319
1185.02	2.11212
1188.4	12.3766
1191.77	5.97742
1195.15	4.3161
1198.52	5.55157
1201.9	0.986938
1205.27	9.32935
1208.65	6.13928
1212.02	3.51123
1215.4	2.9093
1218.77	0.690369
1222.15	1.23651
1225.52	2.40582
1228.9	2.88776
1232.27	7.77862
1235.64	0.091553
1239.02	5.87891
1242.39	7.41321
1245.77	9.3706
1249.14	1.41736
1252.52	3.54669
1255.89	1.21674
1259.27	8.16046
1262.64	3.94348
1266.02	4.80945
1269.39	6.34882
1272.77	8.1582
1276.14	5.58258
1279.52	6.00427
1282.89	4.17621
1286.27	0
