Measurement: Raman, 532 nm, unoriented, Raman Data Processed
Mineral: Eosphorite
Rruff sample: R061055
Ideal chemistry: Mn^2+^AlPO_4_(OH)_2_H_2_O
Locality: Mendes Pimental Pegmatite, Minas Gerais, Brazil
Source: Royal Ontario Museum
Description: Brown pyramidal crystal
Measured chemistry: (Mn^2+^_0.78_Fe_0.21_Ca_0.01_)_Σ=1_Al_1.00_P_1.00_O_4_((OH)_1.85_F_0.15_)_Σ=2_·H_2_O; H_2_O estimated by difference; OH by charge balance
Raman shift (cm-1)	intensity
186.126	0
189.018	26.6387
191.911	127.753
194.804	211.882
197.696	302.315
200.589	427.019
203.482	536.048
206.375	526.129
209.267	379.781
212.16	244.997
215.053	240.082
217.945	216.501
220.838	195.567
223.731	171.399
226.624	150.278
229.516	173.682
232.409	68.7329
235.302	2.49268
238.194	10.3584
241.087	67.8389
243.98	189.95
246.872	266.973
249.765	360.03
252.658	397.037
255.55	313.729
258.443	364.546
261.336	327.093
264.229	276.874
267.121	131.248
270.014	70.2261
272.907	0.661621
275.799	86.4341
278.692	68.833
281.585	122.06
284.478	111.473
287.37	181.852
290.263	305.485
293.156	342.599
296.048	476.877
298.941	580.52
301.834	712.59
304.726	736.041
307.619	678.996
310.512	640.687
313.404	488.232
316.297	394.84
319.19	217.805
322.083	190.212
324.975	155.815
327.868	205.945
330.761	82.7437
333.653	58.709
336.546	14.7266
339.439	132.349
342.332	53.7441
345.224	1.97559
348.117	36.583
351.01	23.623
353.902	24.0996
356.795	48.8257
359.688	67.9458
362.58	7.06592
365.473	19.9902
368.366	88.0581
371.259	269.787
374.151	444.971
377.044	640.944
379.937	840.868
382.829	967.061
385.722	1140.2
388.615	1268.12
391.507	1398.59
394.4	1410.39
397.293	1333.54
400.185	1200.71
403.078	1166.96
405.971	943.185
408.864	814.33
411.756	767.494
414.649	686.095
417.542	619.33
420.434	549.648
423.327	531.892
426.22	577.018
429.112	539.493
432.005	577.474
434.898	567.707
437.791	588.928
440.683	646.804
443.576	707.668
446.469	742.477
449.361	777.512
452.254	910.238
455.147	1075.59
458.039	1214.07
460.932	1334.77
463.825	1366.36
466.717	1312.27
469.61	1140.48
472.503	910.432
475.396	719.721
478.288	524.823
481.181	477.84
484.074	440.588
486.966	483.463
489.859	426.693
492.752	530.9
495.644	400.973
498.537	410.739
501.43	464.858
504.323	361.325
507.215	283.463
510.108	203.253
513.001	68.4731
515.893	28.6934
518.786	3.79541
521.679	35.6035
524.572	57.6528
527.464	77.5474
530.357	40.9121
533.25	76.1069
536.142	2.49951
539.035	100.272
541.928	170.131
544.82	316.46
547.713	374.307
550.606	482.989
553.499	602.159
556.391	757.706
559.284	812.815
562.177	752.067
565.069	679.959
567.962	617.761
570.855	591.102
573.747	733.568
576.64	855.966
579.533	997.445
582.426	1334.85
585.318	1664.35
588.211	2157.24
591.104	2694.24
593.996	3095.91
596.889	3384.99
599.782	3483.29
602.674	3330.72
605.567	3135.53
608.46	2957.24
611.352	2769.89
614.245	2548.02
617.138	2299.38
620.031	2179.96
622.923	2045.96
625.816	1884.64
628.709	1677.33
631.601	1678.48
634.494	1506.38
637.387	1276.86
640.279	1069.71
643.172	897.848
646.065	696.704
648.957	607.104
651.85	475.657
654.743	283.812
657.636	221.724
660.528	125.935
663.421	64.2754
666.314	5.08203
669.206	31.9873
672.099	27.3613
674.992	83.981
677.885	33.0112
680.777	0.303223
683.67	44.1836
686.563	60.334
689.455	60.8252
692.348	84.7329
695.241	31.6968
698.133	69.7935
701.026	68.3071
703.919	52.3555
706.812	106.156
709.704	38.8037
712.597	61.5317
715.49	93.8076
718.382	71.5654
721.275	60.8945
724.168	98.8823
727.06	18.3057
729.953	40.8027
732.846	91.6821
735.739	50.2315
738.631	6.79981
741.524	34.5107
744.417	35.7549
747.309	17.9605
750.202	39.4839
753.095	1.54297
755.987	12.8975
758.88	0.968262
761.773	4.34766
764.665	51.0337
767.558	24.5586
770.451	67.6235
773.344	51.148
776.236	56.71
779.129	23.2783
782.022	65.8442
784.914	87.5772
787.807	103.246
790.7	70.8242
793.592	146.192
796.485	94.563
799.378	131.47
802.271	98.6655
805.163	121.732
808.056	182.895
810.949	194.46
813.841	121.231
816.734	181.903
819.627	178.372
822.519	173.288
825.412	125.192
828.305	139.167
831.198	90.8384
834.09	130.089
836.983	147.648
839.876	104.036
842.768	103.175
845.661	123.596
848.554	59.9746
851.447	57.0312
854.339	57.3027
857.232	44.0649
860.125	74.4375
863.017	47.7871
865.91	53.1553
868.803	70.2427
871.695	118.182
874.588	139.14
877.481	122.146
880.374	148.507
883.266	122.349
886.159	106.436
889.052	108.462
891.944	119.203
894.837	103.4
897.73	66.0435
900.622	79.4356
903.515	85.8345
906.408	56.6065
909.3	20.6826
912.193	66.1436
915.086	28.8394
917.979	33.0957
920.871	0.499023
923.764	23.5088
926.657	77.6953
929.549	85.0478
932.442	78.21
935.335	61.2861
938.227	64.9116
941.12	126.017
944.013	246.869
946.905	422.142
949.798	738.945
952.691	1237.75
955.584	2036.41
958.476	3339.32
961.369	4880.05
964.262	6723.74
967.154	7939.86
970.047	8179.76
972.94	7095.59
975.832	5736.06
978.725	4575.49
981.618	3746.98
984.511	3176.08
987.403	2708.41
990.296	2410.43
993.189	2187.58
996.081	2104.36
998.974	2046.73
1001.87	2069.4
1004.76	1996.93
1007.65	2005.64
1010.54	1913.97
1013.44	1801.46
1016.33	1469.92
1019.22	1294.29
1022.12	1120.9
1025.01	1052.65
1027.9	1068.04
1030.79	1089.12
1033.69	1148.94
1036.58	1262.6
1039.47	1266.62
1042.37	1257.17
1045.26	1384.39
1048.15	1399.07
1051.04	1422.19
1053.93	1496.57
1056.83	1415.52
1059.72	1217.27
1062.61	957.093
1065.51	785.479
1068.4	515.767
1071.29	429.24
1074.18	233.727
1077.08	67.2207
1079.97	49.4482
1082.86	110.196
1085.76	7.99609
1088.65	59.8672
1091.54	29.9062
1094.43	111.065
1097.33	180.054
1100.22	184.836
1103.11	363.272
1106	515.118
1108.9	400.367
1111.79	400.079
1114.68	322.932
1117.58	420.447
1120.47	298.615
1123.36	449.595
1126.25	203.484
1129.15	181.434
1132.04	167.711
1134.93	81.0147
1137.82	157.551
1140.72	122.87
1143.61	91.0566
1146.5	6.99707
1149.39	34.9165
1152.29	40.6089
1155.18	45.8574
1158.07	0.114258
1160.96	10.2231
1163.86	51.3603
1166.75	4.53809
1169.64	27.3804
1172.54	68.1665
1175.43	117.916
1178.32	120.784
1181.21	154.38
1184.11	142.991
1187	107.864
1189.89	89.0962
1192.79	104.746
1195.68	105.073
1198.57	33.5801
1201.46	69.7251
1204.36	49.9473
1207.25	58.1572
1210.14	104.318
1213.03	128.432
1215.93	105.323
1218.82	59.4946
1221.71	85.1401
1224.61	177.938
1227.5	84.2554
1230.39	91.9517
1233.28	119.701
1236.17	151.144
1239.07	183.878
1241.96	188.616
1244.85	165.107
1247.75	229.907
1250.64	260.272
1253.53	101.407
1256.42	88.665
1259.32	83.5527
1262.21	56.8174
1265.1	12.3374
1267.99	75.6304
1270.89	120.835
1273.78	106.874
1276.67	68.521
1279.57	10.2158
1282.46	71.9775
1285.35	19.9439
1288.24	39.7373
1291.14	43.978
