Measurement: Raman, 532 nm, unoriented, Raman Data Processed
Mineral: Eosphorite
Rruff sample: R050557
Ideal chemistry: Mn^2+^AlPO_4_(OH)_2_H_2_O
Locality: Minas Gerais, Brazil
Source: Dave Bunk Minerals
Description: A radial group of light brown bladed crystals
Measured chemistry: (Mn^2+^_0.46_Fe^2+^_0.32_Ca_0.16_Mg_0.06_)_Σ=1_Al_1.00_(P_1.00_O_4_)(OH)_2_·H_2_O
Raman shift (cm-1)	intensity
140.773	0
144.148	1.30499
147.523	20.2482
150.898	33.4213
154.273	55.4844
157.647	52.651
161.022	60.7343
164.397	93.8133
167.772	153.702
171.147	205.442
174.522	184.561
177.896	156.356
181.271	124.154
184.646	126.841
188.021	139.715
191.396	154.936
194.77	189.22
198.145	225.674
201.52	257.299
204.895	293.732
208.27	288.897
211.645	253.667
215.019	237.737
218.394	236.566
221.769	229.896
225.144	241.403
228.519	267.031
231.893	234.812
235.268	209.69
238.643	194.33
242.018	195.336
245.393	203.689
248.768	207.017
252.142	206.007
255.517	203.001
258.892	181.725
262.267	141.93
265.642	79.7997
269.017	25.355
272.391	3.12793
275.766	4.82141
279.141	6.88849
282.516	28.9677
285.891	60.6926
289.265	75.3099
292.64	99.9454
296.015	114.106
299.39	126.839
302.765	127.882
306.14	124.321
309.514	110.172
312.889	79.941
316.264	54.0038
319.639	23.6231
323.014	0.723694
326.389	8.29517
329.763	17.2052
333.138	4.94318
336.513	7.46729
339.888	2.24438
343.263	3.97632
346.637	7.85644
350.012	18.451
353.387	21.5159
356.762	31.567
360.137	40.1942
363.512	48.5198
366.886	54.9107
370.261	66.2808
373.636	96.6254
377.011	131.434
380.386	183.463
383.76	242.408
387.135	311.296
390.51	374.813
393.885	428.594
397.26	432.776
400.635	385.892
404.009	306.911
407.384	219.787
410.759	150.387
414.134	98.7763
417.509	69.8322
420.884	47.7493
424.258	27.7692
427.633	27.6364
431.008	31.0559
434.383	39.3857
437.758	56.9641
441.132	78.1736
444.507	113.506
447.882	157.725
451.257	219.008
454.632	282.705
458.007	352.97
461.381	400.925
464.756	420.514
468.131	403.42
471.506	351.672
474.881	288.406
478.255	213.612
481.63	157.45
485.005	115.276
488.38	79.7151
491.755	64.1549
495.13	47.792
498.504	43.0452
501.879	31.477
505.254	22.1853
508.629	11.9592
512.004	6.93311
515.379	2.77856
518.753	4.9668
522.128	14.194
525.503	15.4991
528.878	7.68372
532.253	9.80298
535.627	4.40601
539.002	8.62512
542.377	33.7311
545.752	59.6433
549.127	96.7844
552.501	151.794
555.876	204.548
559.251	216.953
562.626	173.217
566.001	145.291
569.376	164.4
572.75	238.521
576.125	311.406
579.5	433.089
582.875	575.545
586.25	762.05
589.625	947.119
592.999	1074.74
596.374	1069.33
599.749	974.723
603.124	891.981
606.499	849.668
609.874	818.865
613.248	778.48
616.623	710.425
619.998	622.436
623.373	528.638
626.748	437.877
630.122	355.68
633.497	280.08
636.872	216.978
640.247	167.664
643.622	123.045
646.996	93.0713
650.371	65.0982
653.746	42.6638
657.121	21.6917
660.496	15.7407
663.871	9.9986
667.245	8.66638
670.62	10.4012
673.995	1.02319
677.37	2.21857
680.745	8.15131
684.12	0.006226
687.494	6.13306
690.869	3.41107
694.244	9.05218
697.619	5.12262
700.994	1.16425
704.368	0.374939
707.743	2.11725
711.118	1.34338
714.493	2.48901
717.868	4.021
721.243	1.86054
724.617	3.34271
727.992	2.17731
731.367	1.69952
734.742	11.7783
738.117	8.83984
741.491	9.21137
744.866	11.9483
748.241	8.29334
751.616	8.52698
754.991	11.2063
758.366	11.543
761.74	6.34467
765.115	7.61389
768.49	13.0681
771.865	14.2431
775.24	13.8959
778.615	0.734375
781.989	5.84582
785.364	6.57611
788.739	7.96967
792.114	6.59955
795.489	11.7574
798.863	10.747
802.238	12.7725
805.613	11.409
808.988	18.5371
812.363	12.0845
815.737	12.456
819.112	12.4782
822.487	11.3424
825.862	7.2016
829.237	11.2634
832.612	11.7485
835.986	11.5078
839.361	12.0126
842.736	17.3611
846.111	18.3447
849.486	17.6998
852.861	29.6253
856.235	28.7303
859.61	36.7256
862.985	47.754
866.36	49.0653
869.735	55.4804
873.11	53.5894
876.484	51.013
879.859	51.126
883.234	41.9402
886.609	42.4226
889.984	33.4393
893.358	26.9518
896.733	22.6869
900.108	15.5637
903.483	5.65362
906.858	7.48718
910.232	8.22186
913.607	14.4072
916.982	11.569
920.357	14.3099
923.732	13.5684
927.107	8.03473
930.481	4.71283
933.856	29.0024
937.231	56.1797
940.606	114.223
943.981	195.88
947.356	332.509
950.73	573.199
954.105	990.32
957.48	1620.49
960.855	2492.87
964.23	3428.25
967.605	3809.85
970.979	3150.59
974.354	2211.49
977.729	1552.39
981.104	1143.29
984.479	882.879
987.853	723.62
991.228	626.305
994.603	594.713
997.978	585.869
1001.35	627.877
1004.73	692.035
1008.1	748.541
1011.48	756.926
1014.85	679.603
1018.23	566.718
1021.6	450.936
1024.98	382.176
1028.35	359
1031.73	363.491
1035.1	354.815
1038.48	308.231
1041.85	243.304
1045.22	202.115
1048.6	181.371
1051.97	176.625
1055.35	169.639
1058.72	149.208
1062.1	107.232
1065.47	57.2492
1068.85	18.9318
1072.22	2.82257
1075.6	11.7714
1078.97	17.7059
1082.35	21.0189
1085.72	5.53705
1089.1	12.6489
1092.47	7.36652
1095.85	15.3411
1099.22	40.1023
1102.6	61.5544
1105.97	69.0524
1109.35	74.8049
1112.72	68.3209
1116.1	55.2394
1119.47	47.9187
1122.85	42.8582
1126.22	35.4268
1129.6	37.6838
1132.97	32.1844
1136.35	40.8006
1139.72	44.0231
1143.1	49.6837
1146.47	36.5113
1149.85	19.2396
1153.22	10.0874
1156.59	5.93964
1159.97	5.60687
1163.34	3.1546
1166.72	4.27216
1170.09	3.19074
1173.47	4.03155
1176.84	3.11603
1180.22	2.73578
1183.59	2.57892
1186.97	3.10425
1190.34	0.269836
1193.72	0.377563
1197.09	5.93152
1200.47	6.99231
1203.84	14.3926
1207.22	7.13342
1210.59	5.9693
1213.97	4.05463
1217.34	5.05902
1220.72	9.48132
1224.09	1.9184
1227.47	6.30603
1230.84	7.91791
1234.21	0.120972
1237.59	2.67786
1240.96	4.88715
1244.34	3.96002
1247.71	4.86005
1251.09	5.88147
1254.46	8.9256
1257.84	7.06104
1261.21	2.83673
1264.59	2.01196
1267.96	4.35461
1271.34	6.35004
1274.71	1.35175
1278.09	1.10193
1281.46	1.32318
1284.84	10.0706
1288.21	6.03455
1291.59	0.45697
1294.96	2.40973
1298.34	0.309937
1301.71	0.465942
