Measurement: Raman, 785 nm, unoriented, Raman Data Processed
Mineral: Eosphorite
Rruff sample: R061055
Ideal chemistry: Mn^2+^AlPO_4_(OH)_2_H_2_O
Locality: Mendes Pimental Pegmatite, Minas Gerais, Brazil
Source: Royal Ontario Museum
Description: Brown pyramidal crystal
Measured chemistry: (Mn^2+^_0.78_Fe_0.21_Ca_0.01_)_Σ=1_Al_1.00_P_1.00_O_4_((OH)_1.85_F_0.15_)_Σ=2_·H_2_O; H_2_O estimated by difference; OH by charge balance
Raman shift (cm-1)	intensity
190.471	0
193.363	38.4517
196.256	145.735
199.149	242.933
202.042	300.677
204.934	366.975
207.827	291.67
210.72	204.3
213.612	145.308
216.505	246.685
219.398	274.595
222.291	258.29
225.183	293.617
228.076	226.003
230.969	219.454
233.861	197.55
236.754	172.361
239.647	50.3838
242.539	87.1357
245.432	73.7183
248.325	53.5039
251.218	89.4004
254.11	100.471
257.003	193.915
259.896	112.178
262.788	85.0322
265.681	18.3091
268.574	38.1719
271.466	6.08106
274.359	17.8657
277.252	8.37402
280.144	66.8599
283.037	160.413
285.93	111.849
288.823	209.446
291.715	202.018
294.608	282.533
297.501	319.494
300.393	374.114
303.286	477.595
306.179	500.092
309.072	481.725
311.964	452.461
314.857	390.172
317.75	348.153
320.642	262.294
323.535	273.38
326.428	307.698
329.32	218.462
332.213	105.508
335.106	185.736
337.998	91.2437
340.891	89.7461
343.784	93.0029
346.677	141.091
349.569	60.1196
352.462	89.9204
355.355	53.9795
358.247	47.6035
361.14	1.36865
364.033	81.0176
366.925	3.3999
369.818	52.2476
372.711	37.5117
375.604	64.8208
378.496	57.1065
381.389	41.8511
384.282	32.3696
387.174	117.23
390.067	178.671
392.96	226.391
395.853	314.285
398.745	329.571
401.638	337.858
404.531	283.238
407.423	293.178
410.316	306.151
413.209	364.916
416.101	362.391
418.994	367.531
421.887	328.762
424.779	305.163
427.672	319.523
430.565	256.374
433.458	296.501
436.35	307.152
439.243	290.212
442.136	359.138
445.028	294.144
447.921	361.566
450.814	359.582
453.707	403.418
456.599	533.066
459.492	670.789
462.385	765.02
465.277	732.85
468.17	669.701
471.063	532.225
473.955	397.415
476.848	263.483
479.741	202.39
482.634	136.48
485.526	151.553
488.419	89.9746
491.312	120.277
494.204	90.9092
497.097	125.989
499.99	85.5791
502.882	43.3286
505.775	58.5781
508.668	58.1855
511.56	45.8545
514.453	14.8408
517.346	23.1064
520.239	60.7993
523.131	8.80225
526.024	2.875
528.917	19.1631
531.809	19.5669
534.702	59.6621
537.595	91.8516
540.487	25.5776
543.38	93.5772
546.273	65.1035
549.166	59.3203
552.058	145.07
554.951	249.746
557.844	375.531
560.736	365.074
563.629	280.088
566.522	234.957
569.414	258.045
572.307	291.431
575.2	383.485
578.093	430.791
580.985	571.654
583.878	802.264
586.771	1111.68
589.663	1517.33
592.556	1884.3
595.449	2009.32
598.341	1998.93
601.234	1795.42
604.127	1480.43
607.019	1222.4
609.912	1063.7
612.805	857.987
615.698	720.838
618.59	630.155
621.483	599.433
624.376	489.68
627.268	515.037
630.161	486.373
633.054	396.281
635.947	345.03
638.839	354.224
641.732	321.047
644.625	245.36
647.517	260.576
650.41	235.788
653.303	181.017
656.195	167.83
659.088	117.728
661.981	80.9058
664.874	27.0552
667.766	19.3442
670.659	1.15918
673.552	7.46411
676.444	91.6028
679.337	10.1245
682.23	40.0498
685.122	7.97021
688.015	9.08667
690.908	10.0034
693.801	5.58765
696.693	26.8923
699.586	14.8308
702.479	9.50073
705.371	3.0061
708.264	25.4553
711.157	36.5608
714.049	48.4739
716.942	52.4534
719.835	20.0881
722.727	9.49072
725.62	78.2395
728.513	28.3088
731.406	0.44873
734.298	27.8718
737.191	41.0776
740.084	27.2302
742.976	29.9214
745.869	7.80737
748.762	49.571
751.654	17.1736
754.547	20.1948
757.44	7.16797
760.333	31.0041
763.225	39.2546
766.118	9.2019
769.011	55.0308
771.903	4.4021
774.796	30.6943
777.689	50.5308
780.582	17.6221
783.474	65.6636
786.367	47.7607
789.26	59.5515
792.152	14.6511
795.045	110.588
797.938	15.2781
800.83	26.7905
803.723	17.4512
806.616	86.728
809.509	48.7048
812.401	105.369
815.294	62.4858
818.187	90.5217
821.079	16.5171
823.972	37.9978
826.865	34.5693
829.757	90.0071
832.65	20.6477
835.543	53.9971
838.436	13.6829
841.328	0.510254
844.221	72.3545
847.114	61.0659
850.006	25.0459
852.899	27.5181
855.792	55.6702
858.684	56.8223
861.577	78.7161
864.47	83.8428
867.362	82.6721
870.255	88.3689
873.148	101.873
876.041	79.4299
878.933	71.1221
881.826	91.3709
884.719	70.4067
887.611	46.7219
890.504	67.1721
893.397	41.3464
896.29	11.3025
899.182	31.2593
902.075	15.9399
904.968	1.18726
907.86	29.6016
910.753	15.5837
913.646	11.4043
916.538	3.58374
919.431	19.0002
922.324	41.342
925.216	24.6531
928.109	2.94263
931.002	43.7685
933.895	45.491
936.787	96.8108
939.68	120.601
942.573	128.585
945.465	146.845
948.358	234.809
951.251	397.367
954.144	615.02
957.036	961.128
959.929	1528.69
962.822	2360.81
965.714	3165.62
968.607	3500.54
971.5	3006.82
974.392	2410.93
977.285	1901.16
980.178	1495.55
983.071	1252.51
985.963	1095.76
988.856	907.019
991.749	802.674
994.641	801.318
997.534	817.471
1000.43	854.442
1003.32	887.645
1006.21	959.116
1009.11	981.766
1012	942.486
1014.89	810.587
1017.78	658.774
1020.68	463.577
1023.57	320.158
1026.46	244.871
1029.35	285.247
1032.25	274.991
1035.14	267.259
1038.03	257.623
1040.92	167.618
1043.82	215.01
1046.71	194.63
1049.6	203.143
1052.49	171.442
1055.39	192.044
1058.28	163.038
1061.17	129.718
1064.07	81.7219
1066.96	64.2817
1069.85	38.029
1072.74	11.4021
1075.64	13.4971
1078.53	7.22876
1081.42	2.96069
1084.32	15.9797
1087.21	4.40942
1090.1	11.4253
1092.99	22.9849
1095.89	7.05884
1098.78	67.7378
1101.67	65.1406
1104.56	61.5449
1107.46	70.6506
1110.35	73.7642
1113.24	79.907
1116.13	100.679
1119.03	73.3091
1121.92	45.9094
1124.81	42.6165
1127.7	77.4336
1130.6	33.5542
1133.49	46.0664
1136.38	24.2556
1139.28	48.0134
1142.17	40.5562
1145.06	113.757
1147.95	59.8833
1150.85	29.7798
1153.74	60.9255
1156.63	10.0481
1159.53	32.2366
1162.42	48.7849
1165.31	41.3359
1168.2	42.1685
1171.1	47.2236
1173.99	13.4893
1176.88	59.9973
1179.77	39.5239
1182.67	39.1997
1185.56	36.0603
1188.45	23.9688
1191.35	57.4998
1194.24	39.3945
1197.13	27.7436
1200.02	56.8291
1202.92	2.90942
1205.81	1.46631
1208.7	43.8452
1211.59	58.5222
1214.49	75.3289
1217.38	57.4731
1220.27	67.458
1223.16	80.3257
1226.06	77.6419
1228.95	70.0854
1231.84	84.5906
1234.73	20.5146
1237.63	54.1936
1240.52	1.02173
1243.41	17.4836
1246.31	37.4836
1249.2	50.2192
1252.09	20.3047
1254.98	46.0029
1257.88	20.2854
1260.77	2.46997
1263.66	2.19092
