Measurement: Raman, 780 nm, unoriented, Raman Data Processed
Mineral: Eosphorite
Rruff sample: R050557
Ideal chemistry: Mn^2+^AlPO_4_(OH)_2_H_2_O
Locality: Minas Gerais, Brazil
Source: Dave Bunk Minerals
Description: A radial group of light brown bladed crystals
Measured chemistry: (Mn^2+^_0.46_Fe^2+^_0.32_Ca_0.16_Mg_0.06_)_Σ=1_Al_1.00_(P_1.00_O_4_)(OH)_2_·H_2_O
Raman shift (cm-1)	intensity
101.708	0
105.083	14.5886
108.457	50.2476
111.832	88.8927
115.207	120.713
118.582	130.242
121.957	101.332
125.332	42.6751
128.706	22.6329
132.081	7.12775
135.456	1.10098
138.831	1.28754
142.206	3.58337
145.58	6.73996
148.955	-0.521209
152.33	9.63147
155.705	19.7511
159.08	37.8821
162.454	45.6514
165.829	66.1904
169.204	91.6252
172.579	98.7864
175.954	83.448
179.328	81.6706
182.703	75.4639
186.078	87.0838
189.453	97.0366
192.828	101.731
196.203	106.494
199.577	113.604
202.952	112.352
206.327	124.699
209.702	102.488
213.077	95.9083
216.451	92.253
219.826	96.1887
223.201	103.675
226.576	112.014
229.951	125.726
233.326	124.737
236.7	128.225
240.075	132.191
243.45	141.926
246.825	144.687
250.2	141.218
253.574	123.963
256.949	107.649
260.324	88.4286
263.699	59.491
267.074	34.7291
270.449	17.2395
273.823	13.9838
277.198	20.0175
280.573	33.539
283.948	33.1754
287.322	50.193
290.697	47.8965
294.072	56.1595
297.447	64.7075
300.822	68.2321
304.197	65.2104
307.571	46.1207
310.946	39.9968
314.321	21.5579
317.696	13.8055
321.071	1.01532
324.445	4.711
327.82	4.11728
331.195	8.62228
334.57	6.13086
337.945	0.169647
341.32	1.25953
344.694	2.15701
348.069	8.30981
351.444	14.3382
354.819	25.3691
358.194	32.2188
361.568	36.0218
364.943	51.8071
368.318	67.9752
371.693	118.005
375.068	115.379
378.442	166.001
381.817	204.559
385.192	235.64
388.567	253.28
391.942	257.669
395.317	266.166
398.691	215.624
402.066	174.898
405.441	115.58
408.816	78.5162
412.191	46.9981
415.565	24.0814
418.94	14.0696
422.315	7.83118
425.69	3.24442
429.065	6.30786
432.44	4.08533
435.814	18.4787
439.189	23.6929
442.564	37.947
445.939	52.4347
449.314	75.0456
452.688	102.863
456.063	118.627
459.438	137.403
462.813	143.475
466.188	142.722
469.562	130.621
472.937	107.056
476.312	88.746
479.687	58.1452
483.062	45.5202
486.437	29.3788
489.811	30.6887
493.186	24.1939
496.561	20.3444
499.936	13.2974
503.311	10.8648
506.685	6.63498
510.06	8.04471
513.435	6.30664
516.81	5.17102
520.185	0.10376
523.56	1.85992
526.934	2.85928
530.309	1.31171
533.684	8.8401
537.059	5.81693
540.434	22.7551
543.808	36.7732
547.183	47.3514
550.558	67.1793
553.933	89.859
557.308	103.444
560.683	87.4978
564.057	74.9771
567.432	69.7905
570.807	90.6626
574.182	120.952
577.557	156.614
580.931	204.265
584.306	238.861
587.681	284.333
591.056	325.801
594.431	333.939
597.806	339.966
601.18	327.64
604.555	333.042
607.93	345.517
611.305	339.207
614.68	321.72
618.054	286.019
621.429	246.173
624.804	206.251
628.179	167.341
631.554	133.371
634.928	100.193
638.303	78.5964
641.678	55.7847
645.053	46.8003
648.428	28.9994
651.803	18.7576
655.177	11.9461
658.552	14.0622
661.927	1.99385
665.302	5.37042
668.677	5.85332
672.051	0.712204
675.426	4.94344
678.801	3.32384
682.176	3.15257
685.551	3.4826
688.926	1.46379
692.3	4.263
695.675	4.39803
699.05	0.996048
702.425	0.619888
705.8	3.79349
709.174	3.99547
712.549	0.45813
715.924	3.33862
719.299	4.50784
722.674	9.16872
726.048	5.49814
729.423	3.41203
732.798	12.4785
736.173	0.967453
739.548	9.75563
742.923	9.01906
746.297	9.87148
749.672	4.05582
753.047	5.26572
756.422	8.48888
759.797	5.13464
763.171	4.19412
766.546	1.82074
769.921	2.1902
773.296	9.86154
776.671	2.00003
780.045	6.57814
783.42	1.34726
786.795	6.00771
790.17	7.17964
793.545	9.92439
796.919	1.54179
800.294	16.9565
803.669	15.8992
807.044	8.23221
810.419	11.5161
813.794	5.46294
817.168	6.98413
820.543	10.5763
823.918	9.07774
827.293	8.36807
830.668	11.5739
834.043	12.8718
837.417	12.2054
840.792	8.49083
844.167	13.391
847.542	17.9932
850.917	18.7254
854.291	22.0392
857.666	26.4349
861.041	31.5629
864.416	26.4374
867.791	30.3269
871.165	28.37
874.54	27.4304
877.915	25.684
881.29	28.3582
884.665	21.5953
888.039	23.5167
891.414	16.8656
894.789	11.7728
898.164	9.90447
901.539	3.56372
904.914	0.891357
908.288	1.72111
911.663	5.55003
915.038	2.02614
918.413	7.80276
921.788	1.71982
925.163	0.561707
928.537	5.19809
931.912	13.4506
935.287	27.9765
938.662	41.4628
942.037	73.1931
945.411	126.556
948.786	204.876
952.161	356.416
955.536	567.982
958.911	799.946
962.285	1025.84
965.66	1175.18
969.035	1074.61
972.41	779.62
975.785	525.69
979.159	383.214
982.534	260.503
985.909	205.142
989.284	156.429
992.659	133.122
996.034	127.404
999.408	126.517
1002.78	136.947
1006.16	150.677
1009.53	153.296
1012.91	136.195
1016.28	125.863
1019.66	97.2472
1023.03	93.868
1026.41	93.8912
1029.78	85.8652
1033.16	85.6173
1036.53	87.47
1039.91	76.7628
1043.28	64.8742
1046.66	62.2775
1050.03	68.6577
1053.4	65.6641
1056.78	62.6431
1060.15	48.6527
1063.53	32.5465
1066.9	14.5552
1070.28	8.71632
1073.65	0.763626
1077.03	4.71462
1080.4	8.3754
1083.78	9.66029
1087.15	5.22076
1090.53	0.164886
1093.9	3.47051
1097.28	15.9397
1100.65	15.5333
1104.03	25.5581
1107.4	28.0077
1110.78	32.5722
1114.15	19.6791
1117.53	23.3471
1120.9	2.75801
1124.28	1.35591
1127.65	7.11206
1131.03	8.8047
1134.4	13.0109
1137.78	6.65358
1141.15	5.41879
1144.53	10.0822
1147.9	5.23666
1151.28	6.1967
1154.65	2.37314
1158.03	3.95171
1161.4	6.70717
1164.77	20.544
1168.15	15.3511
1171.52	26.1152
1174.9	11.9255
1178.27	25.4293
1181.65	8.48488
1185.02	4.62175
1188.4	4.16979
1191.77	8.24269
1195.15	1.30275
1198.52	4.38123
1201.9	3.54817
1205.27	6.09042
1208.65	1.58957
1212.02	10.6291
1215.4	3.33067
1218.77	1.54651
1222.15	2.79741
1225.52	4.25894
1228.9	5.05107
1232.27	10.0418
1235.64	7.33403
1239.02	10.5787
1242.39	5.95261
1245.77	8.52956
1249.14	5.00453
1252.52	8.22746
1255.89	0.564514
1259.27	4.94936
1262.64	4.33641
1266.02	6.56856
1269.39	6.47081
1272.77	14.2359
1276.14	17.6431
1279.52	6.92621
1282.89	0.152695
1286.27	0
