Measurement: Raman, 532 nm, unoriented, Raman Data Processed
Mineral: Eosphorite
Rruff sample: R050570
Ideal chemistry: Mn^2+^AlPO_4_(OH)_2_H_2_O
Locality: Lavra da Ilha, Minas Gerais, Brazil
Source: University of Arizona Mineral Museum
Description: Pale brown prismatic crystals with wedge-shaped terminations
Measured chemistry: (Mn_0.42_Fe^2+^_0.40_Ca_0.13_Mg_0.05_)Al(PO_4_)((OH)_0.96_F_0.04_)_2_Î‡H_2_O
Raman shift (cm-1)	intensity
152.344	0
155.237	18.3146
158.13	1.28137
161.022	2.54724
163.915	14.3345
166.808	41.2789
169.7	80.3612
172.593	114.63
175.486	125.625
178.379	119.926
181.271	113.154
184.164	100.484
187.057	109.722
189.949	114.592
192.842	123.214
195.735	133.113
198.627	152.099
201.52	175.181
204.413	193.916
207.305	217.566
210.198	213.299
213.091	183.855
215.984	180.453
218.876	193.477
221.769	207.598
224.662	234.474
227.554	284.262
230.447	318.794
233.34	318.372
236.232	309.948
239.125	321.387
242.018	354.014
244.911	382.183
247.803	402.635
250.696	397.313
253.589	372.245
256.481	320.729
259.374	269.915
262.267	194.627
265.16	109.432
268.052	41.5344
270.945	6.5813
273.838	42.2542
276.73	23.5818
279.623	14.4446
282.516	72.9092
285.409	153.914
288.301	257.585
291.194	353.132
294.087	449.022
296.979	539.512
299.872	630.726
302.765	702.99
305.657	753.012
308.55	740.352
311.443	690.158
314.336	587.529
317.228	490.881
320.121	372.746
323.014	285.669
325.906	223.587
328.799	181.374
331.692	150.208
334.584	121.896
337.477	96.6931
340.37	91.0383
343.263	70.7346
346.155	61.9094
349.048	49.6585
351.941	43.8838
354.833	34.2126
357.726	33.8689
360.619	41.0681
363.512	39.2654
366.404	31.7166
369.297	28.0679
372.19	24.6357
375.082	28.4763
377.975	23.3472
380.868	25.3596
383.76	23.9009
386.653	29.04
389.546	26.4314
392.438	41.8445
395.331	55.6526
398.224	70.5017
401.117	90.5081
404.009	79.5972
406.902	59.7029
409.795	35.875
412.688	12.54
415.58	3.56812
418.473	4.37085
421.366	17.4192
424.258	17.2803
427.151	2.33667
430.044	15.7927
432.936	49.1484
435.829	99.1699
438.722	160.701
441.615	251.138
444.507	380.167
447.4	525.732
450.293	714.802
453.185	936.696
456.078	1190.86
458.971	1452.98
461.863	1684.25
464.756	1862.46
467.649	1897.3
470.541	1811.69
473.434	1607.2
476.327	1299.05
479.22	995.979
482.112	735.777
485.005	528.698
487.898	379.418
490.791	271.461
493.683	193.442
496.576	135.735
499.469	103.66
502.361	73.0662
505.254	53.7053
508.147	39.8147
511.039	18.196
513.932	4.83276
516.825	0.604736
519.717	8.53027
522.61	1.59936
525.503	1.12134
528.396	2.63257
531.288	3.97022
534.181	10.6802
537.074	48.9663
539.966	104.634
542.859	202.492
545.752	330.15
548.644	492.256
551.537	713.459
554.43	993.757
557.323	1235.03
560.215	1180.01
563.108	764.325
566.001	433.371
568.894	285.462
571.786	235.616
574.679	221.169
577.572	218.335
580.464	213.99
583.357	215.923
586.25	261.414
589.142	355.796
592.035	485.73
594.928	594.455
597.821	605.298
600.713	544.143
603.606	458.014
606.499	403.141
609.391	370.472
612.284	332.909
615.177	316.24
618.069	280.979
620.962	239.315
623.855	199.773
626.748	161.225
629.64	123.913
632.533	90.6765
635.426	67.679
638.318	47.23
641.211	45.3279
644.104	36.9922
646.996	28.6926
649.889	12.9268
652.782	13.9724
655.675	3.54419
658.567	5.37402
661.46	4.58057
664.353	5.97681
667.245	1.31641
670.138	7.14795
673.031	10.3626
675.923	1.47485
678.816	0.62793
681.709	2.05054
684.602	2.50537
687.494	2.98291
690.387	7.83569
693.28	3.05444
696.172	2.28418
699.065	6.33618
701.958	4.47192
704.851	1.55835
707.743	2.65527
710.636	5.86572
713.529	0.855469
716.421	9.14746
719.314	1.99756
722.207	3.11011
725.1	0.515137
727.992	7.02075
730.885	13.0378
733.778	3.2124
736.67	0.621094
739.563	4.18506
742.456	0.408447
745.348	2.49194
748.241	1.18262
751.134	2.85327
754.027	1.65723
756.919	10.9094
759.812	4.97754
762.705	5.72827
765.597	3.80347
768.49	12.2058
771.383	20.3472
774.275	24.8706
777.168	22.918
780.061	33.6318
782.954	38.1648
785.846	50.4321
788.739	54.5627
791.632	71.8521
794.524	90.3489
797.417	105.802
800.31	116.918
803.202	133.848
806.095	148.334
808.988	152.46
811.881	143.676
814.773	144.107
817.666	124.034
820.559	90.7197
823.451	79.5012
826.344	60.8899
829.237	39.9663
832.13	35.3977
835.022	23.0169
837.915	17.8994
840.808	18.188
843.7	19.2239
846.593	18.9111
849.486	21.6079
852.378	17.2061
855.271	29.6704
858.164	29.3962
861.057	39.1895
863.949	43.0513
866.842	60.3794
869.735	64.3074
872.627	71.6218
875.52	74.9758
878.413	65.9294
881.306	63.6831
884.198	64.363
887.091	49.4231
889.984	46.6213
892.876	42.0335
895.769	32.8167
898.662	29.1045
901.554	22.7078
904.447	4.02905
907.34	5.89331
910.232	0.082275
913.125	6.43262
916.018	9.13892
918.911	16.1502
921.803	18.7253
924.696	20.2044
927.589	15.2859
930.481	0.539551
933.374	15.7031
936.267	35.1411
939.159	90.0115
942.052	140.529
944.945	235.292
947.838	383.303
950.73	654.515
953.623	1094.19
956.516	1760.98
959.409	2693.83
962.301	3981.19
965.194	5374.79
968.087	5930.67
970.979	5146.77
973.872	3900.91
976.765	2943.58
979.657	2360.43
982.55	1960.33
985.443	1727.5
988.336	1606.69
991.228	1546.6
994.121	1607.96
997.014	1724.53
999.906	1965.7
1002.8	2273.04
1005.69	2629.68
1008.58	2987.5
1011.48	3232.53
1014.37	3211.41
1017.26	2884.11
1020.15	2358.84
1023.05	1867.95
1025.94	1525.57
1028.83	1305.46
1031.73	1131.42
1034.62	957.997
1037.51	759.015
1040.4	584.676
1043.3	428.206
1046.19	305.538
1049.08	210.719
1051.97	143.56
1054.87	94.4009
1057.76	45.6855
1060.65	15.8137
1063.55	6.76294
1066.44	21.2656
1069.33	29.0388
1072.22	19.2144
1075.12	12.6497
1078.01	0.959229
1080.9	5.67651
1083.8	11.7981
1086.69	3.19336
1089.58	0.308105
1092.47	1.29419
1095.37	6.58301
1098.26	0.703369
1101.15	15.5874
1104.04	16.282
1106.94	11.1296
1109.83	16.5266
1112.72	16.5796
1115.62	36.564
1118.51	26.6773
1121.4	29.9766
1124.29	26.6274
1127.18	35.0205
1130.08	32.6711
1132.97	53.4844
1135.86	77.9553
1138.76	110.785
1141.65	132.723
1144.54	146.977
1147.43	142.025
1150.33	107.93
1153.22	83.939
1156.11	65.1096
1159.01	37.6465
1161.9	28.6343
1164.79	27.5798
1167.68	16.4241
1170.58	9.94165
1173.47	12.1331
1176.36	16.0561
1179.25	19.4504
1182.15	19.2153
1185.04	7.72852
1187.93	8.5188
1190.83	1.37671
1193.72	11.8018
1196.61	6.27637
1199.5	5.16016
1202.4	9.82178
1205.29	16.574
1208.18	12.6091
1211.07	12.061
1213.97	19.322
1216.86	15.874
1219.75	8.88843
1222.64	10.2507
1225.54	4.65112
1228.43	8.35303
1231.32	12.0171
1234.21	1.07349
1237.11	1.90332
1240	10.6565
1242.89	6.63379
1245.79	0.423828
1248.68	10.9109
1251.57	10.4739
1254.46	10.8874
1257.36	11.7332
1260.25	6.38501
1263.14	3.03247
1266.04	19.1086
1268.93	33.6526
1271.82	11.7886
1274.71	7.427
1277.61	16.6016
1280.5	10.0518
1283.39	3.47168
1286.28	7.11426
1289.18	9.60278
1292.07	5.82788
1294.96	1.51367
1297.86	11.7275
1300.75	1.48022
