Measurement: Raman, 532 nm, unoriented, Raman Data Processed
Mineral: Ephesite
Rruff sample: R060848
Ideal chemistry: NaLiAl_2_(Si_2_Al_2_)O_10_(OH)_2_
Locality: Postmaasburg, South Africa
Source: Michael Scott
Description: Pale pink hexagonal mica books, polytype 2M1
Measured chemistry: Na_1.00_Li_1.00_Al_2.00_(Si_2.00_Al_2.00_)O_10_(OH)_2_; trace amounts of Fe and Ca; Li and OH assumed by stoichiometry
Raman shift (cm-1)	intensity
152.11	0
155.003	45.5625
157.895	3.03027
160.788	68.8301
163.681	278.94
166.574	717.018
169.466	1046.39
172.359	381.918
175.252	105.375
178.144	11.7129
181.037	42.1416
183.93	10.8291
186.822	12.7217
189.715	76.5996
192.608	47.1777
195.501	33.7129
198.393	235.862
201.286	318.916
204.179	426.878
207.071	973.882
209.964	1847.47
212.857	3042.45
215.75	2652.66
218.642	1225.83
221.535	832.246
224.428	841.311
227.32	982.525
230.213	795.448
233.106	491.218
235.999	457.815
238.891	537.571
241.784	941.318
244.677	1634.41
247.569	2753.15
250.462	4494.45
253.355	7107.18
256.247	6651.29
259.14	3392.88
262.033	1308.92
264.925	29.4146
267.818	29.2286
270.711	35.7241
273.604	141.263
276.496	606.759
279.389	1201.69
282.282	2063.99
285.174	2951.12
288.067	4088.43
290.96	3094.02
293.853	1498.66
296.745	1120.59
299.638	1479.15
302.531	2089.54
305.423	1967.02
308.316	1599.11
311.209	1525.71
314.101	2280.26
316.994	3147.45
319.887	5144.49
322.779	7396
325.672	7466.06
328.565	6710.56
331.458	3331.76
334.35	1371.87
337.243	1288.16
340.136	1615.31
343.028	2062.47
345.921	2365.58
348.814	3321.66
351.707	5721.11
354.599	8490.34
357.492	10603.1
360.385	9811
363.277	7730.52
366.17	4098.29
369.063	1538.63
371.955	335.072
374.848	100.51
377.741	17.3015
380.634	46.9739
383.526	375.981
386.419	891.291
389.312	1124.02
392.204	1730.45
395.097	2359.92
397.99	3939.94
400.882	6960.8
403.775	10579.9
406.668	9458.61
409.56	6000.27
412.453	2355.92
415.346	598.377
418.239	63.5546
421.131	50.4996
424.024	44.1247
426.917	245.705
429.81	681.541
432.702	1246.69
435.595	1677.19
438.488	1995.71
441.38	2638.39
444.273	2320.35
447.166	1627.91
450.058	2174.79
452.951	3336.85
455.844	5443.02
458.736	8354.84
461.629	11515.5
464.522	10431.4
467.415	6735.39
470.307	4241.15
473.2	2826.78
476.093	2361.89
478.985	2125.12
481.878	2454.52
484.771	3100.12
487.663	4161.48
490.556	5571.7
493.449	6100.25
496.342	4514.42
499.234	2514.28
502.127	1090.8
505.02	512.883
507.912	334.438
510.805	240.238
513.698	134.977
516.591	24.0645
519.483	34.8398
522.376	86.0117
525.269	27.0879
528.161	78.0566
531.054	1.59766
533.947	195.756
536.839	60.7109
539.732	60.2168
542.625	12.2812
545.518	47.4004
548.41	70.7598
551.303	12.9727
554.196	28.8184
557.088	19.5781
559.981	73.4238
562.874	63.6797
565.766	124.764
568.659	282.772
571.552	448.961
574.444	831.469
577.337	1246.91
580.23	1860.28
583.123	1916.09
586.015	1644.04
588.908	987.646
591.801	731.219
594.693	466.525
597.586	387.965
600.479	358.18
603.372	288.879
606.264	495.531
609.157	614.271
612.05	669.639
614.942	581.721
617.835	570.809
620.728	907.189
623.62	1212.51
626.513	1898.31
629.406	2560.05
632.299	3214.99
635.191	3624.52
638.084	3846.66
640.977	3428.45
643.869	2742.77
646.762	1992.22
649.655	1682.24
652.548	1591.22
655.44	2036.4
658.333	3180.67
661.226	5440.58
664.118	8643.22
667.011	13331.3
669.904	19018.4
672.796	18837
675.689	10525
678.582	4824.04
681.475	2508.08
684.367	1276.37
687.26	749.727
690.153	489.537
693.045	301.102
695.938	56.582
698.831	100.824
701.723	120.451
704.616	10.0449
707.509	135.49
710.402	111.582
713.294	198.619
716.187	255.643
719.08	483.885
721.972	822.857
724.865	1521.65
727.758	2204.73
730.65	2729.75
733.543	2287
736.436	1341.03
739.329	611.465
742.221	400.004
745.114	351.359
748.007	188.182
750.899	107.115
753.792	187.588
756.685	137.85
759.577	82.2188
762.47	157.266
765.363	54.5664
768.256	4.74609
771.148	7.53906
774.041	62.1152
776.934	123.852
779.826	108.689
782.719	47.25
785.612	12.9375
788.505	77.3359
791.397	8.77539
794.29	16.9844
797.183	43.2715
800.075	117.018
802.968	205.92
805.861	87.4394
808.753	62.7871
811.646	178.178
814.539	123.133
817.432	211.908
820.324	239.783
823.217	165.244
826.11	138.328
829.002	206.898
831.895	162.541
834.788	201.09
837.68	184.471
840.573	48.5234
843.466	140.94
846.359	187.065
849.251	33.4004
852.144	165.32
855.037	65.4356
857.929	72.291
860.822	80.1816
863.715	120.154
866.607	16.7129
869.5	34.3477
872.393	85.2578
875.285	11.918
878.178	110.889
881.071	97.1504
883.964	60.4746
886.856	111.32
889.749	260.592
892.642	334.531
895.534	439.002
898.427	570.904
901.32	889.592
904.212	1088.41
907.105	1227.88
909.998	1337.44
912.891	1447.35
915.783	1285.49
918.676	1449.97
921.569	1646.59
924.461	2037.58
927.354	2129.74
930.247	1890.88
933.139	1476.83
936.032	1098.56
938.925	762.615
941.818	761.811
944.71	787.824
947.603	864.824
950.496	1141.24
953.388	1600.41
956.281	2710.01
959.174	4338.23
962.067	7294.06
964.959	11027.2
967.852	14514.1
970.745	14995.1
973.637	11651.6
976.53	6967.98
979.423	3712.42
982.315	1984.98
985.208	1175.86
988.101	708.283
990.994	421.367
993.886	340.18
996.779	152.545
999.672	101.322
1002.56	31.9434
1005.46	20.2793
1008.35	8.4668
1011.24	7.43555
1014.13	72.5488
1017.03	50.0195
1019.92	22.6094
1022.81	29.3965
1025.71	60.3574
1028.6	52.7969
1031.49	84.7656
1034.38	98.3008
1037.28	85.7324
1040.17	104.439
1043.06	120.519
1045.95	35.6602
1048.85	241.506
1051.74	134.644
1054.63	137.109
1057.53	243.147
1060.42	166.055
1063.31	333.68
1066.2	207.185
1069.1	198.891
1071.99	263.828
1074.88	170.723
1077.78	175.723
1080.67	199.621
1083.56	111.617
1086.45	261.139
1089.35	210.539
1092.24	124.451
1095.13	120.848
1098.02	295.869
1100.92	176.031
1103.81	203.875
1106.7	237.932
1109.59	42.0957
1112.49	115.182
1115.38	217.318
1118.27	126.453
1121.16	219.578
1124.06	208.279
1126.95	253.506
1129.84	164.088
1132.74	184.227
1135.63	157.535
1138.52	351.404
1141.41	184.559
1144.31	37.0879
1147.2	152.16
1150.09	210.658
1152.98	128.42
1155.88	158.852
1158.77	96.6231
1161.66	269.023
1164.56	176.043
1167.45	174.262
1170.34	247.982
1173.23	56.0918
1176.13	237.752
1179.02	84.8398
1181.91	58.9844
1184.81	133.815
1187.7	125.764
1190.59	155.92
1193.48	113.506
1196.38	134.779
1199.27	193.096
1202.16	138.619
1205.05	97
1207.95	84.4766
1210.84	67.8086
1213.73	79.0332
1216.62	4.15625
1219.52	126.566
1222.41	137.578
1225.3	112.213
1228.19	14.3008
1231.09	120.674
1233.98	41.4414
1236.87	99.4609
1239.77	15.9434
1242.66	175.672
1245.55	120.916
1248.44	99.9473
1251.34	41.5527
1254.23	159.047
1257.12	54.7383
1260.02	203.856
1262.91	56.0195
1265.8	91.4453
1268.69	228.543
1271.59	206.973
1274.48	184.32
1277.37	282.125
1280.26	302.75
1283.16	226.812
1286.05	308.922
1288.94	70.3828
1291.83	189.543
1294.73	136.867
1297.62	7.46875
1300.51	31.2539
