Measurement: Raman, 785 nm, unoriented, Raman Data Processed
Mineral: Ephesite
Rruff sample: R060848
Ideal chemistry: NaLiAl_2_(Si_2_Al_2_)O_10_(OH)_2_
Locality: Postmaasburg, South Africa
Source: Michael Scott
Description: Pale pink hexagonal mica books, polytype 2M1
Measured chemistry: Na_1.00_Li_1.00_Al_2.00_(Si_2.00_Al_2.00_)O_10_(OH)_2_; trace amounts of Fe and Ca; Li and OH assumed by stoichiometry
Raman shift (cm-1)	intensity
178.899	0
181.792	117.534
184.685	12.3213
187.577	43.8457
190.47	31.8398
193.363	38.9316
196.256	8.79883
199.148	80.2334
202.041	94.4463
204.934	297.586
207.826	444.144
210.719	935.968
213.612	1342.72
216.504	948.101
219.397	424.073
222.29	387.56
225.183	615.995
228.075	660.023
230.968	449.921
233.861	224.759
236.753	355.246
239.646	268.283
242.539	488.798
245.431	958.492
248.324	1846.22
251.217	3054.38
254.109	4772.03
257.002	3675.05
259.895	1854.07
262.788	802.984
265.68	80.6064
268.573	104.789
271.466	148.92
274.358	98.9893
277.251	336.853
280.144	735.548
283.036	1366.49
285.929	2103.42
288.822	2534.3
291.715	1751.57
294.607	784.733
297.5	620.525
300.393	1017.98
303.285	1210.16
306.178	1144.2
309.071	888.537
311.964	683.795
314.856	846.138
317.749	1382.04
320.642	2570.45
323.534	4238.24
326.427	5212.49
329.32	5295.97
332.212	2497.15
335.105	943.672
337.998	602.449
340.891	717.035
343.783	769.869
346.676	844.128
349.569	1338.76
352.461	2509.81
355.354	3809.89
358.247	4772.01
361.139	4990.05
364.032	4768.37
366.925	2214.67
369.818	681.43
372.71	140.647
375.603	4.9375
378.496	96.9268
381.388	82.4043
384.281	52.8184
387.174	164.927
390.067	285.845
392.959	502.882
395.852	949.829
398.745	2037.6
401.637	3674.96
404.53	4808.86
407.423	3896.87
410.315	2067
413.208	716.932
416.101	119.781
418.993	16.7793
421.886	94.5391
424.779	55.6172
427.672	151.657
430.564	289.332
433.457	592.871
436.35	795.043
439.242	966.141
442.135	1247.96
445.028	832.556
447.921	480.228
450.813	582.362
453.706	1190.78
456.599	2204.08
459.491	3570.17
462.384	4615.23
465.277	3759.88
468.169	2217.1
471.062	1289.82
473.955	797.143
476.848	683.926
479.74	570.847
482.633	761.621
485.526	1327.03
488.418	2028.8
491.311	2799.85
494.204	2938.86
497.096	1896.16
499.989	856.913
502.882	326.012
505.774	90.0762
508.667	68.8213
511.56	12.0527
514.453	96.2637
517.345	0.669922
520.238	77.1777
523.131	96.7568
526.023	28.4824
528.916	5.71191
531.809	48.5967
534.702	2.77734
537.594	15.9766
540.487	27.1982
543.38	62.3291
546.272	16.7705
549.165	41.9023
552.058	107.136
554.95	99.2734
557.843	106.79
560.736	72.5498
563.629	106.499
566.521	10.1426
569.414	8.09473
572.307	169.907
575.199	420.438
578.092	568.892
580.985	792.052
583.877	852.051
586.77	642.606
589.663	369.163
592.556	252.129
595.448	152.841
598.341	131.86
601.234	124.696
604.126	155.476
607.019	197.547
609.912	212.333
612.804	177.591
615.697	145.665
618.59	84.3408
621.482	169.588
624.375	320.595
627.268	491.589
630.161	756.628
633.053	1103.54
635.946	1177.59
638.839	1167.75
641.731	1026.38
644.624	749.611
647.517	498.254
650.409	393.726
653.302	345.731
656.195	534.273
659.088	871.149
661.98	1591.13
664.873	2961.3
667.766	5078.15
670.658	7261.47
673.551	6426.89
676.444	3234.46
679.337	1447.73
682.229	716.2
685.122	370.672
688.015	159.723
690.907	75.8955
693.8	60.2285
696.693	64.7686
699.585	48.0342
702.478	41.25
705.371	13.0068
708.264	21.8916
711.156	38.2685
714.049	45.499
716.942	71.6406
719.834	270.326
722.727	343.81
725.62	540.518
728.513	842.918
731.405	890.599
734.298	650.393
737.191	349.78
740.083	221.874
742.976	166.25
745.869	152.464
748.761	117.879
751.654	200.106
754.547	164.361
757.439	107.603
760.332	52.7266
763.225	83.4043
766.118	75.3086
769.01	1.18945
771.903	104.869
774.796	66.3164
777.688	114.598
780.581	194.035
783.474	26.3193
786.366	134.387
789.259	89.3965
792.152	205.28
795.045	142.169
797.937	45.665
800.83	3.77539
803.723	17.4238
806.615	23.1006
809.508	81.333
812.401	77.1416
815.293	55.8994
818.186	79.1748
821.079	112.096
823.972	102.665
826.864	125.297
829.757	146.292
832.65	51.9605
835.542	150.745
838.435	45.0767
841.328	26.7388
844.221	23.5498
847.113	79.6055
850.006	143.177
852.899	60.0156
855.791	64.7427
858.684	91.6465
861.577	40.2803
864.469	11.9946
867.362	6.95606
870.255	38.918
873.148	0.800781
876.04	29.7788
878.933	28.9033
881.826	31.5488
884.718	96.6406
887.611	38.5029
890.504	71.2905
893.396	21.2598
896.289	128.645
899.182	107.87
902.074	254.903
904.967	331.138
907.86	441.266
910.753	342.626
913.645	327.86
916.538	396.503
919.431	379.924
922.323	534.737
925.216	640.092
928.109	658.573
931.001	725.201
933.894	461.487
936.787	267.869
939.68	322.392
942.572	266.822
945.465	295.795
948.358	216.387
951.25	374.973
954.143	623.861
957.036	806.98
959.928	1443.98
962.821	2423.47
965.714	3806.21
968.607	4886.47
971.499	4731.14
974.392	3451.13
977.285	1951.52
980.177	1091.52
983.07	609.002
985.963	373.579
988.856	203.356
991.748	55.2817
994.641	28.4976
997.534	174.254
1000.43	93.1836
1003.32	80.2773
1006.21	109.073
1009.1	22.6475
1012	24.227
1014.89	110.888
1017.78	80.4258
1020.67	45.0244
1023.57	24.0947
1026.46	35.875
1029.35	47.4307
1032.25	65.9141
1035.14	58.4541
1038.03	7.95752
1040.92	60.8516
1043.82	119.843
1046.71	62.5786
1049.6	108.383
1052.49	95.5664
1055.39	85.2515
1058.28	94.6851
1061.17	91.0078
1064.07	53.0381
1066.96	73.8003
1069.85	59.9922
1072.74	127.226
1075.64	108.308
1078.53	46.0405
1081.42	17.605
1084.32	23.1543
1087.21	119.309
1090.1	37.7197
1092.99	67.9526
1095.88	67.8062
1098.78	142.694
1101.67	67.707
1104.56	161.018
1107.46	2.63623
1110.35	97.5342
1113.24	86.8701
1116.13	159.2
1119.03	125.466
1121.92	51.2222
1124.81	171.133
1127.7	121.09
1130.6	104.853
1133.49	32.981
1136.38	73.0884
1139.28	70.8852
1142.17	88.6738
1145.06	26.9019
1147.95	50.165
1150.85	104.031
1153.74	19.0986
1156.63	2.94336
1159.53	78.4692
1162.42	12.7715
1165.31	29.2026
1168.2	39.9355
1171.1	50.3916
1173.99	42.8579
1176.88	92.5977
1179.77	73.8018
1182.67	59.7666
1185.56	85.3003
1188.45	44.456
1191.35	155.055
1194.24	128.274
1197.13	164.124
1200.02	97.2764
1202.91	38.6304
1205.81	64.978
1208.7	93.3887
1211.59	89.1558
1214.49	135.963
1217.38	97.4121
1220.27	45.5371
1223.16	71.4863
1226.06	59.4048
1228.95	21.6675
1231.84	85.0908
1234.73	9.21143
1237.63	47.9121
1240.52	54.1499
1243.41	156.17
1246.31	96.1416
1249.2	120.928
1252.09	118.765
1254.98	73.9082
1257.88	117.158
1260.77	136.208
1263.66	40.4048
1266.56	54.7607
1269.45	4.73584
