Measurement: Raman, 780 nm, unoriented, Raman Data Processed
Mineral: Epidote
Rruff sample: R050131
Ideal chemistry: Ca_2_Fe^3+^Al_2_(Si_2_O_7_)(SiO_4_)O(OH)
Locality: Calumet mine, Chaffee County, Colorado, USA
Source: Dave Bunk Minerals
Description: Green prismatic crystal
Measured chemistry: Ca_2.00_Al_2.00_(Fe^3+^_0.75_Al_0.25_)(SiO_4_)(Si_2_O_7_)O(OH)
Raman shift (cm-1)	intensity
109.477	0
112.852	1.99919
116.227	15.1943
119.602	33.3291
122.977	68.6949
126.351	119.204
129.726	173.337
133.101	192.023
136.476	140.478
139.851	77.946
143.225	52.9061
146.6	59.7728
149.975	55.9694
153.35	69.4712
156.725	100.378
160.1	143.884
163.474	188.685
166.849	186.668
170.224	132.031
173.599	84.7212
176.974	50.1966
180.348	24.9624
183.723	13.9629
187.098	11.1289
190.473	3.45344
193.848	5.79677
197.222	8.23827
200.597	3.20087
203.972	2.48306
207.347	10.0416
210.722	18.957
214.096	36.9087
217.471	58.9677
220.846	88.838
224.221	126.498
227.596	165.716
230.971	190.065
234.345	208.534
237.72	251.415
241.095	308.491
244.47	351.982
247.845	318.687
251.22	222.695
254.594	145.134
257.969	104.182
261.344	76.4091
264.719	64.5363
268.094	63.4206
271.468	58.0812
274.843	57.7737
278.218	50.0535
281.593	50.195
284.968	53.2737
288.342	64.5991
291.717	79.8053
295.092	79.8141
298.467	45.9792
301.842	5.78024
305.217	6.31241
308.591	0.701065
311.966	12.6357
315.341	30.8799
318.716	49.0324
322.091	75.615
325.466	102.811
328.84	138.512
332.215	178.874
335.59	208.703
338.965	236.716
342.34	283.438
345.714	348.859
349.089	371.873
352.464	294.334
355.839	173.399
359.214	91.9327
362.589	54.4079
365.963	36.6149
369.338	20.2011
372.713	7.83441
376.088	1.48421
379.463	1.5177
382.837	5.63815
386.212	14.0811
389.587	16.0685
392.962	13.4475
396.337	2.8753
399.712	5.54393
403.086	5.5356
406.461	1.72089
409.836	9.07556
413.211	25.3777
416.586	49.3481
419.96	81.0569
423.335	120.03
426.71	155.435
430.085	190.285
433.46	234.589
436.834	269.142
440.209	302.773
443.584	355.311
446.959	424.552
450.334	426.718
453.709	317.653
457.083	223.83
460.458	158.139
463.833	112.212
467.208	74.7769
470.583	49.9089
473.957	40.0374
477.332	37.0702
480.707	46.715
484.082	58.271
487.457	73.3483
490.832	94.5463
494.206	119.342
497.581	143.175
500.956	170.089
504.331	185.452
507.706	184.658
511.08	154.937
514.455	101.425
517.83	53.651
521.205	28.7981
524.58	15.6326
527.955	6.69125
531.329	2.98725
534.704	5.89663
538.079	4.2055
541.454	0.562737
544.829	8.65014
548.203	30.2105
551.578	61.0643
554.953	97.7245
558.328	143.493
561.703	208.507
565.077	268.859
568.452	232.138
571.827	124.464
575.202	74.3439
578.577	66.9708
581.952	79.5686
585.326	96.9394
588.701	122.861
592.076	144.713
595.451	166.065
598.826	184.116
602.2	165.309
605.575	130.596
608.95	96.3884
612.325	72.7959
615.7	49.8986
619.074	28.1076
622.449	12.8315
625.824	6.7725
629.199	3.13831
632.574	3.1365
635.949	0.959213
639.323	1.59968
642.698	1.8549
646.073	0.227631
649.448	0.093098
652.823	0.589924
656.197	1.3109
659.572	2.71195
662.947	7.06961
666.322	6.42998
669.697	10.0978
673.072	11.8823
676.446	15.8728
679.821	21.6464
683.196	25.6728
686.571	28.5264
689.946	27.7391
693.321	22.0602
696.695	18.1356
700.07	15.8892
703.445	11.0341
706.82	7.52728
710.195	5.4069
713.569	3.70231
716.944	2.36281
720.319	1.55661
723.694	0.330666
727.069	0.883598
730.443	0.715946
733.818	0.535126
737.193	1.88151
740.568	1.84911
743.943	2.8465
747.318	2.81141
750.692	5.09608
754.067	7.03201
757.442	10.0622
760.817	13.4259
764.192	16.9422
767.567	19.335
770.941	17.474
774.316	13.2704
777.691	6.78538
781.066	2.91638
784.441	0.741199
787.815	0.047531
791.19	0.357784
794.565	1.25241
797.94	1.94367
801.315	1.4496
804.689	0.541355
808.064	2.18167
811.439	3.06298
814.814	4.97666
818.189	3.85836
821.563	8.60709
824.938	9.19535
828.313	12.4032
831.688	13.2409
835.063	14.2404
838.438	14.4863
841.812	16.5613
845.187	23.2349
848.562	31.799
851.937	43.8616
855.312	61.5048
858.687	82.2738
862.061	110.854
865.436	138.42
868.811	158.36
872.186	180.424
875.561	212.844
878.935	238.835
882.31	240.683
885.685	239.731
889.06	224.949
892.435	188.698
895.809	148.206
899.184	121.25
902.559	119.388
905.934	131.224
909.309	143.882
912.683	146.655
916.058	130.902
919.433	103.926
922.808	71.7206
926.183	45.6459
929.558	26.5174
932.932	13.696
936.307	6.75358
939.682	0.557858
943.057	1.17076
946.432	1.21351
949.807	0.931843
953.181	0.322502
956.556	0.618477
959.931	0.175434
963.306	3.20662
966.681	7.25087
970.055	11.4373
973.43	18.6763
976.805	30.479
980.18	35.053
983.555	28.1666
986.929	17.047
990.304	7.20828
993.679	2.18826
997.054	0.079803
1000.43	0.588219
1003.8	0.734394
1007.18	0.378426
1010.55	5.5988
1013.93	11.9516
1017.3	21.5891
1020.68	27.7041
1024.05	24.7608
1027.43	17.695
1030.8	14.076
1034.18	15.6494
1037.55	17.1407
1040.93	18.8346
1044.3	17.7882
1047.68	16.4937
1051.05	16.8369
1054.43	14.7359
1057.8	15.358
1061.18	14.0389
1064.55	12.4552
1067.92	11.6856
1071.3	12.4396
1074.67	19.6225
1078.05	27.6622
1081.42	37.033
1084.8	42.9892
1088.17	44.3161
1091.55	31.0811
1094.92	14.8694
1098.3	7.58963
1101.67	5.51248
1105.05	3.4785
1108.42	2.08244
1111.8	2.66283
1115.17	0.254917
1118.55	0.36277
1121.92	0.338482
1125.3	0.079372
1128.67	0.488565
1132.05	1.18986
1135.42	0.539948
1138.8	1.14581
1142.17	0.539248
1145.55	0.201191
1148.92	0.718058
1152.3	0.831509
1155.67	1.83268
1159.05	2.58141
1162.42	1.00015
1165.8	1.37868
1169.17	1.54612
1172.54	1.66704
1175.92	1.98776
1179.29	1.38896
1182.67	1.80604
1186.04	1.53805
1189.42	2.24794
1192.79	2.20049
1196.17	0.917826
1199.54	1.66266
1202.92	1.59224
1206.29	1.81293
1209.67	1.59208
1213.04	1.36621
1216.42	1.42508
1219.79	1.97601
1223.17	0.713131
1226.54	2.01002
1229.92	1.38748
1233.29	1.28936
1236.67	2.38453
1240.04	1.63515
1243.42	0.11359
1246.79	0.218929
1250.16	0.944809
1253.54	0.657097
1256.91	1.7628
1260.29	0.675535
1263.66	1.06354
1267.04	2.05891
1270.41	3.52936
1273.79	0.970018
1277.16	1.62099
1280.54	1.3947
1283.91	1.2421
