Measurement: Raman, 532 nm, unoriented, Raman Data Processed
Mineral: Epididymite
Rruff sample: R060773
Ideal chemistry: Na_2_Be_2_Si_6_O_15_H_2_O
Locality: unknown
Source: Michael Scott
Description: Colorless platy crystals forming a pseudohexagonal aggregate
Raman shift (cm-1)	intensity
136.469	0
139.843	32.7012
143.218	94.061
146.593	187.812
149.968	249.425
153.343	106.92
156.718	5.83106
160.092	38.9746
163.467	181.756
166.842	186.838
170.217	65.9482
173.592	57.4639
176.966	83.3291
180.341	132.176
183.716	202
187.091	269.124
190.466	358.668
193.84	473.435
197.215	554.513
200.59	444.147
203.965	342.539
207.34	194.276
210.714	169.681
214.089	147.94
217.464	152.56
220.839	169.762
224.214	246.865
227.589	419.584
230.963	666.014
234.338	945.042
237.713	1397.04
241.088	1528.18
244.463	1278.05
247.838	931.371
251.212	895.977
254.587	730.048
257.962	810.286
261.337	847.136
264.712	767.207
268.086	665.83
271.461	410.27
274.836	204.266
278.211	67.1528
281.586	69.8496
284.96	104.714
288.335	12.436
291.71	13.6997
295.085	7.82666
298.46	46.9819
301.834	13.2783
305.209	37.957
308.584	93.7563
311.959	108.756
315.334	164.866
318.709	185.273
322.083	267.397
325.458	276.688
328.833	455.541
332.208	538.843
335.583	708.99
338.957	834.287
342.332	986.672
345.707	1079.21
349.082	670.825
352.457	425.039
355.832	344.625
359.206	313.217
362.581	267.76
365.956	219.734
369.331	402.73
372.706	671.292
376.08	975.879
379.455	1303.39
382.83	1079.34
386.205	668.328
389.58	390.168
392.954	277.192
396.329	450.587
399.704	864.554
403.079	1335.52
406.454	1984.09
409.829	1618.99
413.203	452.712
416.578	156.35
419.953	10.396
423.328	9.77051
426.703	17.1367
430.077	16.9863
433.452	90.6753
436.827	52.2412
440.202	38.6938
443.577	35.7315
446.952	8.1123
450.326	16.0898
453.701	49.1421
457.076	87.5029
460.451	154.751
463.826	328.903
467.2	632.214
470.575	1038.84
473.95	1507.1
477.325	1340.32
480.7	625.339
484.074	491.84
487.449	338.807
490.824	175.858
494.199	108.416
497.574	161.357
500.949	446.892
504.323	851.602
507.698	1781.06
511.073	3089.87
514.448	4845.13
517.823	7154.12
521.197	6679.5
524.572	2875.93
527.947	1257.5
531.322	601.416
534.697	290.022
538.072	215.15
541.446	24.7646
544.821	169.169
548.196	102.127
551.571	51.9883
554.946	8.31152
558.32	84.9394
561.695	25.7852
565.07	44.8105
568.445	67.6523
571.82	207.999
575.194	285.683
578.569	447.496
581.944	697.262
585.319	729.998
588.694	356.299
592.068	67.3838
595.443	71.6602
598.818	37.7637
602.193	115.886
605.568	58.1699
608.942	23.1416
612.317	32.8877
615.692	0.462891
619.067	97.9561
622.442	144.588
625.817	166.865
629.191	194.24
632.566	173.827
635.941	140.181
639.316	9.16406
642.691	7.27246
646.066	12.5
649.44	43.2549
652.815	6.26269
656.19	89.7207
659.565	79.6328
662.94	59.752
666.314	45.0957
669.689	79.9922
673.064	123.507
676.439	10.1807
679.814	36.8887
683.188	93.2578
686.563	58.0303
689.938	121.532
693.313	105.163
696.688	131.002
700.062	5.05371
703.437	16.3662
706.812	45.5518
710.187	65.457
713.562	46.2197
716.937	44.959
720.311	86.3359
723.686	75.6875
727.061	101.418
730.436	128.745
733.811	28.2686
737.185	59.2637
740.56	23.9189
743.935	113.894
747.31	163.297
750.685	212.304
754.059	174.25
757.434	151.588
760.809	182.794
764.184	64.6016
767.559	72.959
770.934	115.488
774.308	52.959
777.683	80.7793
781.058	87.5283
784.433	17.6523
787.808	69.5801
791.183	88.3447
794.557	147.757
797.932	201.941
801.307	26.8408
804.682	121.11
808.057	68.8506
811.431	71.6426
814.806	111.794
818.181	82.7715
821.556	40.3984
824.931	5.63672
828.305	93.418
831.68	3.94824
835.055	40.1475
838.43	60.2607
841.805	6.22559
845.179	72.4844
848.554	86.8447
851.929	41.3252
855.304	7.65918
858.679	6.11426
862.053	91.6387
865.428	71.7783
868.803	191.695
872.178	17.1455
875.553	80.499
878.928	140.259
882.302	167.147
885.677	150.951
889.052	94.9941
892.427	181.438
895.802	220.475
899.177	137.327
902.551	65.4853
905.926	23.4775
909.301	142.487
912.676	49.207
916.051	88.4668
919.425	11.0303
922.8	173.633
926.175	78.7129
929.55	137.682
932.925	97.957
936.299	114.738
939.674	57.6152
943.049	60.2871
946.424	77.8945
949.799	3.89941
953.173	17.8086
956.548	59.8516
959.923	19.5947
963.298	25.2227
966.673	4.57812
970.048	7.27832
973.422	18.4609
976.797	117.615
980.172	140.825
983.547	105.066
986.922	127.564
990.296	36.2129
993.671	108.493
997.046	49.3897
1000.42	168.079
1003.8	149.458
1007.17	234.594
1010.54	173.025
1013.92	58.7705
1017.29	53.249
1020.67	62.5586
1024.05	83.6943
1027.42	129.365
1030.79	109.702
1034.17	189.933
1037.54	228.676
1040.92	246.528
1044.29	241.614
1047.67	234.67
1051.04	209.111
1054.42	294.755
1057.79	256.999
1061.17	189.059
1064.54	138.033
1067.92	128.865
1071.29	92.3721
1074.67	39.3203
1078.04	18.0332
1081.42	7.19434
1084.79	31.4297
1088.17	39.0977
1091.54	51.6133
1094.92	63.6484
1098.29	147.581
1101.66	234.992
1105.04	152.411
1108.41	235.87
1111.79	286.746
1115.16	344.94
1118.54	385.552
1121.91	459.552
1125.29	727.946
1128.66	1053.46
1132.04	1335.48
1135.41	1375.15
1138.79	1369.56
1142.16	1134.01
1145.54	720.555
1148.91	419.05
1152.29	303.192
1155.66	214.711
1159.04	178.833
1162.41	72.543
1165.79	35.1025
1169.16	39.5312
1172.54	53.9873
1175.91	130.916
1179.29	100.684
1182.66	181.837
1186.04	126.42
1189.41	69.3106
1192.79	106.671
1196.16	8.47363
1199.54	16.2168
1202.91	0.461914
1206.29	43.7051
1209.66	92.7637
1213.03	87.9346
1216.41	62.3379
1219.78	138.366
1223.16	30.1543
1226.53	55.4893
1229.91	68.2256
1233.28	153.509
1236.66	75.3076
1240.03	138.01
1243.41	75.6807
1246.78	102.732
1250.16	120.243
1253.53	144.818
1256.91	129.969
1260.28	8.35742
1263.66	49.2188
1267.03	30.0879
1270.41	73.6426
1273.78	209.768
1277.16	218.755
1280.53	151.462
1283.9	161.701
1287.28	47.5273
1290.65	61.1084
1294.03	67.8408
1297.4	23.3184
1300.78	0
