Measurement: Raman, 532 nm, unoriented, Raman Data Processed
Mineral: Epidote
Rruff sample: R050191
Ideal chemistry: Ca_2_Fe^3+^Al_2_(Si_2_O_7_)(SiO_4_)O(OH)
Locality: Pampa Blanca, Castrovirreyna Province, Huancavelica Department, Peru
Source: Dave Bunk Minerals
Description: Cluster of green elongated prismatic crystals
Measured chemistry: Ca_2.00_Al_2.00_(Fe^3+^_0.84_Al_0.16_)(SiO_4_)(Si_2_O_7_)O(OH)
Raman shift (cm-1)	intensity
148.255	0
151.147	0.246597
154.04	3.77569
156.933	11.2004
159.825	22.6311
162.718	37.6201
165.611	57.4885
168.504	86.7323
171.396	127.243
174.289	147.747
177.182	108.525
180.074	62.8771
182.967	36.1648
185.86	34.54
188.752	40.4809
191.645	22.3213
194.538	2.65842
197.43	4.64498
200.323	1.04452
203.216	8.1223
206.109	10.2614
209.001	8.05335
211.894	9.44254
214.787	18.7098
217.679	31.0055
220.572	53.3693
223.465	82.2211
226.357	127.772
229.25	172.033
232.143	180.228
235.036	148.841
237.928	123.891
240.821	127.933
243.714	141.088
246.606	129.864
249.499	99.7297
252.392	84.1724
255.284	88.115
258.177	85.1873
261.07	61.1709
263.963	40.1529
266.855	28.951
269.748	34.4174
272.641	51.5936
275.533	74.9682
278.426	63.6219
281.319	26.0354
284.211	9.92497
287.104	8.64555
289.997	16.2208
292.889	26.4505
295.782	29.1373
298.675	16.2372
301.568	5.35146
304.46	0.699974
307.353	1.60424
310.246	0.075241
313.138	1.86357
316.031	2.67651
318.924	9.51556
321.817	23.2506
324.709	37.2663
327.602	43.8443
330.495	44.3681
333.387	50.2462
336.28	57.2479
339.173	71.7565
342.065	89.2881
344.958	120.571
347.851	163.168
350.743	179.048
353.636	143.167
356.529	85.6624
359.422	46.1235
362.314	23.6474
365.207	9.44349
368.1	2.62676
370.992	2.45174
373.885	5.72353
376.778	2.43539
379.671	1.64855
382.563	10.5383
385.456	25.0567
388.349	39.2689
391.241	47.9092
394.134	37.5523
397.027	19.0372
399.919	5.36983
402.812	0.038025
405.705	1.89858
408.598	6.27535
411.49	18.8135
414.383	35.367
417.276	56.2616
420.168	88.3825
423.061	132.022
425.954	178.487
428.846	203.821
431.739	231.452
434.632	271.899
437.524	285.395
440.417	251.828
443.31	210.86
446.203	201.706
449.095	219.535
451.988	230.065
454.881	202.23
457.773	169.093
460.666	134.837
463.559	90.2422
466.452	56.1973
469.344	36.3205
472.237	24.8648
475.13	13.5223
478.022	6.26232
480.915	5.07346
483.808	10.9258
486.7	19.6796
489.593	31.042
492.486	48.225
495.378	69.714
498.271	98.4711
501.164	123.842
504.057	138.484
506.949	140.154
509.842	135.154
512.735	113.311
515.627	72.1245
518.52	41.5456
521.413	27.4382
524.306	19.0135
527.198	6.25633
530.091	0.84787
532.984	3.97747
535.876	5.11881
538.769	3.21882
541.662	1.11879
544.554	2.77639
547.447	10.5329
550.34	25.7534
553.232	43.4922
556.125	64.1304
559.018	97.4069
561.911	150.052
564.803	212.195
567.696	223.178
570.589	141.013
573.481	87.1936
576.374	78.7369
579.267	91.7692
582.159	117.983
585.052	157.454
587.945	201.207
590.838	237.047
593.73	281.553
596.623	334.84
599.516	372.053
602.408	349.676
605.301	286.546
608.194	235.139
611.087	206.669
613.979	181.387
616.872	144.536
619.765	101.397
622.657	66.8554
625.55	43.6141
628.443	29.6235
631.335	19.8444
634.228	14.2187
637.121	9.65281
640.014	6.08767
642.906	3.04644
645.799	1.50468
648.692	1.53731
651.584	0.42598
654.477	0.818321
657.37	1.40281
660.262	0.685398
663.155	0.73254
666.048	0.245914
668.941	0.596909
671.833	1.49376
674.726	2.94017
677.619	3.7141
680.511	4.86798
683.404	6.06566
686.297	7.40255
689.189	6.8814
692.082	6.84037
694.975	6.79373
697.867	6.97689
700.76	6.62697
703.653	5.60464
706.546	4.73281
709.438	4.56329
712.331	3.35212
715.224	2.23575
718.116	2.00344
721.009	0.90402
723.902	0.723415
726.794	1.22716
729.687	0.825151
732.58	1.66216
735.472	2.397
738.365	4.79102
741.258	3.63776
744.151	3.70282
747.043	6.35306
749.936	6.19832
752.829	7.39608
755.721	7.93546
758.614	9.87199
761.507	10.882
764.399	13.2919
767.292	13.5013
770.185	13.5978
773.078	11.9541
775.97	8.24886
778.863	5.54647
781.756	3.74324
784.648	2.50273
787.541	0.787632
790.434	0.015203
793.327	0.953119
796.219	1.40597
799.112	0.516298
802.005	1.38135
804.897	1.4931
807.79	1.10968
810.683	1.70843
813.575	0.885883
816.468	0.421066
819.361	0.711475
822.254	3.20039
825.146	5.19493
828.039	9.52373
830.932	11.5667
833.824	10.9165
836.717	6.75138
839.61	4.67703
842.502	3.3932
845.395	3.95921
848.288	4.63696
851.181	7.40247
854.073	12.1137
856.966	19.2435
859.859	27.3875
862.751	35.4239
865.644	41.9081
868.537	43.9364
871.429	44.0765
874.322	48.4002
877.215	60.4653
880.107	73.4373
883	86.1916
885.893	101.462
888.786	104.933
891.678	97.2846
894.571	89.6601
897.464	97.4937
900.356	117.611
903.249	153.521
906.142	207.56
909.034	272.538
911.927	343.813
914.82	408.671
917.713	424.261
920.605	368.01
923.498	269.368
926.391	180.69
929.283	119.259
932.176	74.9834
935.069	45.8381
937.962	27.2649
940.854	15.476
943.747	9.8478
946.64	6.0087
949.532	5.64364
952.425	6.93471
955.318	8.7148
958.21	7.36528
961.103	7.67878
963.996	5.10759
966.889	2.9341
969.781	4.45229
972.674	8.41287
975.567	15.7368
978.459	21.5051
981.352	24.4321
984.245	19.8313
987.137	9.51851
990.03	2.46024
992.923	0.653511
995.816	2.00549
998.708	3.05332
1001.6	3.07124
1004.49	2.59355
1007.39	1.02757
1010.28	1.49637
1013.17	5.41753
1016.06	10.0773
1018.96	15.7769
1021.85	16.9754
1024.74	15.0687
1027.63	13.8455
1030.53	13.2649
1033.42	15.3323
1036.31	17.4184
1039.21	20.1867
1042.1	22.3093
1044.99	22.7566
1047.88	21.3402
1050.78	19.2143
1053.67	17.7807
1056.56	16.5333
1059.45	15.6112
1062.35	15.0475
1065.24	12.304
1068.13	11.3243
1071.03	13.0811
1073.92	18.9946
1076.81	28.1182
1079.7	42.8959
1082.6	58.9488
1085.49	79.881
1088.38	89.5382
1091.28	70.1017
1094.17	41.253
1097.06	21.7853
1099.95	12.4367
1102.85	8.34626
1105.74	5.78818
1108.63	3.99608
1111.52	2.90438
1114.42	2.3289
1117.31	1.97784
1120.2	1.22875
1123.09	0.704706
1125.99	0.896057
1128.88	0.138897
1131.77	0.332067
1134.66	0.131182
1137.56	0.144039
1140.45	0.250214
1143.34	0.377525
1146.24	0.501047
1149.13	0.735806
1152.02	0.350319
1154.91	0.731342
1157.81	0.040947
1160.7	0.200003
1163.59	0.149351
1166.48	0.174391
1169.38	0.589754
1172.27	0.90868
1175.16	0.828728
1178.06	1.09813
1180.95	1.13118
1183.84	1.52814
1186.73	1.26542
1189.63	1.45317
1192.52	1.53608
1195.41	1.60351
1198.3	1.41627
1201.2	1.05193
1204.09	1.3218
1206.98	0.998187
1209.88	0.895077
1212.77	0.976869
1215.66	1.18222
1218.55	1.07684
1221.45	0.760559
1224.34	1.0914
1227.23	1.2324
1230.12	0.265792
1233.02	1.06539
1235.91	0.523548
1238.8	0.514432
1241.69	0.252252
1244.59	0.188252
1247.48	0.435696
1250.37	0.14934
1253.27	0.445683
1256.16	0.058277
1259.05	0.664322
1261.94	0.480653
1264.84	0.757976
1267.73	0.108723
1270.62	0.128312
1273.52	0.645908
1276.41	0.51407
1279.3	0.540972
1282.19	0.498643
1285.09	0.187224
1287.98	0.506748
1290.87	0.460897
1293.76	0.050289
