Measurement: Raman, 785 nm, unoriented, Raman Data Processed
Mineral: Epidote
Rruff sample: R070205
Ideal chemistry: Ca_2_Fe^3+^Al_2_(Si_2_O_7_)(SiO_4_)O(OH)
Locality: Jebel Shacro, Morocco
Source: Renato and Adriana Pagano
Description: Red-purple prismatic crystals
Measured chemistry: (Ca_1.96_Mn^2+^_0.04_)_Σ=2_(Fe^3+^_0.72_Al_0.22_Mn^3+^_0.06_)_Σ=1_Al_2.00_(Si_2.00_O_7_)(Si_1.00_O_4_)O(OH); OH assumed by stoichiometry, Mn2+ and  Mn3+ splitted by charge balance
Raman shift (cm-1)	intensity
147.344	0
150.237	29.0746
153.129	51.2328
156.022	32.3166
158.915	56.5746
161.807	126.346
164.7	217.164
167.593	351.81
170.485	435.132
173.378	416.482
176.271	296.513
179.163	199.947
182.056	136.688
184.949	93.1159
187.841	41.1726
190.734	37.3977
193.627	1.7923
196.52	14.1089
199.412	1.23132
202.305	3.80463
205.198	11.4442
208.09	16.6614
210.983	1.97907
213.876	17.0883
216.768	51.1345
219.661	95.9066
222.554	152.575
225.447	226.937
228.339	287.954
231.232	356.49
234.125	352.244
237.017	359.159
239.91	375.785
242.803	367.64
245.696	289.103
248.588	227.234
251.481	191.217
254.374	158.114
257.266	171.733
260.159	208.765
263.052	244.307
265.945	267.755
268.837	305.825
271.73	346.661
274.623	400.996
277.515	271.984
280.408	201.862
283.301	114.476
286.193	66.4863
289.086	11.0673
291.979	14.6559
294.872	13.4916
297.764	77.9574
300.657	115.01
303.55	131.327
306.442	220.452
309.335	329.741
312.228	440.603
315.12	478.953
318.013	474.787
320.906	500.239
323.798	500.671
326.691	557.769
329.584	508.495
332.476	473.133
335.369	391.591
338.262	318.232
341.155	341.834
344.047	464.483
346.94	585.395
349.833	704.532
352.725	689.1
355.618	609.701
358.511	499.668
361.404	407.477
364.296	328.016
367.189	271.783
370.082	203.542
372.974	111.369
375.867	50.1315
378.76	5.73669
381.652	12.9511
384.545	38.7856
387.438	53.167
390.33	88.3586
393.223	38.3254
396.116	12.157
399.009	-1.52077
401.901	0.735611
404.794	3.38212
407.687	3.99622
410.579	38.4097
413.472	102.632
416.365	194.624
419.257	299.269
422.15	440.651
425.043	525.64
427.936	604.388
430.828	706.473
433.721	814.38
436.614	916.633
439.506	870.883
442.399	821.238
445.292	772.198
448.185	832.525
451.077	929.808
453.97	987.413
456.863	974.519
459.755	887.888
462.648	713.758
465.541	498.404
468.433	326.352
471.326	234.035
474.219	151.423
477.111	119.013
480.004	105.974
482.897	103.134
485.79	124.677
488.682	151.094
491.575	213.58
494.468	273.995
497.36	317.789
500.253	366.161
503.146	389.865
506.038	369.822
508.931	369.546
511.824	331.836
514.717	210.428
517.609	130.974
520.502	42.765
523.395	13.6235
526.288	1.74335
529.18	12.1279
532.073	3.32696
534.966	14.4029
537.858	6.10541
540.751	7.56079
543.644	32.5899
546.536	41.547
549.429	85.707
552.322	154.003
555.214	250.378
558.107	370.353
561	520.83
563.893	709.843
566.785	729.421
569.678	492
572.571	303.508
575.463	267.867
578.356	294.882
581.249	380.59
584.141	497.66
587.034	587.621
589.927	689.771
592.819	753.986
595.712	845.09
598.605	901.54
601.498	877.201
604.39	779.199
607.283	658.669
610.176	617.865
613.068	528.128
615.961	444.63
618.854	326.925
621.746	215.807
624.639	152.958
627.532	107.114
630.425	83.1589
633.317	67.8972
636.21	60.8862
639.103	32.3277
641.995	46.5355
644.888	30.4701
647.781	20.9477
650.673	17.1909
653.566	15.4298
656.459	27.9834
659.352	18.3378
662.244	8.2456
665.137	6.3089
668.03	8.69482
670.922	3.78644
673.815	7.59927
676.708	18.4034
679.601	34.5468
682.493	56.9411
685.386	74.2494
688.279	85.2053
691.171	81.7066
694.064	86.4544
696.957	62.9038
699.849	46.6281
702.742	24.3055
705.635	21.7203
708.528	7.80243
711.42	11.2568
714.313	1.74506
717.206	15.4697
720.098	11.6071
722.991	6.87903
725.884	4.77045
728.776	9.88086
731.669	3.42325
734.562	13.5476
737.455	0.278442
740.347	19.7639
743.24	26.3917
746.133	21.1129
749.025	16.3506
751.918	19.6367
754.811	18.534
757.703	23.9011
760.596	10.8568
763.489	37.4449
766.381	11.4727
769.274	20.4395
772.167	23.6055
775.06	7.85532
777.952	16.8306
780.845	13.0554
783.738	5.78568
786.63	1.78137
789.523	8.61035
792.416	9.80984
795.308	9.11972
798.201	4.68146
801.094	10.8153
803.987	2.37561
806.879	17.4433
809.772	6.89053
812.665	12.0037
815.557	7.10837
818.45	3.72967
821.343	26.7438
824.236	20.708
827.128	50.7849
830.021	60.9001
832.914	81.7895
835.806	109.016
838.699	98.9263
841.592	127.907
844.484	164.319
847.377	190.296
850.27	275.609
853.163	343.234
856.055	392.8
858.948	513.232
861.841	570.312
864.733	642.729
867.626	616.191
870.519	632.379
873.411	696.034
876.304	871.778
879.197	1102.2
882.09	1306.67
884.982	1473.06
887.875	1517.06
890.768	1392.41
893.66	1165.81
896.553	1002.08
899.446	937.987
902.338	968.825
905.231	1054.33
908.124	1230.23
911.016	1403.66
913.909	1510.77
916.802	1486.65
919.695	1283.31
922.587	976.091
925.48	683.537
928.373	461.948
931.265	299.807
934.158	183.868
937.051	119.383
939.943	62.6275
942.836	33.8918
945.729	4.97797
948.622	4.00763
951.514	6.86127
954.407	5.81622
957.3	7.57477
960.192	6.45136
963.085	6.06097
965.978	23.811
968.87	53.7369
971.763	109.36
974.656	135.586
977.549	178.76
980.441	168.383
983.334	142.807
986.227	73.5274
989.119	31.8315
992.012	14.7396
994.905	27.397
997.798	5.91422
1000.69	21.7814
1003.58	77.8485
1006.48	126.633
1009.37	158.157
1012.26	135.08
1015.15	130.092
1018.05	94.5086
1020.94	90.2004
1023.83	66.7444
1026.72	58.4032
1029.62	27.1651
1032.51	26.6872
1035.4	27.506
1038.3	38.5286
1041.19	26.2537
1044.08	11.1431
1046.97	12.6962
1049.87	19.9105
1052.76	19.1896
1055.65	15.132
1058.54	0.520874
1061.44	20.7612
1064.33	21.8285
1067.22	16.1845
1070.12	24.3147
1073.01	39.6273
1075.9	98.5738
1078.79	146.493
1081.69	172.54
1084.58	223.802
1087.47	218.203
1090.36	140.878
1093.26	97.0394
1096.15	40.0359
1099.04	34.8363
1101.93	31.1158
1104.83	23.9137
1107.72	15.6727
1110.61	14.5468
1113.51	7.10318
1116.4	8.08432
1119.29	3.25577
1122.18	25.5078
1125.08	14.3879
1127.97	25.4918
1130.86	15.617
1133.75	15.4044
1136.65	14.567
1139.54	36.6682
1142.43	12.7083
1145.33	15.1186
1148.22	5.72562
1151.11	1.78348
1154	12.4338
1156.9	1.36835
1159.79	13.8477
1162.68	5.60736
1165.57	23.8073
1168.47	25.7157
1171.36	8.44864
1174.25	23.5805
1177.14	6.70242
1180.04	20.3762
1182.93	24.0351
1185.82	25.2677
1188.72	13.3312
1191.61	14.797
1194.5	13.6982
1197.39	19.9205
1200.29	19.0554
1203.18	25.5563
1206.07	14.3814
1208.96	0.353882
1211.86	12.4897
1214.75	22.9939
1217.64	21.1319
1220.54	0.929932
1223.43	17.2118
1226.32	9.29639
