Measurement: Raman, 514 nm, unoriented, Raman Data Processed
Mineral: Epidote
Rruff sample: R050064
Ideal chemistry: Ca_2_Fe^3+^Al_2_(Si_2_O_7_)(SiO_4_)O(OH)
Locality: East Xichang City, Meigu County, Sichuan Province, China
Source: Rock Currier
Description: Green prismatic crystals
Measured chemistry: (Ca_1.99_Mn_0.01_)_Î£=2_Fe^3+^_1.00_Al_2.00_(Si_2.00_O_7_)(Si_1.00_O_4_)O(OH);
Raman shift (cm-1)	intensity
52.866	0
57.065	89.4
61.262	72.347
65.458	75.143
69.651	43.512
73.842	669.116
78.031	1323.24
82.218	3272.79
86.404	7166.59
90.587	10538.8
94.768	7450.91
98.947	4695.93
103.124	1853.17
107.3	1080.5
111.473	651.958
115.644	857.887
119.813	688.802
123.981	1362.21
128.146	3383.18
132.309	5722.11
136.47	3807.08
140.63	2483.13
144.787	3735.39
148.942	3503.03
153.096	3053.39
157.247	5582.21
161.396	11762.6
165.544	16556.8
169.689	10972.8
173.833	6850.7
177.974	3696.47
182.114	2109.12
186.251	1565.67
190.387	1243.1
194.52	1358.4
198.652	2318.56
202.782	2841.57
206.909	2064.4
211.035	977.032
215.159	739.432
219.281	1302.83
223.4	2390.81
227.518	3563.08
231.634	5024.39
235.748	8926.43
239.86	16766.6
243.97	18605
248.079	10657.7
252.185	5186.21
256.289	3006.9
260.391	1817.63
264.492	1422.27
268.59	1993.71
272.687	3350.87
276.781	3781.66
280.874	2986.02
284.964	3787.89
289.053	7475.23
293.14	13352
297.225	10176.1
301.308	5468.49
305.389	2746.15
309.468	1822.05
313.545	1904.16
317.62	2031.47
321.693	3165.96
325.765	4752.61
329.834	5098.43
333.902	5235.44
337.967	6872.63
342.031	11747.9
346.093	21707.3
350.153	25418.7
354.21	15454.2
358.267	7539.66
362.321	3941.1
366.373	2296.51
370.423	1129.86
374.471	106.138
378.518	457.498
382.563	420.221
386.605	91.571
390.646	359.797
394.685	181.597
398.722	176.993
402.757	252.748
406.79	165.944
410.821	443.74
414.851	1596.76
418.878	3974.17
422.904	8250.88
426.927	9721.88
430.949	11064.1
434.969	15564.6
438.987	15604.1
443.003	18438.8
447.018	31967.5
451.03	38845.3
455.041	34665.1
459.049	26495.7
463.056	15629.2
467.061	8496.55
471.064	5058.65
475.065	3330.49
479.064	2903
483.062	3111.2
487.057	3805.16
491.051	5536.71
495.043	9431.32
499.032	13786
503.02	13244.2
507.007	11199.7
510.991	8415.63
514.973	4313.01
518.954	3315.82
522.933	3709.05
526.91	2260.66
530.885	696.643
534.858	132.977
538.829	78.487
542.799	88.233
546.766	122.004
550.732	734.562
554.696	2104.08
558.658	5956.43
562.618	16584.7
566.576	20058.8
570.533	7908.82
574.488	3501.25
578.44	2957.16
582.391	4079.99
586.341	6097.83
590.288	7805.95
594.233	11607.6
598.177	14807.5
602.119	12756.2
606.059	8959.04
609.997	7580.31
613.933	6237.72
617.868	3994.22
621.801	2065.55
625.731	1289.53
629.66	683.373
633.588	410.922
637.513	236.354
641.437	134.259
645.358	34.474
649.278	37.331
653.196	97.465
657.113	105.128
661.027	157.402
664.94	221.297
668.851	173.805
672.76	310.911
676.667	552.554
680.572	913.874
684.476	1536.71
688.378	1851.09
692.278	1436.02
696.176	896.613
700.072	597.856
703.967	328.692
707.86	218.102
711.751	9.982
715.64	9.284
719.527	28.025
723.413	36.029
727.297	88.001
731.179	88.242
735.059	94.744
738.937	83.47
742.814	62.439
746.689	12.613
750.562	47.874
754.433	61.195
758.303	43.689
762.17	31.052
766.036	4.452
769.901	85.096
773.763	88.924
777.624	13.948
781.482	71.211
785.339	139.786
789.195	174.727
793.048	182.879
796.9	224.839
800.75	213.023
804.598	456.616
808.445	473.728
812.289	576.38
816.132	1070.59
819.973	689.392
823.813	818.325
827.65	1084.61
831.486	1203.9
835.32	1374.03
839.152	1469.59
842.983	1685.73
846.812	2108.45
850.639	2648.87
854.464	3556.19
858.288	5002.34
862.11	7158.15
865.93	9129.61
869.748	10517.3
873.564	12870.9
877.379	15706
881.192	17508.4
885.004	18998.8
888.813	18387.1
892.621	13267.6
896.427	8674.47
900.232	6564.75
904.034	6166.94
907.835	6906.2
911.634	8079.32
915.432	8871.8
919.227	7551.1
923.021	5029.77
926.813	3366.15
930.604	2274.79
934.393	1611.5
938.18	1303.85
941.965	1022.62
945.749	875.864
949.53	731.686
953.311	710.521
957.089	816.749
960.866	832.116
964.641	887.621
968.414	1111.23
972.185	1538.94
975.955	2786.74
979.723	4216.7
983.49	3726.82
987.254	2161.09
991.017	1184.56
994.779	804.117
998.538	610.003
1002.3	498.707
1006.05	467.17
1009.81	583.912
1013.56	1096.85
1017.31	2046.57
1021.06	2496.22
1024.81	1829.15
1028.55	1093.41
1032.3	960.9
1036.04	1170.94
1039.78	1517.53
1043.52	1656.47
1047.26	1386.71
1050.99	1066.41
1054.73	948.552
1058.46	1105.12
1062.19	1366.07
1065.92	1151.47
1069.65	1039.14
1073.37	1379.41
1077.1	2111.01
1080.82	3319.35
1084.54	5340.72
1088.26	5708.5
1091.97	3266.96
1095.69	1463.56
1099.4	810.902
1103.12	508.54
1106.83	381.725
1110.54	375.034
1114.24	205.909
1117.95	124.721
1121.65	128.111
1125.35	170.231
1129.06	96.114
1132.75	39.801
1136.45	66
1140.15	30.245
1143.84	7.903
1147.53	46.006
1151.22	53.882
1154.91	2.926
1158.6	31.676
1162.28	18.835
1165.97	55.012
1169.65	7.762
1173.33	49.609
1177.01	47.783
1180.69	13.663
1184.36	6.398
1188.04	11.956
1191.71	60.779
1195.38	20.498
1199.05	6.044
1202.71	76.712
1206.38	55.56
1210.04	20.196
1213.71	64.538
1217.37	95.741
1221.03	25.828
1224.68	17.755
1228.34	24.487
1231.99	4.011
1235.65	30.311
1239.3	12.559
1242.95	10.35
1246.59	20.966
1250.24	30.458
1253.88	37.136
1257.53	44.52
1261.17	22.049
1264.81	6.107
1268.45	9.984
1272.08	23.642
1275.72	21.805
1279.35	60.626
1282.98	13.963
1286.61	34.165
1290.24	78.138
1293.87	47.298
1297.49	93.361
1301.11	19.049
1304.73	0.539
1308.36	35.495
1311.97	29.154
1315.59	65.46
1319.2	0.356
1322.82	29.585
1326.43	43.167
1330.04	35.624
1333.65	81.774
1337.26	70.713
1340.86	99.611
1344.47	74.256
1348.07	94.478
1351.67	105.66
1355.27	139.583
1358.87	212.583
1362.46	209.912
1366.06	230.065
1369.65	227.992
1373.24	164.324
1376.83	166.896
1380.42	165.757
1384	153.258
1387.59	214.702
1391.17	196.854
1394.75	153.175
1398.33	181.681
1401.91	144.779
1405.49	138.16
1409.06	101.565
1412.64	172.017
1416.21	116.742
1419.78	74.802
1423.35	127.63
1426.91	84.352
1430.48	81.18
1434.05	76.311
1437.61	164.441
1441.17	85.847
1444.73	131.05
1448.29	101.758
1451.84	217.194
1455.4	105.16
1458.95	190.717
1462.5	104.147
1466.05	52.013
1469.6	67.633
1473.15	55.949
1476.69	44.687
1480.24	10.983
1483.78	71.354
1487.32	100.764
1490.86	106.979
1494.39	55.476
1497.93	46.766
1501.46	63.608
1505	13.29
1508.53	102.493
1512.06	128.292
1515.59	44.461
1519.11	96.836
1522.64	0
