Measurement: Raman, 514 nm, unoriented, Raman Data Processed
Mineral: Epidote
Rruff sample: R050191
Ideal chemistry: Ca_2_Fe^3+^Al_2_(Si_2_O_7_)(SiO_4_)O(OH)
Locality: Pampa Blanca, Castrovirreyna Province, Huancavelica Department, Peru
Source: Dave Bunk Minerals
Description: Cluster of green elongated prismatic crystals
Measured chemistry: Ca_2.00_Al_2.00_(Fe^3+^_0.84_Al_0.16_)(SiO_4_)(Si_2_O_7_)O(OH)
Raman shift (cm-1)	intensity
52.866	0
57.065	126.774
61.262	65.307
65.458	42.047
69.651	93.721
73.842	655.957
78.031	1887.96
82.218	5345.27
86.404	10058.3
90.587	12615.1
94.768	8126.44
98.947	4358.38
103.124	2242.53
107.3	1387.63
111.473	1029.59
115.644	1152.34
119.813	721.049
123.981	558.459
128.146	677.356
132.309	647.567
136.47	632.536
140.63	587.766
144.787	566.17
148.942	761.055
153.096	1139.03
157.247	1930.36
161.396	3834.09
165.544	7878.32
169.689	13717.1
173.833	15993.5
177.974	10853.5
182.114	6289.09
186.251	3981.32
190.387	2790.18
194.52	2176.65
198.652	2375.73
202.782	2641.39
206.909	2536.63
211.035	1850.43
215.159	1990.31
219.281	3205.19
223.4	5952.99
227.518	9752.95
231.634	11142.2
235.748	9896.46
239.86	9555.66
243.97	8297.01
248.079	5082.69
252.185	2977.58
256.289	2164.26
260.391	1433.63
264.492	1378.58
268.59	2696.05
272.687	5105.96
276.781	5524.26
280.874	2797.91
284.964	1156.84
289.053	980.038
293.14	1296.45
297.225	1494.04
301.308	1274.77
305.389	970.596
309.468	770.521
313.545	503.543
317.62	448.634
321.693	631.775
325.765	872.956
329.834	1012.16
333.902	1677.38
337.967	3115.6
342.031	6379.79
346.093	11647.9
350.153	14149.1
354.21	9984.09
358.267	5129.03
362.321	2231.87
366.373	786.591
370.423	2.476
374.471	299.628
378.518	108.45
382.563	601.406
386.605	1917.1
390.646	2400.9
394.685	1121.84
398.722	56.936
402.757	259.885
406.79	309.118
410.821	345.046
414.851	1155.34
418.878	3359.91
422.904	6999.69
426.927	11499.6
430.949	18122.8
434.969	26174.1
438.987	22110.4
443.003	15349.8
447.018	14930.2
451.03	16612.6
455.041	16655.8
459.049	12970.9
463.056	7766.75
467.061	4057.44
471.064	2336.93
475.065	1160.15
479.064	728.024
483.062	807.512
487.057	1016.57
491.051	1977.17
495.043	3928.29
499.032	6345.91
503.02	7713.01
507.007	8464.57
510.991	7958.58
514.973	4708.01
518.954	2143.85
522.933	767.076
526.91	133.673
530.885	20.461
534.858	56.382
538.829	130.334
542.799	75.775
546.766	266.887
550.732	1003.57
554.696	1657.8
558.658	4021.8
562.618	9326.11
566.576	10790
570.533	6119.15
574.488	4304.57
578.44	5050.27
582.391	7932.38
586.341	12190.6
590.288	16918
594.233	23048.4
598.177	28479.4
602.119	25263.5
606.059	20815.4
609.997	18540.6
613.933	16468.7
617.868	12155.4
621.801	7235.8
625.731	4619.7
629.66	2897.06
633.588	2183.82
637.513	1740.67
641.437	1317.15
645.358	1061.71
649.278	805.834
653.196	629.623
657.113	445.058
661.027	349.126
664.94	386.816
668.851	239.114
672.76	247.01
676.667	297.492
680.572	289.549
684.476	281.17
688.378	233.17
692.278	246.503
696.176	208.985
700.072	188.048
703.967	115.119
707.86	80.714
711.751	88.766
715.64	12.799
719.527	57.103
723.413	15.019
727.297	51.614
731.179	107.42
735.059	62.664
738.937	34.759
742.814	67.172
746.689	45.177
750.562	74.645
754.433	24.611
758.303	10.597
762.17	21.541
766.036	62.405
769.901	35.788
773.763	58.164
777.624	43.77
781.482	33.551
785.339	28.516
789.195	116.78
793.048	108.45
796.9	188.561
800.75	235.172
804.598	318.306
808.445	336.971
812.289	463.173
816.132	641.922
819.973	906.122
823.813	1281.09
827.65	1794.53
831.486	2214.55
835.32	2211.15
839.152	2173.36
842.983	2143.2
846.812	2230.88
850.639	2457.42
854.464	2787.72
858.288	3366.51
862.11	4044.25
865.93	4380.99
869.748	4507.85
873.564	4716.15
877.379	5293.85
881.192	6340.23
885.004	7511.84
888.813	8246.39
892.621	8481.38
896.427	9701.33
900.232	12833.4
904.034	17604.2
907.835	25547.2
911.634	35993.6
915.432	45710.6
919.227	41833.3
923.021	28842.7
926.813	18141.5
930.604	11340.6
934.393	7579.07
938.18	5521.04
941.965	4125.11
945.749	3274.19
949.53	2754.35
953.311	2559.56
957.089	2455.01
960.866	2310.65
964.641	1932.52
968.414	1763.58
972.185	1870.82
975.955	2390.22
979.723	2797.79
983.49	2313.54
987.254	1347.47
991.017	914.855
994.779	581.408
998.538	463.887
1002.3	347.859
1006.05	317.154
1009.81	368.91
1013.56	601.791
1017.31	858.815
1021.06	985.83
1024.81	887.58
1028.55	883.96
1032.3	1137.87
1036.04	1566.08
1039.78	1846.99
1043.52	1840.49
1047.26	1605.6
1050.99	1243.31
1054.73	1124.64
1058.46	1007.52
1062.19	1027.87
1065.92	835.676
1069.65	806.903
1073.37	1098.61
1077.1	1900.26
1080.82	3708.66
1084.54	7019.68
1088.26	7861.17
1091.97	4714.7
1095.69	2232.06
1099.4	1194.61
1103.12	734.594
1106.83	470.522
1110.54	407.191
1114.24	321.069
1117.95	207.351
1121.65	289.044
1125.35	206.156
1129.06	92.659
1132.75	80.538
1136.45	73.938
1140.15	22.392
1143.84	60.965
1147.53	58.167
1151.22	12.556
1154.91	47.672
1158.6	55.973
1162.28	46.3
1165.97	20.15
1169.65	5.833
1173.33	7.085
1177.01	31.254
1180.69	53.897
1184.36	57.988
1188.04	55.55
1191.71	104.04
1195.38	63.434
1199.05	95.376
1202.71	87.99
1206.38	87.436
1210.04	28.824
1213.71	13.929
1217.37	71.789
1221.03	6.139
1224.68	66.486
1228.34	4.135
1231.99	22.628
1235.65	9.857
1239.3	16.634
1242.95	26.568
1246.59	46.965
1250.24	16.278
1253.88	3.104
1257.53	6.288
1261.17	5.833
1264.81	29.146
1268.45	39.995
1272.08	2.099
1275.72	85.155
1279.35	75.143
1282.98	98.773
1286.61	135.694
1290.24	57.003
1293.87	52.537
1297.49	25.668
1301.11	25.202
1304.73	24.89
1308.36	55.967
1311.97	65.316
1315.59	45.275
1319.2	60.469
1322.82	21.356
1326.43	7.947
1330.04	2.705
1333.65	54.608
1337.26	17.199
1340.86	55.482
1344.47	47.462
1348.07	94.128
1351.67	124.54
1355.27	148.657
1358.87	155.517
1362.46	129.133
1366.06	215.959
1369.65	177.989
1373.24	145.686
1376.83	105.68
1380.42	162.811
1384	143.531
1387.59	127.375
1391.17	99.142
1394.75	122.319
1398.33	98.847
1401.91	86.191
1405.49	126.097
1409.06	142.176
1412.64	103.294
1416.21	142.553
1419.78	152.098
1423.35	123.432
1426.91	123.385
1430.48	96.915
1434.05	145.389
1437.61	168.392
1441.17	130.751
1444.73	138.232
1448.29	81.025
1451.84	127.886
1455.4	162.218
1458.95	138.016
1462.5	124.121
1466.05	136.69
1469.6	103.11
1473.15	118.846
1476.69	53.163
1480.24	83.683
1483.78	100.608
1487.32	106.308
1490.86	8.915
1494.39	66.677
1497.93	31.805
1501.46	79.599
1505	38.846
1508.53	10.336
1512.06	29.938
1515.59	49.026
1519.11	56.118
1522.64	0.907
