Measurement: Raman, 532 nm, unoriented, Raman Data Processed
Mineral: Epididymite
Rruff sample: R110029
Ideal chemistry: Na_2_Be_2_Si_6_O_15_H_2_O
Locality: Mount Malosa, Zomba District, Malawi
Source: Marcus Origlieri
Description: Colorless micaceous blade
Raman shift (cm-1)	intensity
174.441	0
177.334	2.88183
180.227	1.66111
183.119	5.06596
186.012	22.455
188.905	22.8755
191.798	27.3655
194.69	43.1393
197.583	55.0551
200.476	43.8744
203.369	30.7703
206.261	20.0088
209.154	10.7922
212.047	8.748
214.939	5.05293
217.832	7.05034
220.725	10.8218
223.617	22.7293
226.51	40.8374
229.403	57.6217
232.296	88.6136
235.188	126.927
238.081	177.791
240.974	219.905
243.866	211.601
246.759	157.089
249.652	130.771
252.544	122.123
255.437	118.278
258.33	121.387
261.223	130.275
264.115	117.089
267.008	115.042
269.901	93.2148
272.793	51.7496
275.686	24.4011
278.579	9.46214
281.471	8.7316
284.364	9.55198
287.257	2.68999
290.15	0.289574
293.042	2.47411
295.935	3.84725
298.828	3.43147
301.72	0.055977
304.613	0.43689
307.506	1.43938
310.399	9.18024
313.291	7.92065
316.184	15.9295
319.077	23.5461
321.969	24.4309
324.862	24.6536
327.755	45.0372
330.647	49.1052
333.54	64.5697
336.433	73.0809
339.325	95.2866
342.218	121.492
345.111	151.241
348.004	124.141
350.896	79.242
353.789	56.4435
356.682	45.1712
359.574	41.2208
362.467	39.9059
365.36	43.9635
368.253	51.677
371.145	64.0505
374.038	91.5859
376.931	120.185
379.823	161.864
382.716	162.091
385.609	114.692
388.502	70.4081
391.394	49.5927
394.287	50.2986
397.18	62.2043
400.072	88.9902
402.965	151.306
405.858	238.653
408.75	291.424
411.643	133.371
414.536	34.9289
417.428	12.7794
420.321	4.20928
423.214	1.10727
426.107	2.3301
428.999	2.71111
431.892	1.59124
434.785	0.344452
437.677	0.19532
440.57	3.31068
443.463	7.70489
446.356	5.43214
449.248	0.934731
452.141	0.507706
455.034	9.26541
457.926	18.331
460.819	32.2202
463.712	52.7322
466.604	73.812
469.497	109.171
472.39	178.625
475.283	237.266
478.175	205.087
481.068	94.7378
483.961	61.4968
486.853	47.4913
489.746	33.2527
492.639	20.1743
495.531	22.2325
498.424	24.1998
501.317	51.0735
504.21	99.4414
507.102	176.803
509.995	286.056
512.888	460.921
515.78	732.159
518.673	982.646
521.566	879.127
524.458	422.112
527.351	191.624
530.244	101.14
533.137	60.0137
536.029	37.5769
538.922	24.6604
541.815	16.7313
544.707	8.26636
547.6	0.326363
550.493	1.51973
553.386	2.33697
556.278	1.27508
559.171	3.83485
562.064	1.39204
564.956	2.41125
567.849	1.705
570.742	7.40422
573.635	17.1608
576.527	29.8275
579.42	50.5074
582.313	70.9757
585.205	76.7866
588.098	40.524
590.991	17.7674
593.883	5.3192
596.776	5.10692
599.669	6.67113
602.562	0.249191
605.454	2.32231
608.347	6.07291
611.24	0.827194
614.132	5.12718
617.025	0.798843
619.918	8.04617
622.81	8.59222
625.703	17.1469
628.596	9.90821
631.489	18.2108
634.381	17.3725
637.274	11.7859
640.167	2.78152
643.059	2.99122
645.952	1.10624
648.845	2.36289
651.737	1.65071
654.63	2.68464
657.523	5.65224
660.416	4.12277
663.308	2.19969
666.201	0.513111
669.094	1.30024
671.986	1.81148
674.879	1.33233
677.772	3.08677
680.664	0.849949
683.557	4.0993
686.45	5.16097
689.343	0.139954
692.235	3.28103
695.128	4.12418
698.021	5.00688
700.913	6.6326
703.806	0.70726
706.699	3.448
709.592	6.91629
712.484	3.54684
715.377	0.464119
718.27	0.943794
721.162	3.62652
724.055	1.32946
726.948	1.38021
729.841	1.03795
732.733	1.086
735.626	2.67229
738.519	7.08093
741.411	2.25057
744.304	5.19177
747.197	8.18549
750.089	9.66904
752.982	16.4438
755.875	20.6096
758.768	14.9402
761.66	9.18748
764.553	9.9417
767.446	11.548
770.338	8.27551
773.231	2.07753
776.124	7.50603
779.016	6.11665
781.909	7.55724
784.802	8.63126
787.694	7.87513
790.587	10.5546
793.48	12.176
796.373	17.1601
799.265	13.8521
802.158	9.96333
805.051	5.10168
807.943	7.90197
810.836	7.0863
813.729	10.6847
816.621	11.6768
819.514	7.37277
822.407	7.2093
825.3	7.05811
828.192	6.87611
831.085	4.66099
833.978	1.77589
836.87	5.32682
839.763	1.08502
842.656	2.11379
845.549	5.51864
848.441	1.54295
851.334	1.85777
854.227	3.72334
857.119	4.97228
860.012	0.2435
862.905	0.98761
865.798	3.79618
868.69	4.31512
871.583	2.42401
874.476	2.20848
877.368	6.2658
880.261	4.36362
883.154	2.73146
886.046	2.48467
888.939	0.616676
891.832	3.54088
894.725	3.44041
897.617	5.77389
900.51	3.29386
903.403	10.4338
906.295	3.521
909.188	1.30308
912.081	2.46972
914.973	2.37396
917.866	4.47224
920.759	3.39822
923.652	1.9809
926.544	3.27085
929.437	5.90305
932.33	2.12546
935.222	1.42841
938.115	1.91069
941.008	6.13891
943.9	3.58525
946.793	0.319458
949.686	0.347145
952.579	3.38709
955.471	2.50707
958.364	1.05764
961.257	0.147881
964.149	2.23964
967.042	0.355255
969.935	3.56241
972.827	2.94453
975.72	3.36194
978.613	4.31934
981.506	3.64994
984.398	6.56982
987.291	3.50914
990.184	2.48382
993.077	3.71049
995.969	8.02203
998.862	3.73558
1001.75	11.5625
1004.65	12.528
1007.54	23.7874
1010.43	24.2704
1013.33	16.8062
1016.22	15.0079
1019.11	4.81833
1022	4.97832
1024.9	0.354492
1027.79	3.75963
1030.68	1.33207
1033.57	0.069397
1036.47	7.66437
1039.36	10.2418
1042.25	13.8308
1045.14	22.0288
1048.04	21.0503
1050.93	17.8528
1053.82	20.1254
1056.72	21.407
1059.61	14.933
1062.5	11.7337
1065.39	13.3964
1068.29	16.2812
1071.18	11.9649
1074.07	15.5836
1076.96	3.93886
1079.86	1.82925
1082.75	3.84148
1085.64	1.86179
1088.54	1.59748
1091.43	0.470619
1094.32	0.377823
1097.21	2.3019
1100.11	0.820488
1103	4.34994
1105.89	12.6411
1108.79	9.86028
1111.68	17.4517
1114.57	23.9643
1117.46	34.8924
1120.36	37.4457
1123.25	44.9164
1126.14	54.879
1129.03	73.5564
1131.93	93.5413
1134.82	116.013
1137.71	129.285
1140.6	116.515
1143.5	100.482
1146.39	70.7411
1149.28	47.2472
1152.17	29.6351
1155.07	19.4929
1157.96	10.3022
1160.85	11.2638
1163.75	8.84488
1166.64	3.92698
1169.53	3.10638
1172.42	1.02002
1175.32	6.68092
1178.21	1.69476
1181.1	6.89392
1183.99	2.36099
1186.89	4.3522
1189.78	3.15686
1192.67	3.78315
1195.57	0.596313
1198.46	3.75577
1201.35	4.91237
1204.24	0.908173
1207.14	2.1804
1210.03	0.103424
1212.92	6.44685
1215.82	1.9268
1218.71	4.05721
1221.6	4.80839
1224.49	2.90046
1227.38	2.89882
1230.28	1.92702
1233.17	4.60467
1236.06	4.41702
1238.96	7.01245
1241.85	5.14845
1244.74	3.05834
1247.63	1.27481
1250.53	1.06618
1253.42	7.88707
1256.31	2.42276
1259.2	5.79664
1262.1	1.24458
1264.99	8.57718
1267.88	4.54716
1270.78	9.01852
1273.67	5.60751
1276.56	5.58371
1279.45	7.09969
1282.35	2.63034
1285.24	4.17361
1288.13	6.03824
1291.03	0.978378
1293.92	4.08309
1296.81	1.79672
1299.7	4.42673
1302.6	0
