Measurement: Raman, 780 nm, unoriented, Raman Data Processed
Mineral: Epidote
Rruff sample: R100148
Ideal chemistry: Ca_2_Fe^3+^Al_2_(Si_2_O_7_)(SiO_4_)O(OH)
Locality: Ethiopia
Source: William W. Pinch
Description: Single dark green prismatic crystal
Raman shift (cm-1)	intensity
160.03	0
162.923	3.08378
165.816	9.73691
168.708	18.994
171.601	24.7497
174.494	23.1137
177.386	12.446
180.279	8.2347
183.172	4.04815
186.065	6.47883
188.957	13.1832
191.85	10.082
194.743	0.599068
197.635	2.91968
200.528	2.4034
203.421	4.24235
206.313	8.6722
209.206	7.04477
212.099	3.45932
214.992	1.53638
217.884	0.592278
220.777	5.34611
223.67	13.8112
226.562	22.7034
229.455	39.6416
232.348	52.0118
235.24	50.2791
238.133	38.8867
241.026	35.3957
243.918	40.5194
246.811	50.7799
249.704	47.9764
252.597	36.4168
255.489	25.3481
258.382	18.242
261.275	14.0121
264.167	13.4329
267.06	23.3952
269.953	48.2746
272.846	97.0065
275.738	138.599
278.631	101.365
281.524	51.025
284.416	29.9263
287.309	21.7178
290.202	18.3587
293.094	15.7811
295.987	14.0388
298.88	13.8603
301.772	16.8538
304.665	18.1173
307.558	15.6227
310.45	12.0297
313.343	8.90615
316.236	10.0567
319.129	6.09195
322.021	1.43353
324.914	2.60952
327.807	5.57949
330.699	10.5448
333.592	20.7763
336.485	23.5032
339.377	17.7629
342.27	14.7348
345.163	20.2607
348.056	41.374
350.948	58.2312
353.841	47.0253
356.734	27.0807
359.626	12.8583
362.519	7.43504
365.412	6.97421
368.305	4.96626
371.197	6.30917
374.09	1.18938
376.983	3.81033
379.875	4.74928
382.768	2.89484
385.661	4.74953
388.553	18.4454
391.446	34.2771
394.339	35.9433
397.231	18.479
400.124	4.53939
403.017	3.26594
405.909	3.71368
408.802	2.12113
411.695	11.7047
414.588	26.8994
417.48	55.977
420.373	108.476
423.266	187.744
426.158	247.381
429.051	228.755
431.944	176.569
434.837	141.993
437.729	129.543
440.622	139.119
443.515	158.377
446.407	189.721
449.3	236.833
452.193	282.131
455.085	300.983
457.978	300.08
460.871	283.914
463.764	250.341
466.656	210.49
469.549	165.611
472.442	126.104
475.334	93.1901
478.227	68.0181
481.12	47.0878
484.012	38.5671
486.905	32.7363
489.798	32.0222
492.69	29.433
495.583	28.5207
498.476	32.8137
501.369	42.4299
504.261	56.5591
507.154	69.469
510.047	65.6141
512.939	54.0599
515.832	35.4153
518.725	21.2514
521.617	21.0868
524.51	26.6467
527.403	21.9454
530.296	7.4063
533.188	2.32635
536.081	4.96304
538.974	4.0111
541.866	1.93519
544.759	0.558903
547.652	4.91771
550.544	15.5755
553.437	26.3191
556.33	41.4526
559.222	63.5874
562.115	107.732
565.008	198
567.901	288.969
570.793	224.905
573.686	109.738
576.579	57.4641
579.471	42.471
582.364	41.1031
585.257	49.9552
588.149	64.9694
591.042	82.9833
593.935	98.3717
596.828	130.029
599.72	166.77
602.613	186.349
605.506	166.964
608.398	126.419
611.291	92.6333
614.184	67.9794
617.077	50.7267
619.969	35.4123
622.862	22.9126
625.755	14.4979
628.647	8.82248
631.54	6.16165
634.433	3.27913
637.325	0.882366
640.218	1.34271
643.111	0.633739
646.004	1.80656
648.896	0.166073
651.789	0.637985
654.682	3.91818
657.574	6.9418
660.467	10.8521
663.36	12.9733
666.252	13.6054
669.145	15.4308
672.038	15.3348
674.931	18.1189
677.823	22.6776
680.716	29.614
683.609	40.0081
686.501	48.8843
689.394	52.6975
692.287	47.9818
695.179	36.9614
698.072	28.055
700.965	20.3278
703.857	14.8464
706.75	10.2243
709.643	5.86723
712.535	3.18229
715.428	2.01114
718.321	1.55378
721.214	1.20495
724.106	1.21931
726.999	1.46576
729.892	1.14129
732.784	2.75157
735.677	1.69868
738.57	1.56627
741.462	2.7359
744.355	3.89839
747.248	4.70815
750.141	5.31543
753.033	5.11909
755.926	6.24806
758.819	5.44233
761.711	5.56523
764.604	4.82463
767.497	6.00896
770.389	4.59047
773.282	3.65466
776.175	3.38854
779.068	2.98129
781.96	3.00476
784.853	2.30454
787.746	1.61784
790.638	2.02934
793.531	0.830665
796.424	0.017469
799.317	0.106133
802.209	2.42199
805.102	0.903793
807.995	1.86983
810.887	1.41132
813.78	1.84388
816.673	0.905468
819.565	0.273331
822.458	2.29414
825.351	4.70282
828.244	7.668
831.136	10.8733
834.029	9.21412
836.922	6.71899
839.814	3.84058
842.707	1.19861
845.6	1.23224
848.492	0.865963
851.385	2.10995
854.278	5.00903
857.17	9.64988
860.063	16.0678
862.956	25.7952
865.849	35.2327
868.741	43.9543
871.634	46.8052
874.527	47.4255
877.419	49.2953
880.312	51.8795
883.205	55.5572
886.097	62.6558
888.99	71.7074
891.883	83.1546
894.775	83.2069
897.668	77.888
900.561	80.555
903.454	92.6411
906.346	116.352
909.239	146.146
912.132	174.762
915.024	190.105
917.917	186.696
920.81	163.146
923.702	124.05
926.595	90.1159
929.488	62.7851
932.381	40.1054
935.273	23.5907
938.166	15.134
941.059	8.76112
943.951	5.04058
946.844	3.04079
949.737	7.77401
952.63	11.4337
955.522	19.3132
958.415	25.1925
961.308	28.0376
964.2	26.2934
967.093	26.9978
969.986	30.0593
972.878	41.0322
975.771	57.6319
978.664	87.6571
981.557	122.772
984.449	127.425
987.342	91.9865
990.235	55.1992
993.127	31.0946
996.02	15.0436
998.913	6.74972
1001.8	2.49326
1004.7	2.80801
1007.59	5.25528
1010.48	4.1263
1013.38	2.12317
1016.27	1.02988
1019.16	4.91799
1022.05	11.2703
1024.95	17.4674
1027.84	21.1457
1030.73	24.8867
1033.62	29.8586
1036.52	43.2156
1039.41	54.6938
1042.3	65.1632
1045.2	73.5029
1048.09	72.5049
1050.98	67.3769
1053.87	60.4952
1056.77	57.1666
1059.66	55.4952
1062.55	49.6277
1065.44	42.5518
1068.34	36.4673
1071.23	41.1093
1074.12	52.9467
1077.02	75.7052
1079.91	104.827
1082.8	139.43
1085.69	174.242
1088.59	206.234
1091.48	197.9
1094.37	135.42
1097.26	71.7603
1100.16	34.2747
1103.05	19.6408
1105.94	9.11047
1108.84	7.76379
1111.73	5.01218
1114.62	2.64585
1117.51	1.00315
1120.41	1.4392
1123.3	0.80978
1126.19	1.1098
1129.08	0.239752
1131.98	0.830736
1134.87	1.00254
1137.76	0.776957
1140.65	0.303946
1143.55	0.767826
1146.44	0.008722
1149.33	0.468782
1152.23	0.570335
1155.12	0.67948
1158.01	0.024742
1160.9	0.461786
1163.8	0.376221
1166.69	0.848314
1169.58	0.659822
1172.47	1.06902
1175.37	0.618385
1178.26	0.805685
1181.15	1.05685
1184.05	1.25861
1186.94	0.583033
1189.83	1.63402
1192.72	2.16196
1195.62	1.59831
1198.51	1.93508
1201.4	1.23978
1204.29	0.43655
1207.19	1.52511
1210.08	0.29748
1212.97	1.14936
1215.87	1.01807
1218.76	1.02713
1221.65	0.367052
1224.54	0.545708
1227.44	1.14746
1230.33	1.21973
1233.22	0.235828
1236.11	0.411083
1239.01	1.39837
1241.9	1.09028
1244.79	1.02302
1247.68	0.743185
1250.58	0.82308
1253.47	0.142628
1256.36	1.05289
1259.26	0.133816
1262.15	0.460052
1265.04	0.193317
1267.93	0.43996
1270.83	0.092926
1273.72	0.9965
1276.61	2.20857
1279.5	1.34952
1282.4	1.3498
