Measurement: Raman, 780 nm, unoriented, Raman Data Processed
Mineral: Epidote
Rruff sample: R110129
Ideal chemistry: Ca_2_Fe^3+^Al_2_(Si_2_O_7_)(SiO_4_)O(OH)
Locality: Quetta, Baluchistan, Pakistan
Source: Jack Lowell
Description: Dark green prismatic crystal
Raman shift (cm-1)	intensity
160.064	0
162.957	1.57992
165.85	2.96354
168.742	3.78372
171.635	5.66827
174.528	3.19273
177.42	0.90579
180.313	0.042997
183.206	1.02956
186.098	0.933943
188.991	2.85347
191.884	2.3268
194.776	3.39841
197.669	6.01557
200.562	10.0373
203.455	10.6141
206.347	6.69198
209.24	2.51499
212.133	1.51987
215.025	0.670433
217.918	1.35573
220.811	2.87067
223.703	5.45615
226.596	7.32557
229.489	8.27406
232.382	6.62743
235.274	5.34283
238.167	7.21342
241.06	10.1382
243.952	10.0942
246.845	5.33831
249.738	1.78689
252.631	1.98236
255.523	4.96079
258.416	9.23776
261.309	12.5603
264.201	20.1974
267.094	31.3371
269.987	47.1712
272.879	67.5306
275.772	79.0731
278.665	59.4285
281.558	35.948
284.45	27.5055
287.343	24.8279
290.236	24.8525
293.128	28.9698
296.021	34.6183
298.914	37.3664
301.806	30.0671
304.699	22.2314
307.592	21.2897
310.485	25.1553
313.377	30.0965
316.27	26.1637
319.163	17.4395
322.055	14.7875
324.948	13.9924
327.841	14.1951
330.733	11.1497
333.626	5.37054
336.519	0.46574
339.411	1.82257
342.304	1.02868
345.197	0.638571
348.09	0.816021
350.982	2.13999
353.875	2.99378
356.768	3.64779
359.66	5.52674
362.553	8.44237
365.446	12.3399
368.339	13.6476
371.231	8.86772
374.124	4.07641
377.017	1.0726
379.909	0.635361
382.802	0.076866
385.695	1.69452
388.587	3.40388
391.48	1.92946
394.373	0.564068
397.265	1.95901
400.158	0.871279
403.051	1.16535
405.944	7.16911
408.836	14.7034
411.729	23.6674
414.622	36.7474
417.514	56.9304
420.407	84.5217
423.3	111.779
426.192	110.709
429.085	82.1731
431.978	68.0456
434.871	70.0204
437.763	81.2012
440.656	99.2202
443.549	125.756
446.441	163.547
449.334	208.078
452.227	240.342
455.12	250.233
458.012	205.728
460.905	130.41
463.798	73.4767
466.69	41.7119
469.583	24.987
472.476	15.4586
475.368	10.103
478.261	6.55026
481.154	6.41113
484.046	6.50038
486.939	7.29124
489.832	9.93698
492.725	14.0434
495.617	18.8136
498.51	23.7937
501.403	23.8083
504.295	21.5825
507.188	19.6437
510.081	16.9402
512.973	13.2606
515.866	9.50114
518.759	8.80159
521.652	8.82658
524.544	6.25143
527.437	1.68788
530.33	1.07272
533.222	1.82354
536.115	1.59968
539.008	0.805946
541.9	0.969007
544.793	4.40365
547.686	9.43706
550.579	17.3255
553.471	24.5151
556.364	35.8166
559.257	53.0089
562.149	80.2866
565.042	101.657
567.935	71.3204
570.827	36.0119
573.72	24.2197
576.613	22.0529
579.506	23.2377
582.398	28.3594
585.291	34.1731
588.184	38.088
591.076	41.14
593.969	46.8464
596.862	55.1924
599.755	55.6752
602.647	46.6603
605.54	37.2094
608.433	32.3674
611.325	29.7349
614.218	25.3644
617.111	17.3587
620.003	10.1621
622.896	6.02289
625.789	4.0618
628.682	2.3646
631.574	1.39906
634.467	0.278487
637.36	0.025333
640.252	0.314476
643.145	0.09539
646.038	0.016108
648.93	0.212741
651.823	0.288643
654.716	0.060511
657.609	0.252644
660.501	0.768233
663.394	1.39743
666.287	2.20669
669.179	3.44728
672.072	4.51709
674.965	6.0699
677.857	9.01113
680.75	12.1181
683.643	15.6151
686.535	20.2539
689.428	21.3179
692.321	18.2803
695.214	13.0698
698.106	8.88737
700.999	5.12821
703.892	4.1319
706.784	2.43712
709.677	1.47197
712.57	0.81891
715.462	0.619506
718.355	0.894771
721.248	0.35487
724.141	0.351707
727.033	0.592434
729.926	0.265019
732.819	0.252469
735.711	0.703572
738.604	0.72806
741.497	0.600985
744.389	0.697195
747.282	0.981473
750.175	0.66194
753.068	0.780733
755.96	1.00301
758.853	0.853773
761.746	0.589606
764.638	0.595094
767.531	0.772739
770.424	0.134604
773.317	0.305946
776.209	0.408318
779.102	0.31392
781.995	0.224505
784.887	0.030786
787.78	0.096741
790.673	0.274618
793.565	0.497368
796.458	0.181798
799.351	0.064425
802.244	0.168754
805.136	0.186136
808.029	0.135036
810.922	0.097945
813.814	0.975065
816.707	0.72986
819.6	1.93852
822.492	3.41776
825.385	4.05811
828.278	5.75409
831.17	6.07131
834.063	5.53475
836.956	4.92487
839.849	3.99002
842.741	4.6024
845.634	5.41714
848.527	7.45959
851.419	8.93207
854.312	11.982
857.205	15.4888
860.097	20.3316
862.99	23.7599
865.883	27.406
868.776	29.3417
871.668	31.4327
874.561	34.3839
877.454	38.5454
880.346	44.4022
883.239	52.4469
886.132	57.599
889.024	51.6138
891.917	39.8028
894.81	31.6284
897.703	27.6685
900.595	28.4642
903.488	30.966
906.381	38.0322
909.273	43.8598
912.166	52.1373
915.059	54.324
917.952	48.9987
920.844	37.1507
923.737	24.1948
926.63	14.5482
929.522	7.75892
932.415	3.69443
935.308	1.76471
938.2	0.085417
941.093	1.35035
943.986	0.760633
946.879	0.417526
949.771	0.69828
952.664	1.6445
955.557	3.52281
958.449	5.24723
961.342	6.65621
964.235	9.01783
967.127	13.7627
970.02	19.1793
972.913	28.509
975.806	39.7263
978.698	48.5566
981.591	45.4593
984.484	32.0055
987.376	19.006
990.269	10.4457
993.162	5.62569
996.054	2.99262
998.947	1.21842
1001.84	0.034763
1004.73	0.870714
1007.62	0.567965
1010.52	0.179018
1013.41	2.13443
1016.3	4.05148
1019.2	4.72633
1022.09	4.6398
1024.98	6.18366
1027.87	8.03212
1030.77	11.9277
1033.66	16.4328
1036.55	22.6711
1039.44	26.5136
1042.34	27.2402
1045.23	23.9911
1048.12	20.3323
1051.02	18.1495
1053.91	18.4847
1056.8	20.3522
1059.69	26.0996
1062.59	27.1643
1065.48	24.4933
1068.37	20.4412
1071.27	20.1022
1074.16	23.611
1077.05	28.2636
1079.94	36.4266
1082.84	47.5652
1085.73	53.879
1088.62	41.6859
1091.51	23.0807
1094.41	11.6822
1097.3	6.70414
1100.19	4.02966
1103.08	2.94007
1105.98	1.99339
1108.87	1.49917
1111.76	0.906634
1114.65	0.4055
1117.55	0.334894
1120.44	0.29272
1123.33	0.052781
1126.23	0.036584
1129.12	0.194747
1132.01	0.39672
1134.9	0.069263
1137.8	0.345572
1140.69	0.042212
1143.58	0.252102
1146.47	0.104378
1149.37	0.699135
1152.26	0.490457
1155.15	0.005584
1158.05	0.006483
1160.94	0.15024
1163.83	0.416461
1166.72	0.796502
1169.62	0.204064
1172.51	1.03567
1175.4	0.804863
1178.3	0.749741
1181.19	0.689749
1184.08	0.749673
1186.97	0.702178
1189.87	0.478024
1192.76	0.412034
1195.65	0.367342
1198.54	0.171207
1201.44	0.727208
1204.33	0.784082
1207.22	1.00366
1210.11	0.761777
1213.01	0.388246
1215.9	0.188364
1218.79	0.686059
1221.68	0.769628
1224.58	0.599616
1227.47	0.671836
1230.36	0.477633
1233.26	0.718232
1236.15	0.371118
1239.04	1.07364
1241.93	0.232064
1244.83	0.567514
1247.72	0.029881
1250.61	0.768964
1253.51	0.345559
1256.4	0.625084
1259.29	0.56981
1262.18	0.204181
1265.08	0.007257
1267.97	0.753263
1270.86	0.962916
1273.75	0.766644
1276.65	0.097377
1279.54	0.630133
1282.43	0.007014
1285.32	0
