Measurement: Raman, 532 nm, unoriented, Raman Data Processed
Mineral: Epidote
Rruff sample: R050064
Ideal chemistry: Ca_2_Fe^3+^Al_2_(Si_2_O_7_)(SiO_4_)O(OH)
Locality: East Xichang City, Meigu County, Sichuan Province, China
Source: Rock Currier
Description: Green prismatic crystals
Measured chemistry: (Ca_1.99_Mn_0.01_)_Î£=2_Fe^3+^_1.00_Al_2.00_(Si_2.00_O_7_)(Si_1.00_O_4_)O(OH);
Raman shift (cm-1)	intensity
139.055	0
142.43	1.25018
145.805	62.92
149.18	102.578
152.554	204.353
155.929	419.272
159.304	731.475
162.679	1147.52
166.054	1528.5
169.429	1621.18
172.803	1673.19
176.178	1311.11
179.553	690.147
182.928	391.197
186.303	305.369
189.678	208.353
193.052	65.6219
196.427	75.8464
199.802	136.038
203.177	122.995
206.552	-4.39732
209.926	-1.9212
213.301	2.07072
216.676	9.03266
220.051	121.293
223.426	393.08
226.8	781.729
230.175	1154.67
233.55	1184.7
236.925	1362.78
240.3	1746.67
243.675	1461.58
247.049	703.43
250.424	331.238
253.799	296.623
257.174	224.438
260.549	75.468
263.923	64.8892
267.298	186.693
270.673	402.806
274.048	792.013
277.423	761.957
280.798	551.503
284.173	512.316
287.547	434.539
290.922	556.194
294.297	557.727
297.672	351.735
301.046	143.94
304.421	231.755
307.796	640.532
311.171	1287.56
314.546	1560.84
317.921	1275.9
321.295	1337.38
324.67	1869.66
328.045	2281.61
331.42	2049.61
334.795	1455.92
338.17	1172.61
341.544	1463.22
344.919	2211.28
348.294	2861.58
351.669	2371.66
355.044	1493.1
358.418	1145.6
361.793	1266.2
365.168	1490.53
368.543	1288.02
371.918	636.399
375.293	132.816
378.667	38.8275
382.042	9.09265
385.417	171.148
388.792	374.832
392.167	315.917
395.541	59.5549
398.916	8.40478
402.291	19.6654
405.666	13.6792
409.041	194.839
412.416	486.692
415.79	711.972
419.165	830.907
422.54	1347.96
425.915	1772.55
429.29	2242.55
432.664	3249.6
436.039	3582.07
439.414	2862.46
442.789	2974.52
446.164	3824.86
449.538	4679.54
452.913	4497.46
456.288	3803.94
459.663	2329.93
463.038	1175.26
466.413	559.089
469.787	242.945
473.162	96.7434
476.537	48.3449
479.912	75.1803
483.287	179.188
486.661	342.644
490.036	606.325
493.411	1003.69
496.786	1501.11
500.161	1571.62
503.536	1327.72
506.911	1207.5
510.285	1003.77
513.66	512.881
517.035	242.197
520.41	205.06
523.784	125.833
527.159	24.8888
530.534	26.3499
533.909	30.4989
537.284	47.1504
540.659	1.35706
544.033	48.4412
547.408	137.076
550.783	318.413
554.158	613.521
557.533	1111.81
560.908	1806.7
564.282	2426.16
567.657	1612.5
571.032	813.803
574.407	703.637
577.782	894.964
581.156	1233.64
584.531	1794.58
587.906	2211.13
591.281	2725.23
594.656	3292.44
598.031	3590.73
601.405	3188.22
604.78	2917.16
608.155	3081.46
611.53	3101.32
614.905	2181.1
618.279	1235.62
621.654	704.278
625.029	390.425
628.404	222.678
631.779	150.118
635.154	101.164
638.528	58.6738
641.903	29.5599
645.278	12.9435
648.653	5.5274
652.028	15.4282
655.403	7.51111
658.777	11.2817
662.152	4.59283
665.527	6.6478
668.902	24.461
672.277	62.4274
675.651	79.8835
679.026	134.492
682.401	169.777
685.776	206.264
689.151	203.059
692.525	131.22
695.9	99.3488
699.275	66.2573
702.65	63.9527
706.025	47.4359
709.399	24.4623
712.774	28.9885
716.149	12.1208
719.524	12.01
722.899	8.53754
726.274	26.408
729.648	18.8357
733.023	16.0196
736.398	31.3189
739.773	36.8932
743.148	56.5721
746.523	61.4317
749.897	51.0779
753.272	67.355
756.647	63.6386
760.022	57.1956
763.397	45.0757
766.771	41.6982
770.146	38.4182
773.521	35.1429
776.896	24.4211
780.271	22.5639
783.646	25.2078
787.02	8.96133
790.395	15.2883
793.77	6.16174
797.145	18.0114
800.52	18.2323
803.894	24.9773
807.269	24.5554
810.644	18.0815
814.019	4.56079
817.394	40.437
820.769	73.1592
824.143	135.528
827.518	177.299
830.893	221.876
834.268	258.548
837.643	315.721
841.018	418.836
844.392	618.64
847.767	893.671
851.142	1326.02
854.517	2014.24
857.891	2914.89
861.266	3787.16
864.641	4154.33
868.016	4165.15
871.391	4845.9
874.766	6737.6
878.14	9739.76
881.515	13020.6
884.89	14986.6
888.265	12995.5
891.64	8811.95
895.015	5656.43
898.389	4022.78
901.764	3437.27
905.139	3415.71
908.514	3992.33
911.889	4492.37
915.264	4631.57
918.638	3712.04
922.013	2474.1
925.388	1522.65
928.763	937.8
932.138	568.254
935.512	328.333
938.887	188.854
942.262	114.273
945.637	21.1903
949.012	5.66333
952.386	7.96455
955.761	17.9896
959.136	10.7678
962.511	26.4836
965.886	20.3283
969.261	70.0928
972.635	180.913
976.01	317.576
979.385	344.835
982.76	249.496
986.135	105.035
989.51	47.9992
992.884	3.78143
996.259	17.5707
999.634	57.7541
1003.01	165.094
1006.38	371.21
1009.76	777.328
1013.13	1323.89
1016.51	1883.24
1019.88	1776.75
1023.26	1115.78
1026.63	569.22
1030.01	312.294
1033.38	228.833
1036.76	180.328
1040.13	147.43
1043.51	109.226
1046.88	64.8652
1050.26	13.6148
1053.63	6.65839
1057.01	13.5037
1060.38	13.4611
1063.76	27.9811
1067.13	15.7069
1070.51	70.5478
1073.88	193.812
1077.26	408.601
1080.63	681.229
1084	960.957
1087.38	774.149
1090.75	391.589
1094.13	183.551
1097.5	81.3617
1100.88	35.5441
1104.25	5.51382
1107.63	8.92413
1111	2.84338
1114.38	2.728
1117.75	7.09219
1121.13	6.29462
1124.5	0.289276
1127.88	7.71027
1131.25	8.83377
1134.63	17.3285
1138	12.9289
1141.38	9.38452
1144.75	3.98163
1148.13	0.11499
1151.5	11.7761
1154.88	16.2134
1158.25	20.8054
1161.62	14.1187
1165	18.5167
1168.38	18.5662
1171.75	32.3607
1175.12	27.9531
1178.5	21.5836
1181.87	25.6655
1185.25	30.8268
1188.62	22.6196
1192	41.067
1195.37	25.1442
1198.75	44.0085
1202.12	31.7203
1205.5	16.1383
1208.87	33.3341
1212.25	15.6691
1215.62	32.6794
1219	18.0648
1222.37	8.03361
1225.75	26.532
1229.12	7.92233
1232.5	10.5283
1235.87	23.6315
1239.25	21.0175
1242.62	15.1497
1246	8.15216
1249.37	9.71913
1252.74	22.447
1256.12	3.41066
1259.49	2.52081
1262.87	10.4824
1266.24	17.7837
1269.62	2.47371
1272.99	15.8743
1276.37	7.13187
1279.74	8.72288
1283.12	15.1889
1286.49	7.43967
1289.87	11.5707
1293.24	4.49455
1296.62	3.76286
