Measurement: Raman, 780 nm, unoriented, Raman Data Processed
Mineral: Epidote
Rruff sample: R050202
Ideal chemistry: Ca_2_Fe^3+^Al_2_(Si_2_O_7_)(SiO_4_)O(OH)
Locality: Iron Cap mine, Landsman Camp, Graham County, Arizona, USA
Source: Bob Downs
Description: Green colored prismatic single crystal associated with quartz, diopside and tremolite
Measured chemistry: Ca_2.00_Al_2.00_(Fe^3+^_0.68_Al_0.32_)(SiO_4_)(Si_2_O_7_)O(OH)
Raman shift (cm-1)	intensity
169.622	0
172.515	20.3355
175.408	26.4044
178.3	14.0331
181.193	4.56909
184.086	13.2219
186.978	9.68835
189.871	0.376709
192.764	3.85583
195.657	3.17004
198.549	15.4244
201.442	36.3676
204.335	68.0322
207.227	103.682
210.12	116.741
213.013	123.36
215.905	138.038
218.798	156.531
221.691	192.876
224.584	242.051
227.476	300.147
230.369	344.351
233.262	355.511
236.154	326.117
239.047	302.623
241.94	306.696
244.833	337.579
247.725	354.556
250.618	356.774
253.511	344.534
256.403	315.463
259.296	264.194
262.189	185.556
265.081	121.202
267.974	76.7741
270.867	65.4653
273.76	72.4535
276.652	61.6592
279.545	22.5433
282.438	2.18677
285.33	0.973511
288.223	7.52032
291.116	11.5067
294.008	3.32873
296.901	3.3548
299.794	26.5727
302.687	60.6083
305.579	82.3401
308.472	106.345
311.365	116.487
314.257	123.805
317.15	134.596
320.043	136.07
322.935	137.182
325.828	160.418
328.721	201.006
331.613	252.418
334.506	285.188
337.399	300.318
340.292	308.926
343.184	330.582
346.077	363.959
348.97	385.095
351.862	351.918
354.755	264.675
357.648	183.154
360.541	123.74
363.433	94.9242
366.326	74.7526
369.219	60.2402
372.111	46.3577
375.004	32.8994
377.897	19.7042
380.789	8.43628
383.682	0.030823
386.575	5.05511
389.467	11.8897
392.36	13.4767
395.253	1.37164
398.146	13.132
401.038	14.6273
403.931	2.60821
406.824	22.2473
409.716	46.8773
412.609	85.392
415.502	138.002
418.394	203.898
421.287	272.847
424.18	344.515
427.072	375.628
429.965	378.548
432.858	392.665
435.751	410.03
438.643	425.324
441.536	432.782
444.429	438.601
447.321	451.834
450.214	484.134
453.107	503.625
456	514.481
458.892	520.798
461.785	519.601
464.678	515.594
467.57	485.913
470.463	413.478
473.356	290.071
476.248	175.64
479.141	86.647
482.034	38.7613
484.926	17.1936
487.819	4.71594
490.712	6.09314
493.605	14.7672
496.497	18.0658
499.39	37.3356
502.283	47.6259
505.175	59.3619
508.068	59.809
510.961	49.3514
513.854	29.0149
516.746	3.93597
519.639	8.48615
522.532	11.9891
525.424	10.9059
528.317	5.14593
531.21	3.5343
534.102	19.5153
536.995	34.6533
539.888	46.6169
542.78	55.0268
545.673	64.8225
548.566	72.5928
551.459	92.7136
554.351	100.199
557.244	101.156
560.137	120.189
563.029	155.013
565.922	206.232
568.815	183.638
571.707	81.3068
574.6	34.593
577.493	49.0275
580.386	96.0382
583.278	175.67
586.171	263.16
589.064	361.38
591.956	454.432
594.849	547.011
597.742	631.339
600.635	688.88
603.527	687.503
606.42	634.037
609.313	568.115
612.205	503.434
615.098	441.956
617.991	370.263
620.883	307.42
623.776	250.228
626.669	204.897
629.562	157.055
632.454	126.416
635.347	93.4371
638.24	69.6753
641.132	53.9411
644.025	35.8292
646.918	32.0528
649.81	13.2025
652.703	21.2628
655.596	9.15137
658.489	5.98968
661.381	4.42352
664.274	12.5195
667.167	3.73236
670.059	11.2978
672.952	14.3249
675.845	18.7173
678.737	25.3267
681.63	19.4661
684.523	24.1171
687.415	35.7816
690.308	32.7343
693.201	25.8562
696.094	18.7955
698.986	10.2387
701.879	2.46826
704.772	3.23087
707.664	5.01245
710.557	3.23868
713.45	5.05142
716.342	2.81012
719.235	2.35849
722.128	0.570953
725.021	2.42248
727.913	3.69568
730.806	2.59644
733.699	6.75577
736.591	10.4984
739.484	12.7974
742.377	16.1548
745.269	18.2196
748.162	20.9537
751.055	27.0301
753.947	33.2682
756.84	35.87
759.733	43.1184
762.626	44.8575
765.518	47.0528
768.411	45.9986
771.304	40.6544
774.196	31.5988
777.089	23.257
779.982	10.9792
782.875	9.01929
785.767	6.84979
788.66	3.996
791.553	0.494568
794.445	0.683563
797.338	1.86963
800.231	0.423065
803.123	0.644501
806.016	0.280182
808.909	0.151154
811.802	2.91385
814.694	3.91733
817.587	4.70154
820.48	4.98914
823.372	6.71155
826.265	8.18124
829.158	7.26486
832.05	7.44843
834.943	3.65497
837.836	3.49252
840.729	1.40622
843.621	2.19461
846.514	1.06039
849.407	3.9592
852.299	6.77951
855.192	10.45
858.085	14.4154
860.977	20.7096
863.87	30.4488
866.763	39.6002
869.655	50.1065
872.548	61.8356
875.441	75.6599
878.334	92.0136
881.226	103.005
884.119	113.741
887.012	118.469
889.904	134.256
892.797	153.867
895.69	182.392
898.582	225.792
901.475	282.81
904.368	361.396
907.261	420.48
910.153	475.171
913.046	507.341
915.939	499.827
918.831	446.036
921.724	352.175
924.617	253.418
927.51	178.798
930.402	115.892
933.295	71.1606
936.188	41.0144
939.08	18.6581
941.973	10.7944
944.866	7.10346
947.758	10.4583
950.651	12.3998
953.544	16.8148
956.437	20.1416
959.329	19.0062
962.222	18.9434
965.115	21.0679
968.007	25.9938
970.9	36.828
973.793	50.4763
976.685	63.8003
979.578	72.3989
982.471	72.0189
985.364	51.8082
988.256	27.6977
991.149	13.3498
994.042	3.66006
996.934	0.657684
999.827	3.44452
1002.72	4.54602
1005.61	4.55942
1008.5	3.89026
1011.4	1.06979
1014.29	3.00903
1017.18	6.08542
1020.08	8.53247
1022.97	11.3408
1025.86	14.3445
1028.75	17.5308
1031.65	19.9468
1034.54	22.6899
1037.43	30.3989
1040.33	34.6284
1043.22	38.5613
1046.11	36.3068
1049	36.869
1051.9	37.3393
1054.79	30.3692
1057.68	29.9556
1060.57	28.2223
1063.47	24.9702
1066.36	21.2154
1069.25	26.5554
1072.14	35.7294
1075.04	52.8404
1077.93	75.9218
1080.82	88.5727
1083.71	104.363
1086.61	113.776
1089.5	106.368
1092.39	73.0516
1095.29	42.2889
1098.18	23.6273
1101.07	12.8321
1103.96	9.70171
1106.86	7.61859
1109.75	5.52351
1112.64	3.47824
1115.54	3.79417
1118.43	2.21042
1121.32	1.21457
1124.21	3.55403
1127.11	0.607407
1130	0.651062
1132.89	2.00194
1135.78	0.341797
1138.68	0.2005
1141.57	1.53134
1144.46	1.01318
1147.36	0.144409
1150.25	0.291412
1153.14	1.41736
1156.03	1.41136
1158.92	1.30177
1161.82	1.22362
1164.71	6.71544
1167.6	1.16617
1170.5	3.46629
1173.39	2.18771
1176.28	4.05865
1179.17	2.43892
1182.07	3.79071
1184.96	2.97029
1187.85	3.24921
1190.74	3.78337
1193.64	3.91603
1196.53	3.04143
1199.42	4.03633
1202.32	3.85895
1205.21	5.45786
1208.1	3.3802
1210.99	3.00758
1213.89	4.08684
1216.78	4.90378
1219.67	1.14998
1222.57	1.70627
1225.46	1.92731
1228.35	2.34138
1231.24	1.16008
1234.13	2.87224
1237.03	1.61281
1239.92	2.57581
1242.81	0.47113
1245.71	2.02982
1248.6	2.46445
1251.49	2.68626
1254.38	3.40474
1257.28	3.32921
1260.17	0.149796
1263.06	3.4819
1265.95	2.59177
1268.85	1.66925
1271.74	0.941513
1274.63	0.640625
1277.53	0.600555
1280.42	1.07156
1283.31	2.77425
1286.2	0
