Measurement: Raman, 780 nm, unoriented, Raman Data Processed
Mineral: Epidote
Rruff sample: R110127
Ideal chemistry: Ca_2_Fe^3+^Al_2_(Si_2_O_7_)(SiO_4_)O(OH)
Locality: Alchori, Pakistan
Source: Jack Lowell
Description: Pale brown transparent prismatic crystals associated with green diopside, R110128
Raman shift (cm-1)	intensity
92.5678	0
95.9426	87.3617
99.3174	28.8643
102.692	7.12195
106.067	26.7374
109.442	9.72168
112.817	4.00391
116.192	0.767578
119.566	1.09607
122.941	22.6688
126.316	32.4804
129.691	57.0011
133.066	81.7434
136.44	116.639
139.815	151.173
143.19	148.139
146.565	133.117
149.94	128.234
153.315	126.819
156.689	131.014
160.064	152.588
163.439	179.164
166.814	192.075
170.189	167.143
173.563	123.56
176.938	86.1174
180.313	50.9641
183.688	33.7074
187.063	22.7654
190.437	12.8348
193.812	5.12488
197.187	0.768188
200.562	1.97852
203.937	3.09753
207.311	0.617554
210.686	0.05896
214.061	6.20703
217.436	4.17676
220.811	4.3335
224.186	16.9509
227.56	33.142
230.935	53.1096
234.31	85.6007
237.685	122.613
241.06	150.498
244.435	195.777
247.809	251.217
251.184	313.331
254.559	332.738
257.934	283.646
261.309	215.467
264.683	154.154
268.058	126.792
271.433	106.261
274.808	93.3496
278.183	73.7554
281.558	55.5983
284.932	41.0017
288.307	34.1977
291.682	25.8595
295.057	17.2284
298.432	18.6412
301.806	15.2869
305.181	0.846313
308.556	1.61548
311.931	2.25134
315.306	8.04346
318.68	13.2205
322.055	26.436
325.43	42.304
328.805	66.3798
332.18	88.0312
335.555	126.558
338.929	150.858
342.304	170.532
345.679	199.32
349.054	252.646
352.429	277.166
355.803	224.291
359.178	134.126
362.553	74.2013
365.928	37.069
369.303	24.4446
372.678	14.4087
376.052	5.47986
379.427	2.05383
382.802	1.01489
386.177	12.0814
389.552	17.2045
392.926	9.38843
396.301	7.98022
399.676	0.712402
403.051	3.5719
406.426	4.47839
409.8	4.92822
413.175	2.73602
416.55	9.97125
419.925	23.7007
423.3	42.4581
426.675	68.6107
430.049	81.9674
433.424	101.385
436.799	121.757
440.174	157.283
443.549	220.91
446.923	299.412
450.298	379.942
453.673	402.705
457.048	329.627
460.423	238.435
463.798	178.498
467.172	143.13
470.547	128.847
473.922	129.584
477.297	117.941
480.672	124.418
484.046	120.819
487.421	107.105
490.796	83.9112
494.171	63.3657
497.546	53.2908
500.921	46.4703
504.295	61.188
507.67	73.76
511.045	81.2657
514.42	88.1098
517.795	94.0287
521.169	93.5754
524.544	85.1003
527.919	80.8446
531.294	69.9613
534.669	38.9943
538.044	11.2543
541.418	0.721069
544.793	6.78388
548.168	2.02325
551.543	0.380127
554.918	15.7028
558.293	36.5868
561.667	60.8587
565.042	92.0371
568.417	145.087
571.792	193.813
575.167	143.499
578.541	56.6064
581.916	28.2634
585.291	19.5176
588.666	22.3023
592.041	27.8981
595.415	35.087
598.79	44.5714
602.165	48.4199
605.54	52.5465
608.915	39.8361
612.29	28.0008
615.664	17.9246
619.039	11.3523
622.414	4.80896
625.789	1.11823
629.164	0.052063
632.538	0.940063
635.913	0.605652
639.288	1.0199
642.663	0.05127
646.038	7.25494
649.413	8.3147
652.787	12.388
656.162	13.5947
659.537	14.0012
662.912	15.2601
666.287	9.48633
669.661	10.9628
673.036	15.4971
676.411	14.2916
679.786	16.795
683.161	20.7175
686.535	21.4477
689.91	24.4905
693.285	19.6995
696.66	21.2883
700.035	21.0331
703.41	17.7371
706.784	14.0249
710.159	11.7311
713.534	4.99017
716.909	0.027893
720.284	2.69995
723.659	1.48144
727.033	1.14117
730.408	4.27899
733.783	2.13226
737.158	1.2774
740.533	1.74591
743.907	3.98694
747.282	1.88751
750.657	2.26587
754.032	0.837158
757.407	0.604614
760.782	0.436829
764.156	0.195801
767.531	3.11981
770.906	1.45142
774.281	1.06403
777.656	0.143311
781.03	0.449951
784.405	4.45807
787.78	0.94751
791.155	0.517639
794.53	0.96637
797.904	0.387695
801.279	1.50677
804.654	2.60803
808.029	3.42902
811.404	3.466
814.779	1.07318
818.153	2.19
821.528	3.47546
824.903	5.92456
828.278	7.37921
831.653	7.95477
835.028	6.35852
838.402	11.6951
841.777	9.2052
845.152	13.6484
848.527	14.2565
851.902	23.7455
855.276	29.1419
858.651	41.3043
862.026	52.2521
865.401	66.2545
868.776	86.6613
872.15	113.427
875.525	124.056
878.9	133.842
882.275	139.574
885.65	125.407
889.024	101.854
892.399	91.3384
895.774	79.613
899.149	73.4458
902.524	61.91
905.899	59.2092
909.273	64.0168
912.648	61.7221
916.023	58.1907
919.398	47.4011
922.773	29.5872
926.148	24.8082
929.522	16.4191
932.897	16.2048
936.272	7.81653
939.647	4.41235
943.022	1.29224
946.396	2.19965
949.771	3.01227
953.146	0.72998
956.521	0.558594
959.896	2.50812
963.27	2.30914
966.645	5.72113
970.02	8.65448
973.395	11.6716
976.77	20.4355
980.145	31.9767
983.519	47.4938
986.894	45.5994
990.269	35.6065
993.644	20.5414
997.019	10.5912
1000.39	7.11511
1003.77	2.59839
1007.14	1.6358
1010.52	2.78851
1013.89	0.283325
1017.27	3.45703
1020.64	4.39276
1024.02	5.45789
1027.39	8.07739
1030.77	10.332
1034.14	8.81036
1037.52	9.48651
1040.89	9.48181
1044.27	9.7544
1047.64	11.331
1051.02	6.65405
1054.39	9.1087
1057.77	11.4893
1061.14	11.311
1064.52	10.1492
1067.89	11.6503
1071.27	14.465
1074.64	13.6423
1078.01	16.1377
1081.39	25.2144
1084.76	34.726
1088.14	44.2854
1091.51	54.8319
1094.89	58.1484
1098.26	36.6363
1101.64	16.5209
1105.01	12.1826
1108.39	5.47736
1111.76	7.42035
1115.14	1.09174
1118.51	0.452148
1121.89	3.41266
1125.26	0.414795
1128.64	3.70758
1132.01	2.15222
1135.39	0.360901
1138.76	1.62958
1142.14	0.74469
1145.51	0.645264
1148.88	1.59161
1152.26	1.70825
1155.63	1.15332
1159.01	3.5257
1162.38	3.53485
1165.76	3.87415
1169.13	3.84705
1172.51	2.88727
1175.88	3.49457
1179.26	3.47424
1182.63	3.88379
1186.01	4.21472
1189.38	1.86951
1192.76	4.69641
1196.13	4.66962
1199.51	5.89947
1202.88	2.4884
1206.26	5.04535
1209.63	2.04907
1213.01	3.1311
1216.38	1.95013
1219.76	0.378601
1223.13	1.59699
1226.51	5.57666
1229.88	1.85632
1233.26	3.87512
1236.63	1.11951
1240.01	0.162537
1243.38	0.118042
1246.76	3.00214
1250.13	0.75946
1253.51	2.2948
1256.88	2.87769
1260.25	6.73895
1263.63	3.51874
1267	5.59985
1270.38	1.78729
1273.75	5.39239
1277.13	2.09265
1280.5	0.623474
1283.88	2.34485
