Measurement: Raman, 532 nm, unoriented, Raman Data Processed
Mineral: Epidote
Rruff sample: R050131
Ideal chemistry: Ca_2_Fe^3+^Al_2_(Si_2_O_7_)(SiO_4_)O(OH)
Locality: Calumet mine, Chaffee County, Colorado, USA
Source: Dave Bunk Minerals
Description: Green prismatic crystal
Measured chemistry: Ca_2.00_Al_2.00_(Fe^3+^_0.75_Al_0.25_)(SiO_4_)(Si_2_O_7_)O(OH)
Raman shift (cm-1)	intensity
109.795	0
113.169	3.92195
116.544	49.1345
119.919	104.883
123.294	168.106
126.669	248.614
130.043	414.48
133.418	590.643
136.793	521.393
140.168	297.221
143.543	167.483
146.918	152.542
150.292	145.201
153.667	135.192
157.042	183.95
160.417	243.095
163.792	328.817
167.167	377.9
170.541	321.425
173.916	250.408
177.291	167.228
180.666	93.791
184.041	63.2176
187.415	68.4924
190.79	59.786
194.165	0.543457
197.54	26.4865
200.915	17.2679
204.29	4.71234
207.664	14.7303
211.039	38.7621
214.414	83.3407
217.789	138.696
221.163	206.993
224.538	282.682
227.913	373.11
231.288	444.3
234.663	449.293
238.038	463.549
241.412	544.993
244.787	662.893
248.162	677.127
251.537	525.491
254.912	366.433
258.286	270.978
261.661	195.072
265.036	137.03
268.411	122.853
271.786	120.32
275.161	126.473
278.535	103.801
281.91	83.3641
285.285	87.1364
288.66	105.188
292.035	140.726
295.409	171.751
298.784	131.453
302.159	27.9618
305.534	13.8633
308.909	7.23416
312.284	29.7741
315.658	75.2804
319.033	121.043
322.408	164.509
325.783	216.293
329.158	270.725
332.533	314.286
335.907	361.207
339.282	386.968
342.657	420.509
346.032	527.809
349.407	625.758
352.781	557.349
356.156	331.743
359.531	166.527
362.906	87.3645
366.281	53.8234
369.656	30.41
373.03	3.67029
376.405	10.7481
379.78	9.90585
383.155	10.7871
386.529	45.4381
389.904	79.2709
393.279	82.1588
396.654	38.7764
400.029	0.676117
403.404	15.6288
406.778	3.875
410.153	37.5802
413.528	106.684
416.903	191.98
420.278	308.82
423.652	456.087
427.027	579.665
430.402	620.475
433.777	677.474
437.152	749.583
440.527	789.948
443.901	842.567
447.276	966.603
450.651	1054.57
454.026	866.775
457.401	636.507
460.776	474.81
464.15	342.843
467.525	230.163
470.9	151.334
474.275	102.638
477.65	73.0966
481.024	76.8284
484.399	101.709
487.774	140.051
491.149	193.631
494.524	250.873
497.899	324.511
501.273	407.808
504.648	476.027
508.023	507.825
511.398	469.861
514.773	346.352
518.147	200.367
521.522	117.117
524.897	73.393
528.272	36.0939
531.647	5.25987
535.021	18.1948
538.396	16.5193
541.771	4.32132
545.146	19.0532
548.521	66.6033
551.895	156.332
555.27	279.588
558.645	407.287
562.02	588.214
565.395	805.075
568.77	853.955
572.144	508.328
575.519	283.474
578.894	249.626
582.269	294.277
585.644	390.285
589.019	516.139
592.393	630.468
595.768	749.99
599.143	860.255
602.518	859.374
605.893	700.939
609.267	534.815
612.642	419.812
616.017	320.641
619.392	213.038
622.767	123.216
626.141	69.6056
629.516	38.4203
632.891	21.1944
636.266	8.93671
639.641	0.375671
643.016	3.08078
646.39	5.00073
649.765	3.35634
653.14	1.59772
656.515	3.44354
659.89	7.19157
663.264	11.337
666.639	16.7437
670.014	19.6903
673.389	27.3235
676.764	32.0738
680.139	40.1812
683.513	47.6894
686.888	51.3625
690.263	50.1263
693.638	45.1079
697.013	38.6738
700.388	35.0505
703.762	29.2554
707.137	21.2001
710.512	12.4361
713.887	9.13821
717.261	4.98759
720.636	4.04959
724.011	1.7849
727.386	0.719223
730.761	1.83842
734.136	2.02074
737.51	6.29846
740.885	9.53336
744.26	14.5599
747.635	17.7458
751.01	21.8398
754.385	28.8359
757.759	35.5402
761.134	44.122
764.509	55.1546
767.884	64.2823
771.259	61.7214
774.633	47.2833
778.008	29.5247
781.383	17.2423
784.758	6.57318
788.133	2.29557
791.507	1.378
794.882	4.59225
798.257	5.24705
801.632	4.50433
805.007	4.90977
808.381	1.93666
811.756	1.87946
815.131	4.61177
818.506	9.735
821.881	15.9851
825.256	24.8351
828.63	32.3982
832.005	33.1207
835.38	32.4005
838.755	29.4775
842.13	32.4047
845.505	43.6452
848.879	57.3352
852.254	85.4323
855.629	124.622
859.004	177.098
862.379	240.784
865.753	309.995
869.128	364.71
872.503	406.002
875.878	474.776
879.253	578.78
882.628	677.677
886.002	745.295
889.377	771.997
892.752	701.34
896.127	548.936
899.502	433.58
902.876	408.367
906.251	445.397
909.626	512.649
913.001	568.055
916.376	569.931
919.75	496.713
923.125	362.726
926.5	239.819
929.875	144.979
933.25	79.3312
936.625	35.2039
939.999	8.59712
943.374	2.14313
946.749	4.59433
950.124	1.47987
953.499	9.41032
956.874	13.5183
960.248	14.6696
963.623	10.102
966.998	10.3159
970.373	21.9052
973.747	44.074
977.122	73.9849
980.497	101.852
983.872	98.5101
987.247	60.7429
990.622	25.9605
993.996	6.54073
997.371	2.157
1000.75	7.47265
1004.12	7.97041
1007.5	0.425934
1010.87	13.9687
1014.25	37.7909
1017.62	63.4463
1021	94.1459
1024.37	100.591
1027.74	79.0196
1031.12	61.528
1034.49	60.648
1037.87	65.3438
1041.24	71.8981
1044.62	75.4209
1047.99	71.4646
1051.37	63.0941
1054.74	55.9899
1058.12	50.3562
1061.49	45.8071
1064.87	39.2599
1068.24	42.6109
1071.62	51.4749
1074.99	82.6125
1078.37	130.442
1081.74	183.532
1085.12	237.564
1088.49	266.67
1091.87	224.474
1095.24	130.885
1098.62	63.17
1101.99	30.7845
1105.37	20.1849
1108.74	12.0641
1112.12	7.85769
1115.49	4.87466
1118.87	3.89411
1122.24	1.79904
1125.61	2.72782
1128.99	0.260777
1132.36	0.675919
1135.74	0.13216
1139.11	0.820217
1142.49	0.831715
1145.86	0.043011
1149.24	1.43086
1152.61	0.319019
1155.99	0.246975
1159.36	0.487103
1162.74	0.818001
1166.11	0.715431
1169.49	2.78021
1172.86	2.8605
1176.24	1.034
1179.61	3.86114
1182.99	3.92153
1186.36	4.53509
1189.74	5.03322
1193.11	4.32085
1196.48	5.35316
1199.86	3.8754
1203.23	5.36259
1206.61	5.18529
1209.98	4.41497
1213.36	3.50649
1216.73	3.66393
1220.11	2.53314
1223.48	3.52575
1226.86	2.66273
1230.23	2.67432
1233.61	2.08379
1236.98	2.27207
1240.36	1.6338
1243.73	0.823997
1247.11	0.928398
1250.48	0.714985
1253.86	1.57193
1257.23	3.72383
1260.61	0.310959
1263.98	0.665028
1267.36	1.23809
1270.73	2.21293
1274.11	2.55139
1277.48	2.30665
1280.86	1.4499
1284.23	2.98686
1287.61	1.00916
1290.98	1.38306
1294.36	0.0247
1297.73	1.40956
1301.11	0.074306
1304.48	2.50077
