Measurement: Raman, 780 nm, unoriented, Raman Data Processed
Mineral: Epididymite
Rruff sample: R070580
Ideal chemistry: Na_2_Be_2_Si_6_O_15_H_2_O
Locality: Narsarsuk, Narsaq, Kitaa, Greenland
Source: James Shigley
Description: A translucent to white elongated prism.
Measured chemistry: (Na_1.97_K_0.03_)_Σ=2_Be_2_Si_6.00_O_15_·H_2_O; trace amounts of Al; Be and H_2_O assumed by stoichiometry
Raman shift (cm-1)	intensity
142.049	0
144.942	110.088
147.834	765.947
150.727	1317.66
153.62	958.238
156.512	231.347
159.405	43.4795
162.298	1.08691
165.19	84.8252
168.083	185.998
170.976	131.618
173.869	311.117
176.761	615.865
179.654	1093.34
182.547	1686.44
185.439	2383.8
188.332	3575.27
191.225	4844.14
194.118	6412.82
197.01	6900.41
199.903	6037.39
202.796	4089.43
205.688	2519.31
208.581	1778.66
211.474	1227.67
214.366	830.907
217.259	884.448
220.152	848.819
223.044	1265.52
225.937	1997.91
228.83	3072.22
231.723	4406.92
234.615	6473.06
237.508	9111.62
240.401	10612.5
243.293	9509.27
246.186	7925.04
249.079	7571.51
251.971	7880.18
254.864	8039.03
257.757	8838.42
260.65	9130.52
263.542	9034.05
266.435	8380.92
269.328	6010.5
272.221	3175.23
275.113	1446.63
278.006	557.016
280.899	245.893
283.791	86.5205
286.684	40.1631
289.577	137.195
292.469	160.707
295.362	174.443
298.255	83.5361
301.147	10.8701
304.04	84.3975
306.933	279.72
309.826	534.526
312.718	898.335
315.611	1043.14
318.504	1556.15
321.396	2007.46
324.289	2470.32
327.182	3378.06
330.075	4133.93
332.967	5718.59
335.86	6940.52
338.753	8725.87
341.645	12335.2
344.538	14413.4
347.431	10353.4
350.323	6515.33
353.216	4610.39
356.109	3827.41
359.002	3519.72
361.894	3413.45
364.787	4046.9
367.68	5408.08
370.572	6895.09
373.465	9180.98
376.358	12591.3
379.25	15757.4
382.143	13277.7
385.036	7989.25
387.928	4525.89
390.821	2944.63
393.714	3267.42
396.607	4557.39
399.499	6457.14
402.392	10068
405.285	17876.2
408.177	17879.3
411.07	7442.06
413.963	2237.83
416.856	713.152
419.748	65.2998
422.641	39.3428
425.534	123.046
428.426	166.154
431.319	87.6269
434.212	98.3213
437.104	45.5742
439.997	21.9121
442.89	231.609
445.783	209.403
448.675	140.145
451.568	19.1133
454.461	407.344
457.353	787.194
460.246	926.46
463.139	1297.36
466.031	1307.89
468.924	1613.18
471.817	2598.6
474.709	3883.94
477.602	3017.33
480.495	2573.19
483.388	3339.18
486.28	2732.97
489.173	1313.46
492.066	922.569
494.958	1002.58
497.851	1545.81
500.744	2558.5
503.637	4637.51
506.529	9072.46
509.422	15200.6
512.315	23826.5
515.207	39249.1
518.1	56687.6
520.993	42173.2
523.885	19848.9
526.778	9144.28
529.671	4831.38
532.563	2760.07
535.456	1682.07
538.349	931.736
541.242	681.885
544.134	396.659
547.027	224.783
549.92	126.935
552.812	52.0654
555.705	22.7988
558.598	95.6221
561.49	98.166
564.383	7.53418
567.276	281.636
570.169	758.998
573.061	1595.4
575.954	2821.64
578.847	4752.89
581.74	7594.52
584.632	7054.38
587.525	3479.35
590.418	1423.89
593.31	723.169
596.203	375.202
599.096	173.882
601.988	24.0264
604.881	41.8325
607.774	45.1899
610.667	45.8897
613.559	177.46
616.452	354.762
619.345	547.996
622.237	823.671
625.13	1036.72
628.023	1162.89
630.915	1764.65
633.808	1561.73
636.701	873.713
639.593	514.006
642.486	191.537
645.379	123.406
648.272	27.7031
651.164	0.081543
654.057	60.272
656.95	37.5308
659.842	44.1748
662.735	68.2734
665.628	15.0767
668.52	59.5796
671.413	37.6831
674.306	58.4624
677.199	81.1865
680.091	86.8325
682.984	127.696
685.877	149.348
688.769	115.815
691.662	110.531
694.555	90.8144
697.447	76.2461
700.34	200.307
703.233	151.755
706.126	55.2183
709.018	85.855
711.911	0.507324
714.804	128.299
717.696	85.8335
720.589	66.4053
723.482	35.2065
726.375	12.875
729.267	58.6626
732.16	18.5117
735.053	15.7739
737.945	18.79
740.838	62.7065
743.731	102.23
746.623	130.606
749.516	226.68
752.409	274.709
755.302	371.771
758.194	281.085
761.087	416.039
763.98	389.147
766.872	238.007
769.765	175.138
772.658	164.72
775.55	108.656
778.443	165.634
781.336	210.982
784.229	254.93
787.121	359.974
790.014	402.635
792.907	542.383
795.799	713.752
798.692	526.426
801.585	304.203
804.477	185.393
807.37	125.372
810.263	73.3457
813.156	0.806152
816.048	157.446
818.941	9.77393
821.834	14.5796
824.726	16.4404
827.619	28.9619
830.512	62.8638
833.404	8.21924
836.297	10.2944
839.19	33.4199
842.083	97.9795
844.975	11.1387
847.868	60.3789
850.761	3.27441
853.653	6.4751
856.546	54.167
859.439	64.2119
862.332	81.5386
865.224	141.321
868.117	54.0508
871.01	187.7
873.902	280.022
876.795	169.911
879.688	258.871
882.58	188.208
885.473	125.811
888.366	159.162
891.259	91.4614
894.151	3.5625
897.044	21.3643
899.937	78.4038
902.829	132.504
905.722	37.3574
908.615	31.126
911.507	57.5278
914.4	28.102
917.293	28.355
920.186	65.6157
923.078	79.0742
925.971	59.4844
928.864	161.172
931.756	83.8188
934.649	102.249
937.542	95.6885
940.434	26.6255
943.327	99.7632
946.22	42.1919
949.112	28.4033
952.005	80.7935
954.898	77.3452
957.791	85.9307
960.683	67.8882
963.576	17.707
966.469	14.6079
969.361	0.791016
972.254	55.8638
975.147	5.57275
978.04	18.5967
980.932	50.0542
983.825	52.9702
986.718	38.3613
989.61	48.9399
992.503	58.0073
995.396	147.381
998.288	267.37
1001.18	363.438
1004.07	601.799
1006.97	739.639
1009.86	717.878
1012.75	455.955
1015.64	262.707
1018.54	105.32
1021.43	10.9229
1024.32	61.812
1027.21	5.02441
1030.11	87.625
1033	87.4004
1035.89	258.351
1038.79	268.653
1041.68	478.42
1044.57	623.614
1047.46	727.31
1050.36	740.953
1053.25	601.223
1056.14	534.002
1059.04	476.342
1061.93	505.071
1064.82	476.877
1067.71	424.92
1070.61	331.878
1073.5	237.607
1076.39	51.3823
1079.28	93.4937
1082.18	31.791
1085.07	1.40137
1087.96	102.499
1090.86	0.168945
1093.75	29.416
1096.64	101.367
1099.53	196.384
1102.43	215.58
1105.32	511.964
1108.21	773.298
1111.1	1166.72
1114	1521.51
1116.89	1943.31
1119.78	2441.2
1122.67	3167.88
1125.57	4233.25
1128.46	5747.81
1131.35	7443.46
1134.24	9058.73
1137.14	9393.89
1140.03	8395.31
1142.92	6469.64
1145.82	4559.38
1148.71	2954.44
1151.6	1883.62
1154.49	1316.48
1157.39	905.087
1160.28	655.707
1163.17	446.386
1166.07	284.162
1168.96	320.191
1171.85	195.058
1174.74	230.718
1177.64	59.0884
1180.53	104.149
1183.42	15.3276
1186.31	89.9019
1189.21	71.7773
1192.1	66.4858
1194.99	26.9336
1197.88	49.6875
1200.78	22.7812
1203.67	38.7417
1206.56	26.8726
1209.46	21.2832
1212.35	18.5649
1215.24	55.4126
1218.13	31.605
1221.03	7.15283
1223.92	99.7534
1226.81	58.7007
1229.7	3.23438
1232.6	55.4019
1235.49	89.1543
1238.38	55.7266
1241.28	76.0864
1244.17	74.7754
1247.06	78.3833
1249.95	34.5488
1252.85	114.753
1255.74	100.369
1258.63	113.645
1261.52	41.5752
1264.42	74.0186
1267.31	60.2715
1270.2	17.3535
1273.1	55.1802
1275.99	20.4536
