Measurement: Raman, 532 nm, unoriented, Raman Data Processed
Mineral: Epidote
Rruff sample: R100129
Ideal chemistry: Ca_2_Fe^3+^Al_2_(Si_2_O_7_)(SiO_4_)O(OH)
Locality: Pakistan-Afganistan
Source: William W. Pinch
Description: Dark green cut gemstone
Raman shift (cm-1)	intensity
91.0352	0
94.41	2.10736
97.7848	5.22644
101.16	6.24479
104.534	13.1792
107.909	19.526
111.284	22.9692
114.659	24.464
118.034	26.156
121.409	14.9679
124.783	9.69194
128.158	3.70264
131.533	1.91942
134.908	2.20791
138.283	2.50281
141.657	16.4504
145.032	37.4817
148.407	60.0793
151.782	94.0079
155.157	155.89
158.532	240.564
161.906	331.248
165.281	425.067
168.656	427.948
172.031	339.677
175.406	266.932
178.78	166.846
182.155	99.3943
185.53	71.8597
188.905	57.0806
192.28	44.3764
195.655	38.9856
199.029	48.6199
202.404	55.0981
205.779	37.3092
209.154	4.94875
212.529	9.56784
215.904	11.0053
219.278	1.3259
222.653	22.9499
226.028	66.198
229.403	125.103
232.778	188.81
236.152	256.317
239.527	357.079
242.902	443.666
246.277	369.423
249.652	166.988
253.026	53.8422
256.401	17.1795
259.776	5.95918
263.151	0.133148
266.526	16.3695
269.901	43.7873
273.276	85.8692
276.65	114.074
280.025	86.5507
283.4	76.8863
286.775	93.0196
290.15	130.126
293.524	188.306
296.899	197.054
300.274	132.988
303.649	76.6121
307.024	46.8104
310.399	58.6434
313.773	100.615
317.148	112.881
320.523	92.6465
323.898	120.951
327.273	182.443
330.647	231.988
334.022	248.27
337.397	252.419
340.772	295.584
344.147	421.367
347.522	579.129
350.896	620.808
354.271	433.101
357.646	241.002
361.021	156.43
364.396	127.698
367.77	118.805
371.145	85.2801
374.52	32.8449
377.895	5.84572
381.27	11.9597
384.644	6.52621
388.019	5.80106
391.394	18.5366
394.769	8.44742
398.144	5.41208
401.519	10.6859
404.894	3.06673
408.268	17.6491
411.643	46.962
415.018	87.692
418.393	145.531
421.767	229.685
425.142	316.45
428.517	349.249
431.892	414.203
435.267	549.164
438.642	642.348
442.017	704.169
445.391	869.789
448.766	1141.01
452.141	1263.8
455.516	1193.44
458.891	1005.38
462.265	663.181
465.64	369.743
469.015	208.233
472.39	125.295
475.765	84.7848
479.139	76.0721
482.514	80.6679
485.889	102.891
489.264	128.416
492.639	171.049
496.014	230.792
499.388	296.622
502.763	304.13
506.138	257.689
509.513	206.4
512.888	134.166
516.263	64.8773
519.637	41.2048
523.012	39.7861
526.387	27.1162
529.762	4.81687
533.137	6.82999
536.511	8.31085
539.886	7.57268
543.261	3.31795
546.636	12.6174
550.011	43.8711
553.386	90.708
556.76	151.539
560.135	252.665
563.51	415.38
566.885	488.01
570.26	260.059
573.635	124.194
577.009	103.708
580.384	122.71
583.759	168.907
587.134	227.008
590.509	282.661
593.883	344.861
597.258	421.267
600.633	434.526
604.008	361.422
607.383	299.216
610.758	274.621
614.132	239.832
617.507	160.032
620.882	90.2173
624.257	50.9618
627.632	30.0049
631.006	12.5531
634.381	9.77605
637.756	4.13783
641.131	0.223732
644.506	0.156921
647.881	1.79673
651.255	3.54208
654.63	0.69606
658.005	0.311066
661.38	2.0377
664.755	1.95707
668.13	5.03178
671.504	7.89948
674.879	14.9142
678.254	24.9888
681.629	37.8275
685.004	53.0181
688.378	60.8632
691.753	52.2086
695.128	36.0595
698.503	26.9428
701.878	18.7092
705.253	12.7576
708.627	8.32625
712.002	5.22538
715.377	3.29887
718.752	4.01801
722.127	1.1904
725.501	0.317455
728.876	1.97226
732.251	0.317383
735.626	3.56538
739.001	3.01871
742.375	4.65864
745.75	3.54569
749.125	4.60524
752.5	4.55861
755.875	2.30242
759.25	4.44403
762.625	4.61504
765.999	5.42715
769.374	5.71746
772.749	3.00345
776.124	3.14082
779.499	2.97633
782.873	0.871922
786.248	0.748974
789.623	1.99393
792.998	1.52491
796.373	2.41656
799.747	2.14323
803.122	0.029224
806.497	0.162086
809.872	1.40669
813.247	2.96993
816.621	3.29093
819.996	3.84306
823.371	7.4443
826.746	9.53485
830.121	11.719
833.496	15.567
836.87	21.0549
840.245	28.2273
843.62	36.9808
846.995	56.3
850.37	81.6195
853.745	119.164
857.119	175.828
860.494	244.685
863.869	316.575
867.244	359.921
870.619	387.284
873.994	457.743
877.368	571.255
880.743	711.858
884.118	833.477
887.493	896.579
890.868	769.385
894.242	520.381
897.617	330.119
900.992	241.665
904.367	207.714
907.742	209.86
911.116	225.373
914.491	241.385
917.866	235.647
921.241	182.658
924.616	116.497
927.991	70.1837
931.365	40.9562
934.74	23.171
938.115	11.8234
941.49	3.79035
944.865	0.519485
948.24	1.24197
951.614	5.12192
954.989	2.91321
958.364	0.603394
961.739	0.834465
965.114	5.18204
968.489	17.1988
971.863	37.5699
975.238	63.8139
978.613	91.0846
981.988	98.0632
985.362	61.7776
988.737	29.8066
992.112	10.6986
995.487	2.58881
998.862	1.77136
1002.24	0.016994
1005.61	6.7805
1008.99	19.7418
1012.36	42.2069
1015.74	70.4382
1019.11	98.8759
1022.49	94.6667
1025.86	51.2452
1029.23	21.9272
1032.61	9.52506
1035.98	4.65724
1039.36	2.9285
1042.73	2.44654
1046.11	2.1046
1049.48	0.034954
1052.86	2.48391
1056.23	4.85632
1059.61	11.4012
1062.98	16.4956
1066.36	14.1375
1069.73	22.0141
1073.11	33.8644
1076.48	59.4641
1079.86	92.9946
1083.23	126.103
1086.61	148.496
1089.98	111.252
1093.36	51.5844
1096.73	24.4025
1100.11	11.3542
1103.48	7.6066
1106.86	2.17419
1110.23	3.65029
1113.61	2.36496
1116.98	1.22521
1120.36	0.876072
1123.73	1.07586
1127.11	0.177959
1130.48	1.65793
1133.86	0.904402
1137.23	2.69838
1140.6	1.16946
1143.98	0.106899
1147.35	0.72028
1150.73	0.080687
1154.1	1.16342
1157.48	1.58722
1160.85	3.22671
1164.23	1.70047
1167.6	0.015032
1170.98	3.9347
1174.35	2.1477
1177.73	2.8726
1181.1	4.01588
1184.48	4.15679
1187.85	5.73588
1191.23	4.54621
1194.6	3.30527
1197.98	2.82305
1201.35	3.301
1204.73	4.10852
1208.1	3.97342
1211.48	4.57725
1214.85	3.65161
1218.22	1.66426
1221.6	4.39438
1224.97	2.9706
1228.35	1.84772
1231.72	2.66461
1235.1	2.4212
1238.47	0.787212
1241.85	0.862565
1245.22	1.16367
1248.6	1.18333
1251.97	2.38769
1255.35	3.17976
1258.72	1.95274
1262.1	2.86129
1265.47	3.12551
1268.85	1.43623
1272.22	2.45856
1275.6	1.0476
1278.97	0.378601
1282.35	2.89975
1285.72	3.00186
1289.1	2.7996
1292.47	2.00776
1295.85	0.936124
1299.22	1.30695
1302.6	0
